MODEL 1
REMARK VINA RESULT: -5.693717739      0.000      0.000
REMARK  2 active torsions:
REMARK  status: ('A' for Active; 'I' for Inactive)
REMARK    1  A    between atoms: C4_5  and  C5_6 
REMARK    2  A    between atoms: C5_6  and  O2_9 
ROOT
HETATM    1  C1  UNL     1      -6.096   2.349  18.598  1.00  0.00     0.078 C 
HETATM    2  C2  UNL     1      -6.367   2.092  17.134  1.00  0.00     0.158 C 
HETATM    3  C3  UNL     1      -7.821   1.662  16.991  1.00  0.00     0.078 C 
HETATM    4  O1  UNL     1      -6.234   3.288  16.449  1.00  0.00    -0.345 OA
HETATM    5  C4  UNL     1      -5.750   2.878  15.206  1.00  0.00     0.192 C 
HETATM    6  C8  UNL     1      -4.755   1.856  15.601  1.00  0.00     0.086 C 
HETATM    7  C9  UNL     1      -4.417   0.848  14.562  1.00  0.00     0.048 C 
HETATM    8  C10 UNL     1      -3.521   2.397  16.258  1.00  0.00     0.048 C 
HETATM    9  O3  UNL     1      -5.484   1.186  16.612  1.00  0.00    -0.343 OA
ENDROOT
BRANCH   5  10
HETATM   10  C5  UNL     1      -5.221   4.079  14.500  1.00  0.00     0.079 C 
HETATM   11  C6  UNL     1      -6.334   5.112  14.450  1.00  0.00     0.048 C 
HETATM   12  C7  UNL     1      -4.792   3.811  13.084  1.00  0.00     0.048 C 
BRANCH  10  13
HETATM   13  O2  UNL     1      -4.147   4.675  15.154  1.00  0.00    -0.388 OA
ATOM     14  H2  UNL     1      -4.084   5.609  14.999  1.00  0.00     0.210 HD
ENDBRANCH  10  13
ENDBRANCH   5  10
TORSDOF 2
ENDMDL
MODEL 2
REMARK VINA RESULT: -5.598816451      1.712      4.387
REMARK  2 active torsions:
REMARK  status: ('A' for Active; 'I' for Inactive)
REMARK    1  A    between atoms: C4_5  and  C5_6 
REMARK    2  A    between atoms: C5_6  and  O2_9 
ROOT
HETATM    1  C1  UNL     1      -2.922   3.528  11.858  1.00  0.00     0.078 C 
HETATM    2  C2  UNL     1      -4.213   3.115  12.524  1.00  0.00     0.158 C 
HETATM    3  C3  UNL     1      -5.043   2.343  11.506  1.00  0.00     0.078 C 
HETATM    4  O1  UNL     1      -3.914   2.233  13.548  1.00  0.00    -0.345 OA
HETATM    5  C4  UNL     1      -4.905   2.509  14.490  1.00  0.00     0.192 C 
HETATM    6  C8  UNL     1      -4.947   3.988  14.448  1.00  0.00     0.086 C 
HETATM    7  C9  UNL     1      -6.213   4.611  14.917  1.00  0.00     0.048 C 
HETATM    8  C10 UNL     1      -3.751   4.670  15.039  1.00  0.00     0.048 C 
HETATM    9  O3  UNL     1      -4.874   4.192  13.050  1.00  0.00    -0.343 OA
ENDROOT
BRANCH   5  10
HETATM   10  C5  UNL     1      -4.492   1.895  15.784  1.00  0.00     0.079 C 
HETATM   11  C6  UNL     1      -4.380   0.395  15.568  1.00  0.00     0.048 C 
HETATM   12  C7  UNL     1      -5.473   2.116  16.902  1.00  0.00     0.048 C 
BRANCH  10  13
HETATM   13  O2  UNL     1      -3.248   2.332  16.230  1.00  0.00    -0.388 OA
ATOM     14  H2  UNL     1      -2.772   1.674  16.721  1.00  0.00     0.210 HD
ENDBRANCH  10  13
ENDBRANCH   5  10
TORSDOF 2
ENDMDL
MODEL 3
REMARK VINA RESULT: -5.136986314      2.179      4.599
REMARK  2 active torsions:
REMARK  status: ('A' for Active; 'I' for Inactive)
REMARK    1  A    between atoms: C4_5  and  C5_6 
REMARK    2  A    between atoms: C5_6  and  O2_9 
ROOT
HETATM    1  C1  UNL     1      -2.479   2.032  11.344  1.00  0.00     0.078 C 
HETATM    2  C2  UNL     1      -3.828   2.432  11.893  1.00  0.00     0.158 C 
HETATM    3  C3  UNL     1      -4.899   1.696  11.096  1.00  0.00     0.078 C 
HETATM    4  O1  UNL     1      -3.920   1.980  13.198  1.00  0.00    -0.345 OA
HETATM    5  C4  UNL     1      -4.713   2.954  13.805  1.00  0.00     0.192 C 
HETATM    6  C8  UNL     1      -4.145   4.195  13.232  1.00  0.00     0.086 C 
HETATM    7  C9  UNL     1      -5.046   5.378  13.235  1.00  0.00     0.048 C 
HETATM    8  C10 UNL     1      -2.776   4.550  13.727  1.00  0.00     0.048 C 
HETATM    9  O3  UNL     1      -3.991   3.791  11.885  1.00  0.00    -0.343 OA
ENDROOT
BRANCH   5  10
HETATM   10  C5  UNL     1      -4.591   2.791  15.282  1.00  0.00     0.079 C 
HETATM   11  C6  UNL     1      -4.670   1.304  15.590  1.00  0.00     0.048 C 
HETATM   12  C7  UNL     1      -5.684   3.469  16.060  1.00  0.00     0.048 C 
BRANCH  10  13
HETATM   13  O2  UNL     1      -3.377   3.243  15.789  1.00  0.00    -0.388 OA
ATOM     14  H2  UNL     1      -3.299   4.190  15.789  1.00  0.00     0.210 HD
ENDBRANCH  10  13
ENDBRANCH   5  10
TORSDOF 2
ENDMDL
MODEL 4
REMARK VINA RESULT: -5.126927408      1.646      2.963
REMARK  2 active torsions:
REMARK  status: ('A' for Active; 'I' for Inactive)
REMARK    1  A    between atoms: C4_5  and  C5_6 
REMARK    2  A    between atoms: C5_6  and  O2_9 
ROOT
HETATM    1  C1  UNL     1      -7.305   2.351  16.601  1.00  0.00     0.078 C 
HETATM    2  C2  UNL     1      -5.839   2.483  16.261  1.00  0.00     0.158 C 
HETATM    3  C3  UNL     1      -5.045   1.648  17.259  1.00  0.00     0.078 C 
HETATM    4  O1  UNL     1      -5.628   1.922  15.013  1.00  0.00    -0.345 OA
HETATM    5  C4  UNL     1      -4.595   2.705  14.495  1.00  0.00     0.192 C 
HETATM    6  C8  UNL     1      -5.022   4.062  14.904  1.00  0.00     0.086 C 
HETATM    7  C9  UNL     1      -3.942   5.080  14.988  1.00  0.00     0.048 C 
HETATM    8  C10 UNL     1      -6.218   4.594  14.173  1.00  0.00     0.048 C 
HETATM    9  O3  UNL     1      -5.448   3.794  16.226  1.00  0.00    -0.343 OA
ENDROOT
BRANCH   5  10
HETATM   10  C5  UNL     1      -4.516   2.449  13.029  1.00  0.00     0.079 C 
HETATM   11  C6  UNL     1      -4.215   0.972  12.834  1.00  0.00     0.048 C 
HETATM   12  C7  UNL     1      -3.431   3.225  12.336  1.00  0.00     0.048 C 
BRANCH  10  13
HETATM   13  O2  UNL     1      -5.707   2.709  12.358  1.00  0.00    -0.388 OA
ATOM     14  H2  UNL     1      -6.151   3.490  12.668  1.00  0.00     0.210 HD
ENDBRANCH  10  13
ENDBRANCH   5  10
TORSDOF 2
ENDMDL
MODEL 5
REMARK VINA RESULT: -5.105214507      3.721      5.378
REMARK  2 active torsions:
REMARK  status: ('A' for Active; 'I' for Inactive)
REMARK    1  A    between atoms: C4_5  and  C5_6 
REMARK    2  A    between atoms: C5_6  and  O2_9 
ROOT
HETATM    1  C1  UNL     1      -2.230   0.712  11.270  1.00  0.00     0.078 C 
HETATM    2  C2  UNL     1      -3.246   1.813  11.460  1.00  0.00     0.158 C 
HETATM    3  C3  UNL     1      -4.617   1.169  11.621  1.00  0.00     0.078 C 
HETATM    4  O1  UNL     1      -2.968   2.464  12.649  1.00  0.00    -0.345 OA
HETATM    5  C4  UNL     1      -3.360   3.776  12.381  1.00  0.00     0.192 C 
HETATM    6  C8  UNL     1      -2.833   3.966  11.011  1.00  0.00     0.086 C 
HETATM    7  C9  UNL     1      -3.494   5.028  10.207  1.00  0.00     0.048 C 
HETATM    8  C10 UNL     1      -1.341   4.057  10.915  1.00  0.00     0.048 C 
HETATM    9  O3  UNL     1      -3.196   2.723  10.439  1.00  0.00    -0.343 OA
ENDROOT
BRANCH   5  10
HETATM   10  C5  UNL     1      -2.783   4.653  13.439  1.00  0.00     0.079 C 
HETATM   11  C6  UNL     1      -3.468   4.306  14.751  1.00  0.00     0.048 C 
HETATM   12  C7  UNL     1      -2.998   6.121  13.194  1.00  0.00     0.048 C 
BRANCH  10  13
HETATM   13  O2  UNL     1      -1.419   4.460  13.633  1.00  0.00    -0.388 OA
ATOM     14  H2  UNL     1      -0.878   4.966  13.039  1.00  0.00     0.210 HD
ENDBRANCH  10  13
ENDBRANCH   5  10
TORSDOF 2
ENDMDL
