MODEL 1
REMARK VINA RESULT: -6.381105391      0.000      0.000
REMARK  3 active torsions:
REMARK  status: ('A' for Active; 'I' for Inactive)
REMARK    1  A    between atoms: C2_2  and  C8_11 
REMARK       I    between atoms: N1_3  and  C3_5 
REMARK    2  A    between atoms: C3_5  and  C4_7 
REMARK    3  A    between atoms: C8_11  and  N2_12 
ROOT
HETATM    1  C8  UNL     1      -3.493   4.488  13.853  1.00  0.00     0.334 C 
HETATM    2  C9  UNL     1      -4.474   5.275  13.117  1.00  0.00     0.098 C 
HETATM    3  N3  UNL     1      -5.250   5.916  12.537  1.00  0.00    -0.195 NA
ENDROOT
BRANCH   1   4
HETATM    4  C2  UNL     1      -4.196   3.474  14.675  1.00  0.00     0.029 C 
HETATM    5  C1  UNL     1      -4.913   2.423  13.916  1.00  0.00     0.066 C 
HETATM    6  N1  UNL     1      -4.215   3.460  15.939  1.00  0.00    -0.331 N 
HETATM    7  C3  UNL     1      -4.889   2.487  16.698  1.00  0.00     0.229 C 
ATOM      8  H1  UNL     1      -3.713   4.195  16.436  1.00  0.00     0.168 HD
HETATM    9  O1  UNL     1      -4.276   1.396  16.872  1.00  0.00    -0.272 OA
BRANCH   7  10
HETATM   10  C4  UNL     1      -6.217   2.636  17.289  1.00  0.00     0.030 C 
HETATM   11  C5  UNL     1      -6.819   3.994  16.917  1.00  0.00     0.025 C 
HETATM   12  C6  UNL     1      -7.225   1.598  16.854  1.00  0.00     0.025 C 
HETATM   13  C7  UNL     1      -6.117   2.537  18.794  1.00  0.00     0.025 C 
ENDBRANCH   7  10
ENDBRANCH   1   4
BRANCH   1  14
HETATM   14  N2  UNL     1      -2.490   3.942  12.996  1.00  0.00    -0.057 N 
ATOM     15  H23 UNL     1      -2.608   2.932  12.904  1.00  0.00     0.276 HD
ATOM     16  H22 UNL     1      -2.653   4.222  12.029  1.00  0.00     0.276 HD
ATOM     17  H21 UNL     1      -1.537   4.168  13.281  1.00  0.00     0.276 HD
ENDBRANCH   1  14
TORSDOF 3
ENDMDL
MODEL 2
REMARK VINA RESULT: -6.375506284      0.071      1.169
REMARK  3 active torsions:
REMARK  status: ('A' for Active; 'I' for Inactive)
REMARK    1  A    between atoms: C2_2  and  C8_11 
REMARK       I    between atoms: N1_3  and  C3_5 
REMARK    2  A    between atoms: C3_5  and  C4_7 
REMARK    3  A    between atoms: C8_11  and  N2_12 
ROOT
HETATM    1  C8  UNL     1      -3.461   4.507  13.884  1.00  0.00     0.334 C 
HETATM    2  C9  UNL     1      -4.425   5.263  13.095  1.00  0.00     0.098 C 
HETATM    3  N3  UNL     1      -5.189   5.879  12.474  1.00  0.00    -0.195 NA
ENDROOT
BRANCH   1   4
HETATM    4  C2  UNL     1      -4.179   3.491  14.693  1.00  0.00     0.029 C 
HETATM    5  C1  UNL     1      -4.927   2.473  13.920  1.00  0.00     0.066 C 
HETATM    6  N1  UNL     1      -4.185   3.451  15.956  1.00  0.00    -0.331 N 
HETATM    7  C3  UNL     1      -4.874   2.478  16.702  1.00  0.00     0.229 C 
ATOM      8  H1  UNL     1      -3.662   4.165  16.463  1.00  0.00     0.168 HD
HETATM    9  O1  UNL     1      -4.283   1.371  16.847  1.00  0.00    -0.272 OA
BRANCH   7  10
HETATM   10  C4  UNL     1      -6.192   2.644  17.310  1.00  0.00     0.030 C 
HETATM   11  C5  UNL     1      -6.091   2.580  18.837  1.00  0.00     0.025 C 
HETATM   12  C6  UNL     1      -6.877   3.953  16.990  1.00  0.00     0.025 C 
HETATM   13  C7  UNL     1      -7.114   1.546  16.831  1.00  0.00     0.025 C 
ENDBRANCH   7  10
ENDBRANCH   1   4
BRANCH   1  14
HETATM   14  N2  UNL     1      -2.413   3.967  13.079  1.00  0.00    -0.057 N 
ATOM     15  H23 UNL     1      -2.797   3.392  12.329  1.00  0.00     0.276 HD
ATOM     16  H22 UNL     1      -1.973   4.701  12.524  1.00  0.00     0.276 HD
ATOM     17  H21 UNL     1      -1.713   3.447  13.608  1.00  0.00     0.276 HD
ENDBRANCH   1  14
TORSDOF 3
ENDMDL
MODEL 3
REMARK VINA RESULT: -6.372026604      0.065      1.187
REMARK  3 active torsions:
REMARK  status: ('A' for Active; 'I' for Inactive)
REMARK    1  A    between atoms: C2_2  and  C8_11 
REMARK       I    between atoms: N1_3  and  C3_5 
REMARK    2  A    between atoms: C3_5  and  C4_7 
REMARK    3  A    between atoms: C8_11  and  N2_12 
ROOT
HETATM    1  C8  UNL     1      -3.505   4.483  13.852  1.00  0.00     0.334 C 
HETATM    2  C9  UNL     1      -4.494   5.237  13.093  1.00  0.00     0.098 C 
HETATM    3  N3  UNL     1      -5.277   5.853  12.496  1.00  0.00    -0.195 NA
ENDROOT
BRANCH   1   4
HETATM    4  C2  UNL     1      -4.195   3.466  14.681  1.00  0.00     0.029 C 
HETATM    5  C1  UNL     1      -4.924   2.418  13.931  1.00  0.00     0.066 C 
HETATM    6  N1  UNL     1      -4.194   3.448  15.945  1.00  0.00    -0.331 N 
HETATM    7  C3  UNL     1      -4.857   2.472  16.712  1.00  0.00     0.229 C 
ATOM      8  H1  UNL     1      -3.684   4.181  16.437  1.00  0.00     0.168 HD
HETATM    9  O1  UNL     1      -4.241   1.381  16.873  1.00  0.00    -0.272 OA
BRANCH   7  10
HETATM   10  C4  UNL     1      -6.175   2.620  17.324  1.00  0.00     0.030 C 
HETATM   11  C5  UNL     1      -7.105   1.489  16.873  1.00  0.00     0.025 C 
HETATM   12  C6  UNL     1      -6.180   2.590  18.834  1.00  0.00     0.025 C 
HETATM   13  C7  UNL     1      -6.779   3.945  16.916  1.00  0.00     0.025 C 
ENDBRANCH   7  10
ENDBRANCH   1   4
BRANCH   1  14
HETATM   14  N2  UNL     1      -2.481   3.945  13.014  1.00  0.00    -0.057 N 
ATOM     15  H23 UNL     1      -1.575   3.988  13.482  1.00  0.00     0.276 HD
ATOM     16  H22 UNL     1      -2.582   2.934  12.928  1.00  0.00     0.276 HD
ATOM     17  H21 UNL     1      -2.431   4.381  12.093  1.00  0.00     0.276 HD
ENDBRANCH   1  14
TORSDOF 3
ENDMDL
MODEL 4
REMARK VINA RESULT: -6.154910172      1.035      1.445
REMARK  3 active torsions:
REMARK  status: ('A' for Active; 'I' for Inactive)
REMARK    1  A    between atoms: C2_2  and  C8_11 
REMARK       I    between atoms: N1_3  and  C3_5 
REMARK    2  A    between atoms: C3_5  and  C4_7 
REMARK    3  A    between atoms: C8_11  and  N2_12 
ROOT
HETATM    1  C8  UNL     1      -3.533   4.543  13.830  1.00  0.00     0.334 C 
HETATM    2  C9  UNL     1      -2.711   3.881  12.825  1.00  0.00     0.098 C 
HETATM    3  N3  UNL     1      -2.064   3.362  12.012  1.00  0.00    -0.195 NA
ENDROOT
BRANCH   1   4
HETATM    4  C2  UNL     1      -4.221   3.518  14.652  1.00  0.00     0.029 C 
HETATM    5  C1  UNL     1      -4.938   2.467  13.893  1.00  0.00     0.066 C 
HETATM    6  N1  UNL     1      -4.227   3.495  15.916  1.00  0.00    -0.331 N 
HETATM    7  C3  UNL     1      -4.888   2.513  16.675  1.00  0.00     0.229 C 
ATOM      8  H1  UNL     1      -3.726   4.231  16.413  1.00  0.00     0.168 HD
HETATM    9  O1  UNL     1      -4.265   1.425  16.836  1.00  0.00    -0.272 OA
BRANCH   7  10
HETATM   10  C4  UNL     1      -6.211   2.649  17.279  1.00  0.00     0.030 C 
HETATM   11  C5  UNL     1      -6.812   4.019  16.950  1.00  0.00     0.025 C 
HETATM   12  C6  UNL     1      -7.225   1.626  16.821  1.00  0.00     0.025 C 
HETATM   13  C7  UNL     1      -6.101   2.506  18.780  1.00  0.00     0.025 C 
ENDBRANCH   7  10
ENDBRANCH   1   4
BRANCH   1  14
HETATM   14  N2  UNL     1      -2.787   5.490  14.596  1.00  0.00    -0.057 N 
ATOM     15  H23 UNL     1      -2.778   6.399  14.133  1.00  0.00     0.276 HD
ATOM     16  H22 UNL     1      -3.288   5.737  15.448  1.00  0.00     0.276 HD
ATOM     17  H21 UNL     1      -1.837   5.187  14.812  1.00  0.00     0.276 HD
ENDBRANCH   1  14
TORSDOF 3
ENDMDL
MODEL 5
REMARK VINA RESULT: -6.000189640      1.878      2.246
REMARK  3 active torsions:
REMARK  status: ('A' for Active; 'I' for Inactive)
REMARK    1  A    between atoms: C2_2  and  C8_11 
REMARK       I    between atoms: N1_3  and  C3_5 
REMARK    2  A    between atoms: C3_5  and  C4_7 
REMARK    3  A    between atoms: C8_11  and  N2_12 
ROOT
HETATM    1  C8  UNL     1      -4.125   3.789  12.952  1.00  0.00     0.334 C 
HETATM    2  C9  UNL     1      -4.920   2.873  12.144  1.00  0.00     0.098 C 
HETATM    3  N3  UNL     1      -5.557   2.155  11.490  1.00  0.00    -0.195 NA
ENDROOT
BRANCH   1   4
HETATM    4  C2  UNL     1      -4.633   3.781  14.345  1.00  0.00     0.029 C 
HETATM    5  C1  UNL     1      -3.665   4.213  15.380  1.00  0.00     0.066 C 
HETATM    6  N1  UNL     1      -5.802   3.437  14.682  1.00  0.00    -0.331 N 
HETATM    7  C3  UNL     1      -6.262   3.436  16.011  1.00  0.00     0.229 C 
ATOM      8  H1  UNL     1      -6.447   3.144  13.949  1.00  0.00     0.168 HD
HETATM    9  O1  UNL     1      -6.650   4.550  16.463  1.00  0.00    -0.272 OA
BRANCH   7  10
HETATM   10  C4  UNL     1      -6.324   2.272  16.891  1.00  0.00     0.030 C 
HETATM   11  C5  UNL     1      -7.700   1.606  16.802  1.00  0.00     0.025 C 
HETATM   12  C6  UNL     1      -5.315   1.191  16.583  1.00  0.00     0.025 C 
HETATM   13  C7  UNL     1      -6.076   2.701  18.320  1.00  0.00     0.025 C 
ENDBRANCH   7  10
ENDBRANCH   1   4
BRANCH   1  14
HETATM   14  N2  UNL     1      -2.726   3.523  12.847  1.00  0.00    -0.057 N 
ATOM     15  H23 UNL     1      -2.252   4.280  12.353  1.00  0.00     0.276 HD
ATOM     16  H22 UNL     1      -2.276   3.605  13.758  1.00  0.00     0.276 HD
ATOM     17  H21 UNL     1      -2.509   2.623  12.418  1.00  0.00     0.276 HD
ENDBRANCH   1  14
TORSDOF 3
ENDMDL
