MODEL 1
REMARK VINA RESULT: -10.495893526      0.000      0.000
REMARK  8 active torsions:
REMARK  status: ('A' for Active; 'I' for Inactive)
REMARK    1  A    between atoms: C2_2  and  N1_3 
REMARK    2  A    between atoms: C3_6  and  C4_7 
REMARK    3  A    between atoms: C4_7  and  C5_9 
REMARK    4  A    between atoms: C6_15  and  C7_16 
REMARK    5  A    between atoms: C7_16  and  C8_17 
REMARK    6  A    between atoms: C8_17  and  C9_18 
REMARK    7  A    between atoms: C9_18  and  N5_19 
REMARK       I    between atoms: N5_19  and  C10_21 
REMARK    8  A    between atoms: C10_21  and  C11_23 
ROOT
HETATM    1  C5  UNL     1      66.283  35.751  40.172  1.00  0.00     0.115 A 
HETATM    2  N3  UNL     1      65.231  36.486  40.376  1.00  0.00    -0.290 N 
ATOM      3  H3  UNL     1      65.030  37.264  39.748  1.00  0.00     0.187 HD
HETATM    4  N4  UNL     1      64.433  36.243  41.366  1.00  0.00    -0.269 N 
ATOM      5  H4  UNL     1      63.584  36.740  41.630  1.00  0.00     0.195 HD
HETATM    6  S1  UNL     1      65.134  34.911  42.110  1.00  0.00    -0.001 SA
HETATM    7  C6  UNL     1      66.478  34.713  41.076  1.00  0.00     0.033 A 
ENDROOT
BRANCH   7   8
HETATM    8  C7  UNL     1      67.582  33.695  41.041  1.00  0.00     0.052 C 
BRANCH   8   9
HETATM    9  C8  UNL     1      66.993  32.405  40.426  1.00  0.00     0.025 C 
BRANCH   9  10
HETATM   10  C9  UNL     1      67.225  31.260  41.347  1.00  0.00     0.123 C 
BRANCH  10  11
HETATM   11  N5  UNL     1      66.011  30.841  42.024  1.00  0.00    -0.357 N 
HETATM   12  C10 UNL     1      65.712  31.285  43.318  1.00  0.00     0.258 C 
HETATM   13  O2  UNL     1      66.583  32.059  43.856  1.00  0.00    -0.267 OA
ATOM     14  H5  UNL     1      65.363  30.212  41.548  1.00  0.00     0.162 HD
BRANCH  12  15
HETATM   15  C11 UNL     1      64.560  30.989  44.138  1.00  0.00     0.115 A 
HETATM   16  C12 UNL     1      63.284  31.339  43.644  1.00  0.00     0.176 A 
HETATM   17  F1  UNL     1      63.195  31.951  42.441  1.00  0.00    -0.202 F 
HETATM   18  C13 UNL     1      62.134  31.085  44.347  1.00  0.00     0.197 A 
HETATM   19  F2  UNL     1      60.919  31.437  43.828  1.00  0.00    -0.199 F 
HETATM   20  C14 UNL     1      62.188  30.474  45.568  1.00  0.00     0.199 A 
HETATM   21  F3  UNL     1      61.061  30.213  46.294  1.00  0.00    -0.199 F 
HETATM   22  C15 UNL     1      63.413  30.129  46.061  1.00  0.00     0.197 A 
HETATM   23  F4  UNL     1      63.532  29.513  47.276  1.00  0.00    -0.199 F 
HETATM   24  C16 UNL     1      64.610  30.374  45.369  1.00  0.00     0.176 A 
HETATM   25  F5  UNL     1      65.780  29.993  45.918  1.00  0.00    -0.202 F 
ENDBRANCH  12  15
ENDBRANCH  10  11
ENDBRANCH   9  10
ENDBRANCH   8   9
ENDBRANCH   7   8
BRANCH   1  26
HETATM   26  C4  UNL     1      67.256  35.991  39.091  1.00  0.00     0.230 C 
HETATM   27  O1  UNL     1      67.370  35.090  38.203  1.00  0.00    -0.283 OA
BRANCH  26  28
HETATM   28  C3  UNL     1      68.084  37.184  38.990  1.00  0.00     0.126 A 
HETATM   29  N2  UNL     1      69.380  37.295  39.421  1.00  0.00    -0.292 N 
HETATM   30  N1  UNL     1      69.865  38.485  39.171  1.00  0.00    -0.279 N 
ATOM     31  H2  UNL     1      69.901  36.546  39.877  1.00  0.00     0.187 HD
HETATM   32  C18 UNL     1      68.923  39.215  38.569  1.00  0.00     0.144 A 
HETATM   33  C17 UNL     1      67.784  38.408  38.444  1.00  0.00     0.106 A 
HETATM   34 CL2  UNL     1      69.021  40.872  38.004  1.00  0.00    -0.061 Cl
HETATM   35 CL1  UNL     1      66.282  38.911  37.706  1.00  0.00    -0.078 Cl
BRANCH  30  36
HETATM   36  C2  UNL     1      71.228  38.947  39.496  1.00  0.00     0.146 C 
HETATM   37  C1  UNL     1      72.131  38.777  38.309  1.00  0.00     0.028 C 
ENDBRANCH  30  36
ENDBRANCH  26  28
ENDBRANCH   1  26
TORSDOF 8
ENDMDL
MODEL 2
REMARK VINA RESULT: -10.470196595      3.045      4.410
REMARK  8 active torsions:
REMARK  status: ('A' for Active; 'I' for Inactive)
REMARK    1  A    between atoms: C2_2  and  N1_3 
REMARK    2  A    between atoms: C3_6  and  C4_7 
REMARK    3  A    between atoms: C4_7  and  C5_9 
REMARK    4  A    between atoms: C6_15  and  C7_16 
REMARK    5  A    between atoms: C7_16  and  C8_17 
REMARK    6  A    between atoms: C8_17  and  C9_18 
REMARK    7  A    between atoms: C9_18  and  N5_19 
REMARK       I    between atoms: N5_19  and  C10_21 
REMARK    8  A    between atoms: C10_21  and  C11_23 
ROOT
HETATM    1  C5  UNL     1      67.881  38.984  38.311  1.00  0.00     0.115 A 
HETATM    2  N3  UNL     1      66.798  39.701  38.268  1.00  0.00    -0.290 N 
ATOM      3  H3  UNL     1      66.808  40.651  38.637  1.00  0.00     0.187 HD
HETATM    4  N4  UNL     1      65.706  39.224  37.763  1.00  0.00    -0.269 N 
ATOM      5  H4  UNL     1      64.799  39.681  37.672  1.00  0.00     0.195 HD
HETATM    6  S1  UNL     1      66.142  37.672  37.294  1.00  0.00    -0.001 SA
HETATM    7  C6  UNL     1      67.776  37.701  37.785  1.00  0.00     0.033 A 
ENDROOT
BRANCH   7   8
HETATM    8  C7  UNL     1      68.883  36.691  37.670  1.00  0.00     0.052 C 
BRANCH   8   9
HETATM    9  C8  UNL     1      68.383  35.391  38.341  1.00  0.00     0.025 C 
BRANCH   9  10
HETATM   10  C9  UNL     1      68.071  35.655  39.773  1.00  0.00     0.123 C 
BRANCH  10  11
HETATM   11  N5  UNL     1      66.936  34.881  40.242  1.00  0.00    -0.357 N 
HETATM   12  C10 UNL     1      67.094  33.868  41.196  1.00  0.00     0.258 C 
HETATM   13  O2  UNL     1      68.294  33.668  41.602  1.00  0.00    -0.267 OA
ATOM     14  H5  UNL     1      66.007  35.079  39.870  1.00  0.00     0.162 HD
BRANCH  12  15
HETATM   15  C11 UNL     1      66.092  33.010  41.786  1.00  0.00     0.115 A 
HETATM   16  C12 UNL     1      65.910  31.723  41.233  1.00  0.00     0.176 A 
HETATM   17  F1  UNL     1      66.662  31.356  40.170  1.00  0.00    -0.202 F 
HETATM   18  C13 UNL     1      64.992  30.836  41.735  1.00  0.00     0.197 A 
HETATM   19  F2  UNL     1      64.853  29.598  41.171  1.00  0.00    -0.199 F 
HETATM   20  C14 UNL     1      64.212  31.176  42.803  1.00  0.00     0.199 A 
HETATM   21  F3  UNL     1      63.285  30.317  43.322  1.00  0.00    -0.199 F 
HETATM   22  C15 UNL     1      64.374  32.416  43.350  1.00  0.00     0.197 A 
HETATM   23  F4  UNL     1      63.624  32.814  44.423  1.00  0.00    -0.199 F 
HETATM   24  C16 UNL     1      65.303  33.348  42.863  1.00  0.00     0.176 A 
HETATM   25  F5  UNL     1      65.411  34.549  43.464  1.00  0.00    -0.202 F 
ENDBRANCH  12  15
ENDBRANCH  10  11
ENDBRANCH   9  10
ENDBRANCH   8   9
ENDBRANCH   7   8
BRANCH   1  26
HETATM   26  C4  UNL     1      69.148  39.445  38.906  1.00  0.00     0.230 C 
HETATM   27  O1  UNL     1      69.353  39.160  40.127  1.00  0.00    -0.283 OA
BRANCH  26  28
HETATM   28  C3  UNL     1      70.161  40.200  38.183  1.00  0.00     0.126 A 
HETATM   29  N2  UNL     1      69.972  41.417  37.582  1.00  0.00    -0.292 N 
HETATM   30  N1  UNL     1      71.076  41.853  37.031  1.00  0.00    -0.279 N 
ATOM     31  H2  UNL     1      69.084  41.920  37.567  1.00  0.00     0.187 HD
HETATM   32  C18 UNL     1      72.043  40.955  37.236  1.00  0.00     0.144 A 
HETATM   33  C17 UNL     1      71.483  39.897  37.966  1.00  0.00     0.106 A 
HETATM   34 CL2  UNL     1      73.719  41.021  36.728  1.00  0.00    -0.061 Cl
HETATM   35 CL1  UNL     1      72.356  38.478  38.492  1.00  0.00    -0.078 Cl
BRANCH  30  36
HETATM   36  C2  UNL     1      71.233  43.128  36.305  1.00  0.00     0.146 C 
HETATM   37  C1  UNL     1      70.713  42.993  34.903  1.00  0.00     0.028 C 
ENDBRANCH  30  36
ENDBRANCH  26  28
ENDBRANCH   1  26
TORSDOF 8
ENDMDL
MODEL 3
REMARK VINA RESULT: -10.429595235      3.360      4.611
REMARK  8 active torsions:
REMARK  status: ('A' for Active; 'I' for Inactive)
REMARK    1  A    between atoms: C2_2  and  N1_3 
REMARK    2  A    between atoms: C3_6  and  C4_7 
REMARK    3  A    between atoms: C4_7  and  C5_9 
REMARK    4  A    between atoms: C6_15  and  C7_16 
REMARK    5  A    between atoms: C7_16  and  C8_17 
REMARK    6  A    between atoms: C8_17  and  C9_18 
REMARK    7  A    between atoms: C9_18  and  N5_19 
REMARK       I    between atoms: N5_19  and  C10_21 
REMARK    8  A    between atoms: C10_21  and  C11_23 
ROOT
HETATM    1  C5  UNL     1      67.876  38.949  38.352  1.00  0.00     0.115 A 
HETATM    2  N3  UNL     1      66.816  39.695  38.263  1.00  0.00    -0.290 N 
ATOM      3  H3  UNL     1      66.851  40.660  38.591  1.00  0.00     0.187 HD
HETATM    4  N4  UNL     1      65.717  39.230  37.763  1.00  0.00    -0.269 N 
ATOM      5  H4  UNL     1      64.826  39.710  37.640  1.00  0.00     0.195 HD
HETATM    6  S1  UNL     1      66.110  37.647  37.367  1.00  0.00    -0.001 SA
HETATM    7  C6  UNL     1      67.739  37.648  37.880  1.00  0.00     0.033 A 
ENDROOT
BRANCH   7   8
HETATM    8  C7  UNL     1      68.814  36.600  37.825  1.00  0.00     0.052 C 
BRANCH   8   9
HETATM    9  C8  UNL     1      68.236  35.319  38.467  1.00  0.00     0.025 C 
BRANCH   9  10
HETATM   10  C9  UNL     1      67.887  35.586  39.889  1.00  0.00     0.123 C 
BRANCH  10  11
HETATM   11  N5  UNL     1      66.489  35.321  40.174  1.00  0.00    -0.357 N 
HETATM   12  C10 UNL     1      66.106  34.571  41.293  1.00  0.00     0.258 C 
HETATM   13  O2  UNL     1      67.066  34.129  42.022  1.00  0.00    -0.267 OA
ATOM     14  H5  UNL     1      65.771  35.688  39.549  1.00  0.00     0.162 HD
BRANCH  12  15
HETATM   15  C11 UNL     1      64.778  34.218  41.741  1.00  0.00     0.115 A 
HETATM   16  C12 UNL     1      64.328  32.899  41.512  1.00  0.00     0.176 A 
HETATM   17  F1  UNL     1      65.143  32.033  40.868  1.00  0.00    -0.202 F 
HETATM   18  C13 UNL     1      63.088  32.472  41.913  1.00  0.00     0.197 A 
HETATM   19  F2  UNL     1      62.695  31.184  41.674  1.00  0.00    -0.199 F 
HETATM   20  C14 UNL     1      62.236  33.322  42.559  1.00  0.00     0.199 A 
HETATM   21  F3  UNL     1      60.994  32.927  42.965  1.00  0.00    -0.199 F 
HETATM   22  C15 UNL     1      62.656  34.601  42.789  1.00  0.00     0.197 A 
HETATM   23  F4  UNL     1      61.849  35.498  43.433  1.00  0.00    -0.199 F 
HETATM   24  C16 UNL     1      63.916  35.072  42.393  1.00  0.00     0.176 A 
HETATM   25  F5  UNL     1      64.261  36.345  42.666  1.00  0.00    -0.202 F 
ENDBRANCH  12  15
ENDBRANCH  10  11
ENDBRANCH   9  10
ENDBRANCH   8   9
ENDBRANCH   7   8
BRANCH   1  26
HETATM   26  C4  UNL     1      69.149  39.396  38.945  1.00  0.00     0.230 C 
HETATM   27  O1  UNL     1      69.358  39.099  40.162  1.00  0.00    -0.283 OA
BRANCH  26  28
HETATM   28  C3  UNL     1      70.163  40.151  38.224  1.00  0.00     0.126 A 
HETATM   29  N2  UNL     1      69.975  41.371  37.627  1.00  0.00    -0.292 N 
HETATM   30  N1  UNL     1      71.080  41.807  37.077  1.00  0.00    -0.279 N 
ATOM     31  H2  UNL     1      69.088  41.875  37.614  1.00  0.00     0.187 HD
HETATM   32  C18 UNL     1      72.046  40.906  37.279  1.00  0.00     0.144 A 
HETATM   33  C17 UNL     1      71.484  39.847  38.006  1.00  0.00     0.106 A 
HETATM   34 CL2  UNL     1      73.722  40.971  36.771  1.00  0.00    -0.061 Cl
HETATM   35 CL1  UNL     1      72.355  38.426  38.528  1.00  0.00    -0.078 Cl
BRANCH  30  36
HETATM   36  C2  UNL     1      71.239  43.083  36.354  1.00  0.00     0.146 C 
HETATM   37  C1  UNL     1      70.711  42.956  34.954  1.00  0.00     0.028 C 
ENDBRANCH  30  36
ENDBRANCH  26  28
ENDBRANCH   1  26
TORSDOF 8
ENDMDL
MODEL 4
REMARK VINA RESULT: -10.379317264      0.150      1.849
REMARK  8 active torsions:
REMARK  status: ('A' for Active; 'I' for Inactive)
REMARK    1  A    between atoms: C2_2  and  N1_3 
REMARK    2  A    between atoms: C3_6  and  C4_7 
REMARK    3  A    between atoms: C4_7  and  C5_9 
REMARK    4  A    between atoms: C6_15  and  C7_16 
REMARK    5  A    between atoms: C7_16  and  C8_17 
REMARK    6  A    between atoms: C8_17  and  C9_18 
REMARK    7  A    between atoms: C9_18  and  N5_19 
REMARK       I    between atoms: N5_19  and  C10_21 
REMARK    8  A    between atoms: C10_21  and  C11_23 
ROOT
HETATM    1  C5  UNL     1      66.370  35.748  40.113  1.00  0.00     0.115 A 
HETATM    2  N3  UNL     1      65.328  36.489  40.347  1.00  0.00    -0.290 N 
ATOM      3  H3  UNL     1      65.137  37.292  39.748  1.00  0.00     0.187 HD
HETATM    4  N4  UNL     1      64.530  36.222  41.329  1.00  0.00    -0.269 N 
ATOM      5  H4  UNL     1      63.688  36.721  41.614  1.00  0.00     0.195 HD
HETATM    6  S1  UNL     1      65.214  34.854  42.023  1.00  0.00    -0.001 SA
HETATM    7  C6  UNL     1      66.552  34.675  40.978  1.00  0.00     0.033 A 
ENDROOT
BRANCH   7   8
HETATM    8  C7  UNL     1      67.642  33.643  40.903  1.00  0.00     0.052 C 
BRANCH   8   9
HETATM    9  C8  UNL     1      67.017  32.364  40.303  1.00  0.00     0.025 C 
BRANCH   9  10
HETATM   10  C9  UNL     1      67.171  31.234  41.260  1.00  0.00     0.123 C 
BRANCH  10  11
HETATM   11  N5  UNL     1      65.914  30.862  41.882  1.00  0.00    -0.357 N 
HETATM   12  C10 UNL     1      65.601  31.268  43.186  1.00  0.00     0.258 C 
HETATM   13  O2  UNL     1      66.500  31.963  43.783  1.00  0.00    -0.267 OA
ATOM     14  H5  UNL     1      65.245  30.294  41.361  1.00  0.00     0.162 HD
BRANCH  12  15
HETATM   15  C11 UNL     1      64.408  31.007  43.959  1.00  0.00     0.115 A 
HETATM   16  C12 UNL     1      64.555  30.384  45.218  1.00  0.00     0.176 A 
HETATM   17  F1  UNL     1      65.794  30.039  45.636  1.00  0.00    -0.202 F 
HETATM   18  C13 UNL     1      63.480  30.109  46.025  1.00  0.00     0.197 A 
HETATM   19  F2  UNL     1      63.669  29.507  47.238  1.00  0.00    -0.199 F 
HETATM   20  C14 UNL     1      62.214  30.436  45.630  1.00  0.00     0.199 A 
HETATM   21  F3  UNL     1      61.124  30.171  46.409  1.00  0.00    -0.199 F 
HETATM   22  C15 UNL     1      62.055  31.040  44.416  1.00  0.00     0.197 A 
HETATM   23  F4  UNL     1      60.813  31.395  43.967  1.00  0.00    -0.199 F 
HETATM   24  C16 UNL     1      63.130  31.336  43.565  1.00  0.00     0.176 A 
HETATM   25  F5  UNL     1      62.892  31.943  42.386  1.00  0.00    -0.202 F 
ENDBRANCH  12  15
ENDBRANCH  10  11
ENDBRANCH   9  10
ENDBRANCH   8   9
ENDBRANCH   7   8
BRANCH   1  26
HETATM   26  C4  UNL     1      67.343  36.013  39.040  1.00  0.00     0.230 C 
HETATM   27  O1  UNL     1      67.501  35.108  38.162  1.00  0.00    -0.283 OA
BRANCH  26  28
HETATM   28  C3  UNL     1      68.126  37.236  38.933  1.00  0.00     0.126 A 
HETATM   29  N2  UNL     1      69.427  37.389  39.338  1.00  0.00    -0.292 N 
HETATM   30  N1  UNL     1      69.864  38.597  39.090  1.00  0.00    -0.279 N 
ATOM     31  H2  UNL     1      69.983  36.654  39.776  1.00  0.00     0.187 HD
HETATM   32  C18 UNL     1      68.884  39.299  38.515  1.00  0.00     0.144 A 
HETATM   33  C17 UNL     1      67.772  38.453  38.405  1.00  0.00     0.106 A 
HETATM   34 CL2  UNL     1      68.912  40.963  37.965  1.00  0.00    -0.061 Cl
HETATM   35 CL1  UNL     1      66.238  38.909  37.703  1.00  0.00    -0.078 Cl
BRANCH  30  36
HETATM   36  C2  UNL     1      71.216  39.105  39.392  1.00  0.00     0.146 C 
HETATM   37  C1  UNL     1      72.166  38.740  38.288  1.00  0.00     0.028 C 
ENDBRANCH  30  36
ENDBRANCH  26  28
ENDBRANCH   1  26
TORSDOF 8
ENDMDL
MODEL 5
REMARK VINA RESULT: -10.377191213      3.378      4.548
REMARK  8 active torsions:
REMARK  status: ('A' for Active; 'I' for Inactive)
REMARK    1  A    between atoms: C2_2  and  N1_3 
REMARK    2  A    between atoms: C3_6  and  C4_7 
REMARK    3  A    between atoms: C4_7  and  C5_9 
REMARK    4  A    between atoms: C6_15  and  C7_16 
REMARK    5  A    between atoms: C7_16  and  C8_17 
REMARK    6  A    between atoms: C8_17  and  C9_18 
REMARK    7  A    between atoms: C9_18  and  N5_19 
REMARK       I    between atoms: N5_19  and  C10_21 
REMARK    8  A    between atoms: C10_21  and  C11_23 
ROOT
HETATM    1  C5  UNL     1      67.873  38.942  38.355  1.00  0.00     0.115 A 
HETATM    2  N3  UNL     1      66.808  39.683  38.264  1.00  0.00    -0.290 N 
ATOM      3  H3  UNL     1      66.835  40.646  38.597  1.00  0.00     0.187 HD
HETATM    4  N4  UNL     1      65.715  39.213  37.756  1.00  0.00    -0.269 N 
ATOM      5  H4  UNL     1      64.821  39.687  37.630  1.00  0.00     0.195 HD
HETATM    6  S1  UNL     1      66.121  37.634  37.355  1.00  0.00    -0.001 SA
HETATM    7  C6  UNL     1      67.746  37.643  37.877  1.00  0.00     0.033 A 
ENDROOT
BRANCH   7   8
HETATM    8  C7  UNL     1      68.829  36.603  37.822  1.00  0.00     0.052 C 
BRANCH   8   9
HETATM    9  C8  UNL     1      68.296  35.352  38.556  1.00  0.00     0.025 C 
BRANCH   9  10
HETATM   10  C9  UNL     1      67.848  35.727  39.925  1.00  0.00     0.123 C 
BRANCH  10  11
HETATM   11  N5  UNL     1      66.468  35.354  40.177  1.00  0.00    -0.357 N 
HETATM   12  C10 UNL     1      66.121  34.559  41.276  1.00  0.00     0.258 C 
HETATM   13  O2  UNL     1      67.096  34.178  42.018  1.00  0.00    -0.267 OA
ATOM     14  H5  UNL     1      65.738  35.677  39.542  1.00  0.00     0.162 HD
BRANCH  12  15
HETATM   15  C11 UNL     1      64.815  34.101  41.691  1.00  0.00     0.115 A 
HETATM   16  C12 UNL     1      63.972  35.014  42.363  1.00  0.00     0.176 A 
HETATM   17  F1  UNL     1      64.426  36.264  42.607  1.00  0.00    -0.202 F 
HETATM   18  C13 UNL     1      62.712  34.670  42.782  1.00  0.00     0.197 A 
HETATM   19  F2  UNL     1      61.929  35.588  43.425  1.00  0.00    -0.199 F 
HETATM   20  C14 UNL     1      62.224  33.414  42.558  1.00  0.00     0.199 A 
HETATM   21  F3  UNL     1      60.976  33.041  42.968  1.00  0.00    -0.199 F 
HETATM   22  C15 UNL     1      63.026  32.519  41.910  1.00  0.00     0.197 A 
HETATM   23  F4  UNL     1      62.593  31.247  41.655  1.00  0.00    -0.199 F 
HETATM   24  C16 UNL     1      64.319  32.835  41.468  1.00  0.00     0.176 A 
HETATM   25  F5  UNL     1      65.045  31.899  40.825  1.00  0.00    -0.202 F 
ENDBRANCH  12  15
ENDBRANCH  10  11
ENDBRANCH   9  10
ENDBRANCH   8   9
ENDBRANCH   7   8
BRANCH   1  26
HETATM   26  C4  UNL     1      69.139  39.395  38.957  1.00  0.00     0.230 C 
HETATM   27  O1  UNL     1      69.339  39.103  40.177  1.00  0.00    -0.283 OA
BRANCH  26  28
HETATM   28  C3  UNL     1      70.157  40.151  38.242  1.00  0.00     0.126 A 
HETATM   29  N2  UNL     1      69.976  41.375  37.653  1.00  0.00    -0.292 N 
HETATM   30  N1  UNL     1      71.084  41.809  37.106  1.00  0.00    -0.279 N 
ATOM     31  H2  UNL     1      69.092  41.883  37.642  1.00  0.00     0.187 HD
HETATM   32  C18 UNL     1      72.044  40.903  37.303  1.00  0.00     0.144 A 
HETATM   33  C17 UNL     1      71.478  39.841  38.023  1.00  0.00     0.106 A 
HETATM   34 CL2  UNL     1      73.721  40.963  36.796  1.00  0.00    -0.061 Cl
HETATM   35 CL1  UNL     1      72.341  38.412  38.536  1.00  0.00    -0.078 Cl
BRANCH  30  36
HETATM   36  C2  UNL     1      71.249  43.089  36.391  1.00  0.00     0.146 C 
HETATM   37  C1  UNL     1      70.719  42.975  34.992  1.00  0.00     0.028 C 
ENDBRANCH  30  36
ENDBRANCH  26  28
ENDBRANCH   1  26
TORSDOF 8
ENDMDL
