MODEL 1
REMARK VINA RESULT: -8.035715697      0.000      0.000
REMARK  10 active torsions:
REMARK  status: ('A' for Active; 'I' for Inactive)
REMARK    1  A    between atoms: N1_2  and  C2_3 
REMARK    2  A    between atoms: N1_2  and  C9_16 
REMARK    3  A    between atoms: C2_3  and  C3_4 
REMARK    4  A    between atoms: C3_4  and  N2_5 
REMARK    5  A    between atoms: N2_5  and  C4_6 
REMARK    6  A    between atoms: N2_5  and  C7_11 
REMARK    7  A    between atoms: C4_6  and  C5_7 
REMARK    8  A    between atoms: C5_7  and  S1_8 
REMARK    9  A    between atoms: C7_11  and  C8_12 
REMARK   10  A    between atoms: C16_26  and  O2_27 
ROOT
HETATM    1  S1  UNL     1      72.157  40.459  38.138  1.00  0.00    -0.049 SA
HETATM    2  C6  UNL     1      71.462  41.196  36.667  1.00  0.00     0.133 C 
HETATM    3  N3  UNL     1      71.016  41.659  35.702  1.00  0.00    -0.184 NA
ENDROOT
BRANCH   1   4
HETATM    4  C5  UNL     1      71.557  38.758  38.172  1.00  0.00     0.110 C 
BRANCH   4   5
HETATM    5  C4  UNL     1      70.759  38.497  39.427  1.00  0.00     0.138 C 
BRANCH   5   6
HETATM    6  N2  UNL     1      69.468  38.006  39.043  1.00  0.00    -0.364 N 
BRANCH   6   7
HETATM    7  C3  UNL     1      68.920  37.017  39.874  1.00  0.00     0.083 C 
BRANCH   7   8
HETATM    8  C2  UNL     1      69.145  35.613  39.347  1.00  0.00     0.167 C 
BRANCH   8   9
HETATM    9  N1  UNL     1      67.951  34.836  39.356  1.00  0.00    -0.376 N 
HETATM   10  C1  UNL     1      67.581  34.180  38.087  1.00  0.00     0.150 C 
BRANCH   9  11
HETATM   11  C9  UNL     1      67.007  34.712  40.409  1.00  0.00     0.107 A 
HETATM   12  C10 UNL     1      65.967  35.463  40.653  1.00  0.00     0.115 A 
HETATM   13 CL1  UNL     1      65.609  36.818  39.610  1.00  0.00    -0.077 Cl
HETATM   14  C11 UNL     1      65.028  35.265  41.772  1.00  0.00     0.208 A 
HETATM   15  O1  UNL     1      64.044  36.029  41.948  1.00  0.00    -0.286 OA
HETATM   16  C12 UNL     1      65.250  34.160  42.688  1.00  0.00     0.055 A 
HETATM   17  C13 UNL     1      66.329  33.336  42.482  1.00  0.00     0.034 A 
HETATM   18  C17 UNL     1      64.369  33.967  43.733  1.00  0.00     0.084 A 
HETATM   19  C14 UNL     1      66.511  32.299  43.356  1.00  0.00     0.043 A 
HETATM   20  C18 UNL     1      67.212  33.580  41.372  1.00  0.00     0.211 A 
HETATM   21  C15 UNL     1      65.637  32.081  44.419  1.00  0.00     0.069 A 
HETATM   22 CL2  UNL     1      65.861  30.758  45.545  1.00  0.00    -0.081 Cl
HETATM   23  C16 UNL     1      64.572  32.918  44.598  1.00  0.00     0.110 A 
HETATM   24  O3  UNL     1      68.219  32.839  41.153  1.00  0.00    -0.285 OA
HETATM   25 CL3  UNL     1      63.013  35.027  43.968  1.00  0.00    -0.080 Cl
BRANCH  23  26
HETATM   26  O2  UNL     1      63.694  32.717  45.649  1.00  0.00    -0.357 OA
ATOM     27  H2  UNL     1      63.169  33.436  45.979  1.00  0.00     0.217 HD
ENDBRANCH  23  26
ENDBRANCH   9  11
ENDBRANCH   8   9
ENDBRANCH   7   8
ENDBRANCH   6   7
BRANCH   6  28
HETATM   28  C7  UNL     1      68.758  38.677  38.064  1.00  0.00     0.179 C 
BRANCH  28  29
HETATM   29  C8  UNL     1      67.925  39.813  38.565  1.00  0.00     0.422 C 
HETATM   30  F1  UNL     1      67.826  39.813  39.927  1.00  0.00    -0.166 F 
HETATM   31  F2  UNL     1      66.626  39.711  38.059  1.00  0.00    -0.166 F 
HETATM   32  F3  UNL     1      68.471  41.043  38.167  1.00  0.00    -0.166 F 
ENDBRANCH  28  29
ENDBRANCH   6  28
ENDBRANCH   5   6
ENDBRANCH   4   5
ENDBRANCH   1   4
TORSDOF 10
ENDMDL
MODEL 2
REMARK VINA RESULT: -8.005930659      1.674      1.910
REMARK  10 active torsions:
REMARK  status: ('A' for Active; 'I' for Inactive)
REMARK    1  A    between atoms: N1_2  and  C2_3 
REMARK    2  A    between atoms: N1_2  and  C9_16 
REMARK    3  A    between atoms: C2_3  and  C3_4 
REMARK    4  A    between atoms: C3_4  and  N2_5 
REMARK    5  A    between atoms: N2_5  and  C4_6 
REMARK    6  A    between atoms: N2_5  and  C7_11 
REMARK    7  A    between atoms: C4_6  and  C5_7 
REMARK    8  A    between atoms: C5_7  and  S1_8 
REMARK    9  A    between atoms: C7_11  and  C8_12 
REMARK   10  A    between atoms: C16_26  and  O2_27 
ROOT
HETATM    1  S1  UNL     1      71.172  39.043  37.196  1.00  0.00    -0.049 SA
HETATM    2  C6  UNL     1      70.486  40.692  37.199  1.00  0.00     0.133 C 
HETATM    3  N3  UNL     1      70.026  41.756  37.209  1.00  0.00    -0.184 NA
ENDROOT
BRANCH   1   4
HETATM    4  C5  UNL     1      70.915  38.396  38.861  1.00  0.00     0.110 C 
BRANCH   4   5
HETATM    5  C4  UNL     1      69.595  38.870  39.422  1.00  0.00     0.138 C 
BRANCH   5   6
HETATM    6  N2  UNL     1      68.591  37.908  39.075  1.00  0.00    -0.364 N 
BRANCH   6   7
HETATM    7  C3  UNL     1      68.933  36.564  39.293  1.00  0.00     0.083 C 
BRANCH   7   8
HETATM    8  C2  UNL     1      68.266  35.979  40.523  1.00  0.00     0.167 C 
BRANCH   8   9
HETATM    9  N1  UNL     1      67.508  34.811  40.221  1.00  0.00    -0.376 N 
HETATM   10  C1  UNL     1      67.775  34.169  38.920  1.00  0.00     0.150 C 
BRANCH   9  11
HETATM   11  C9  UNL     1      66.436  34.257  40.970  1.00  0.00     0.107 A 
HETATM   12  C10 UNL     1      65.228  34.731  41.123  1.00  0.00     0.115 A 
HETATM   13 CL1  UNL     1      64.779  36.232  40.349  1.00  0.00    -0.077 Cl
HETATM   14  C11 UNL     1      64.166  34.090  41.919  1.00  0.00     0.208 A 
HETATM   15  O1  UNL     1      63.022  34.604  42.023  1.00  0.00    -0.286 OA
HETATM   16  C12 UNL     1      64.453  32.838  42.595  1.00  0.00     0.055 A 
HETATM   17  C13 UNL     1      65.708  32.291  42.472  1.00  0.00     0.034 A 
HETATM   18  C17 UNL     1      63.459  32.231  43.336  1.00  0.00     0.084 A 
HETATM   19  C14 UNL     1      65.949  31.108  43.114  1.00  0.00     0.043 A 
HETATM   20  C18 UNL     1      66.705  32.964  41.680  1.00  0.00     0.211 A 
HETATM   21  C15 UNL     1      64.964  30.474  43.867  1.00  0.00     0.069 A 
HETATM   22 CL2  UNL     1      65.264  28.959  44.694  1.00  0.00    -0.081 Cl
HETATM   23  C16 UNL     1      63.726  31.042  43.972  1.00  0.00     0.110 A 
HETATM   24  O3  UNL     1      67.873  32.488  41.546  1.00  0.00    -0.285 OA
HETATM   25 CL3  UNL     1      61.882  32.947  43.474  1.00  0.00    -0.080 Cl
BRANCH  23  26
HETATM   26  O2  UNL     1      62.735  30.426  44.716  1.00  0.00    -0.357 OA
ATOM     27  H2  UNL     1      61.911  30.869  44.877  1.00  0.00     0.217 HD
ENDBRANCH  23  26
ENDBRANCH   9  11
ENDBRANCH   8   9
ENDBRANCH   7   8
ENDBRANCH   6   7
BRANCH   6  28
HETATM   28  C7  UNL     1      67.310  38.345  38.795  1.00  0.00     0.179 C 
BRANCH  28  29
HETATM   29  C8  UNL     1      66.776  37.907  37.469  1.00  0.00     0.422 C 
HETATM   30  F1  UNL     1      67.718  37.996  36.483  1.00  0.00    -0.166 F 
HETATM   31  F2  UNL     1      65.708  38.725  37.090  1.00  0.00    -0.166 F 
HETATM   32  F3  UNL     1      66.331  36.577  37.526  1.00  0.00    -0.166 F 
ENDBRANCH  28  29
ENDBRANCH   6  28
ENDBRANCH   5   6
ENDBRANCH   4   5
ENDBRANCH   1   4
TORSDOF 10
ENDMDL
MODEL 3
REMARK VINA RESULT: -7.994542118      1.691      1.877
REMARK  10 active torsions:
REMARK  status: ('A' for Active; 'I' for Inactive)
REMARK    1  A    between atoms: N1_2  and  C2_3 
REMARK    2  A    between atoms: N1_2  and  C9_16 
REMARK    3  A    between atoms: C2_3  and  C3_4 
REMARK    4  A    between atoms: C3_4  and  N2_5 
REMARK    5  A    between atoms: N2_5  and  C4_6 
REMARK    6  A    between atoms: N2_5  and  C7_11 
REMARK    7  A    between atoms: C4_6  and  C5_7 
REMARK    8  A    between atoms: C5_7  and  S1_8 
REMARK    9  A    between atoms: C7_11  and  C8_12 
REMARK   10  A    between atoms: C16_26  and  O2_27 
ROOT
HETATM    1  S1  UNL     1      72.173  39.864  38.692  1.00  0.00    -0.049 SA
HETATM    2  C6  UNL     1      72.609  39.393  37.025  1.00  0.00     0.133 C 
HETATM    3  N3  UNL     1      72.891  39.070  35.949  1.00  0.00    -0.184 NA
ENDROOT
BRANCH   1   4
HETATM    4  C5  UNL     1      70.775  38.821  39.153  1.00  0.00     0.110 C 
BRANCH   4   5
HETATM    5  C4  UNL     1      69.811  38.678  38.000  1.00  0.00     0.138 C 
BRANCH   5   6
HETATM    6  N2  UNL     1      68.750  37.805  38.409  1.00  0.00    -0.364 N 
BRANCH   6   7
HETATM    7  C3  UNL     1      69.148  36.603  39.015  1.00  0.00     0.083 C 
BRANCH   7   8
HETATM    8  C2  UNL     1      68.291  36.235  40.211  1.00  0.00     0.167 C 
BRANCH   8   9
HETATM    9  N1  UNL     1      67.571  35.023  40.005  1.00  0.00    -0.376 N 
HETATM   10  C1  UNL     1      67.863  34.285  38.761  1.00  0.00     0.150 C 
BRANCH   9  11
HETATM   11  C9  UNL     1      66.514  34.499  40.796  1.00  0.00     0.107 A 
HETATM   12  C10 UNL     1      65.320  34.996  40.980  1.00  0.00     0.115 A 
HETATM   13 CL1  UNL     1      64.872  36.494  40.199  1.00  0.00    -0.077 Cl
HETATM   14  C11 UNL     1      64.273  34.386  41.819  1.00  0.00     0.208 A 
HETATM   15  O1  UNL     1      63.142  34.921  41.952  1.00  0.00    -0.286 OA
HETATM   16  C12 UNL     1      64.561  33.138  42.504  1.00  0.00     0.055 A 
HETATM   17  C13 UNL     1      65.801  32.568  42.348  1.00  0.00     0.034 A 
HETATM   18  C17 UNL     1      63.580  32.559  43.285  1.00  0.00     0.084 A 
HETATM   19  C14 UNL     1      66.042  31.389  43.000  1.00  0.00     0.043 A 
HETATM   20  C18 UNL     1      66.783  33.211  41.516  1.00  0.00     0.211 A 
HETATM   21  C15 UNL     1      65.071  30.783  43.794  1.00  0.00     0.069 A 
HETATM   22 CL2  UNL     1      65.371  29.276  44.633  1.00  0.00    -0.081 Cl
HETATM   23  C16 UNL     1      63.846  31.375  43.929  1.00  0.00     0.110 A 
HETATM   24  O3  UNL     1      67.938  32.713  41.352  1.00  0.00    -0.285 OA
HETATM   25 CL3  UNL     1      62.021  33.305  43.462  1.00  0.00    -0.080 Cl
BRANCH  23  26
HETATM   26  O2  UNL     1      62.870  30.787  44.714  1.00  0.00    -0.357 OA
ATOM     27  H2  UNL     1      62.315  31.322  45.268  1.00  0.00     0.217 HD
ENDBRANCH  23  26
ENDBRANCH   9  11
ENDBRANCH   8   9
ENDBRANCH   7   8
ENDBRANCH   6   7
BRANCH   6  28
HETATM   28  C7  UNL     1      67.452  38.281  38.412  1.00  0.00     0.179 C 
BRANCH  28  29
HETATM   29  C8  UNL     1      66.607  37.799  37.277  1.00  0.00     0.422 C 
HETATM   30  F1  UNL     1      66.214  36.502  37.446  1.00  0.00    -0.166 F 
HETATM   31  F2  UNL     1      67.332  37.856  36.084  1.00  0.00    -0.166 F 
HETATM   32  F3  UNL     1      65.454  38.589  37.145  1.00  0.00    -0.166 F 
ENDBRANCH  28  29
ENDBRANCH   6  28
ENDBRANCH   5   6
ENDBRANCH   4   5
ENDBRANCH   1   4
TORSDOF 10
ENDMDL
MODEL 4
REMARK VINA RESULT: -7.948229823      2.267      2.849
REMARK  10 active torsions:
REMARK  status: ('A' for Active; 'I' for Inactive)
REMARK    1  A    between atoms: N1_2  and  C2_3 
REMARK    2  A    between atoms: N1_2  and  C9_16 
REMARK    3  A    between atoms: C2_3  and  C3_4 
REMARK    4  A    between atoms: C3_4  and  N2_5 
REMARK    5  A    between atoms: N2_5  and  C4_6 
REMARK    6  A    between atoms: N2_5  and  C7_11 
REMARK    7  A    between atoms: C4_6  and  C5_7 
REMARK    8  A    between atoms: C5_7  and  S1_8 
REMARK    9  A    between atoms: C7_11  and  C8_12 
REMARK   10  A    between atoms: C16_26  and  O2_27 
ROOT
HETATM    1  S1  UNL     1      66.613  39.524  38.306  1.00  0.00    -0.049 SA
HETATM    2  C6  UNL     1      66.607  38.154  37.160  1.00  0.00     0.133 C 
HETATM    3  N3  UNL     1      66.616  37.273  36.407  1.00  0.00    -0.184 NA
ENDROOT
BRANCH   1   4
HETATM    4  C5  UNL     1      68.347  39.835  38.697  1.00  0.00     0.110 C 
BRANCH   4   5
HETATM    5  C4  UNL     1      68.898  38.748  39.588  1.00  0.00     0.138 C 
BRANCH   5   6
HETATM    6  N2  UNL     1      69.692  37.868  38.782  1.00  0.00    -0.364 N 
BRANCH   6   7
HETATM    7  C3  UNL     1      69.378  36.504  38.877  1.00  0.00     0.083 C 
BRANCH   7   8
HETATM    8  C2  UNL     1      68.486  36.186  40.062  1.00  0.00     0.167 C 
BRANCH   8   9
HETATM    9  N1  UNL     1      67.621  35.084  39.805  1.00  0.00    -0.376 N 
HETATM   10  C1  UNL     1      67.743  34.444  38.481  1.00  0.00     0.150 C 
BRANCH   9  11
HETATM   11  C9  UNL     1      66.568  34.600  40.626  1.00  0.00     0.107 A 
HETATM   12  C10 UNL     1      65.392  35.131  40.827  1.00  0.00     0.115 A 
HETATM   13 CL1  UNL     1      64.966  36.628  40.032  1.00  0.00    -0.077 Cl
HETATM   14  C11 UNL     1      64.348  34.561  41.698  1.00  0.00     0.208 A 
HETATM   15  O1  UNL     1      63.234  35.128  41.846  1.00  0.00    -0.286 OA
HETATM   16  C12 UNL     1      64.617  33.317  42.397  1.00  0.00     0.055 A 
HETATM   17  C13 UNL     1      65.839  32.712  42.224  1.00  0.00     0.034 A 
HETATM   18  C17 UNL     1      63.639  32.776  43.207  1.00  0.00     0.084 A 
HETATM   19  C14 UNL     1      66.063  31.538  42.889  1.00  0.00     0.043 A 
HETATM   20  C18 UNL     1      66.819  33.317  41.361  1.00  0.00     0.211 A 
HETATM   21  C15 UNL     1      65.094  30.970  43.713  1.00  0.00     0.069 A 
HETATM   22 CL2  UNL     1      65.372  29.468  44.570  1.00  0.00    -0.081 Cl
HETATM   23  C16 UNL     1      63.888  31.596  43.864  1.00  0.00     0.110 A 
HETATM   24  O3  UNL     1      67.957  32.786  41.181  1.00  0.00    -0.285 OA
HETATM   25 CL3  UNL     1      62.104  33.566  43.405  1.00  0.00    -0.080 Cl
BRANCH  23  26
HETATM   26  O2  UNL     1      62.914  31.046  44.679  1.00  0.00    -0.357 OA
ATOM     27  H2  UNL     1      62.034  31.405  44.682  1.00  0.00     0.217 HD
ENDBRANCH  23  26
ENDBRANCH   9  11
ENDBRANCH   8   9
ENDBRANCH   7   8
ENDBRANCH   6   7
BRANCH   6  28
HETATM   28  C7  UNL     1      70.518  38.407  37.813  1.00  0.00     0.179 C 
BRANCH  28  29
HETATM   29  C8  UNL     1      71.891  38.762  38.288  1.00  0.00     0.422 C 
HETATM   30  F1  UNL     1      71.969  40.063  38.699  1.00  0.00    -0.166 F 
HETATM   31  F2  UNL     1      72.811  38.604  37.249  1.00  0.00    -0.166 F 
HETATM   32  F3  UNL     1      72.273  37.943  39.362  1.00  0.00    -0.166 F 
ENDBRANCH  28  29
ENDBRANCH   6  28
ENDBRANCH   5   6
ENDBRANCH   4   5
ENDBRANCH   1   4
TORSDOF 10
ENDMDL
MODEL 5
REMARK VINA RESULT: -7.685306409      1.901      2.201
REMARK  10 active torsions:
REMARK  status: ('A' for Active; 'I' for Inactive)
REMARK    1  A    between atoms: N1_2  and  C2_3 
REMARK    2  A    between atoms: N1_2  and  C9_16 
REMARK    3  A    between atoms: C2_3  and  C3_4 
REMARK    4  A    between atoms: C3_4  and  N2_5 
REMARK    5  A    between atoms: N2_5  and  C4_6 
REMARK    6  A    between atoms: N2_5  and  C7_11 
REMARK    7  A    between atoms: C4_6  and  C5_7 
REMARK    8  A    between atoms: C5_7  and  S1_8 
REMARK    9  A    between atoms: C7_11  and  C8_12 
REMARK   10  A    between atoms: C16_26  and  O2_27 
ROOT
HETATM    1  S1  UNL     1      71.125  41.478  36.546  1.00  0.00    -0.049 SA
HETATM    2  C6  UNL     1      72.577  41.758  37.547  1.00  0.00     0.133 C 
HETATM    3  N3  UNL     1      73.508  41.945  38.211  1.00  0.00    -0.184 NA
ENDROOT
BRANCH   1   4
HETATM    4  C5  UNL     1      69.959  40.591  37.599  1.00  0.00     0.110 C 
BRANCH   4   5
HETATM    5  C4  UNL     1      69.850  39.145  37.179  1.00  0.00     0.138 C 
BRANCH   5   6
HETATM    6  N2  UNL     1      69.726  38.343  38.362  1.00  0.00    -0.364 N 
BRANCH   6   7
HETATM    7  C3  UNL     1      69.032  37.133  38.208  1.00  0.00     0.083 C 
BRANCH   7   8
HETATM    8  C2  UNL     1      69.084  36.263  39.450  1.00  0.00     0.167 C 
BRANCH   8   9
HETATM    9  N1  UNL     1      68.100  35.234  39.428  1.00  0.00    -0.376 N 
HETATM   10  C1  UNL     1      68.046  34.398  38.212  1.00  0.00     0.150 C 
BRANCH   9  11
HETATM   11  C9  UNL     1      67.082  34.988  40.386  1.00  0.00     0.107 A 
HETATM   12  C10 UNL     1      65.943  35.611  40.531  1.00  0.00     0.115 A 
HETATM   13 CL1  UNL     1      65.529  36.928  39.460  1.00  0.00    -0.077 Cl
HETATM   14  C11 UNL     1      64.932  35.292  41.556  1.00  0.00     0.208 A 
HETATM   15  O1  UNL     1      63.854  35.935  41.638  1.00  0.00    -0.286 OA
HETATM   16  C12 UNL     1      65.194  34.209  42.488  1.00  0.00     0.055 A 
HETATM   17  C13 UNL     1      66.377  33.518  42.384  1.00  0.00     0.034 A 
HETATM   18  C17 UNL     1      64.247  33.902  43.444  1.00  0.00     0.084 A 
HETATM   19  C14 UNL     1      66.595  32.499  43.271  1.00  0.00     0.043 A 
HETATM   20  C18 UNL     1      67.326  33.876  41.363  1.00  0.00     0.211 A 
HETATM   21  C15 UNL     1      65.657  32.168  44.245  1.00  0.00     0.069 A 
HETATM   22 CL2  UNL     1      65.927  30.866  45.386  1.00  0.00    -0.081 Cl
HETATM   23  C16 UNL     1      64.489  32.874  44.323  1.00  0.00     0.110 A 
HETATM   24  O3  UNL     1      68.428  33.260  41.240  1.00  0.00    -0.285 OA
HETATM   25 CL3  UNL     1      62.761  34.795  43.551  1.00  0.00    -0.080 Cl
BRANCH  23  26
HETATM   26  O2  UNL     1      63.546  32.559  45.286  1.00  0.00    -0.357 OA
ATOM     27  H2  UNL     1      63.334  31.652  45.469  1.00  0.00     0.217 HD
ENDBRANCH  23  26
ENDBRANCH   9  11
ENDBRANCH   8   9
ENDBRANCH   7   8
ENDBRANCH   6   7
BRANCH   6  28
HETATM   28  C7  UNL     1      70.475  38.671  39.477  1.00  0.00     0.179 C 
BRANCH  28  29
HETATM   29  C8  UNL     1      71.946  38.444  39.331  1.00  0.00     0.422 C 
HETATM   30  F1  UNL     1      72.337  37.255  39.878  1.00  0.00    -0.166 F 
HETATM   31  F2  UNL     1      72.652  39.452  39.992  1.00  0.00    -0.166 F 
HETATM   32  F3  UNL     1      72.317  38.444  37.977  1.00  0.00    -0.166 F 
ENDBRANCH  28  29
ENDBRANCH   6  28
ENDBRANCH   5   6
ENDBRANCH   4   5
ENDBRANCH   1   4
TORSDOF 10
ENDMDL
