MODEL 1
REMARK VINA RESULT: -8.904306331      0.000      0.000
REMARK  10 active torsions:
REMARK  status: ('A' for Active; 'I' for Inactive)
REMARK    1  A    between atoms: C2_2  and  N1_3 
REMARK    2  A    between atoms: N1_3  and  C3_4 
REMARK    3  A    between atoms: N1_3  and  C17_32 
REMARK    4  A    between atoms: C3_4  and  C4_5 
REMARK    5  A    between atoms: C4_5  and  O1_6 
REMARK    6  A    between atoms: O1_6  and  C5_7 
REMARK    7  A    between atoms: C5_7  and  C6_8 
REMARK    8  A    between atoms: N2_12  and  C9_13 
REMARK    9  A    between atoms: C10_16  and  N4_17 
REMARK   10  A    between atoms: C14_25  and  C15_26 
ROOT
HETATM    1  C9  UNL     1      66.225  35.689  40.685  1.00  0.00     0.697 A 
HETATM    2  N3  UNL     1      65.168  36.424  41.007  1.00  0.00    -0.022 N 
ATOM      3  H3  UNL     1      64.964  37.287  40.503  1.00  0.00     0.203 HD
HETATM    4  C10 UNL     1      64.372  36.013  42.008  1.00  0.00     0.698 A 
HETATM    5  N5  UNL     1      64.635  34.871  42.681  1.00  0.00    -0.142 N 
HETATM    6  C11 UNL     1      63.815  34.492  43.678  1.00  0.00     0.118 A 
HETATM    7  C12 UNL     1      64.069  33.327  44.377  1.00  0.00     0.043 A 
HETATM    8  C13 UNL     1      65.166  32.575  44.035  1.00  0.00     0.048 A 
HETATM    9 CL1  UNL     1      65.537  31.083  44.891  1.00  0.00    -0.084 Cl
HETATM   10  C14 UNL     1      65.991  32.977  43.016  1.00  0.00     0.042 A 
HETATM   11  C16 UNL     1      65.713  34.131  42.345  1.00  0.00     0.154 A 
HETATM   12  N6  UNL     1      66.491  34.551  41.354  1.00  0.00    -0.174 N 
ATOM     13  H6  UNL     1      67.308  33.999  41.094  1.00  0.00     0.186 HD
ENDROOT
BRANCH   1  14
HETATM   14  N2  UNL     1      67.151  36.035  39.632  1.00  0.00    -0.201 N 
HETATM   15  C6  UNL     1      66.867  37.131  38.733  1.00  0.00     0.188 C 
HETATM   16  S1  UNL     1      67.692  36.599  37.212  1.00  0.00    -0.139 SA
HETATM   17  C7  UNL     1      68.396  35.024  37.853  1.00  0.00     0.096 C 
HETATM   18  C8  UNL     1      68.402  35.386  39.343  1.00  0.00     0.153 C 
BRANCH  15  19
HETATM   19  C5  UNL     1      67.417  38.461  39.217  1.00  0.00     0.204 C 
BRANCH  19  20
HETATM   20  O1  UNL     1      67.694  39.205  38.111  1.00  0.00    -0.387 OA
BRANCH  20  21
HETATM   21  C4  UNL     1      68.666  40.181  38.285  1.00  0.00     0.198 C 
BRANCH  21  22
HETATM   22  C3  UNL     1      69.984  39.806  37.678  1.00  0.00     0.310 C 
BRANCH  22  23
HETATM   23  N1  UNL     1      71.043  39.760  38.633  1.00  0.00     0.198 N 
BRANCH  23  24
HETATM   24  C2  UNL     1      72.334  40.050  38.024  1.00  0.00     0.280 C 
HETATM   25  C1  UNL     1      72.576  39.365  36.724  1.00  0.00     0.037 C 
ENDBRANCH  23  24
BRANCH  23  26
HETATM   26  C17 UNL     1      71.124  38.604  39.455  1.00  0.00     0.603 C 
HETATM   27  F1  UNL     1      70.273  38.697  40.556  1.00  0.00    -0.144 F 
HETATM   28  F2  UNL     1      72.377  38.172  39.756  1.00  0.00    -0.144 F 
HETATM   29  F3  UNL     1      70.579  37.556  38.653  1.00  0.00    -0.144 F 
ENDBRANCH  23  26
ENDBRANCH  22  23
ENDBRANCH  21  22
ENDBRANCH  20  21
ENDBRANCH  19  20
ENDBRANCH  15  19
ENDBRANCH   1  14
BRANCH   4  30
HETATM   30  N4  UNL     1      63.323  36.689  42.369  1.00  0.00    -0.234 N 
ATOM     31  H42 UNL     1      63.462  37.666  42.627  1.00  0.00     0.174 HD
ATOM     32  H41 UNL     1      62.395  36.267  42.395  1.00  0.00     0.174 HD
ENDBRANCH   4  30
BRANCH  10  33
HETATM   33  C15 UNL     1      67.202  32.171  42.618  1.00  0.00     0.216 C 
HETATM   34 CL2  UNL     1      68.640  33.231  42.637  1.00  0.00    -0.103 Cl
HETATM   35 CL3  UNL     1      66.930  31.600  40.959  1.00  0.00    -0.103 Cl
ENDBRANCH  10  33
TORSDOF 10
ENDMDL
MODEL 2
REMARK VINA RESULT: -8.641761047      1.581      1.825
REMARK  10 active torsions:
REMARK  status: ('A' for Active; 'I' for Inactive)
REMARK    1  A    between atoms: C2_2  and  N1_3 
REMARK    2  A    between atoms: N1_3  and  C3_4 
REMARK    3  A    between atoms: N1_3  and  C17_32 
REMARK    4  A    between atoms: C3_4  and  C4_5 
REMARK    5  A    between atoms: C4_5  and  O1_6 
REMARK    6  A    between atoms: O1_6  and  C5_7 
REMARK    7  A    between atoms: C5_7  and  C6_8 
REMARK    8  A    between atoms: N2_12  and  C9_13 
REMARK    9  A    between atoms: C10_16  and  N4_17 
REMARK   10  A    between atoms: C14_25  and  C15_26 
ROOT
HETATM    1  C9  UNL     1      66.285  35.663  40.654  1.00  0.00     0.697 A 
HETATM    2  N3  UNL     1      65.213  36.395  40.931  1.00  0.00    -0.022 N 
ATOM      3  H3  UNL     1      65.067  37.295  40.472  1.00  0.00     0.203 HD
HETATM    4  C10 UNL     1      64.323  35.933  41.825  1.00  0.00     0.698 A 
HETATM    5  N5  UNL     1      64.508  34.743  42.438  1.00  0.00    -0.142 N 
HETATM    6  C11 UNL     1      63.595  34.313  43.328  1.00  0.00     0.118 A 
HETATM    7  C12 UNL     1      63.768  33.099  43.964  1.00  0.00     0.043 A 
HETATM    8  C13 UNL     1      64.881  32.350  43.671  1.00  0.00     0.048 A 
HETATM    9 CL1  UNL     1      65.152  30.796  44.450  1.00  0.00    -0.084 Cl
HETATM   10  C14 UNL     1      65.802  32.804  42.760  1.00  0.00     0.042 A 
HETATM   11  C16 UNL     1      65.601  34.006  42.150  1.00  0.00     0.154 A 
HETATM   12  N6  UNL     1      66.472  34.476  41.264  1.00  0.00    -0.174 N 
ATOM     13  H6  UNL     1      67.302  33.927  41.040  1.00  0.00     0.186 HD
ENDROOT
BRANCH   1  14
HETATM   14  N2  UNL     1      67.307  36.061  39.716  1.00  0.00    -0.201 N 
HETATM   15  C6  UNL     1      67.199  37.309  38.995  1.00  0.00     0.188 C 
HETATM   16  S1  UNL     1      68.058  36.932  37.447  1.00  0.00    -0.139 SA
HETATM   17  C7  UNL     1      68.549  35.205  37.855  1.00  0.00     0.096 C 
HETATM   18  C8  UNL     1      68.499  35.326  39.382  1.00  0.00     0.153 C 
BRANCH  15  19
HETATM   19  C5  UNL     1      67.854  38.475  39.714  1.00  0.00     0.204 C 
BRANCH  19  20
HETATM   20  O1  UNL     1      68.900  38.883  38.943  1.00  0.00    -0.387 OA
BRANCH  20  21
HETATM   21  C4  UNL     1      70.143  38.831  39.558  1.00  0.00     0.198 C 
BRANCH  21  22
HETATM   22  C3  UNL     1      71.218  39.502  38.758  1.00  0.00     0.310 C 
BRANCH  22  23
HETATM   23  N1  UNL     1      70.772  39.926  37.471  1.00  0.00     0.198 N 
BRANCH  23  24
HETATM   24  C2  UNL     1      71.292  39.076  36.410  1.00  0.00     0.280 C 
HETATM   25  C1  UNL     1      72.755  38.805  36.492  1.00  0.00     0.037 C 
ENDBRANCH  23  24
BRANCH  23  26
HETATM   26  C17 UNL     1      70.944  41.298  37.145  1.00  0.00     0.603 C 
HETATM   27  F1  UNL     1      71.014  41.492  35.765  1.00  0.00    -0.144 F 
HETATM   28  F2  UNL     1      71.895  41.965  37.849  1.00  0.00    -0.144 F 
HETATM   29  F3  UNL     1      69.720  41.916  37.544  1.00  0.00    -0.144 F 
ENDBRANCH  23  26
ENDBRANCH  22  23
ENDBRANCH  21  22
ENDBRANCH  20  21
ENDBRANCH  19  20
ENDBRANCH  15  19
ENDBRANCH   1  14
BRANCH   4  30
HETATM   30  N4  UNL     1      63.256  36.604  42.137  1.00  0.00    -0.234 N 
ATOM     31  H42 UNL     1      63.004  37.389  41.536  1.00  0.00     0.174 HD
ATOM     32  H41 UNL     1      62.686  36.362  42.948  1.00  0.00     0.174 HD
ENDBRANCH   4  30
BRANCH  10  33
HETATM   33  C15 UNL     1      67.032  32.002  42.417  1.00  0.00     0.216 C 
HETATM   34 CL2  UNL     1      68.470  33.053  42.558  1.00  0.00    -0.103 Cl
HETATM   35 CL3  UNL     1      66.864  31.479  40.729  1.00  0.00    -0.103 Cl
ENDBRANCH  10  33
TORSDOF 10
ENDMDL
MODEL 3
REMARK VINA RESULT: -8.538509603      1.429      1.666
REMARK  10 active torsions:
REMARK  status: ('A' for Active; 'I' for Inactive)
REMARK    1  A    between atoms: C2_2  and  N1_3 
REMARK    2  A    between atoms: N1_3  and  C3_4 
REMARK    3  A    between atoms: N1_3  and  C17_32 
REMARK    4  A    between atoms: C3_4  and  C4_5 
REMARK    5  A    between atoms: C4_5  and  O1_6 
REMARK    6  A    between atoms: O1_6  and  C5_7 
REMARK    7  A    between atoms: C5_7  and  C6_8 
REMARK    8  A    between atoms: N2_12  and  C9_13 
REMARK    9  A    between atoms: C10_16  and  N4_17 
REMARK   10  A    between atoms: C14_25  and  C15_26 
ROOT
HETATM    1  C9  UNL     1      66.357  35.698  40.694  1.00  0.00     0.697 A 
HETATM    2  N3  UNL     1      65.287  36.435  40.968  1.00  0.00    -0.022 N 
ATOM      3  H3  UNL     1      65.106  37.297  40.455  1.00  0.00     0.203 HD
HETATM    4  C10 UNL     1      64.446  36.026  41.934  1.00  0.00     0.698 A 
HETATM    5  N5  UNL     1      64.678  34.884  42.619  1.00  0.00    -0.142 N 
HETATM    6  C11 UNL     1      63.814  34.506  43.579  1.00  0.00     0.118 A 
HETATM    7  C12 UNL     1      64.036  33.343  44.290  1.00  0.00     0.043 A 
HETATM    8  C13 UNL     1      65.146  32.589  43.997  1.00  0.00     0.048 A 
HETATM    9 CL1  UNL     1      65.477  31.097  44.870  1.00  0.00    -0.084 Cl
HETATM   10  C14 UNL     1      66.016  32.989  43.015  1.00  0.00     0.042 A 
HETATM   11  C16 UNL     1      65.769  34.142  42.332  1.00  0.00     0.154 A 
HETATM   12  N6  UNL     1      66.591  34.560  41.376  1.00  0.00    -0.174 N 
ATOM     13  H6  UNL     1      67.418  34.007  41.153  1.00  0.00     0.186 HD
ENDROOT
BRANCH   1  14
HETATM   14  N2  UNL     1      67.329  36.042  39.683  1.00  0.00    -0.201 N 
HETATM   15  C6  UNL     1      67.144  37.211  38.853  1.00  0.00     0.188 C 
HETATM   16  S1  UNL     1      67.963  36.719  37.315  1.00  0.00    -0.139 SA
HETATM   17  C7  UNL     1      68.537  35.059  37.864  1.00  0.00     0.096 C 
HETATM   18  C8  UNL     1      68.536  35.322  39.374  1.00  0.00     0.153 C 
BRANCH  15  19
HETATM   19  C5  UNL     1      67.778  38.463  39.433  1.00  0.00     0.204 C 
BRANCH  19  20
HETATM   20  O1  UNL     1      67.417  39.502  38.630  1.00  0.00    -0.387 OA
BRANCH  20  21
HETATM   21  C4  UNL     1      68.453  40.349  38.261  1.00  0.00     0.198 C 
BRANCH  21  22
HETATM   22  C3  UNL     1      69.800  39.840  38.677  1.00  0.00     0.310 C 
BRANCH  22  23
HETATM   23  N1  UNL     1      70.714  39.731  37.587  1.00  0.00     0.198 N 
BRANCH  23  24
HETATM   24  C2  UNL     1      71.700  38.683  37.810  1.00  0.00     0.280 C 
HETATM   25  C1  UNL     1      71.909  38.321  39.240  1.00  0.00     0.037 C 
ENDBRANCH  23  24
BRANCH  23  26
HETATM   26  C17 UNL     1      71.343  40.926  37.147  1.00  0.00     0.603 C 
HETATM   27  F1  UNL     1      72.022  41.562  38.186  1.00  0.00    -0.144 F 
HETATM   28  F2  UNL     1      70.582  41.759  36.390  1.00  0.00    -0.144 F 
HETATM   29  F3  UNL     1      72.365  40.483  36.253  1.00  0.00    -0.144 F 
ENDBRANCH  23  26
ENDBRANCH  22  23
ENDBRANCH  21  22
ENDBRANCH  20  21
ENDBRANCH  19  20
ENDBRANCH  15  19
ENDBRANCH   1  14
BRANCH   4  30
HETATM   30  N4  UNL     1      63.384  36.703  42.247  1.00  0.00    -0.234 N 
ATOM     31  H42 UNL     1      63.336  37.671  41.931  1.00  0.00     0.174 HD
ATOM     32  H41 UNL     1      62.623  36.290  42.787  1.00  0.00     0.174 HD
ENDBRANCH   4  30
BRANCH  10  33
HETATM   33  C15 UNL     1      67.243  32.181  42.672  1.00  0.00     0.216 C 
HETATM   34 CL2  UNL     1      68.672  33.254  42.693  1.00  0.00    -0.103 Cl
HETATM   35 CL3  UNL     1      67.015  31.556  41.026  1.00  0.00    -0.103 Cl
ENDBRANCH  10  33
TORSDOF 10
ENDMDL
MODEL 4
REMARK VINA RESULT: -8.426832582      1.739      2.042
REMARK  10 active torsions:
REMARK  status: ('A' for Active; 'I' for Inactive)
REMARK    1  A    between atoms: C2_2  and  N1_3 
REMARK    2  A    between atoms: N1_3  and  C3_4 
REMARK    3  A    between atoms: N1_3  and  C17_32 
REMARK    4  A    between atoms: C3_4  and  C4_5 
REMARK    5  A    between atoms: C4_5  and  O1_6 
REMARK    6  A    between atoms: O1_6  and  C5_7 
REMARK    7  A    between atoms: C5_7  and  C6_8 
REMARK    8  A    between atoms: N2_12  and  C9_13 
REMARK    9  A    between atoms: C10_16  and  N4_17 
REMARK   10  A    between atoms: C14_25  and  C15_26 
ROOT
HETATM    1  C9  UNL     1      65.975  35.963  40.634  1.00  0.00     0.697 A 
HETATM    2  N3  UNL     1      64.924  36.608  41.124  1.00  0.00    -0.022 N 
ATOM      3  H3  UNL     1      64.641  37.508  40.735  1.00  0.00     0.203 HD
HETATM    4  C10 UNL     1      64.239  36.058  42.140  1.00  0.00     0.698 A 
HETATM    5  N5  UNL     1      64.607  34.867  42.661  1.00  0.00    -0.142 N 
HETATM    6  C11 UNL     1      63.897  34.347  43.679  1.00  0.00     0.118 A 
HETATM    7  C12 UNL     1      64.259  33.131  44.225  1.00  0.00     0.043 A 
HETATM    8  C13 UNL     1      65.349  32.472  43.710  1.00  0.00     0.048 A 
HETATM    9 CL1  UNL     1      65.855  30.919  44.366  1.00  0.00    -0.084 Cl
HETATM   10  C14 UNL     1      66.062  33.017  42.672  1.00  0.00     0.042 A 
HETATM   11  C16 UNL     1      65.678  34.219  42.156  1.00  0.00     0.154 A 
HETATM   12  N6  UNL     1      66.345  34.776  41.152  1.00  0.00    -0.174 N 
ATOM     13  H6  UNL     1      67.156  34.294  40.764  1.00  0.00     0.186 HD
ENDROOT
BRANCH   1  14
HETATM   14  N2  UNL     1      66.787  36.460  39.548  1.00  0.00    -0.201 N 
HETATM   15  C6  UNL     1      67.476  37.726  39.665  1.00  0.00     0.188 C 
HETATM   16  S1  UNL     1      67.517  38.297  37.947  1.00  0.00    -0.139 SA
HETATM   17  C7  UNL     1      66.691  36.839  37.185  1.00  0.00     0.096 C 
HETATM   18  C8  UNL     1      67.013  35.817  38.281  1.00  0.00     0.153 C 
BRANCH  15  19
HETATM   19  C5  UNL     1      68.879  37.594  40.230  1.00  0.00     0.204 C 
BRANCH  19  20
HETATM   20  O1  UNL     1      69.550  38.734  39.905  1.00  0.00    -0.387 OA
BRANCH  20  21
HETATM   21  C4  UNL     1      70.903  38.568  39.646  1.00  0.00     0.198 C 
BRANCH  21  22
HETATM   22  C3  UNL     1      71.488  39.698  38.854  1.00  0.00     0.310 C 
BRANCH  22  23
HETATM   23  N1  UNL     1      70.793  39.938  37.631  1.00  0.00     0.198 N 
BRANCH  23  24
HETATM   24  C2  UNL     1      71.218  39.026  36.579  1.00  0.00     0.280 C 
HETATM   25  C1  UNL     1      72.692  38.833  36.482  1.00  0.00     0.037 C 
ENDBRANCH  23  24
BRANCH  23  26
HETATM   26  C17 UNL     1      70.763  41.276  37.153  1.00  0.00     0.603 C 
HETATM   27  F1  UNL     1      69.624  41.951  37.590  1.00  0.00    -0.144 F 
HETATM   28  F2  UNL     1      71.038  41.446  35.834  1.00  0.00    -0.144 F 
HETATM   29  F3  UNL     1      71.852  41.917  37.819  1.00  0.00    -0.144 F 
ENDBRANCH  23  26
ENDBRANCH  22  23
ENDBRANCH  21  22
ENDBRANCH  20  21
ENDBRANCH  19  20
ENDBRANCH  15  19
ENDBRANCH   1  14
BRANCH   4  30
HETATM   30  N4  UNL     1      63.202  36.641  42.661  1.00  0.00    -0.234 N 
ATOM     31  H42 UNL     1      63.337  37.135  43.543  1.00  0.00     0.174 HD
ATOM     32  H41 UNL     1      62.287  36.611  42.212  1.00  0.00     0.174 HD
ENDBRANCH   4  30
BRANCH  10  33
HETATM   33  C15 UNL     1      67.262  32.316  42.087  1.00  0.00     0.216 C 
HETATM   34 CL2  UNL     1      68.735  33.236  42.504  1.00  0.00    -0.103 Cl
HETATM   35 CL3  UNL     1      67.061  32.318  40.322  1.00  0.00    -0.103 Cl
ENDBRANCH  10  33
TORSDOF 10
ENDMDL
MODEL 5
REMARK VINA RESULT: -8.328560863      1.293      1.638
REMARK  10 active torsions:
REMARK  status: ('A' for Active; 'I' for Inactive)
REMARK    1  A    between atoms: C2_2  and  N1_3 
REMARK    2  A    between atoms: N1_3  and  C3_4 
REMARK    3  A    between atoms: N1_3  and  C17_32 
REMARK    4  A    between atoms: C3_4  and  C4_5 
REMARK    5  A    between atoms: C4_5  and  O1_6 
REMARK    6  A    between atoms: O1_6  and  C5_7 
REMARK    7  A    between atoms: C5_7  and  C6_8 
REMARK    8  A    between atoms: N2_12  and  C9_13 
REMARK    9  A    between atoms: C10_16  and  N4_17 
REMARK   10  A    between atoms: C14_25  and  C15_26 
ROOT
HETATM    1  C9  UNL     1      65.742  35.497  40.725  1.00  0.00     0.697 A 
HETATM    2  N3  UNL     1      64.827  36.423  40.988  1.00  0.00    -0.022 N 
ATOM      3  H3  UNL     1      64.931  37.371  40.626  1.00  0.00     0.203 HD
HETATM    4  C10 UNL     1      63.763  36.090  41.738  1.00  0.00     0.698 A 
HETATM    5  N5  UNL     1      63.618  34.837  42.221  1.00  0.00    -0.142 N 
HETATM    6  C11 UNL     1      62.540  34.541  42.969  1.00  0.00     0.118 A 
HETATM    7  C12 UNL     1      62.376  33.265  43.472  1.00  0.00     0.043 A 
HETATM    8  C13 UNL     1      63.329  32.315  43.194  1.00  0.00     0.048 A 
HETATM    9 CL1  UNL     1      63.170  30.674  43.808  1.00  0.00    -0.084 Cl
HETATM   10  C14 UNL     1      64.422  32.634  42.430  1.00  0.00     0.042 A 
HETATM   11  C16 UNL     1      64.555  33.903  41.948  1.00  0.00     0.154 A 
HETATM   12  N6  UNL     1      65.601  34.247  41.206  1.00  0.00    -0.174 N 
ATOM     13  H6  UNL     1      66.313  33.549  40.996  1.00  0.00     0.186 HD
ENDROOT
BRANCH   1  14
HETATM   14  N2  UNL     1      66.926  35.742  39.936  1.00  0.00    -0.201 N 
HETATM   15  C6  UNL     1      66.977  36.852  39.012  1.00  0.00     0.188 C 
HETATM   16  S1  UNL     1      68.093  36.230  37.730  1.00  0.00    -0.139 SA
HETATM   17  C7  UNL     1      68.463  34.599  38.498  1.00  0.00     0.096 C 
HETATM   18  C8  UNL     1      68.141  34.971  39.950  1.00  0.00     0.153 C 
BRANCH  15  19
HETATM   19  C5  UNL     1      67.519  38.126  39.637  1.00  0.00     0.204 C 
BRANCH  19  20
HETATM   20  O1  UNL     1      67.443  39.100  38.688  1.00  0.00    -0.387 OA
BRANCH  20  21
HETATM   21  C4  UNL     1      68.502  39.998  38.678  1.00  0.00     0.198 C 
BRANCH  21  22
HETATM   22  C3  UNL     1      69.627  39.563  37.788  1.00  0.00     0.310 C 
BRANCH  22  23
HETATM   23  N1  UNL     1      70.913  39.847  38.338  1.00  0.00     0.198 N 
BRANCH  23  24
HETATM   24  C2  UNL     1      71.800  40.453  37.356  1.00  0.00     0.280 C 
HETATM   25  C1  UNL     1      71.135  41.402  36.419  1.00  0.00     0.037 C 
ENDBRANCH  23  24
BRANCH  23  26
HETATM   26  C17 UNL     1      71.571  38.794  39.027  1.00  0.00     0.603 C 
HETATM   27  F1  UNL     1      70.752  37.672  39.151  1.00  0.00    -0.144 F 
HETATM   28  F2  UNL     1      72.216  39.139  40.172  1.00  0.00    -0.144 F 
HETATM   29  F3  UNL     1      72.620  38.391  38.146  1.00  0.00    -0.144 F 
ENDBRANCH  23  26
ENDBRANCH  22  23
ENDBRANCH  21  22
ENDBRANCH  20  21
ENDBRANCH  19  20
ENDBRANCH  15  19
ENDBRANCH   1  14
BRANCH   4  30
HETATM   30  N4  UNL     1      62.836  36.951  42.028  1.00  0.00    -0.234 N 
ATOM     31  H42 UNL     1      63.135  37.884  42.313  1.00  0.00     0.174 HD
ATOM     32  H41 UNL     1      61.845  36.713  41.975  1.00  0.00     0.174 HD
ENDBRANCH   4  30
BRANCH  10  33
HETATM   33  C15 UNL     1      65.484  31.613  42.108  1.00  0.00     0.216 C 
HETATM   34 CL2  UNL     1      64.723  30.220  41.288  1.00  0.00    -0.103 Cl
HETATM   35 CL3  UNL     1      66.172  31.068  43.651  1.00  0.00    -0.103 Cl
ENDBRANCH  10  33
TORSDOF 10
ENDMDL
