MODEL 1
REMARK VINA RESULT: -6.828357954      0.000      0.000
REMARK  4 active torsions:
REMARK  status: ('A' for Active; 'I' for Inactive)
REMARK    1  A    between atoms: N1_1  and  C1_4 
REMARK    2  A    between atoms: C2_9  and  S1_10 
REMARK    3  A    between atoms: S1_10  and  C3_11 
REMARK    4  A    between atoms: C3_11  and  C4_12 
REMARK       I    between atoms: C4_12  and  N4_14 
ROOT
HETATM    1  C1  UNL     1      -4.445   1.270  11.031  1.00  0.00     0.159 A 
HETATM    2  N2  UNL     1      -3.362   0.914  11.725  1.00  0.00    -0.279 N 
ATOM      3  H2  UNL     1      -2.977  -0.027  11.639  1.00  0.00     0.189 HD
HETATM    4  N3  UNL     1      -2.820   1.763  12.491  1.00  0.00    -0.286 N 
ATOM      5  H3  UNL     1      -1.992   1.506  13.027  1.00  0.00     0.188 HD
HETATM    6  C2  UNL     1      -3.323   2.984  12.601  1.00  0.00     0.130 A 
HETATM    7  S2  UNL     1      -4.655   2.898  11.533  1.00  0.00    -0.027 SA
ENDROOT
BRANCH   6   8
HETATM    8  S1  UNL     1      -2.722   4.352  13.621  1.00  0.00    -0.094 SA
BRANCH   8   9
HETATM    9  C3  UNL     1      -3.768   4.370  15.112  1.00  0.00     0.184 C 
BRANCH   9  10
HETATM   10  C4  UNL     1      -3.818   2.979  15.668  1.00  0.00     0.229 C 
HETATM   11  O1  UNL     1      -2.716   2.369  15.720  1.00  0.00    -0.273 OA
HETATM   12  N4  UNL     1      -5.033   2.410  16.096  1.00  0.00    -0.351 N 
HETATM   13  C5  UNL     1      -6.268   3.142  16.016  1.00  0.00     0.125 C 
HETATM   14  C9  UNL     1      -5.054   1.076  16.629  1.00  0.00     0.125 C 
HETATM   15  C6  UNL     1      -7.448   2.313  16.414  1.00  0.00     0.020 C 
HETATM   16  C7  UNL     1      -7.257   1.576  17.711  1.00  0.00     0.003 C 
HETATM   17  C8  UNL     1      -5.831   1.137  17.927  1.00  0.00     0.020 C 
ENDBRANCH   9  10
ENDBRANCH   8   9
ENDBRANCH   6   8
BRANCH   1  18
HETATM   18  N1  UNL     1      -5.143   0.541  10.191  1.00  0.00    -0.379 N 
ATOM     19  H12 UNL     1      -4.839  -0.042   9.410  1.00  0.00     0.158 HD
ATOM     20  H11 UNL     1      -6.154   0.416  10.158  1.00  0.00     0.158 HD
ENDBRANCH   1  18
TORSDOF 4
ENDMDL
MODEL 2
REMARK VINA RESULT: -6.662553305      1.877      2.361
REMARK  4 active torsions:
REMARK  status: ('A' for Active; 'I' for Inactive)
REMARK    1  A    between atoms: N1_1  and  C1_4 
REMARK    2  A    between atoms: C2_9  and  S1_10 
REMARK    3  A    between atoms: S1_10  and  C3_11 
REMARK    4  A    between atoms: C3_11  and  C4_12 
REMARK       I    between atoms: C4_12  and  N4_14 
ROOT
HETATM    1  C1  UNL     1      -4.301  -0.044  11.447  1.00  0.00     0.159 A 
HETATM    2  N2  UNL     1      -4.929   0.699  10.533  1.00  0.00    -0.279 N 
ATOM      3  H2  UNL     1      -5.306   0.271   9.687  1.00  0.00     0.189 HD
HETATM    4  N3  UNL     1      -5.049   1.943  10.733  1.00  0.00    -0.286 N 
ATOM      5  H3  UNL     1      -5.528   2.523  10.045  1.00  0.00     0.188 HD
HETATM    6  C2  UNL     1      -4.557   2.495  11.832  1.00  0.00     0.130 A 
HETATM    7  S2  UNL     1      -3.883   1.137  12.621  1.00  0.00    -0.027 SA
ENDROOT
BRANCH   6   8
HETATM    8  S1  UNL     1      -4.612   4.234  12.329  1.00  0.00    -0.094 SA
BRANCH   8   9
HETATM    9  C3  UNL     1      -4.308   4.257  14.125  1.00  0.00     0.184 C 
BRANCH   9  10
HETATM   10  C4  UNL     1      -5.633   4.247  14.826  1.00  0.00     0.229 C 
HETATM   11  O1  UNL     1      -6.490   5.062  14.390  1.00  0.00    -0.273 OA
HETATM   12  N4  UNL     1      -5.879   3.374  15.903  1.00  0.00    -0.351 N 
HETATM   13  C5  UNL     1      -4.870   2.461  16.369  1.00  0.00     0.125 C 
HETATM   14  C9  UNL     1      -7.158   3.380  16.556  1.00  0.00     0.125 C 
HETATM   15  C6  UNL     1      -5.300   1.712  17.589  1.00  0.00     0.020 C 
HETATM   16  C7  UNL     1      -6.669   1.101  17.471  1.00  0.00     0.003 C 
HETATM   17  C8  UNL     1      -7.611   1.938  16.644  1.00  0.00     0.020 C 
ENDBRANCH   9  10
ENDBRANCH   8   9
ENDBRANCH   6   8
BRANCH   1  18
HETATM   18  N1  UNL     1      -4.077  -1.337  11.423  1.00  0.00    -0.379 N 
ATOM     19  H12 UNL     1      -3.207  -1.857  11.308  1.00  0.00     0.158 HD
ATOM     20  H11 UNL     1      -4.755  -2.094  11.519  1.00  0.00     0.158 HD
ENDBRANCH   1  18
TORSDOF 4
ENDMDL
MODEL 3
REMARK VINA RESULT: -6.609239306      1.999      2.524
REMARK  4 active torsions:
REMARK  status: ('A' for Active; 'I' for Inactive)
REMARK    1  A    between atoms: N1_1  and  C1_4 
REMARK    2  A    between atoms: C2_9  and  S1_10 
REMARK    3  A    between atoms: S1_10  and  C3_11 
REMARK    4  A    between atoms: C3_11  and  C4_12 
REMARK       I    between atoms: C4_12  and  N4_14 
ROOT
HETATM    1  C1  UNL     1      -2.855  -1.108  11.491  1.00  0.00     0.159 A 
HETATM    2  N2  UNL     1      -1.980  -0.101  11.487  1.00  0.00    -0.279 N 
ATOM      3  H2  UNL     1      -0.986  -0.278  11.340  1.00  0.00     0.189 HD
HETATM    4  N3  UNL     1      -2.403   1.078  11.669  1.00  0.00    -0.286 N 
ATOM      5  H3  UNL     1      -1.746   1.858  11.668  1.00  0.00     0.188 HD
HETATM    6  C2  UNL     1      -3.694   1.305  11.861  1.00  0.00     0.130 A 
HETATM    7  S2  UNL     1      -4.332  -0.279  11.771  1.00  0.00    -0.027 SA
ENDROOT
BRANCH   6   8
HETATM    8  S1  UNL     1      -4.521   2.891  12.136  1.00  0.00    -0.094 SA
BRANCH   8   9
HETATM    9  C3  UNL     1      -4.073   3.409  13.823  1.00  0.00     0.184 C 
BRANCH   9  10
HETATM   10  C4  UNL     1      -5.331   3.763  14.557  1.00  0.00     0.229 C 
HETATM   11  O1  UNL     1      -6.018   4.691  14.051  1.00  0.00    -0.273 OA
HETATM   12  N4  UNL     1      -5.700   3.087  15.736  1.00  0.00    -0.351 N 
HETATM   13  C5  UNL     1      -4.885   2.035  16.278  1.00  0.00     0.125 C 
HETATM   14  C9  UNL     1      -6.913   3.442  16.418  1.00  0.00     0.125 C 
HETATM   15  C6  UNL     1      -5.399   1.535  17.590  1.00  0.00     0.020 C 
HETATM   16  C7  UNL     1      -6.871   1.226  17.583  1.00  0.00     0.003 C 
HETATM   17  C8  UNL     1      -7.656   2.151  16.688  1.00  0.00     0.020 C 
ENDBRANCH   9  10
ENDBRANCH   8   9
ENDBRANCH   6   8
BRANCH   1  18
HETATM   18  N1  UNL     1      -2.617  -2.388  11.320  1.00  0.00    -0.379 N 
ATOM     19  H12 UNL     1      -3.193  -3.119  10.903  1.00  0.00     0.158 HD
ATOM     20  H11 UNL     1      -1.781  -2.911  11.582  1.00  0.00     0.158 HD
ENDBRANCH   1  18
TORSDOF 4
ENDMDL
MODEL 4
REMARK VINA RESULT: -6.352423525      2.280      2.657
REMARK  4 active torsions:
REMARK  status: ('A' for Active; 'I' for Inactive)
REMARK    1  A    between atoms: N1_1  and  C1_4 
REMARK    2  A    between atoms: C2_9  and  S1_10 
REMARK    3  A    between atoms: S1_10  and  C3_11 
REMARK    4  A    between atoms: C3_11  and  C4_12 
REMARK       I    between atoms: C4_12  and  N4_14 
ROOT
HETATM    1  C1  UNL     1      -0.347   4.102  11.067  1.00  0.00     0.159 A 
HETATM    2  N2  UNL     1      -0.326   4.034  12.400  1.00  0.00    -0.279 N 
ATOM      3  H2  UNL     1       0.555   3.913  12.900  1.00  0.00     0.189 HD
HETATM    4  N3  UNL     1      -1.419   4.123  13.034  1.00  0.00    -0.286 N 
ATOM      5  H3  UNL     1      -1.419   4.074  14.053  1.00  0.00     0.188 HD
HETATM    6  C2  UNL     1      -2.561   4.279  12.381  1.00  0.00     0.130 A 
HETATM    7  S2  UNL     1      -2.024   4.301  10.759  1.00  0.00    -0.027 SA
ENDROOT
BRANCH   6   8
HETATM    8  S1  UNL     1      -4.228   4.431  13.069  1.00  0.00    -0.094 SA
BRANCH   8   9
HETATM    9  C3  UNL     1      -4.020   4.572  14.872  1.00  0.00     0.184 C 
BRANCH   9  10
HETATM   10  C4  UNL     1      -3.942   3.189  15.446  1.00  0.00     0.229 C 
HETATM   11  O1  UNL     1      -2.801   2.653  15.431  1.00  0.00    -0.273 OA
HETATM   12  N4  UNL     1      -5.085   2.550  15.963  1.00  0.00    -0.351 N 
HETATM   13  C5  UNL     1      -6.368   3.199  15.959  1.00  0.00     0.125 C 
HETATM   14  C9  UNL     1      -4.983   1.227  16.512  1.00  0.00     0.125 C 
HETATM   15  C6  UNL     1      -7.461   2.303  16.446  1.00  0.00     0.020 C 
HETATM   16  C7  UNL     1      -7.136   1.600  17.735  1.00  0.00     0.003 C 
HETATM   17  C8  UNL     1      -5.673   1.257  17.859  1.00  0.00     0.020 C 
ENDBRANCH   9  10
ENDBRANCH   8   9
ENDBRANCH   6   8
BRANCH   1  18
HETATM   18  N1  UNL     1       0.669   4.033  10.239  1.00  0.00    -0.379 N 
ATOM     19  H12 UNL     1       1.451   4.673  10.095  1.00  0.00     0.158 HD
ATOM     20  H11 UNL     1       0.877   3.301   9.559  1.00  0.00     0.158 HD
ENDBRANCH   1  18
TORSDOF 4
ENDMDL
MODEL 5
REMARK VINA RESULT: -6.339566055      2.049      5.090
REMARK  4 active torsions:
REMARK  status: ('A' for Active; 'I' for Inactive)
REMARK    1  A    between atoms: N1_1  and  C1_4 
REMARK    2  A    between atoms: C2_9  and  S1_10 
REMARK    3  A    between atoms: S1_10  and  C3_11 
REMARK    4  A    between atoms: C3_11  and  C4_12 
REMARK       I    between atoms: C4_12  and  N4_14 
ROOT
HETATM    1  C1  UNL     1      -5.067   1.481  16.635  1.00  0.00     0.159 A 
HETATM    2  N2  UNL     1      -3.813   1.275  16.226  1.00  0.00    -0.279 N 
ATOM      3  H2  UNL     1      -3.341   0.393  16.424  1.00  0.00     0.189 HD
HETATM    4  N3  UNL     1      -3.219   2.194  15.589  1.00  0.00    -0.286 N 
ATOM      5  H3  UNL     1      -2.261   2.051  15.269  1.00  0.00     0.188 HD
HETATM    6  C2  UNL     1      -3.835   3.339  15.334  1.00  0.00     0.130 A 
HETATM    7  S2  UNL     1      -5.361   3.070  16.057  1.00  0.00    -0.027 SA
ENDROOT
BRANCH   6   8
HETATM    8  S1  UNL     1      -3.193   4.779  14.446  1.00  0.00    -0.094 SA
BRANCH   8   9
HETATM    9  C3  UNL     1      -3.562   4.492  12.686  1.00  0.00     0.184 C 
BRANCH   9  10
HETATM   10  C4  UNL     1      -2.636   3.429  12.178  1.00  0.00     0.229 C 
HETATM   11  O1  UNL     1      -1.405   3.663  12.315  1.00  0.00    -0.273 OA
HETATM   12  N4  UNL     1      -3.134   2.252  11.587  1.00  0.00    -0.351 N 
HETATM   13  C5  UNL     1      -4.548   2.028  11.449  1.00  0.00     0.125 C 
HETATM   14  C9  UNL     1      -2.226   1.246  11.112  1.00  0.00     0.125 C 
HETATM   15  C6  UNL     1      -4.854   0.775  10.693  1.00  0.00     0.020 C 
HETATM   16  C7  UNL     1      -4.090  -0.426  11.180  1.00  0.00     0.003 C 
HETATM   17  C8  UNL     1      -2.708  -0.076  11.671  1.00  0.00     0.020 C 
ENDBRANCH   9  10
ENDBRANCH   8   9
ENDBRANCH   6   8
BRANCH   1  18
HETATM   18  N1  UNL     1      -5.845   0.660  17.301  1.00  0.00    -0.379 N 
ATOM     19  H12 UNL     1      -6.799   0.352  17.112  1.00  0.00     0.158 HD
ATOM     20  H11 UNL     1      -5.636   0.157  18.164  1.00  0.00     0.158 HD
ENDBRANCH   1  18
TORSDOF 4
ENDMDL
