MODEL 1
REMARK VINA RESULT: -7.386411777      0.000      0.000
REMARK  3 active torsions:
REMARK  status: ('A' for Active; 'I' for Inactive)
REMARK    1  A    between atoms: C4_8  and  N3_9 
REMARK       I    between atoms: N3_9  and  C5_11 
REMARK    2  A    between atoms: C5_11  and  C6_13 
REMARK    3  A    between atoms: C6_13  and  N4_14 
ROOT
HETATM    1  N1  UNL     1      -4.953   4.339  10.877  1.00  0.00    -0.190 NA
HETATM    2  C1  UNL     1      -4.660   3.231  10.986  1.00  0.00     0.120 C 
HETATM    3  C2  UNL     1      -4.285   1.808  11.076  1.00  0.00     0.148 A 
HETATM    4  N2  UNL     1      -4.312   1.115   9.950  1.00  0.00    -0.349 N 
ATOM      5  H2  UNL     1      -4.588   1.574   9.082  1.00  0.00     0.166 HD
HETATM    6  C3  UNL     1      -3.990  -0.145   9.935  1.00  0.00     0.141 A 
HETATM    7  S1  UNL     1      -3.621  -0.435  11.566  1.00  0.00    -0.064 SA
HETATM    8  C4  UNL     1      -3.919   1.184  12.212  1.00  0.00     0.116 A 
ENDROOT
BRANCH   8   9
HETATM    9  N3  UNL     1      -3.772   1.539  13.573  1.00  0.00    -0.315 N 
HETATM   10  C5  UNL     1      -4.053   0.960  14.791  1.00  0.00     0.256 C 
HETATM   11  O1  UNL     1      -4.558  -0.132  14.983  1.00  0.00    -0.267 OA
ATOM     12  H3  UNL     1      -3.349   2.462  13.680  1.00  0.00     0.170 HD
BRANCH  10  13
HETATM   13  C6  UNL     1      -3.690   1.783  15.999  1.00  0.00     0.134 C 
BRANCH  13  14
HETATM   14  N4  UNL     1      -4.780   2.245  16.752  1.00  0.00    -0.288 NA
HETATM   15  C7  UNL     1      -5.503   1.314  17.537  1.00  0.00     0.095 C 
HETATM   16  C8  UNL     1      -6.709   1.926  18.205  1.00  0.00     0.015 C 
HETATM   17  C9  UNL     1      -7.601   2.492  17.115  1.00  0.00     0.002 C 
HETATM   18  C10 UNL     1      -6.794   3.672  16.553  1.00  0.00     0.015 C 
HETATM   19  C11 UNL     1      -5.588   3.089  15.902  1.00  0.00     0.095 C 
ENDBRANCH  13  14
ENDBRANCH  10  13
ENDBRANCH   8   9
TORSDOF 3
ENDMDL
MODEL 2
REMARK VINA RESULT: -7.048606516      2.024      2.517
REMARK  3 active torsions:
REMARK  status: ('A' for Active; 'I' for Inactive)
REMARK    1  A    between atoms: C4_8  and  N3_9 
REMARK       I    between atoms: N3_9  and  C5_11 
REMARK    2  A    between atoms: C5_11  and  C6_13 
REMARK    3  A    between atoms: C6_13  and  N4_14 
ROOT
HETATM    1  N1  UNL     1      -5.047   5.710  11.929  1.00  0.00    -0.190 NA
HETATM    2  C1  UNL     1      -4.183   4.986  11.691  1.00  0.00     0.120 C 
HETATM    3  C2  UNL     1      -3.062   4.092  11.350  1.00  0.00     0.148 A 
HETATM    4  N2  UNL     1      -2.360   4.402  10.274  1.00  0.00    -0.349 N 
ATOM      5  H2  UNL     1      -2.615   5.225   9.727  1.00  0.00     0.166 HD
HETATM    6  C3  UNL     1      -1.350   3.671   9.903  1.00  0.00     0.141 A 
HETATM    7  S1  UNL     1      -1.334   2.462  11.093  1.00  0.00    -0.064 SA
HETATM    8  C4  UNL     1      -2.712   3.001  12.059  1.00  0.00     0.116 A 
ENDROOT
BRANCH   8   9
HETATM    9  N3  UNL     1      -3.182   2.340  13.218  1.00  0.00    -0.315 N 
HETATM   10  C5  UNL     1      -4.034   1.292  13.493  1.00  0.00     0.256 C 
HETATM   11  O1  UNL     1      -4.649   0.618  12.685  1.00  0.00    -0.267 OA
ATOM     12  H3  UNL     1      -2.789   2.742  14.069  1.00  0.00     0.170 HD
BRANCH  10  13
HETATM   13  C6  UNL     1      -4.207   0.964  14.952  1.00  0.00     0.134 C 
BRANCH  13  14
HETATM   14  N4  UNL     1      -5.361   1.495  15.547  1.00  0.00    -0.288 NA
HETATM   15  C7  UNL     1      -5.545   2.899  15.529  1.00  0.00     0.095 C 
HETATM   16  C8  UNL     1      -6.769   3.337  16.296  1.00  0.00     0.015 C 
HETATM   17  C9  UNL     1      -6.614   2.849  17.726  1.00  0.00     0.002 C 
HETATM   18  C10 UNL     1      -6.722   1.321  17.608  1.00  0.00     0.015 C 
HETATM   19  C11 UNL     1      -5.530   0.870  16.838  1.00  0.00     0.095 C 
ENDBRANCH  13  14
ENDBRANCH  10  13
ENDBRANCH   8   9
TORSDOF 3
ENDMDL
MODEL 3
REMARK VINA RESULT: -6.936593278      1.139      1.739
REMARK  3 active torsions:
REMARK  status: ('A' for Active; 'I' for Inactive)
REMARK    1  A    between atoms: C4_8  and  N3_9 
REMARK       I    between atoms: N3_9  and  C5_11 
REMARK    2  A    between atoms: C5_11  and  C6_13 
REMARK    3  A    between atoms: C6_13  and  N4_14 
ROOT
HETATM    1  N1  UNL     1      -5.072   4.124  10.671  1.00  0.00    -0.190 NA
HETATM    2  C1  UNL     1      -4.759   3.036  10.877  1.00  0.00     0.120 C 
HETATM    3  C2  UNL     1      -4.360   1.633  11.090  1.00  0.00     0.148 A 
HETATM    4  N2  UNL     1      -4.355   0.848  10.027  1.00  0.00    -0.349 N 
ATOM      5  H2  UNL     1      -4.625   1.228   9.119  1.00  0.00     0.166 HD
HETATM    6  C3  UNL     1      -4.010  -0.402  10.122  1.00  0.00     0.141 A 
HETATM    7  S1  UNL     1      -3.663  -0.547  11.777  1.00  0.00    -0.064 SA
HETATM    8  C4  UNL     1      -4.002   1.113  12.280  1.00  0.00     0.116 A 
ENDROOT
BRANCH   8   9
HETATM    9  N3  UNL     1      -3.884   1.584  13.609  1.00  0.00    -0.315 N 
HETATM   10  C5  UNL     1      -4.205   1.116  14.865  1.00  0.00     0.256 C 
HETATM   11  O1  UNL     1      -4.732   0.052  15.136  1.00  0.00    -0.267 OA
ATOM     12  H3  UNL     1      -3.449   2.506  13.646  1.00  0.00     0.170 HD
BRANCH  10  13
HETATM   13  C6  UNL     1      -3.860   2.037  16.006  1.00  0.00     0.134 C 
BRANCH  13  14
HETATM   14  N4  UNL     1      -4.574   3.244  16.031  1.00  0.00    -0.288 NA
HETATM   15  C7  UNL     1      -5.989   3.194  15.997  1.00  0.00     0.095 C 
HETATM   16  C8  UNL     1      -6.619   4.563  15.920  1.00  0.00     0.015 C 
HETATM   17  C9  UNL     1      -6.091   5.243  14.669  1.00  0.00     0.002 C 
HETATM   18  C10 UNL     1      -4.606   5.486  14.981  1.00  0.00     0.015 C 
HETATM   19  C11 UNL     1      -3.968   4.144  15.078  1.00  0.00     0.095 C 
ENDBRANCH  13  14
ENDBRANCH  10  13
ENDBRANCH   8   9
TORSDOF 3
ENDMDL
MODEL 4
REMARK VINA RESULT: -6.879321348      1.960      2.327
REMARK  3 active torsions:
REMARK  status: ('A' for Active; 'I' for Inactive)
REMARK    1  A    between atoms: C4_8  and  N3_9 
REMARK       I    between atoms: N3_9  and  C5_11 
REMARK    2  A    between atoms: C5_11  and  C6_13 
REMARK    3  A    between atoms: C6_13  and  N4_14 
ROOT
HETATM    1  N1  UNL     1      -5.840   2.556  11.055  1.00  0.00    -0.190 NA
HETATM    2  C1  UNL     1      -4.791   2.983  11.257  1.00  0.00     0.120 C 
HETATM    3  C2  UNL     1      -3.447   3.552  11.469  1.00  0.00     0.148 A 
HETATM    4  N2  UNL     1      -2.884   4.149  10.433  1.00  0.00    -0.349 N 
ATOM      5  H2  UNL     1      -3.382   4.191   9.544  1.00  0.00     0.166 HD
HETATM    6  C3  UNL     1      -1.703   4.684  10.533  1.00  0.00     0.141 A 
HETATM    7  S1  UNL     1      -1.305   4.362  12.151  1.00  0.00    -0.064 SA
HETATM    8  C4  UNL     1      -2.773   3.506  12.635  1.00  0.00     0.116 A 
ENDROOT
BRANCH   8   9
HETATM    9  N3  UNL     1      -3.000   2.979  13.928  1.00  0.00    -0.315 N 
HETATM   10  C5  UNL     1      -3.713   1.929  14.466  1.00  0.00     0.256 C 
HETATM   11  O1  UNL     1      -4.393   1.120  13.860  1.00  0.00    -0.267 OA
ATOM     12  H3  UNL     1      -2.511   3.513  14.646  1.00  0.00     0.170 HD
BRANCH  10  13
HETATM   13  C6  UNL     1      -3.628   1.789  15.963  1.00  0.00     0.134 C 
BRANCH  13  14
HETATM   14  N4  UNL     1      -4.820   2.055  16.653  1.00  0.00    -0.288 NA
HETATM   15  C7  UNL     1      -5.597   0.962  17.108  1.00  0.00     0.095 C 
HETATM   16  C8  UNL     1      -6.900   1.393  17.735  1.00  0.00     0.015 C 
HETATM   17  C9  UNL     1      -7.672   2.185  16.694  1.00  0.00     0.002 C 
HETATM   18  C10 UNL     1      -6.848   3.470  16.522  1.00  0.00     0.015 C 
HETATM   19  C11 UNL     1      -5.548   3.063  15.919  1.00  0.00     0.095 C 
ENDBRANCH  13  14
ENDBRANCH  10  13
ENDBRANCH   8   9
TORSDOF 3
ENDMDL
MODEL 5
REMARK VINA RESULT: -6.839900752      2.222      2.917
REMARK  3 active torsions:
REMARK  status: ('A' for Active; 'I' for Inactive)
REMARK    1  A    between atoms: C4_8  and  N3_9 
REMARK       I    between atoms: N3_9  and  C5_11 
REMARK    2  A    between atoms: C5_11  and  C6_13 
REMARK    3  A    between atoms: C6_13  and  N4_14 
ROOT
HETATM    1  N1  UNL     1      -4.398  -0.522  12.027  1.00  0.00    -0.190 NA
HETATM    2  C1  UNL     1      -3.773   0.431  11.864  1.00  0.00     0.120 C 
HETATM    3  C2  UNL     1      -2.953   1.630  11.614  1.00  0.00     0.148 A 
HETATM    4  N2  UNL     1      -2.098   1.567  10.608  1.00  0.00    -0.349 N 
ATOM      5  H2  UNL     1      -2.032   0.710  10.058  1.00  0.00     0.166 HD
HETATM    6  C3  UNL     1      -1.340   2.581  10.312  1.00  0.00     0.141 A 
HETATM    7  S1  UNL     1      -1.806   3.722  11.479  1.00  0.00    -0.064 SA
HETATM    8  C4  UNL     1      -3.026   2.769  12.331  1.00  0.00     0.116 A 
ENDROOT
BRANCH   8   9
HETATM    9  N3  UNL     1      -3.767   3.232  13.443  1.00  0.00    -0.315 N 
HETATM   10  C5  UNL     1      -3.482   3.687  14.713  1.00  0.00     0.256 C 
HETATM   11  O1  UNL     1      -2.379   3.802  15.217  1.00  0.00    -0.267 OA
ATOM     12  H3  UNL     1      -4.771   3.228  13.257  1.00  0.00     0.170 HD
BRANCH  10  13
HETATM   13  C6  UNL     1      -4.676   4.074  15.545  1.00  0.00     0.134 C 
BRANCH  13  14
HETATM   14  N4  UNL     1      -5.548   3.021  15.858  1.00  0.00    -0.288 NA
HETATM   15  C7  UNL     1      -6.874   3.333  16.244  1.00  0.00     0.095 C 
HETATM   16  C8  UNL     1      -7.665   2.115  16.655  1.00  0.00     0.015 C 
HETATM   17  C9  UNL     1      -6.927   1.455  17.807  1.00  0.00     0.002 C 
HETATM   18  C10 UNL     1      -5.641   0.918  17.162  1.00  0.00     0.015 C 
HETATM   19  C11 UNL     1      -4.852   2.107  16.733  1.00  0.00     0.095 C 
ENDBRANCH  13  14
ENDBRANCH  10  13
ENDBRANCH   8   9
TORSDOF 3
ENDMDL
