MODEL 1
REMARK VINA RESULT: -6.048485649      0.000      0.000
REMARK  4 active torsions:
REMARK  status: ('A' for Active; 'I' for Inactive)
REMARK    1  A    between atoms: N1_2  and  C3_4 
REMARK    2  A    between atoms: C7_8  and  O1_9 
REMARK    3  A    between atoms: C7_8  and  C8_11 
REMARK    4  A    between atoms: C8_11  and  C9_13 
ROOT
HETATM    1  C3  UNL     1      -3.165   2.389  12.306  1.00  0.00     0.263 C 
HETATM    2  C4  UNL     1      -2.632   1.697  11.033  1.00  0.00     0.039 C 
HETATM    3  C5  UNL     1      -2.871   0.254  11.331  1.00  0.00     0.006 C 
HETATM    4  C6  UNL     1      -4.303   0.287  11.834  1.00  0.00     0.048 C 
HETATM    5  C7  UNL     1      -4.428   1.652  12.564  1.00  0.00     0.149 C 
ENDROOT
BRANCH   5   6
HETATM    6  O1  UNL     1      -5.504   2.322  12.004  1.00  0.00    -0.380 OA
ATOM      7  H1  UNL     1      -6.274   2.233  12.552  1.00  0.00     0.211 HD
ENDBRANCH   5   6
BRANCH   5   8
HETATM    8  C8  UNL     1      -4.626   1.291  13.994  1.00  0.00     0.170 C 
HETATM    9  O2  UNL     1      -4.629   0.070  14.215  1.00  0.00    -0.294 OA
BRANCH   8  10
HETATM   10  C9  UNL     1      -4.813   2.204  15.109  1.00  0.00     0.013 C 
HETATM   11  C10 UNL     1      -3.564   2.726  15.764  1.00  0.00     0.023 C 
HETATM   12  C11 UNL     1      -5.628   1.515  16.219  1.00  0.00     0.023 C 
HETATM   13  C12 UNL     1      -5.634   3.433  14.743  1.00  0.00     0.023 C 
ENDBRANCH   8  10
ENDBRANCH   5   8
BRANCH   1  14
HETATM   14  N1  UNL     1      -3.305   3.773  11.909  1.00  0.00     0.088 N 
HETATM   15  C1  UNL     1      -2.828   3.969  10.543  1.00  0.00     0.310 C 
HETATM   16  C2  UNL     1      -2.685   4.720  12.805  1.00  0.00     0.310 C 
ENDBRANCH   1  14
TORSDOF 4
ENDMDL
MODEL 2
REMARK VINA RESULT: -6.024107805      0.074      1.068
REMARK  4 active torsions:
REMARK  status: ('A' for Active; 'I' for Inactive)
REMARK    1  A    between atoms: N1_2  and  C3_4 
REMARK    2  A    between atoms: C7_8  and  O1_9 
REMARK    3  A    between atoms: C7_8  and  C8_11 
REMARK    4  A    between atoms: C8_11  and  C9_13 
ROOT
HETATM    1  C3  UNL     1      -3.179   2.405  12.352  1.00  0.00     0.263 C 
HETATM    2  C4  UNL     1      -2.648   1.727  11.070  1.00  0.00     0.039 C 
HETATM    3  C5  UNL     1      -2.898   0.282  11.347  1.00  0.00     0.006 C 
HETATM    4  C6  UNL     1      -4.331   0.318  11.846  1.00  0.00     0.048 C 
HETATM    5  C7  UNL     1      -4.449   1.674  12.595  1.00  0.00     0.149 C 
ENDROOT
BRANCH   5   6
HETATM    6  O1  UNL     1      -5.518   2.359  12.042  1.00  0.00    -0.380 OA
ATOM      7  H1  UNL     1      -5.469   3.283  12.257  1.00  0.00     0.211 HD
ENDBRANCH   5   6
BRANCH   5   8
HETATM    8  C8  UNL     1      -4.654   1.293  14.020  1.00  0.00     0.170 C 
HETATM    9  O2  UNL     1      -4.598   0.073  14.233  1.00  0.00    -0.294 OA
BRANCH   8  10
HETATM   10  C9  UNL     1      -4.908   2.189  15.137  1.00  0.00     0.013 C 
HETATM   11  C10 UNL     1      -5.619   3.475  14.815  1.00  0.00     0.023 C 
HETATM   12  C11 UNL     1      -3.579   2.584  15.805  1.00  0.00     0.023 C 
HETATM   13  C12 UNL     1      -5.715   1.538  16.251  1.00  0.00     0.023 C 
ENDBRANCH   8  10
ENDBRANCH   5   8
BRANCH   1  14
HETATM   14  N1  UNL     1      -3.309   3.795  11.974  1.00  0.00     0.088 N 
HETATM   15  C1  UNL     1      -2.833   4.006  10.610  1.00  0.00     0.310 C 
HETATM   16  C2  UNL     1      -2.679   4.725  12.883  1.00  0.00     0.310 C 
ENDBRANCH   1  14
TORSDOF 4
ENDMDL
MODEL 3
REMARK VINA RESULT: -6.011641460      1.530      3.977
REMARK  4 active torsions:
REMARK  status: ('A' for Active; 'I' for Inactive)
REMARK    1  A    between atoms: N1_2  and  C3_4 
REMARK    2  A    between atoms: C7_8  and  O1_9 
REMARK    3  A    between atoms: C7_8  and  C8_11 
REMARK    4  A    between atoms: C8_11  and  C9_13 
ROOT
HETATM    1  C3  UNL     1      -5.170   3.531  14.330  1.00  0.00     0.263 C 
HETATM    2  C4  UNL     1      -5.932   3.975  15.598  1.00  0.00     0.039 C 
HETATM    3  C5  UNL     1      -6.396   2.673  16.162  1.00  0.00     0.006 C 
HETATM    4  C6  UNL     1      -5.124   1.848  16.091  1.00  0.00     0.048 C 
HETATM    5  C7  UNL     1      -4.398   2.360  14.817  1.00  0.00     0.149 C 
ENDROOT
BRANCH   5   6
HETATM    6  O1  UNL     1      -3.122   2.742  15.196  1.00  0.00    -0.380 OA
ATOM      7  H1  UNL     1      -3.088   3.677  15.358  1.00  0.00     0.211 HD
ENDBRANCH   5   6
BRANCH   5   8
HETATM    8  C8  UNL     1      -4.424   1.200  13.884  1.00  0.00     0.170 C 
HETATM    9  O2  UNL     1      -4.733   0.124  14.419  1.00  0.00    -0.294 OA
BRANCH   8  10
HETATM   10  C9  UNL     1      -4.127   1.215  12.461  1.00  0.00     0.013 C 
HETATM   11  C10 UNL     1      -5.161   1.843  11.568  1.00  0.00     0.023 C 
HETATM   12  C11 UNL     1      -3.932  -0.225  11.952  1.00  0.00     0.023 C 
HETATM   13  C12 UNL     1      -2.816   1.915  12.133  1.00  0.00     0.023 C 
ENDBRANCH   8  10
ENDBRANCH   5   8
BRANCH   1  14
HETATM   14  N1  UNL     1      -4.395   4.699  13.972  1.00  0.00     0.088 N 
HETATM   15  C1  UNL     1      -4.639   5.789  14.912  1.00  0.00     0.310 C 
HETATM   16  C2  UNL     1      -4.581   5.149  12.612  1.00  0.00     0.310 C 
ENDBRANCH   1  14
TORSDOF 4
ENDMDL
MODEL 4
REMARK VINA RESULT: -5.906205802      1.499      3.964
REMARK  4 active torsions:
REMARK  status: ('A' for Active; 'I' for Inactive)
REMARK    1  A    between atoms: N1_2  and  C3_4 
REMARK    2  A    between atoms: C7_8  and  O1_9 
REMARK    3  A    between atoms: C7_8  and  C8_11 
REMARK    4  A    between atoms: C8_11  and  C9_13 
ROOT
HETATM    1  C3  UNL     1      -5.176   3.509  14.326  1.00  0.00     0.263 C 
HETATM    2  C4  UNL     1      -5.956   3.904  15.598  1.00  0.00     0.039 C 
HETATM    3  C5  UNL     1      -6.396   2.579  16.126  1.00  0.00     0.006 C 
HETATM    4  C6  UNL     1      -5.106   1.783  16.044  1.00  0.00     0.048 C 
HETATM    5  C7  UNL     1      -4.382   2.342  14.788  1.00  0.00     0.149 C 
ENDROOT
BRANCH   5   6
HETATM    6  O1  UNL     1      -3.117   2.742  15.186  1.00  0.00    -0.380 OA
ATOM      7  H1  UNL     1      -2.991   3.668  15.017  1.00  0.00     0.211 HD
ENDBRANCH   5   6
BRANCH   5   8
HETATM    8  C8  UNL     1      -4.377   1.206  13.827  1.00  0.00     0.170 C 
HETATM    9  O2  UNL     1      -4.754   0.128  14.311  1.00  0.00    -0.294 OA
BRANCH   8  10
HETATM   10  C9  UNL     1      -3.981   1.245  12.428  1.00  0.00     0.013 C 
HETATM   11  C10 UNL     1      -2.761   2.062  12.101  1.00  0.00     0.023 C 
HETATM   12  C11 UNL     1      -5.127   1.817  11.575  1.00  0.00     0.023 C 
HETATM   13  C12 UNL     1      -3.723  -0.136  11.843  1.00  0.00     0.023 C 
ENDBRANCH   8  10
ENDBRANCH   5   8
BRANCH   1  14
HETATM   14  N1  UNL     1      -4.423   4.702  14.003  1.00  0.00     0.088 N 
HETATM   15  C1  UNL     1      -4.725   5.774  14.946  1.00  0.00     0.310 C 
HETATM   16  C2  UNL     1      -4.582   5.162  12.643  1.00  0.00     0.310 C 
ENDBRANCH   1  14
TORSDOF 4
ENDMDL
MODEL 5
REMARK VINA RESULT: -5.673312814      2.009      3.709
REMARK  4 active torsions:
REMARK  status: ('A' for Active; 'I' for Inactive)
REMARK    1  A    between atoms: N1_2  and  C3_4 
REMARK    2  A    between atoms: C7_8  and  O1_9 
REMARK    3  A    between atoms: C7_8  and  C8_11 
REMARK    4  A    between atoms: C8_11  and  C9_13 
ROOT
HETATM    1  C3  UNL     1      -4.943   2.469  14.072  1.00  0.00     0.263 C 
HETATM    2  C4  UNL     1      -5.272   3.741  13.261  1.00  0.00     0.039 C 
HETATM    3  C5  UNL     1      -6.053   4.550  14.242  1.00  0.00     0.006 C 
HETATM    4  C6  UNL     1      -5.180   4.444  15.479  1.00  0.00     0.048 C 
HETATM    5  C7  UNL     1      -4.554   3.026  15.393  1.00  0.00     0.149 C 
ENDROOT
BRANCH   5   6
HETATM    6  O1  UNL     1      -3.179   3.177  15.470  1.00  0.00    -0.380 OA
ATOM      7  H1  UNL     1      -2.803   3.264  14.603  1.00  0.00     0.211 HD
ENDBRANCH   5   6
BRANCH   5   8
HETATM    8  C8  UNL     1      -5.141   2.291  16.546  1.00  0.00     0.170 C 
HETATM    9  O2  UNL     1      -4.488   1.298  16.903  1.00  0.00    -0.294 OA
BRANCH   8  10
HETATM   10  C9  UNL     1      -6.366   2.616  17.258  1.00  0.00     0.013 C 
HETATM   11  C10 UNL     1      -6.839   4.040  17.160  1.00  0.00     0.023 C 
HETATM   12  C11 UNL     1      -6.194   2.319  18.759  1.00  0.00     0.023 C 
HETATM   13  C12 UNL     1      -7.549   1.757  16.835  1.00  0.00     0.023 C 
ENDBRANCH   8  10
ENDBRANCH   5   8
BRANCH   1  14
HETATM   14  N1  UNL     1      -3.885   1.842  13.310  1.00  0.00     0.088 N 
HETATM   15  C1  UNL     1      -3.574   2.625  12.118  1.00  0.00     0.310 C 
HETATM   16  C2  UNL     1      -4.133   0.462  12.962  1.00  0.00     0.310 C 
ENDBRANCH   1  14
TORSDOF 4
ENDMDL
