MODEL 1
REMARK VINA RESULT: -6.194767516      0.000      0.000
REMARK  3 active torsions:
REMARK  status: ('A' for Active; 'I' for Inactive)
REMARK    1  A    between atoms: C4_5  and  N2_6 
REMARK       I    between atoms: N2_6  and  C5_8 
REMARK    2  A    between atoms: C5_8  and  O2_10 
REMARK    3  A    between atoms: O2_10  and  C6_11 
ROOT
HETATM    1  N2  UNL     1      -3.531   2.721  13.444  1.00  0.00    -0.332 N 
ATOM      2  H2  UNL     1      -2.975   2.165  14.093  1.00  0.00     0.165 HD
HETATM    3  C5  UNL     1      -4.857   3.131  13.784  1.00  0.00     0.361 C 
HETATM    4  O1  UNL     1      -5.555   3.820  12.999  1.00  0.00    -0.238 OA
ENDROOT
BRANCH   1   5
HETATM    5  C4  UNL     1      -3.001   3.109  12.174  1.00  0.00     0.090 C 
HETATM    6  C3  UNL     1      -2.106   2.056  11.564  1.00  0.00     0.055 C 
HETATM    7  C2  UNL     1      -1.722   2.553  10.186  1.00  0.00     0.274 C 
HETATM    8  N1  UNL     1      -1.020   3.809  10.264  1.00  0.00     0.084 N 
HETATM    9  C1  UNL     1      -0.725   4.269   8.944  1.00  0.00     0.309 C 
HETATM   10  C12 UNL     1      -1.642   4.819  11.046  1.00  0.00     0.274 C 
HETATM   11  C11 UNL     1      -2.098   4.330  12.404  1.00  0.00     0.055 C 
ENDBRANCH   1   5
BRANCH   3  12
HETATM   12  O2  UNL     1      -5.427   2.785  14.989  1.00  0.00    -0.299 OA
BRANCH  12  13
HETATM   13  C6  UNL     1      -5.071   2.815  16.227  1.00  0.00     0.133 C 
HETATM   14  C7  UNL     1      -6.588   3.456  16.838  1.00  0.00     0.032 C 
HETATM   15  C8  UNL     1      -6.496   2.784  18.149  1.00  0.00     0.002 C 
HETATM   16  C9  UNL     1      -6.102   1.351  17.907  1.00  0.00     0.002 C 
HETATM   17  C10 UNL     1      -5.673   1.204  16.520  1.00  0.00     0.032 C 
ENDBRANCH  12  13
ENDBRANCH   3  12
TORSDOF 3
ENDMDL
MODEL 2
REMARK VINA RESULT: -5.894093878      1.056      1.537
REMARK  3 active torsions:
REMARK  status: ('A' for Active; 'I' for Inactive)
REMARK    1  A    between atoms: C4_5  and  N2_6 
REMARK       I    between atoms: N2_6  and  C5_8 
REMARK    2  A    between atoms: C5_8  and  O2_10 
REMARK    3  A    between atoms: O2_10  and  C6_11 
ROOT
HETATM    1  N2  UNL     1      -3.922   3.080  12.929  1.00  0.00    -0.332 N 
ATOM      2  H2  UNL     1      -4.728   2.579  12.553  1.00  0.00     0.165 HD
HETATM    3  C5  UNL     1      -3.798   3.313  14.333  1.00  0.00     0.361 C 
HETATM    4  O1  UNL     1      -2.811   3.923  14.815  1.00  0.00    -0.238 OA
ENDROOT
BRANCH   1   5
HETATM    5  C4  UNL     1      -2.892   3.563  12.063  1.00  0.00     0.090 C 
HETATM    6  C3  UNL     1      -3.430   4.368  10.903  1.00  0.00     0.055 C 
HETATM    7  C2  UNL     1      -2.231   4.907  10.152  1.00  0.00     0.274 C 
HETATM    8  N1  UNL     1      -1.400   3.835   9.662  1.00  0.00     0.084 N 
HETATM    9  C1  UNL     1      -0.255   4.384   9.009  1.00  0.00     0.309 C 
HETATM   10  C12 UNL     1      -1.038   2.847  10.617  1.00  0.00     0.274 C 
HETATM   11  C11 UNL     1      -2.210   2.341  11.431  1.00  0.00     0.055 C 
ENDBRANCH   1   5
BRANCH   3  12
HETATM   12  O2  UNL     1      -4.758   2.878  15.219  1.00  0.00    -0.299 OA
BRANCH  12  13
HETATM   13  C6  UNL     1      -4.845   2.729  16.496  1.00  0.00     0.133 C 
HETATM   14  C7  UNL     1      -6.437   3.451  16.658  1.00  0.00     0.032 C 
HETATM   15  C8  UNL     1      -6.839   2.628  17.816  1.00  0.00     0.002 C 
HETATM   16  C9  UNL     1      -6.473   1.199  17.515  1.00  0.00     0.002 C 
HETATM   17  C10 UNL     1      -5.607   1.167  16.341  1.00  0.00     0.032 C 
ENDBRANCH  12  13
ENDBRANCH   3  12
TORSDOF 3
ENDMDL
MODEL 3
REMARK VINA RESULT: -5.821073482      3.210      3.655
REMARK  3 active torsions:
REMARK  status: ('A' for Active; 'I' for Inactive)
REMARK    1  A    between atoms: C4_5  and  N2_6 
REMARK       I    between atoms: N2_6  and  C5_8 
REMARK    2  A    between atoms: C5_8  and  O2_10 
REMARK    3  A    between atoms: O2_10  and  C6_11 
ROOT
HETATM    1  N2  UNL     1      -5.352   5.293  14.228  1.00  0.00    -0.332 N 
ATOM      2  H2  UNL     1      -5.413   5.754  15.136  1.00  0.00     0.165 HD
HETATM    3  C5  UNL     1      -5.555   3.884  14.109  1.00  0.00     0.361 C 
HETATM    4  O1  UNL     1      -5.488   3.300  12.999  1.00  0.00    -0.238 OA
ENDROOT
BRANCH   1   5
HETATM    5  C4  UNL     1      -5.061   6.043  13.046  1.00  0.00     0.090 C 
HETATM    6  C3  UNL     1      -3.900   6.994  13.225  1.00  0.00     0.055 C 
HETATM    7  C2  UNL     1      -3.638   7.622  11.872  1.00  0.00     0.274 C 
HETATM    8  N1  UNL     1      -4.795   8.342  11.401  1.00  0.00     0.084 N 
HETATM    9  C1  UNL     1      -4.526   8.871  10.101  1.00  0.00     0.309 C 
HETATM   10  C12 UNL     1      -6.024   7.630  11.434  1.00  0.00     0.274 C 
HETATM   11  C11 UNL     1      -6.278   6.933  12.754  1.00  0.00     0.055 C 
ENDBRANCH   1   5
BRANCH   3  12
HETATM   12  O2  UNL     1      -5.833   3.104  15.210  1.00  0.00    -0.299 OA
BRANCH  12  13
HETATM   13  C6  UNL     1      -5.341   2.959  16.393  1.00  0.00     0.133 C 
HETATM   14  C7  UNL     1      -6.784   3.465  17.255  1.00  0.00     0.032 C 
HETATM   15  C8  UNL     1      -6.542   2.609  18.432  1.00  0.00     0.002 C 
HETATM   16  C9  UNL     1      -6.167   1.237  17.936  1.00  0.00     0.002 C 
HETATM   17  C10 UNL     1      -5.894   1.308  16.504  1.00  0.00     0.032 C 
ENDBRANCH  12  13
ENDBRANCH   3  12
TORSDOF 3
ENDMDL
MODEL 4
REMARK VINA RESULT: -5.781575906      1.257      1.281
REMARK  3 active torsions:
REMARK  status: ('A' for Active; 'I' for Inactive)
REMARK    1  A    between atoms: C4_5  and  N2_6 
REMARK       I    between atoms: N2_6  and  C5_8 
REMARK    2  A    between atoms: C5_8  and  O2_10 
REMARK    3  A    between atoms: O2_10  and  C6_11 
ROOT
HETATM    1  N2  UNL     1      -3.953   3.673  13.647  1.00  0.00    -0.332 N 
ATOM      2  H2  UNL     1      -3.263   3.096  14.128  1.00  0.00     0.165 HD
HETATM    3  C5  UNL     1      -5.293   3.771  14.137  1.00  0.00     0.361 C 
HETATM    4  O1  UNL     1      -6.155   4.478  13.560  1.00  0.00    -0.238 OA
ENDROOT
BRANCH   1   5
HETATM    5  C4  UNL     1      -3.604   4.401  12.467  1.00  0.00     0.090 C 
HETATM    6  C3  UNL     1      -3.789   3.595  11.203  1.00  0.00     0.055 C 
HETATM    7  C2  UNL     1      -3.497   4.526  10.045  1.00  0.00     0.274 C 
HETATM    8  N1  UNL     1      -2.148   5.031  10.112  1.00  0.00     0.084 N 
HETATM    9  C1  UNL     1      -1.931   5.945   9.036  1.00  0.00     0.309 C 
HETATM   10  C12 UNL     1      -1.756   5.585  11.360  1.00  0.00     0.274 C 
HETATM   11  C11 UNL     1      -2.100   4.705  12.543  1.00  0.00     0.055 C 
ENDBRANCH   1   5
BRANCH   3  12
HETATM   12  O2  UNL     1      -5.694   3.089  15.264  1.00  0.00    -0.299 OA
BRANCH  12  13
HETATM   13  C6  UNL     1      -5.199   2.849  16.430  1.00  0.00     0.133 C 
HETATM   14  C7  UNL     1      -6.606   3.377  17.339  1.00  0.00     0.032 C 
HETATM   15  C8  UNL     1      -6.397   2.441  18.461  1.00  0.00     0.002 C 
HETATM   16  C9  UNL     1      -6.099   1.084  17.881  1.00  0.00     0.002 C 
HETATM   17  C10 UNL     1      -5.837   1.225  16.452  1.00  0.00     0.032 C 
ENDBRANCH  12  13
ENDBRANCH   3  12
TORSDOF 3
ENDMDL
MODEL 5
REMARK VINA RESULT: -5.766388077      1.658      2.478
REMARK  3 active torsions:
REMARK  status: ('A' for Active; 'I' for Inactive)
REMARK    1  A    between atoms: C4_5  and  N2_6 
REMARK       I    between atoms: N2_6  and  C5_8 
REMARK    2  A    between atoms: C5_8  and  O2_10 
REMARK    3  A    between atoms: O2_10  and  C6_11 
ROOT
HETATM    1  N2  UNL     1      -4.579   1.366  13.986  1.00  0.00    -0.332 N 
ATOM      2  H2  UNL     1      -5.488   1.112  13.600  1.00  0.00     0.165 HD
HETATM    3  C5  UNL     1      -4.331   1.275  15.391  1.00  0.00     0.361 C 
HETATM    4  O1  UNL     1      -3.217   1.581  15.884  1.00  0.00    -0.238 OA
ENDROOT
BRANCH   1   5
HETATM    5  C4  UNL     1      -3.525   1.823  13.135  1.00  0.00     0.090 C 
HETATM    6  C3  UNL     1      -3.706   3.256  12.692  1.00  0.00     0.055 C 
HETATM    7  C2  UNL     1      -2.468   3.629  11.905  1.00  0.00     0.274 C 
HETATM    8  N1  UNL     1      -2.307   2.777  10.754  1.00  0.00     0.084 N 
HETATM    9  C1  UNL     1      -1.101   3.125  10.072  1.00  0.00     0.309 C 
HETATM   10  C12 UNL     1      -2.385   1.380  11.003  1.00  0.00     0.274 C 
HETATM   11  C11 UNL     1      -3.578   0.986  11.848  1.00  0.00     0.055 C 
ENDBRANCH   1   5
BRANCH   3  12
HETATM   12  O2  UNL     1      -5.306   0.849  16.264  1.00  0.00    -0.299 OA
BRANCH  12  13
HETATM   13  C6  UNL     1      -6.446   1.292  16.673  1.00  0.00     0.133 C 
HETATM   14  C7  UNL     1      -5.949   1.575  18.333  1.00  0.00     0.032 C 
HETATM   15  C8  UNL     1      -6.863   2.712  18.553  1.00  0.00     0.002 C 
HETATM   16  C9  UNL     1      -6.755   3.628  17.363  1.00  0.00     0.002 C 
HETATM   17  C10 UNL     1      -6.024   2.944  16.301  1.00  0.00     0.032 C 
ENDBRANCH  12  13
ENDBRANCH   3  12
TORSDOF 3
ENDMDL
