MODEL 1
REMARK VINA RESULT: -6.823180990      0.000      0.000
REMARK  3 active torsions:
REMARK  status: ('A' for Active; 'I' for Inactive)
REMARK    1  A    between atoms: O1_2  and  C2_3 
REMARK    2  A    between atoms: N1_7  and  C6_8 
REMARK    3  A    between atoms: C11_13  and  O2_14 
ROOT
HETATM    1  C2  UNL     1      -4.022   4.341  11.618  1.00  0.00     0.126 C 
HETATM    2  C3  UNL     1      -3.736   5.491  12.568  1.00  0.00     0.037 C 
HETATM    3  C4  UNL     1      -2.587   5.043  13.441  1.00  0.00     0.047 C 
HETATM    4  C5  UNL     1      -3.105   4.566  14.770  1.00  0.00     0.063 C 
HETATM    5  N1  UNL     1      -3.816   3.353  14.716  1.00  0.00    -0.367 N 
HETATM    6  C12 UNL     1      -3.894   2.670  13.507  1.00  0.00     0.066 C 
HETATM    7  C13 UNL     1      -4.706   3.256  12.405  1.00  0.00     0.076 C 
ENDROOT
BRANCH   5   8
HETATM    8  C6  UNL     1      -4.718   3.107  15.757  1.00  0.00     0.116 C 
HETATM    9  C7  UNL     1      -5.984   3.916  15.724  1.00  0.00     0.028 C 
HETATM   10  C8  UNL     1      -6.881   3.661  16.894  1.00  0.00     0.002 C 
HETATM   11  C9  UNL     1      -7.032   2.191  17.180  1.00  0.00     0.003 C 
HETATM   12  C10 UNL     1      -5.629   1.667  17.471  1.00  0.00     0.034 C 
HETATM   13  C11 UNL     1      -4.948   1.656  16.088  1.00  0.00     0.141 C 
BRANCH  13  14
HETATM   14  O2  UNL     1      -3.743   1.015  16.250  1.00  0.00    -0.393 OA
ATOM     15  H2  UNL     1      -3.681   0.658  17.128  1.00  0.00     0.210 HD
ENDBRANCH  13  14
ENDBRANCH   5   8
BRANCH   1  16
HETATM   16  O1  UNL     1      -4.912   4.792  10.643  1.00  0.00    -0.390 OA
HETATM   17  C1  UNL     1      -4.614   6.046  10.156  1.00  0.00     0.202 C 
ENDBRANCH   1  16
TORSDOF 3
ENDMDL
MODEL 2
REMARK VINA RESULT: -6.441939700      2.419      4.191
REMARK  3 active torsions:
REMARK  status: ('A' for Active; 'I' for Inactive)
REMARK    1  A    between atoms: O1_2  and  C2_3 
REMARK    2  A    between atoms: N1_7  and  C6_8 
REMARK    3  A    between atoms: C11_13  and  O2_14 
ROOT
HETATM    1  C2  UNL     1      -4.069   6.056  14.986  1.00  0.00     0.126 C 
HETATM    2  C3  UNL     1      -5.445   5.916  14.357  1.00  0.00     0.037 C 
HETATM    3  C4  UNL     1      -6.147   4.813  15.115  1.00  0.00     0.047 C 
HETATM    4  C5  UNL     1      -6.071   3.526  14.339  1.00  0.00     0.063 C 
HETATM    5  N1  UNL     1      -4.786   2.957  14.278  1.00  0.00    -0.367 N 
HETATM    6  C12 UNL     1      -3.751   3.551  14.993  1.00  0.00     0.066 C 
HETATM    7  C13 UNL     1      -3.242   4.877  14.548  1.00  0.00     0.076 C 
ENDROOT
BRANCH   5   8
HETATM    8  C6  UNL     1      -4.537   2.083  13.214  1.00  0.00     0.116 C 
HETATM    9  C7  UNL     1      -3.824   2.683  12.035  1.00  0.00     0.028 C 
HETATM   10  C8  UNL     1      -3.641   1.722  10.903  1.00  0.00     0.002 C 
HETATM   11  C9  UNL     1      -3.148   0.380  11.373  1.00  0.00     0.003 C 
HETATM   12  C10 UNL     1      -4.204  -0.146  12.342  1.00  0.00     0.034 C 
HETATM   13  C11 UNL     1      -4.012   0.725  13.599  1.00  0.00     0.141 C 
BRANCH  13  14
HETATM   14  O2  UNL     1      -4.804   0.176  14.580  1.00  0.00    -0.393 OA
ATOM     15  H2  UNL     1      -4.450   0.384  15.436  1.00  0.00     0.210 HD
ENDBRANCH  13  14
ENDBRANCH   5   8
BRANCH   1  16
HETATM   16  O1  UNL     1      -3.474   7.211  14.480  1.00  0.00    -0.390 OA
HETATM   17  C1  UNL     1      -2.108   7.112  14.328  1.00  0.00     0.202 C 
ENDBRANCH   1  16
TORSDOF 3
ENDMDL
MODEL 3
REMARK VINA RESULT: -6.141049961      0.988      1.214
REMARK  3 active torsions:
REMARK  status: ('A' for Active; 'I' for Inactive)
REMARK    1  A    between atoms: O1_2  and  C2_3 
REMARK    2  A    between atoms: N1_7  and  C6_8 
REMARK    3  A    between atoms: C11_13  and  O2_14 
ROOT
HETATM    1  C2  UNL     1      -4.001   3.904  11.961  1.00  0.00     0.126 C 
HETATM    2  C3  UNL     1      -4.605   5.148  12.589  1.00  0.00     0.037 C 
HETATM    3  C4  UNL     1      -3.658   5.570  13.688  1.00  0.00     0.047 C 
HETATM    4  C5  UNL     1      -4.173   5.101  15.021  1.00  0.00     0.063 C 
HETATM    5  N1  UNL     1      -4.111   3.708  15.212  1.00  0.00    -0.367 N 
HETATM    6  C12 UNL     1      -3.512   2.920  14.234  1.00  0.00     0.066 C 
HETATM    7  C13 UNL     1      -4.198   2.762  12.922  1.00  0.00     0.076 C 
ENDROOT
BRANCH   5   8
HETATM    8  C6  UNL     1      -4.985   3.165  16.159  1.00  0.00     0.116 C 
HETATM    9  C7  UNL     1      -6.366   3.758  16.183  1.00  0.00     0.028 C 
HETATM   10  C8  UNL     1      -7.237   3.186  17.257  1.00  0.00     0.002 C 
HETATM   11  C9  UNL     1      -7.151   1.684  17.314  1.00  0.00     0.003 C 
HETATM   12  C10 UNL     1      -5.688   1.352  17.594  1.00  0.00     0.034 C 
HETATM   13  C11 UNL     1      -4.981   1.662  16.260  1.00  0.00     0.141 C 
BRANCH  13  14
HETATM   14  O2  UNL     1      -3.692   1.203  16.384  1.00  0.00    -0.393 OA
ATOM     15  H2  UNL     1      -3.606   0.688  17.178  1.00  0.00     0.210 HD
ENDBRANCH  13  14
ENDBRANCH   5   8
BRANCH   1  16
HETATM   16  O1  UNL     1      -4.713   3.614  10.797  1.00  0.00    -0.390 OA
HETATM   17  C1  UNL     1      -4.762   2.270  10.496  1.00  0.00     0.202 C 
ENDBRANCH   1  16
TORSDOF 3
ENDMDL
MODEL 4
REMARK VINA RESULT: -6.047948152      2.951      4.852
REMARK  3 active torsions:
REMARK  status: ('A' for Active; 'I' for Inactive)
REMARK    1  A    between atoms: O1_2  and  C2_3 
REMARK    2  A    between atoms: N1_7  and  C6_8 
REMARK    3  A    between atoms: C11_13  and  O2_14 
ROOT
HETATM    1  C2  UNL     1      -2.929  -0.290  10.978  1.00  0.00     0.126 C 
HETATM    2  C3  UNL     1      -4.314  -0.155  11.585  1.00  0.00     0.037 C 
HETATM    3  C4  UNL     1      -5.019   0.925  10.798  1.00  0.00     0.047 C 
HETATM    4  C5  UNL     1      -4.969   2.227  11.550  1.00  0.00     0.063 C 
HETATM    5  N1  UNL     1      -3.691   2.813  11.617  1.00  0.00    -0.367 N 
HETATM    6  C12 UNL     1      -2.640   2.218  10.927  1.00  0.00     0.066 C 
HETATM    7  C13 UNL     1      -2.121   0.907  11.405  1.00  0.00     0.076 C 
ENDROOT
BRANCH   5   8
HETATM    8  C6  UNL     1      -3.467   3.709  12.668  1.00  0.00     0.116 C 
HETATM    9  C7  UNL     1      -3.766   5.151  12.365  1.00  0.00     0.028 C 
HETATM   10  C8  UNL     1      -3.446   6.072  13.501  1.00  0.00     0.002 C 
HETATM   11  C9  UNL     1      -3.952   5.544  14.817  1.00  0.00     0.003 C 
HETATM   12  C10 UNL     1      -3.266   4.197  15.026  1.00  0.00     0.034 C 
HETATM   13  C11 UNL     1      -3.969   3.268  14.017  1.00  0.00     0.141 C 
BRANCH  13  14
HETATM   14  O2  UNL     1      -3.531   1.993  14.287  1.00  0.00    -0.393 OA
ATOM     15  H2  UNL     1      -4.116   1.358  13.889  1.00  0.00     0.210 HD
ENDBRANCH  13  14
ENDBRANCH   5   8
BRANCH   1  16
HETATM   16  O1  UNL     1      -2.327  -1.428  11.513  1.00  0.00    -0.390 OA
HETATM   17  C1  UNL     1      -3.062  -2.580  11.340  1.00  0.00     0.202 C 
ENDBRANCH   1  16
TORSDOF 3
ENDMDL
MODEL 5
REMARK VINA RESULT: -6.016741014      2.489      4.466
REMARK  3 active torsions:
REMARK  status: ('A' for Active; 'I' for Inactive)
REMARK    1  A    between atoms: O1_2  and  C2_3 
REMARK    2  A    between atoms: N1_7  and  C6_8 
REMARK    3  A    between atoms: C11_13  and  O2_14 
ROOT
HETATM    1  C2  UNL     1      -4.016   6.126  14.986  1.00  0.00     0.126 C 
HETATM    2  C3  UNL     1      -5.404   5.895  14.414  1.00  0.00     0.037 C 
HETATM    3  C4  UNL     1      -5.991   4.734  15.182  1.00  0.00     0.047 C 
HETATM    4  C5  UNL     1      -5.857   3.466  14.383  1.00  0.00     0.063 C 
HETATM    5  N1  UNL     1      -4.538   2.992  14.259  1.00  0.00    -0.367 N 
HETATM    6  C12 UNL     1      -3.518   3.651  14.940  1.00  0.00     0.066 C 
HETATM    7  C13 UNL     1      -3.126   5.016  14.494  1.00  0.00     0.076 C 
ENDROOT
BRANCH   5   8
HETATM    8  C6  UNL     1      -4.272   2.153  13.172  1.00  0.00     0.116 C 
HETATM    9  C7  UNL     1      -4.335   0.679  13.460  1.00  0.00     0.028 C 
HETATM   10  C8  UNL     1      -3.980  -0.170  12.280  1.00  0.00     0.002 C 
HETATM   11  C9  UNL     1      -4.661   0.297  11.022  1.00  0.00     0.003 C 
HETATM   12  C10 UNL     1      -4.196   1.733  10.794  1.00  0.00     0.034 C 
HETATM   13  C11 UNL     1      -4.941   2.535  11.878  1.00  0.00     0.141 C 
BRANCH  13  14
HETATM   14  O2  UNL     1      -4.715   3.864  11.608  1.00  0.00    -0.393 OA
ATOM     15  H2  UNL     1      -3.911   3.961  11.111  1.00  0.00     0.210 HD
ENDBRANCH  13  14
ENDBRANCH   5   8
BRANCH   1  16
HETATM   16  O1  UNL     1      -3.528   7.328  14.474  1.00  0.00    -0.390 OA
HETATM   17  C1  UNL     1      -2.170   7.322  14.240  1.00  0.00     0.202 C 
ENDBRANCH   1  16
TORSDOF 3
ENDMDL
