MODEL 1
REMARK VINA RESULT: -7.317322420      0.000      0.000
REMARK  4 active torsions:
REMARK  status: ('A' for Active; 'I' for Inactive)
REMARK    1  A    between atoms: C1_2  and  C2_3 
REMARK       I    between atoms: C1_2  and  N5_19 
REMARK    2  A    between atoms: C2_3  and  C3_4 
REMARK    3  A    between atoms: C5_8  and  N2_9 
REMARK    4  A    between atoms: N5_19  and  C11_21 
ROOT
HETATM    1  C3  UNL     1      18.433   1.668  11.928  1.00  0.00     0.104 A 
HETATM    2  N1  UNL     1      17.636   0.688  12.367  1.00  0.00    -0.351 N 
ATOM      3  H1  UNL     1      17.565  -0.173  11.825  1.00  0.00     0.166 HD
HETATM    4  C4  UNL     1      16.918   0.808  13.515  1.00  0.00     0.139 A 
HETATM    5  C5  UNL     1      16.999   1.952  14.260  1.00  0.00     0.133 A 
HETATM    6  N3  UNL     1      17.819   2.941  13.794  1.00  0.00    -0.283 N 
ATOM      7  H3  UNL     1      17.909   3.812  14.315  1.00  0.00     0.188 HD
HETATM    8  N4  UNL     1      18.491   2.776  12.678  1.00  0.00    -0.287 N 
ATOM      9  H4  UNL     1      19.092   3.537  12.363  1.00  0.00     0.188 HD
ENDROOT
BRANCH   1  10
HETATM   10  C2  UNL     1      19.208   1.509  10.665  1.00  0.00     0.180 C 
BRANCH  10  11
HETATM   11  C1  UNL     1      19.636   2.815  10.135  1.00  0.00     0.225 C 
HETATM   12  O1  UNL     1      18.869   3.660   9.611  1.00  0.00    -0.273 OA
HETATM   13  N5  UNL     1      21.013   3.157  10.219  1.00  0.00    -0.356 N 
ATOM     14  H5  UNL     1      21.657   2.489  10.642  1.00  0.00     0.162 HD
BRANCH  13  15
HETATM   15  C11 UNL     1      21.543   4.422   9.727  1.00  0.00     0.084 C 
HETATM   16  C12 UNL     1      21.947   5.302  10.909  1.00  0.00     0.025 C 
HETATM   17  C13 UNL     1      23.310   4.697  11.255  1.00  0.00     0.002 C 
HETATM   18  C14 UNL     1      23.954   4.648   9.885  1.00  0.00     0.002 C 
HETATM   19  C15 UNL     1      22.840   4.172   8.997  1.00  0.00     0.025 C 
ENDBRANCH  13  15
ENDBRANCH  10  11
ENDBRANCH   1  10
BRANCH   5  20
HETATM   20  N2  UNL     1      16.283   2.168  15.493  1.00  0.00    -0.365 N 
HETATM   21  C6  UNL     1      15.787   1.016  16.221  1.00  0.00     0.124 C 
HETATM   22  C7  UNL     1      14.436   1.244  16.850  1.00  0.00     0.020 C 
HETATM   23  C8  UNL     1      14.394   2.613  17.500  1.00  0.00     0.003 C 
HETATM   24  C9  UNL     1      14.610   3.615  16.404  1.00  0.00     0.020 C 
HETATM   25  C10 UNL     1      16.078   3.500  15.966  1.00  0.00     0.124 C 
ENDBRANCH   5  20
TORSDOF 4
ENDMDL
MODEL 2
REMARK VINA RESULT: -7.244692089      0.572      1.154
REMARK  4 active torsions:
REMARK  status: ('A' for Active; 'I' for Inactive)
REMARK    1  A    between atoms: C1_2  and  C2_3 
REMARK       I    between atoms: C1_2  and  N5_19 
REMARK    2  A    between atoms: C2_3  and  C3_4 
REMARK    3  A    between atoms: C5_8  and  N2_9 
REMARK    4  A    between atoms: N5_19  and  C11_21 
ROOT
HETATM    1  C3  UNL     1      18.610   1.663  11.893  1.00  0.00     0.104 A 
HETATM    2  N1  UNL     1      17.779   0.662  12.203  1.00  0.00    -0.351 N 
ATOM      3  H1  UNL     1      17.836  -0.210  11.678  1.00  0.00     0.166 HD
HETATM    4  C4  UNL     1      16.860   0.776  13.199  1.00  0.00     0.139 A 
HETATM    5  C5  UNL     1      16.767   1.935  13.919  1.00  0.00     0.133 A 
HETATM    6  N3  UNL     1      17.626   2.944  13.585  1.00  0.00    -0.283 N 
ATOM      7  H3  UNL     1      17.592   3.828  14.094  1.00  0.00     0.188 HD
HETATM    8  N4  UNL     1      18.494   2.785  12.614  1.00  0.00    -0.287 N 
ATOM      9  H4  UNL     1      19.118   3.561  12.395  1.00  0.00     0.188 HD
ENDROOT
BRANCH   1  10
HETATM   10  C2  UNL     1      19.607   1.510  10.795  1.00  0.00     0.180 C 
BRANCH  10  11
HETATM   11  C1  UNL     1      19.980   2.817  10.229  1.00  0.00     0.225 C 
HETATM   12  O1  UNL     1      19.222   3.537   9.532  1.00  0.00    -0.273 OA
HETATM   13  N5  UNL     1      21.287   3.313  10.483  1.00  0.00    -0.356 N 
ATOM     14  H5  UNL     1      21.922   2.748  11.047  1.00  0.00     0.162 HD
BRANCH  13  15
HETATM   15  C11 UNL     1      21.758   4.593   9.972  1.00  0.00     0.084 C 
HETATM   16  C12 UNL     1      22.151   5.497  11.140  1.00  0.00     0.025 C 
HETATM   17  C13 UNL     1      23.542   4.948  11.463  1.00  0.00     0.002 C 
HETATM   18  C14 UNL     1      24.161   4.913  10.081  1.00  0.00     0.002 C 
HETATM   19  C15 UNL     1      23.050   4.388   9.219  1.00  0.00     0.025 C 
ENDBRANCH  13  15
ENDBRANCH  10  11
ENDBRANCH   1  10
BRANCH   5  20
HETATM   20  N2  UNL     1      15.832   2.147  14.996  1.00  0.00    -0.365 N 
HETATM   21  C6  UNL     1      15.011   3.342  14.979  1.00  0.00     0.124 C 
HETATM   22  C7  UNL     1      14.805   3.944  16.347  1.00  0.00     0.020 C 
HETATM   23  C8  UNL     1      14.511   2.848  17.353  1.00  0.00     0.003 C 
HETATM   24  C9  UNL     1      15.715   1.953  17.377  1.00  0.00     0.020 C 
HETATM   25  C10 UNL     1      15.737   1.186  16.047  1.00  0.00     0.124 C 
ENDBRANCH   5  20
TORSDOF 4
ENDMDL
MODEL 3
REMARK VINA RESULT: -7.198177360      1.785      8.130
REMARK  4 active torsions:
REMARK  status: ('A' for Active; 'I' for Inactive)
REMARK    1  A    between atoms: C1_2  and  C2_3 
REMARK       I    between atoms: C1_2  and  N5_19 
REMARK    2  A    between atoms: C2_3  and  C3_4 
REMARK    3  A    between atoms: C5_8  and  N2_9 
REMARK    4  A    between atoms: N5_19  and  C11_21 
ROOT
HETATM    1  C3  UNL     1      17.935   1.339  12.542  1.00  0.00     0.104 A 
HETATM    2  N1  UNL     1      18.366   0.898  11.355  1.00  0.00    -0.351 N 
ATOM      3  H1  UNL     1      18.038  -0.004  11.012  1.00  0.00     0.166 HD
HETATM    4  C4  UNL     1      19.230   1.621  10.593  1.00  0.00     0.139 A 
HETATM    5  C5  UNL     1      19.683   2.836  11.031  1.00  0.00     0.133 A 
HETATM    6  N3  UNL     1      19.230   3.266  12.246  1.00  0.00    -0.283 N 
ATOM      7  H3  UNL     1      19.541   4.165  12.613  1.00  0.00     0.188 HD
HETATM    8  N4  UNL     1      18.396   2.530  12.944  1.00  0.00    -0.287 N 
ATOM      9  H4  UNL     1      18.081   2.886  13.846  1.00  0.00     0.188 HD
ENDROOT
BRANCH   1  10
HETATM   10  C2  UNL     1      16.989   0.525  13.356  1.00  0.00     0.180 C 
BRANCH  10  11
HETATM   11  C1  UNL     1      16.971   0.974  14.759  1.00  0.00     0.225 C 
HETATM   12  O1  UNL     1      17.839   0.674  15.616  1.00  0.00    -0.273 OA
HETATM   13  N5  UNL     1      15.903   1.807  15.185  1.00  0.00    -0.356 N 
ATOM     14  H5  UNL     1      15.185   2.065  14.509  1.00  0.00     0.162 HD
BRANCH  13  15
HETATM   15  C11 UNL     1      15.788   2.307  16.549  1.00  0.00     0.084 C 
HETATM   16  C12 UNL     1      14.568   3.220  16.658  1.00  0.00     0.025 C 
HETATM   17  C13 UNL     1      13.453   2.181  16.791  1.00  0.00     0.002 C 
HETATM   18  C14 UNL     1      14.027   1.285  17.867  1.00  0.00     0.002 C 
HETATM   19  C15 UNL     1      15.472   1.162  17.479  1.00  0.00     0.025 C 
ENDBRANCH  13  15
ENDBRANCH  10  11
ENDBRANCH   1  10
BRANCH   5  20
HETATM   20  N2  UNL     1      20.592   3.676  10.291  1.00  0.00    -0.365 N 
HETATM   21  C6  UNL     1      20.248   4.044   8.931  1.00  0.00     0.124 C 
HETATM   22  C7  UNL     1      21.437   4.076   8.003  1.00  0.00     0.020 C 
HETATM   23  C8  UNL     1      22.608   4.752   8.689  1.00  0.00     0.003 C 
HETATM   24  C9  UNL     1      22.938   3.922   9.894  1.00  0.00     0.020 C 
HETATM   25  C10 UNL     1      21.800   4.122  10.907  1.00  0.00     0.124 C 
ENDBRANCH   5  20
TORSDOF 4
ENDMDL
MODEL 4
REMARK VINA RESULT: -7.173200784      0.671      1.512
REMARK  4 active torsions:
REMARK  status: ('A' for Active; 'I' for Inactive)
REMARK    1  A    between atoms: C1_2  and  C2_3 
REMARK       I    between atoms: C1_2  and  N5_19 
REMARK    2  A    between atoms: C2_3  and  C3_4 
REMARK    3  A    between atoms: C5_8  and  N2_9 
REMARK    4  A    between atoms: N5_19  and  C11_21 
ROOT
HETATM    1  C3  UNL     1      18.470   1.711  11.943  1.00  0.00     0.104 A 
HETATM    2  N1  UNL     1      18.371   2.901  12.545  1.00  0.00    -0.351 N 
ATOM      3  H1  UNL     1      18.962   3.668  12.226  1.00  0.00     0.166 HD
HETATM    4  C4  UNL     1      17.504   3.116  13.570  1.00  0.00     0.139 A 
HETATM    5  C5  UNL     1      16.699   2.103  14.014  1.00  0.00     0.133 A 
HETATM    6  N3  UNL     1      16.816   0.896  13.385  1.00  0.00    -0.283 N 
ATOM      7  H3  UNL     1      16.237   0.111  13.683  1.00  0.00     0.188 HD
HETATM    8  N4  UNL     1      17.670   0.739  12.400  1.00  0.00    -0.287 N 
ATOM      9  H4  UNL     1      17.728  -0.177  11.956  1.00  0.00     0.188 HD
ENDROOT
BRANCH   1  10
HETATM   10  C2  UNL     1      19.430   1.504  10.822  1.00  0.00     0.180 C 
BRANCH  10  11
HETATM   11  C1  UNL     1      19.824   2.787  10.215  1.00  0.00     0.225 C 
HETATM   12  O1  UNL     1      19.075   3.497   9.499  1.00  0.00    -0.273 OA
HETATM   13  N5  UNL     1      21.140   3.267  10.449  1.00  0.00    -0.356 N 
ATOM     14  H5  UNL     1      21.767   2.709  11.028  1.00  0.00     0.162 HD
BRANCH  13  15
HETATM   15  C11 UNL     1      21.632   4.522   9.898  1.00  0.00     0.084 C 
HETATM   16  C12 UNL     1      22.091   5.435  11.034  1.00  0.00     0.025 C 
HETATM   17  C13 UNL     1      23.475   4.850  11.320  1.00  0.00     0.002 C 
HETATM   18  C14 UNL     1      24.045   4.771   9.920  1.00  0.00     0.002 C 
HETATM   19  C15 UNL     1      22.890   4.264   9.106  1.00  0.00     0.025 C 
ENDBRANCH  13  15
ENDBRANCH  10  11
ENDBRANCH   1  10
BRANCH   5  20
HETATM   20  N2  UNL     1      15.745   2.237  15.087  1.00  0.00    -0.365 N 
HETATM   21  C6  UNL     1      14.891   3.409  15.116  1.00  0.00     0.124 C 
HETATM   22  C7  UNL     1      14.652   3.938  16.508  1.00  0.00     0.020 C 
HETATM   23  C8  UNL     1      14.376   2.787  17.456  1.00  0.00     0.003 C 
HETATM   24  C9  UNL     1      15.604   1.925  17.454  1.00  0.00     0.020 C 
HETATM   25  C10 UNL     1      15.663   1.224  16.089  1.00  0.00     0.124 C 
ENDBRANCH   5  20
TORSDOF 4
ENDMDL
MODEL 5
REMARK VINA RESULT: -7.120961975      3.759      6.281
REMARK  4 active torsions:
REMARK  status: ('A' for Active; 'I' for Inactive)
REMARK    1  A    between atoms: C1_2  and  C2_3 
REMARK       I    between atoms: C1_2  and  N5_19 
REMARK    2  A    between atoms: C2_3  and  C3_4 
REMARK    3  A    between atoms: C5_8  and  N2_9 
REMARK    4  A    between atoms: N5_19  and  C11_21 
ROOT
HETATM    1  C3  UNL     1      17.491   3.221  15.466  1.00  0.00     0.104 A 
HETATM    2  N1  UNL     1      16.456   4.060  15.349  1.00  0.00    -0.351 N 
ATOM      3  H1  UNL     1      15.525   3.740  15.616  1.00  0.00     0.166 HD
HETATM    4  C4  UNL     1      16.611   5.329  14.884  1.00  0.00     0.139 A 
HETATM    5  C5  UNL     1      17.850   5.782  14.522  1.00  0.00     0.133 A 
HETATM    6  N3  UNL     1      18.893   4.907  14.650  1.00  0.00    -0.283 N 
ATOM      7  H3  UNL     1      19.835   5.201  14.391  1.00  0.00     0.188 HD
HETATM    8  N4  UNL     1      18.690   3.692  15.103  1.00  0.00    -0.287 N 
ATOM      9  H4  UNL     1      19.493   3.070  15.184  1.00  0.00     0.188 HD
ENDROOT
BRANCH   1  10
HETATM   10  C2  UNL     1      17.290   1.835  15.977  1.00  0.00     0.180 C 
BRANCH  10  11
HETATM   11  C1  UNL     1      16.885   0.922  14.895  1.00  0.00     0.225 C 
HETATM   12  O1  UNL     1      16.358  -0.205  15.072  1.00  0.00    -0.273 OA
HETATM   13  N5  UNL     1      17.098   1.333  13.552  1.00  0.00    -0.356 N 
ATOM     14  H5  UNL     1      17.523   2.244  13.382  1.00  0.00     0.162 HD
BRANCH  13  15
HETATM   15  C11 UNL     1      16.734   0.508  12.408  1.00  0.00     0.084 C 
HETATM   16  C12 UNL     1      16.171   1.393  11.297  1.00  0.00     0.025 C 
HETATM   17  C13 UNL     1      17.467   1.929  10.684  1.00  0.00     0.002 C 
HETATM   18  C14 UNL     1      18.257   0.648  10.524  1.00  0.00     0.002 C 
HETATM   19  C15 UNL     1      17.981  -0.089  11.803  1.00  0.00     0.025 C 
ENDBRANCH  13  15
ENDBRANCH  10  11
ENDBRANCH   1  10
BRANCH   5  20
HETATM   20  N2  UNL     1      18.115   7.110  14.027  1.00  0.00    -0.365 N 
HETATM   21  C6  UNL     1      17.824   7.404  12.637  1.00  0.00     0.124 C 
HETATM   22  C7  UNL     1      18.842   8.312  11.993  1.00  0.00     0.020 C 
HETATM   23  C8  UNL     1      19.196   9.442  12.939  1.00  0.00     0.003 C 
HETATM   24  C9  UNL     1      19.793   8.809  14.161  1.00  0.00     0.020 C 
HETATM   25  C10 UNL     1      18.654   8.097  14.906  1.00  0.00     0.124 C 
ENDBRANCH   5  20
TORSDOF 4
ENDMDL
