MODEL 1
REMARK VINA RESULT: -6.583081406      0.000      0.000
REMARK  6 active torsions:
REMARK  status: ('A' for Active; 'I' for Inactive)
REMARK    1  A    between atoms: C1_2  and  O2_3 
REMARK    2  A    between atoms: C1_2  and  C5_9 
REMARK    3  A    between atoms: O2_3  and  C2_4 
REMARK    4  A    between atoms: C2_4  and  C3_5 
REMARK    5  A    between atoms: C3_5  and  C4_6 
REMARK    6  A    between atoms: C4_6  and  O3_7 
ROOT
HETATM    1  C5  UNL     1      17.283   1.983  14.899  1.00  0.00     0.115 C 
HETATM    2  C6  UNL     1      16.721   2.159  13.500  1.00  0.00     0.025 C 
HETATM    3  C7  UNL     1      16.161   3.555  13.528  1.00  0.00     0.024 C 
HETATM    4  C8  UNL     1      15.593   3.591  14.958  1.00  0.00     0.040 C 
HETATM    5  C9  UNL     1      16.957   3.274  15.601  1.00  0.00     0.136 C 
HETATM    6  O4  UNL     1      17.756   4.264  15.053  1.00  0.00    -0.374 OA
HETATM    7  C10 UNL     1      17.325   4.496  13.754  1.00  0.00     0.066 C 
HETATM    8  C11 UNL     1      18.405   4.308  12.726  1.00  0.00     0.048 C 
HETATM    9  C12 UNL     1      19.215   5.534  12.463  1.00  0.00     0.077 C 
HETATM   10  S1  UNL     1      19.375   6.583  13.958  1.00  0.00    -0.169 SA
HETATM   11  C13 UNL     1      17.664   6.750  14.604  1.00  0.00     0.077 C 
HETATM   12  C14 UNL     1      16.808   5.935  13.631  1.00  0.00     0.048 C 
ENDROOT
BRANCH   1  13
HETATM   13  C1  UNL     1      16.646   0.825  15.589  1.00  0.00     0.265 C 
HETATM   14  O1  UNL     1      16.345  -0.232  14.976  1.00  0.00    -0.265 OA
BRANCH  13  15
HETATM   15  O2  UNL     1      16.365   0.882  16.941  1.00  0.00    -0.321 OA
BRANCH  15  16
HETATM   16  C2  UNL     1      15.184   0.468  17.541  1.00  0.00     0.180 C 
BRANCH  16  17
HETATM   17  C3  UNL     1      14.070   1.460  17.542  1.00  0.00     0.053 C 
BRANCH  17  18
HETATM   18  C4  UNL     1      14.447   2.716  18.319  1.00  0.00     0.166 C 
BRANCH  18  19
HETATM   19  O3  UNL     1      15.204   2.407  19.445  1.00  0.00    -0.401 OA
ATOM     20  H3  UNL     1      15.895   3.045  19.584  1.00  0.00     0.209 HD
ENDBRANCH  18  19
ENDBRANCH  17  18
ENDBRANCH  16  17
ENDBRANCH  15  16
ENDBRANCH  13  15
ENDBRANCH   1  13
TORSDOF 6
ENDMDL
MODEL 2
REMARK VINA RESULT: -6.460748345      2.043      2.437
REMARK  6 active torsions:
REMARK  status: ('A' for Active; 'I' for Inactive)
REMARK    1  A    between atoms: C1_2  and  O2_3 
REMARK    2  A    between atoms: C1_2  and  C5_9 
REMARK    3  A    between atoms: O2_3  and  C2_4 
REMARK    4  A    between atoms: C2_4  and  C3_5 
REMARK    5  A    between atoms: C3_5  and  C4_6 
REMARK    6  A    between atoms: C4_6  and  O3_7 
ROOT
HETATM    1  C5  UNL     1      17.640   1.449  14.017  1.00  0.00     0.115 C 
HETATM    2  C6  UNL     1      17.130   0.834  12.726  1.00  0.00     0.025 C 
HETATM    3  C7  UNL     1      16.662   2.027  11.938  1.00  0.00     0.024 C 
HETATM    4  C8  UNL     1      16.057   2.878  13.070  1.00  0.00     0.040 C 
HETATM    5  C9  UNL     1      17.378   2.923  13.860  1.00  0.00     0.136 C 
HETATM    6  O4  UNL     1      18.255   3.406  12.903  1.00  0.00    -0.374 OA
HETATM    7  C10 UNL     1      17.877   2.889  11.672  1.00  0.00     0.066 C 
HETATM    8  C11 UNL     1      18.971   2.117  10.989  1.00  0.00     0.048 C 
HETATM    9  C12 UNL     1      19.867   2.954  10.137  1.00  0.00     0.077 C 
HETATM   10  S1  UNL     1      20.052   4.653  10.802  1.00  0.00    -0.169 SA
HETATM   11  C13 UNL     1      18.338   5.218  11.142  1.00  0.00     0.077 C 
HETATM   12  C14 UNL     1      17.459   4.031  10.738  1.00  0.00     0.048 C 
ENDROOT
BRANCH   1  13
HETATM   13  C1  UNL     1      16.910   0.900  15.194  1.00  0.00     0.265 C 
HETATM   14  O1  UNL     1      16.244  -0.166  15.128  1.00  0.00    -0.265 OA
BRANCH  13  15
HETATM   15  O2  UNL     1      16.945   1.556  16.410  1.00  0.00    -0.321 OA
BRANCH  15  16
HETATM   16  C2  UNL     1      16.009   2.476  16.862  1.00  0.00     0.180 C 
BRANCH  16  17
HETATM   17  C3  UNL     1      14.620   2.299  16.347  1.00  0.00     0.053 C 
BRANCH  17  18
HETATM   18  C4  UNL     1      13.829   1.325  17.211  1.00  0.00     0.166 C 
BRANCH  18  19
HETATM   19  O3  UNL     1      14.574   0.187  17.505  1.00  0.00    -0.401 OA
ATOM     20  H3  UNL     1      14.020  -0.519  17.817  1.00  0.00     0.209 HD
ENDBRANCH  18  19
ENDBRANCH  17  18
ENDBRANCH  16  17
ENDBRANCH  15  16
ENDBRANCH  13  15
ENDBRANCH   1  13
TORSDOF 6
ENDMDL
MODEL 3
REMARK VINA RESULT: -6.384187404      2.153      4.022
REMARK  6 active torsions:
REMARK  status: ('A' for Active; 'I' for Inactive)
REMARK    1  A    between atoms: C1_2  and  O2_3 
REMARK    2  A    between atoms: C1_2  and  C5_9 
REMARK    3  A    between atoms: O2_3  and  C2_4 
REMARK    4  A    between atoms: C2_4  and  C3_5 
REMARK    5  A    between atoms: C3_5  and  C4_6 
REMARK    6  A    between atoms: C4_6  and  O3_7 
ROOT
HETATM    1  C5  UNL     1      16.180   2.163  14.390  1.00  0.00     0.115 C 
HETATM    2  C6  UNL     1      15.578   2.926  15.556  1.00  0.00     0.025 C 
HETATM    3  C7  UNL     1      16.425   4.167  15.629  1.00  0.00     0.024 C 
HETATM    4  C8  UNL     1      17.805   3.573  15.294  1.00  0.00     0.040 C 
HETATM    5  C9  UNL     1      17.334   3.018  13.937  1.00  0.00     0.136 C 
HETATM    6  O4  UNL     1      16.806   4.153  13.344  1.00  0.00    -0.374 OA
HETATM    7  C10 UNL     1      16.217   4.924  14.335  1.00  0.00     0.066 C 
HETATM    8  C11 UNL     1      14.763   5.210  14.082  1.00  0.00     0.048 C 
HETATM    9  C12 UNL     1      14.517   6.433  13.263  1.00  0.00     0.077 C 
HETATM   10  S1  UNL     1      15.861   6.729  12.051  1.00  0.00    -0.169 SA
HETATM   11  C13 UNL     1      17.413   6.586  13.022  1.00  0.00     0.077 C 
HETATM   12  C14 UNL     1      16.945   6.269  14.445  1.00  0.00     0.048 C 
ENDROOT
BRANCH   1  13
HETATM   13  C1  UNL     1      16.652   0.816  14.821  1.00  0.00     0.265 C 
HETATM   14  O1  UNL     1      17.083   0.601  15.983  1.00  0.00    -0.265 OA
BRANCH  13  15
HETATM   15  O2  UNL     1      16.627  -0.250  13.941  1.00  0.00    -0.321 OA
BRANCH  15  16
HETATM   16  C2  UNL     1      17.335  -0.333  12.749  1.00  0.00     0.180 C 
BRANCH  16  17
HETATM   17  C3  UNL     1      16.518  -0.296  11.502  1.00  0.00     0.053 C 
BRANCH  17  18
HETATM   18  C4  UNL     1      16.598   1.068  10.827  1.00  0.00     0.166 C 
BRANCH  18  19
HETATM   19  O3  UNL     1      15.415   1.782  10.984  1.00  0.00    -0.401 OA
ATOM     20  H3  UNL     1      14.808   1.326  11.555  1.00  0.00     0.209 HD
ENDBRANCH  18  19
ENDBRANCH  17  18
ENDBRANCH  16  17
ENDBRANCH  15  16
ENDBRANCH  13  15
ENDBRANCH   1  13
TORSDOF 6
ENDMDL
MODEL 4
REMARK VINA RESULT: -6.331542862      2.536      4.481
REMARK  6 active torsions:
REMARK  status: ('A' for Active; 'I' for Inactive)
REMARK    1  A    between atoms: C1_2  and  O2_3 
REMARK    2  A    between atoms: C1_2  and  C5_9 
REMARK    3  A    between atoms: O2_3  and  C2_4 
REMARK    4  A    between atoms: C2_4  and  C3_5 
REMARK    5  A    between atoms: C3_5  and  C4_6 
REMARK    6  A    between atoms: C4_6  and  O3_7 
ROOT
HETATM    1  C5  UNL     1      16.303   1.981  14.318  1.00  0.00     0.115 C 
HETATM    2  C6  UNL     1      15.647   2.636  15.520  1.00  0.00     0.025 C 
HETATM    3  C7  UNL     1      16.427   3.911  15.685  1.00  0.00     0.024 C 
HETATM    4  C8  UNL     1      17.841   3.411  15.335  1.00  0.00     0.040 C 
HETATM    5  C9  UNL     1      17.416   2.921  13.938  1.00  0.00     0.136 C 
HETATM    6  O4  UNL     1      16.837   4.063  13.410  1.00  0.00    -0.374 OA
HETATM    7  C10 UNL     1      16.196   4.738  14.439  1.00  0.00     0.066 C 
HETATM    8  C11 UNL     1      14.733   4.964  14.181  1.00  0.00     0.048 C 
HETATM    9  C12 UNL     1      14.433   6.224  13.438  1.00  0.00     0.077 C 
HETATM   10  S1  UNL     1      15.775   6.665  12.269  1.00  0.00    -0.169 SA
HETATM   11  C13 UNL     1      17.320   6.540  13.253  1.00  0.00     0.077 C 
HETATM   12  C14 UNL     1      16.851   6.109  14.645  1.00  0.00     0.048 C 
ENDROOT
BRANCH   1  13
HETATM   13  C1  UNL     1      16.839   0.635  14.669  1.00  0.00     0.265 C 
HETATM   14  O1  UNL     1      17.369   0.399  15.786  1.00  0.00    -0.265 OA
BRANCH  13  15
HETATM   15  O2  UNL     1      16.767  -0.407  13.764  1.00  0.00    -0.321 OA
BRANCH  15  16
HETATM   16  C2  UNL     1      17.134  -0.345  12.426  1.00  0.00     0.180 C 
BRANCH  16  17
HETATM   17  C3  UNL     1      16.956  -1.602  11.643  1.00  0.00     0.053 C 
BRANCH  17  18
HETATM   18  C4  UNL     1      18.280  -2.334  11.462  1.00  0.00     0.166 C 
BRANCH  18  19
HETATM   19  O3  UNL     1      18.086  -3.704  11.313  1.00  0.00    -0.401 OA
ATOM     20  H3  UNL     1      17.295  -3.991  11.754  1.00  0.00     0.209 HD
ENDBRANCH  18  19
ENDBRANCH  17  18
ENDBRANCH  16  17
ENDBRANCH  15  16
ENDBRANCH  13  15
ENDBRANCH   1  13
TORSDOF 6
ENDMDL
MODEL 5
REMARK VINA RESULT: -6.156023206      2.394      3.375
REMARK  6 active torsions:
REMARK  status: ('A' for Active; 'I' for Inactive)
REMARK    1  A    between atoms: C1_2  and  O2_3 
REMARK    2  A    between atoms: C1_2  and  C5_9 
REMARK    3  A    between atoms: O2_3  and  C2_4 
REMARK    4  A    between atoms: C2_4  and  C3_5 
REMARK    5  A    between atoms: C3_5  and  C4_6 
REMARK    6  A    between atoms: C4_6  and  O3_7 
ROOT
HETATM    1  C5  UNL     1      15.457   4.034  13.945  1.00  0.00     0.115 C 
HETATM    2  C6  UNL     1      15.431   5.371  14.663  1.00  0.00     0.025 C 
HETATM    3  C7  UNL     1      16.480   6.170  13.940  1.00  0.00     0.024 C 
HETATM    4  C8  UNL     1      17.531   5.072  13.688  1.00  0.00     0.040 C 
HETATM    5  C9  UNL     1      16.542   4.182  12.912  1.00  0.00     0.136 C 
HETATM    6  O4  UNL     1      16.082   5.061  11.944  1.00  0.00    -0.374 OA
HETATM    7  C10 UNL     1      16.013   6.326  12.509  1.00  0.00     0.066 C 
HETATM    8  C11 UNL     1      14.642   6.938  12.432  1.00  0.00     0.048 C 
HETATM    9  C12 UNL     1      14.386   7.703  11.176  1.00  0.00     0.077 C 
HETATM   10  S1  UNL     1      15.289   6.994   9.746  1.00  0.00    -0.169 SA
HETATM   11  C13 UNL     1      17.014   6.776  10.338  1.00  0.00     0.077 C 
HETATM   12  C14 UNL     1      16.985   7.268  11.788  1.00  0.00     0.048 C 
ENDROOT
BRANCH   1  13
HETATM   13  C1  UNL     1      15.770   2.926  14.892  1.00  0.00     0.265 C 
HETATM   14  O1  UNL     1      16.260   1.834  14.501  1.00  0.00    -0.265 OA
BRANCH  13  15
HETATM   15  O2  UNL     1      15.527   3.070  16.244  1.00  0.00    -0.321 OA
BRANCH  15  16
HETATM   16  C2  UNL     1      14.291   2.945  16.864  1.00  0.00     0.180 C 
BRANCH  16  17
HETATM   17  C3  UNL     1      13.839   1.551  17.142  1.00  0.00     0.053 C 
BRANCH  17  18
HETATM   18  C4  UNL     1      14.984   0.691  17.663  1.00  0.00     0.166 C 
BRANCH  18  19
HETATM   19  O3  UNL     1      15.540  -0.082  16.647  1.00  0.00    -0.401 OA
ATOM     20  H3  UNL     1      15.069   0.030  15.830  1.00  0.00     0.209 HD
ENDBRANCH  18  19
ENDBRANCH  17  18
ENDBRANCH  16  17
ENDBRANCH  15  16
ENDBRANCH  13  15
ENDBRANCH   1  13
TORSDOF 6
ENDMDL
