MODEL 1
REMARK VINA RESULT: -6.858795613      0.000      0.000
REMARK  4 active torsions:
REMARK  status: ('A' for Active; 'I' for Inactive)
REMARK    1  A    between atoms: N2_5  and  C3_6 
REMARK    2  A    between atoms: C3_6  and  C4_7 
REMARK    3  A    between atoms: C10_15  and  C11_16 
REMARK    4  A    between atoms: C11_16  and  N4_17 
ROOT
HETATM    1  C1  UNL     1      16.740   0.238  10.414  1.00  0.00     0.070 C 
HETATM    2  C2  UNL     1      17.038   0.887  11.722  1.00  0.00     0.036 A 
HETATM    3  N1  UNL     1      16.799   0.410  12.946  1.00  0.00    -0.301 N 
ATOM      4  H1  UNL     1      16.365  -0.495  13.130  1.00  0.00     0.187 HD
HETATM    5  N2  UNL     1      17.188   1.239  13.880  1.00  0.00    -0.278 N 
HETATM    6  C9  UNL     1      17.709   2.318  13.225  1.00  0.00     0.146 A 
HETATM    7  N3  UNL     1      18.220   3.447  13.919  1.00  0.00    -0.080 NA
HETATM    8  C10 UNL     1      17.643   2.155  11.867  1.00  0.00     0.041 A 
ENDROOT
BRANCH   5   9
HETATM    9  C3  UNL     1      17.081   1.061  15.323  1.00  0.00     0.155 C 
BRANCH   9  10
HETATM   10  C4  UNL     1      15.780   1.513  15.891  1.00  0.00     0.010 C 
HETATM   11  C5  UNL     1      15.265   0.743  17.055  1.00  0.00     0.032 C 
HETATM   12  C6  UNL     1      13.879   1.303  17.404  1.00  0.00     0.168 C 
HETATM   13  O1  UNL     1      14.067   2.586  17.882  1.00  0.00    -0.391 OA
HETATM   14  C7  UNL     1      14.449   3.369  16.794  1.00  0.00     0.168 C 
HETATM   15  C8  UNL     1      15.786   2.985  16.249  1.00  0.00     0.032 C 
ENDBRANCH   9  10
ENDBRANCH   5   9
BRANCH   8  16
HETATM   16  C11 UNL     1      18.020   3.016  10.723  1.00  0.00     0.076 C 
BRANCH  16  17
HETATM   17  N4  UNL     1      19.229   2.747  10.069  1.00  0.00    -0.292 NA
HETATM   18  C12 UNL     1      19.848   3.795   9.334  1.00  0.00     0.095 C 
HETATM   19  C13 UNL     1      20.868   4.443  10.245  1.00  0.00     0.016 C 
HETATM   20  C14 UNL     1      20.888   3.514  11.440  1.00  0.00     0.016 C 
HETATM   21  C15 UNL     1      20.225   2.257  10.966  1.00  0.00     0.095 C 
ENDBRANCH  16  17
ENDBRANCH   8  16
TORSDOF 4
ENDMDL
MODEL 2
REMARK VINA RESULT: -6.803320662      1.600      2.961
REMARK  4 active torsions:
REMARK  status: ('A' for Active; 'I' for Inactive)
REMARK    1  A    between atoms: N2_5  and  C3_6 
REMARK    2  A    between atoms: C3_6  and  C4_7 
REMARK    3  A    between atoms: C10_15  and  C11_16 
REMARK    4  A    between atoms: C11_16  and  N4_17 
ROOT
HETATM    1  C1  UNL     1      18.055   4.472  11.790  1.00  0.00     0.070 C 
HETATM    2  C2  UNL     1      17.706   3.400  12.764  1.00  0.00     0.036 A 
HETATM    3  N1  UNL     1      17.887   3.405  14.087  1.00  0.00    -0.301 N 
ATOM      4  H1  UNL     1      18.303   4.181  14.602  1.00  0.00     0.187 HD
HETATM    5  N2  UNL     1      17.466   2.298  14.643  1.00  0.00    -0.278 N 
HETATM    6  C9  UNL     1      16.985   1.529  13.623  1.00  0.00     0.146 A 
HETATM    7  N3  UNL     1      16.456   0.229  13.843  1.00  0.00    -0.080 NA
HETATM    8  C10 UNL     1      17.109   2.168  12.418  1.00  0.00     0.041 A 
ENDROOT
BRANCH   5   9
HETATM    9  C3  UNL     1      17.508   1.946  16.058  1.00  0.00     0.155 C 
BRANCH   9  10
HETATM   10  C4  UNL     1      16.235   2.214  16.784  1.00  0.00     0.010 C 
HETATM   11  C5  UNL     1      15.345   3.250  16.197  1.00  0.00     0.032 C 
HETATM   12  C6  UNL     1      14.159   3.439  17.154  1.00  0.00     0.168 C 
HETATM   13  O1  UNL     1      13.419   2.273  17.118  1.00  0.00    -0.391 OA
HETATM   14  C7  UNL     1      14.177   1.295  17.759  1.00  0.00     0.168 C 
HETATM   15  C8  UNL     1      15.426   0.953  17.013  1.00  0.00     0.032 C 
ENDBRANCH   9  10
ENDBRANCH   5   9
BRANCH   8  16
HETATM   16  C11 UNL     1      16.791   1.776  11.026  1.00  0.00     0.076 C 
BRANCH  16  17
HETATM   17  N4  UNL     1      17.795   1.153  10.274  1.00  0.00    -0.292 NA
HETATM   18  C12 UNL     1      19.081   0.997  10.859  1.00  0.00     0.095 C 
HETATM   19  C13 UNL     1      19.135  -0.390  11.464  1.00  0.00     0.016 C 
HETATM   20  C14 UNL     1      17.857  -1.025  10.959  1.00  0.00     0.016 C 
HETATM   21  C15 UNL     1      17.405  -0.147   9.833  1.00  0.00     0.095 C 
ENDBRANCH  16  17
ENDBRANCH   8  16
TORSDOF 4
ENDMDL
MODEL 3
REMARK VINA RESULT: -6.717980058      2.872      6.604
REMARK  4 active torsions:
REMARK  status: ('A' for Active; 'I' for Inactive)
REMARK    1  A    between atoms: N2_5  and  C3_6 
REMARK    2  A    between atoms: C3_6  and  C4_7 
REMARK    3  A    between atoms: C10_15  and  C11_16 
REMARK    4  A    between atoms: C11_16  and  N4_17 
ROOT
HETATM    1  C1  UNL     1      14.394   5.484  14.062  1.00  0.00     0.070 C 
HETATM    2  C2  UNL     1      15.562   4.560  14.119  1.00  0.00     0.036 A 
HETATM    3  N1  UNL     1      16.346   4.169  13.112  1.00  0.00    -0.301 N 
ATOM      4  H1  UNL     1      16.228   4.474  12.146  1.00  0.00     0.187 HD
HETATM    5  N2  UNL     1      17.284   3.349  13.511  1.00  0.00    -0.278 N 
HETATM    6  C9  UNL     1      17.098   3.197  14.855  1.00  0.00     0.146 A 
HETATM    7  N3  UNL     1      17.925   2.351  15.640  1.00  0.00    -0.080 NA
HETATM    8  C10 UNL     1      16.030   3.934  15.295  1.00  0.00     0.041 A 
ENDROOT
BRANCH   5   9
HETATM    9  C3  UNL     1      18.313   2.714  12.695  1.00  0.00     0.155 C 
BRANCH   9  10
HETATM   10  C4  UNL     1      17.813   1.579  11.870  1.00  0.00     0.010 C 
HETATM   11  C5  UNL     1      18.759   1.027  10.864  1.00  0.00     0.032 C 
HETATM   12  C6  UNL     1      18.009  -0.047  10.063  1.00  0.00     0.168 C 
HETATM   13  O1  UNL     1      17.757  -1.096  10.926  1.00  0.00    -0.391 OA
HETATM   14  C7  UNL     1      16.789  -0.653  11.826  1.00  0.00     0.168 C 
HETATM   15  C8  UNL     1      17.287   0.439  12.717  1.00  0.00     0.032 C 
ENDBRANCH   9  10
ENDBRANCH   5   9
BRANCH   8  16
HETATM   16  C11 UNL     1      15.385   4.093  16.619  1.00  0.00     0.076 C 
BRANCH  16  17
HETATM   17  N4  UNL     1      14.375   3.189  16.970  1.00  0.00    -0.292 NA
HETATM   18  C12 UNL     1      14.312   1.945  16.284  1.00  0.00     0.095 C 
HETATM   19  C13 UNL     1      15.055   0.929  17.124  1.00  0.00     0.016 C 
HETATM   20  C14 UNL     1      15.324   1.687  18.406  1.00  0.00     0.016 C 
HETATM   21  C15 UNL     1      14.403   2.869  18.360  1.00  0.00     0.095 C 
ENDBRANCH  16  17
ENDBRANCH   8  16
TORSDOF 4
ENDMDL
MODEL 4
REMARK VINA RESULT: -6.670325045      1.904      3.203
REMARK  4 active torsions:
REMARK  status: ('A' for Active; 'I' for Inactive)
REMARK    1  A    between atoms: N2_5  and  C3_6 
REMARK    2  A    between atoms: C3_6  and  C4_7 
REMARK    3  A    between atoms: C10_15  and  C11_16 
REMARK    4  A    between atoms: C11_16  and  N4_17 
ROOT
HETATM    1  C1  UNL     1      19.320   5.319  14.522  1.00  0.00     0.070 C 
HETATM    2  C2  UNL     1      17.971   4.705  14.362  1.00  0.00     0.036 A 
HETATM    3  N1  UNL     1      16.951   4.735  15.222  1.00  0.00    -0.301 N 
ATOM      4  H1  UNL     1      16.982   5.204  16.128  1.00  0.00     0.187 HD
HETATM    5  N2  UNL     1      15.907   4.093  14.767  1.00  0.00    -0.278 N 
HETATM    6  C9  UNL     1      16.269   3.617  13.539  1.00  0.00     0.146 A 
HETATM    7  N3  UNL     1      15.388   2.842  12.740  1.00  0.00    -0.080 NA
HETATM    8  C10 UNL     1      17.556   3.970  13.230  1.00  0.00     0.041 A 
ENDROOT
BRANCH   5   9
HETATM    9  C3  UNL     1      14.621   3.909  15.429  1.00  0.00     0.155 C 
BRANCH   9  10
HETATM   10  C4  UNL     1      14.604   2.790  16.413  1.00  0.00     0.010 C 
HETATM   11  C5  UNL     1      15.454   1.614  16.090  1.00  0.00     0.032 C 
HETATM   12  C6  UNL     1      15.203   0.551  17.168  1.00  0.00     0.168 C 
HETATM   13  O1  UNL     1      15.714   1.044  18.353  1.00  0.00    -0.391 OA
HETATM   14  C7  UNL     1      14.878   2.086  18.750  1.00  0.00     0.168 C 
HETATM   15  C8  UNL     1      14.930   3.253  17.818  1.00  0.00     0.032 C 
ENDBRANCH   9  10
ENDBRANCH   5   9
BRANCH   8  16
HETATM   16  C11 UNL     1      18.435   3.686  12.072  1.00  0.00     0.076 C 
BRANCH  16  17
HETATM   17  N4  UNL     1      19.190   2.507  12.095  1.00  0.00    -0.292 NA
HETATM   18  C12 UNL     1      18.526   1.273  11.862  1.00  0.00     0.095 C 
HETATM   19  C13 UNL     1      18.679   0.949  10.391  1.00  0.00     0.016 C 
HETATM   20  C14 UNL     1      19.660   2.000   9.918  1.00  0.00     0.016 C 
HETATM   21  C15 UNL     1      20.275   2.549  11.169  1.00  0.00     0.095 C 
ENDBRANCH  16  17
ENDBRANCH   8  16
TORSDOF 4
ENDMDL
MODEL 5
REMARK VINA RESULT: -6.660420804      3.089      7.416
REMARK  4 active torsions:
REMARK  status: ('A' for Active; 'I' for Inactive)
REMARK    1  A    between atoms: N2_5  and  C3_6 
REMARK    2  A    between atoms: C3_6  and  C4_7 
REMARK    3  A    between atoms: C10_15  and  C11_16 
REMARK    4  A    between atoms: C11_16  and  N4_17 
ROOT
HETATM    1  C1  UNL     1      17.173   6.172  14.954  1.00  0.00     0.070 C 
HETATM    2  C2  UNL     1      17.455   5.001  14.076  1.00  0.00     0.036 A 
HETATM    3  N1  UNL     1      17.905   5.010  12.819  1.00  0.00    -0.301 N 
ATOM      4  H1  UNL     1      18.115   5.860  12.295  1.00  0.00     0.187 HD
HETATM    5  N2  UNL     1      18.043   3.801  12.340  1.00  0.00    -0.278 N 
HETATM    6  C9  UNL     1      17.661   2.957  13.343  1.00  0.00     0.146 A 
HETATM    7  N3  UNL     1      17.658   1.546  13.182  1.00  0.00    -0.080 NA
HETATM    8  C10 UNL     1      17.281   3.653  14.460  1.00  0.00     0.041 A 
ENDROOT
BRANCH   5   9
HETATM    9  C3  UNL     1      18.500   3.423  11.007  1.00  0.00     0.155 C 
BRANCH   9  10
HETATM   10  C4  UNL     1      19.853   3.944  10.663  1.00  0.00     0.010 C 
HETATM   11  C5  UNL     1      20.974   3.495  11.530  1.00  0.00     0.032 C 
HETATM   12  C6  UNL     1      22.240   4.229  11.069  1.00  0.00     0.168 C 
HETATM   13  O1  UNL     1      22.552   3.753   9.810  1.00  0.00    -0.391 OA
HETATM   14  C7  UNL     1      21.578   4.243   8.942  1.00  0.00     0.168 C 
HETATM   15  C8  UNL     1      20.222   3.680   9.218  1.00  0.00     0.032 C 
ENDBRANCH   9  10
ENDBRANCH   5   9
BRANCH   8  16
HETATM   16  C11 UNL     1      16.754   3.240  15.781  1.00  0.00     0.076 C 
BRANCH  16  17
HETATM   17  N4  UNL     1      15.533   2.556  15.816  1.00  0.00    -0.292 NA
HETATM   18  C12 UNL     1      15.542   1.172  16.142  1.00  0.00     0.095 C 
HETATM   19  C13 UNL     1      15.271   1.056  17.626  1.00  0.00     0.016 C 
HETATM   20  C14 UNL     1      14.903   2.474  18.010  1.00  0.00     0.016 C 
HETATM   21  C15 UNL     1      14.605   3.164  16.714  1.00  0.00     0.095 C 
ENDBRANCH  16  17
ENDBRANCH   8  16
TORSDOF 4
ENDMDL
