MODEL 1
REMARK VINA RESULT: -6.080925752      0.000      0.000
REMARK  7 active torsions:
REMARK  status: ('A' for Active; 'I' for Inactive)
REMARK    1  A    between atoms: C2_2  and  C3_3 
REMARK    2  A    between atoms: C3_3  and  S1_4 
REMARK    3  A    between atoms: S1_4  and  C4_5 
REMARK    4  A    between atoms: N2_10  and  C7_11 
REMARK    5  A    between atoms: C7_11  and  C8_12 
REMARK    6  A    between atoms: C9_13  and  C10_14 
REMARK    7  A    between atoms: C10_14  and  N3_15 
ROOT
HETATM    1  C4  UNL     1      -4.471   1.420  14.632  1.00  0.00     0.148 A 
HETATM    2  N1  UNL     1      -4.232   0.181  14.128  1.00  0.00    -0.337 N 
ATOM      3  H1  UNL     1      -4.064  -0.659  14.682  1.00  0.00     0.168 HD
HETATM    4  C5  UNL     1      -4.252   0.238  12.800  1.00  0.00     0.058 A 
HETATM    5  C6  UNL     1      -4.515   1.576  12.490  1.00  0.00     0.041 A 
HETATM    6  N2  UNL     1      -4.646   2.286  13.621  1.00  0.00    -0.318 N 
HETATM    7  C11 UNL     1      -4.580   1.866  11.028  1.00  0.00     0.085 C 
HETATM    8  C12 UNL     1      -3.378   1.171  10.421  1.00  0.00     0.174 C 
HETATM    9  O1  UNL     1      -3.349  -0.183  10.611  1.00  0.00    -0.385 OA
HETATM   10  C13 UNL     1      -4.083  -0.674  11.656  1.00  0.00     0.226 C 
ENDROOT
BRANCH   6  11
HETATM   11  C7  UNL     1      -4.918   3.684  13.721  1.00  0.00     0.225 C 
BRANCH  11  12
HETATM   12  C8  UNL     1      -3.649   4.412  13.604  1.00  0.00    -0.085 C 
HETATM   13  C9  UNL     1      -2.609   5.013  13.490  1.00  0.00    -0.078 C 
BRANCH  13  14
HETATM   14  C10 UNL     1      -1.345   5.766  13.342  1.00  0.00     0.323 C 
BRANCH  14  15
HETATM   15  N3  UNL     1      -0.390   5.012  12.545  1.00  0.00    -0.069 N 
ATOM     16  H33 UNL     1       0.447   4.778  13.078  1.00  0.00     0.275 HD
ATOM     17  H32 UNL     1      -0.719   4.066  12.354  1.00  0.00     0.275 HD
ATOM     18  H31 UNL     1      -0.163   5.513  11.686  1.00  0.00     0.275 HD
ENDBRANCH  14  15
ENDBRANCH  13  14
ENDBRANCH  11  12
ENDBRANCH   6  11
BRANCH   1  19
HETATM   19  S1  UNL     1      -4.549   1.881  16.353  1.00  0.00    -0.094 SA
BRANCH  19  20
HETATM   20  C3  UNL     1      -5.986   1.072  17.105  1.00  0.00     0.082 C 
BRANCH  20  21
HETATM   21  C2  UNL     1      -7.198   1.992  17.054  1.00  0.00     0.006 C 
HETATM   22  C1  UNL     1      -6.751   3.416  16.999  1.00  0.00     0.006 C 
ENDBRANCH  20  21
ENDBRANCH  19  20
ENDBRANCH   1  19
TORSDOF 7
ENDMDL
MODEL 2
REMARK VINA RESULT: -6.022047305      0.642      1.005
REMARK  7 active torsions:
REMARK  status: ('A' for Active; 'I' for Inactive)
REMARK    1  A    between atoms: C2_2  and  C3_3 
REMARK    2  A    between atoms: C3_3  and  S1_4 
REMARK    3  A    between atoms: S1_4  and  C4_5 
REMARK    4  A    between atoms: N2_10  and  C7_11 
REMARK    5  A    between atoms: C7_11  and  C8_12 
REMARK    6  A    between atoms: C9_13  and  C10_14 
REMARK    7  A    between atoms: C10_14  and  N3_15 
ROOT
HETATM    1  C4  UNL     1      -4.478   1.942  14.494  1.00  0.00     0.148 A 
HETATM    2  N1  UNL     1      -4.363   0.617  14.211  1.00  0.00    -0.337 N 
ATOM      3  H1  UNL     1      -4.354  -0.135  14.900  1.00  0.00     0.168 HD
HETATM    4  C5  UNL     1      -4.265   0.459  12.894  1.00  0.00     0.058 A 
HETATM    5  C6  UNL     1      -4.322   1.750  12.361  1.00  0.00     0.041 A 
HETATM    6  N2  UNL     1      -4.452   2.646  13.352  1.00  0.00    -0.318 N 
HETATM    7  C11 UNL     1      -4.226   1.803  10.872  1.00  0.00     0.085 C 
HETATM    8  C12 UNL     1      -3.080   0.882  10.505  1.00  0.00     0.174 C 
HETATM    9  O1  UNL     1      -3.247  -0.416  10.900  1.00  0.00    -0.385 OA
HETATM   10  C13 UNL     1      -4.123  -0.641  11.926  1.00  0.00     0.226 C 
ENDROOT
BRANCH   6  11
HETATM   11  C7  UNL     1      -4.544   4.063  13.210  1.00  0.00     0.225 C 
BRANCH  11  12
HETATM   12  C8  UNL     1      -3.201   4.589  12.939  1.00  0.00    -0.085 C 
HETATM   13  C9  UNL     1      -2.100   5.020  12.700  1.00  0.00    -0.078 C 
BRANCH  13  14
HETATM   14  C10 UNL     1      -0.758   5.561  12.392  1.00  0.00     0.323 C 
BRANCH  14  15
HETATM   15  N3  UNL     1       0.127   4.503  11.928  1.00  0.00    -0.069 N 
ATOM     16  H33 UNL     1      -0.394   3.686  11.609  1.00  0.00     0.275 HD
ATOM     17  H32 UNL     1       0.579   4.749  11.047  1.00  0.00     0.275 HD
ATOM     18  H31 UNL     1       0.807   4.261  12.648  1.00  0.00     0.275 HD
ENDBRANCH  14  15
ENDBRANCH  13  14
ENDBRANCH  11  12
ENDBRANCH   6  11
BRANCH   1  19
HETATM   19  S1  UNL     1      -4.637   2.683  16.108  1.00  0.00    -0.094 SA
BRANCH  19  20
HETATM   20  C3  UNL     1      -6.386   3.059  16.402  1.00  0.00     0.082 C 
BRANCH  20  21
HETATM   21  C2  UNL     1      -7.130   1.806  16.842  1.00  0.00     0.006 C 
HETATM   22  C1  UNL     1      -6.193   0.883  17.549  1.00  0.00     0.006 C 
ENDBRANCH  20  21
ENDBRANCH  19  20
ENDBRANCH   1  19
TORSDOF 7
ENDMDL
MODEL 3
REMARK VINA RESULT: -5.947741130      2.611      4.836
REMARK  7 active torsions:
REMARK  status: ('A' for Active; 'I' for Inactive)
REMARK    1  A    between atoms: C2_2  and  C3_3 
REMARK    2  A    between atoms: C3_3  and  S1_4 
REMARK    3  A    between atoms: S1_4  and  C4_5 
REMARK    4  A    between atoms: N2_10  and  C7_11 
REMARK    5  A    between atoms: C7_11  and  C8_12 
REMARK    6  A    between atoms: C9_13  and  C10_14 
REMARK    7  A    between atoms: C10_14  and  N3_15 
ROOT
HETATM    1  C4  UNL     1      -4.546   2.800  13.790  1.00  0.00     0.148 A 
HETATM    2  N1  UNL     1      -4.323   1.622  14.430  1.00  0.00    -0.337 N 
ATOM      3  H1  UNL     1      -3.709   0.878  14.100  1.00  0.00     0.168 HD
HETATM    4  C5  UNL     1      -5.033   1.594  15.555  1.00  0.00     0.058 A 
HETATM    5  C6  UNL     1      -5.716   2.814  15.591  1.00  0.00     0.041 A 
HETATM    6  N2  UNL     1      -5.408   3.540  14.505  1.00  0.00    -0.318 N 
HETATM    7  C11 UNL     1      -6.588   2.993  16.790  1.00  0.00     0.085 C 
HETATM    8  C12 UNL     1      -7.352   1.693  16.935  1.00  0.00     0.174 C 
HETATM    9  O1  UNL     1      -6.565   0.589  17.111  1.00  0.00    -0.385 OA
HETATM   10  C13 UNL     1      -5.268   0.681  16.686  1.00  0.00     0.226 C 
ENDROOT
BRANCH   6  11
HETATM   11  C7  UNL     1      -5.903   4.840  14.183  1.00  0.00     0.225 C 
BRANCH  11  12
HETATM   12  C8  UNL     1      -4.887   5.828  14.563  1.00  0.00    -0.085 C 
HETATM   13  C9  UNL     1      -4.050   6.645  14.859  1.00  0.00    -0.078 C 
BRANCH  13  14
HETATM   14  C10 UNL     1      -3.033   7.661  15.209  1.00  0.00     0.323 C 
BRANCH  14  15
HETATM   15  N3  UNL     1      -1.822   7.464  14.428  1.00  0.00    -0.069 N 
ATOM     16  H33 UNL     1      -0.994   7.407  15.020  1.00  0.00     0.275 HD
ATOM     17  H32 UNL     1      -1.783   6.530  14.020  1.00  0.00     0.275 HD
ATOM     18  H31 UNL     1      -1.730   8.190  13.718  1.00  0.00     0.275 HD
ENDBRANCH  14  15
ENDBRANCH  13  14
ENDBRANCH  11  12
ENDBRANCH   6  11
BRANCH   1  19
HETATM   19  S1  UNL     1      -3.836   3.331  12.243  1.00  0.00    -0.094 SA
BRANCH  19  20
HETATM   20  C3  UNL     1      -4.286   2.134  10.958  1.00  0.00     0.082 C 
BRANCH  20  21
HETATM   21  C2  UNL     1      -3.314   0.962  10.962  1.00  0.00     0.006 C 
HETATM   22  C1  UNL     1      -1.913   1.466  11.077  1.00  0.00     0.006 C 
ENDBRANCH  20  21
ENDBRANCH  19  20
ENDBRANCH   1  19
TORSDOF 7
ENDMDL
MODEL 4
REMARK VINA RESULT: -5.684968087      2.482      5.212
REMARK  7 active torsions:
REMARK  status: ('A' for Active; 'I' for Inactive)
REMARK    1  A    between atoms: C2_2  and  C3_3 
REMARK    2  A    between atoms: C3_3  and  S1_4 
REMARK    3  A    between atoms: S1_4  and  C4_5 
REMARK    4  A    between atoms: N2_10  and  C7_11 
REMARK    5  A    between atoms: C7_11  and  C8_12 
REMARK    6  A    between atoms: C9_13  and  C10_14 
REMARK    7  A    between atoms: C10_14  and  N3_15 
ROOT
HETATM    1  C4  UNL     1      -3.718   5.189  13.818  1.00  0.00     0.148 A 
HETATM    2  N1  UNL     1      -2.690   4.795  13.022  1.00  0.00    -0.337 N 
ATOM      3  H1  UNL     1      -1.802   5.286  12.917  1.00  0.00     0.168 HD
HETATM    4  C5  UNL     1      -3.024   3.666  12.403  1.00  0.00     0.058 A 
HETATM    5  C6  UNL     1      -4.316   3.369  12.847  1.00  0.00     0.041 A 
HETATM    6  N2  UNL     1      -4.727   4.310  13.711  1.00  0.00    -0.318 N 
HETATM    7  C11 UNL     1      -4.894   2.122  12.264  1.00  0.00     0.085 C 
HETATM    8  C12 UNL     1      -4.601   2.192  10.780  1.00  0.00     0.174 C 
HETATM    9  O1  UNL     1      -3.272   2.264  10.466  1.00  0.00    -0.385 OA
HETATM   10  C13 UNL     1      -2.431   2.719  11.444  1.00  0.00     0.226 C 
ENDROOT
BRANCH   6  11
HETATM   11  C7  UNL     1      -5.988   4.358  14.381  1.00  0.00     0.225 C 
BRANCH  11  12
HETATM   12  C8  UNL     1      -5.909   3.512  15.576  1.00  0.00    -0.085 C 
HETATM   13  C9  UNL     1      -5.852   2.828  16.569  1.00  0.00    -0.078 C 
BRANCH  13  14
HETATM   14  C10 UNL     1      -5.803   1.994  17.789  1.00  0.00     0.323 C 
BRANCH  14  15
HETATM   15  N3  UNL     1      -5.854   0.581  17.446  1.00  0.00    -0.069 N 
ATOM     16  H33 UNL     1      -6.724   0.148  17.754  1.00  0.00     0.275 HD
ATOM     17  H32 UNL     1      -5.959   0.439  16.442  1.00  0.00     0.275 HD
ATOM     18  H31 UNL     1      -5.038   0.092  17.814  1.00  0.00     0.275 HD
ENDBRANCH  14  15
ENDBRANCH  13  14
ENDBRANCH  11  12
ENDBRANCH   6  11
BRANCH   1  19
HETATM   19  S1  UNL     1      -3.775   6.637  14.858  1.00  0.00    -0.094 SA
BRANCH  19  20
HETATM   20  C3  UNL     1      -2.394   7.724  14.413  1.00  0.00     0.082 C 
BRANCH  20  21
HETATM   21  C2  UNL     1      -2.244   8.836  15.442  1.00  0.00     0.006 C 
HETATM   22  C1  UNL     1      -1.053   9.673  15.113  1.00  0.00     0.006 C 
ENDBRANCH  20  21
ENDBRANCH  19  20
ENDBRANCH   1  19
TORSDOF 7
ENDMDL
MODEL 5
REMARK VINA RESULT: -5.673995015      1.588      1.796
REMARK  7 active torsions:
REMARK  status: ('A' for Active; 'I' for Inactive)
REMARK    1  A    between atoms: C2_2  and  C3_3 
REMARK    2  A    between atoms: C3_3  and  S1_4 
REMARK    3  A    between atoms: S1_4  and  C4_5 
REMARK    4  A    between atoms: N2_10  and  C7_11 
REMARK    5  A    between atoms: C7_11  and  C8_12 
REMARK    6  A    between atoms: C9_13  and  C10_14 
REMARK    7  A    between atoms: C10_14  and  N3_15 
ROOT
HETATM    1  C4  UNL     1      -4.604   2.494  14.731  1.00  0.00     0.148 A 
HETATM    2  N1  UNL     1      -4.163   1.318  14.212  1.00  0.00    -0.337 N 
ATOM      3  H1  UNL     1      -3.966   0.473  14.749  1.00  0.00     0.168 HD
HETATM    4  C5  UNL     1      -4.028   1.444  12.895  1.00  0.00     0.058 A 
HETATM    5  C6  UNL     1      -4.405   2.759  12.609  1.00  0.00     0.041 A 
HETATM    6  N2  UNL     1      -4.755   3.389  13.742  1.00  0.00    -0.318 N 
HETATM    7  C11 UNL     1      -4.325   3.119  11.162  1.00  0.00     0.085 C 
HETATM    8  C12 UNL     1      -2.986   2.596  10.686  1.00  0.00     0.174 C 
HETATM    9  O1  UNL     1      -2.824   1.245  10.824  1.00  0.00    -0.385 OA
HETATM   10  C13 UNL     1      -3.616   0.619  11.747  1.00  0.00     0.226 C 
ENDROOT
BRANCH   6  11
HETATM   11  C7  UNL     1      -5.198   4.741  13.861  1.00  0.00     0.225 C 
BRANCH  11  12
HETATM   12  C8  UNL     1      -4.021   5.600  14.028  1.00  0.00    -0.085 C 
HETATM   13  C9  UNL     1      -3.055   6.314  14.148  1.00  0.00    -0.078 C 
BRANCH  13  14
HETATM   14  C10 UNL     1      -1.883   7.206  14.290  1.00  0.00     0.323 C 
BRANCH  14  15
HETATM   15  N3  UNL     1      -2.243   8.412  15.018  1.00  0.00    -0.069 N 
ATOM     16  H33 UNL     1      -2.168   9.244  14.434  1.00  0.00     0.275 HD
ATOM     17  H32 UNL     1      -3.243   8.453  15.214  1.00  0.00     0.275 HD
ATOM     18  H31 UNL     1      -1.688   8.498  15.870  1.00  0.00     0.275 HD
ENDBRANCH  14  15
ENDBRANCH  13  14
ENDBRANCH  11  12
ENDBRANCH   6  11
BRANCH   1  19
HETATM   19  S1  UNL     1      -4.944   2.850  16.445  1.00  0.00    -0.094 SA
BRANCH  19  20
HETATM   20  C3  UNL     1      -6.740   2.916  16.678  1.00  0.00     0.082 C 
BRANCH  20  21
HETATM   21  C2  UNL     1      -7.274   1.543  17.061  1.00  0.00     0.006 C 
HETATM   22  C1  UNL     1      -6.161   0.692  17.577  1.00  0.00     0.006 C 
ENDBRANCH  20  21
ENDBRANCH  19  20
ENDBRANCH   1  19
TORSDOF 7
ENDMDL
