MODEL 1
REMARK VINA RESULT: -6.919276794      0.000      0.000
REMARK  5 active torsions:
REMARK  status: ('A' for Active; 'I' for Inactive)
REMARK    1  A    between atoms: O1_1  and  C1_3 
REMARK    2  A    between atoms: C1_3  and  C2_4 
REMARK    3  A    between atoms: C2_4  and  N1_5 
REMARK    4  A    between atoms: C6_11  and  C7_12 
REMARK    5  A    between atoms: C7_12  and  C8_13 
ROOT
HETATM    1  N1  UNL     1      -2.439   4.662   9.305  1.00  0.00    -0.186 NA
HETATM    2  C3  UNL     1      -1.442   3.640   9.264  1.00  0.00     0.127 C 
HETATM    3  C4  UNL     1      -1.238   3.202  10.722  1.00  0.00     0.079 C 
HETATM    4  C5  UNL     1      -2.560   3.086  11.389  1.00  0.00     0.072 A 
HETATM    5  N2  UNL     1      -2.893   2.564  12.605  1.00  0.00    -0.339 N 
ATOM      6  H2  UNL     1      -2.239   2.156  13.274  1.00  0.00     0.167 HD
HETATM    7  C6  UNL     1      -4.218   2.675  12.777  1.00  0.00     0.127 A 
HETATM    8  O2  UNL     1      -4.697   3.255  11.687  1.00  0.00    -0.272 OA
HETATM    9  C14 UNL     1      -3.748   3.511  10.849  1.00  0.00     0.229 A 
HETATM   10  O3  UNL     1      -3.669   4.104   9.567  1.00  0.00    -0.234 OA
ENDROOT
BRANCH   7  11
HETATM   11  C7  UNL     1      -4.971   2.226  13.970  1.00  0.00     0.089 C 
BRANCH  11  12
HETATM   12  C8  UNL     1      -4.872   3.273  15.043  1.00  0.00    -0.007 C 
HETATM   13  C9  UNL     1      -4.328   2.638  16.310  1.00  0.00     0.005 C 
HETATM   14  C10 UNL     1      -5.427   1.876  16.984  1.00  0.00     0.000 C 
HETATM   15  C11 UNL     1      -6.449   2.847  17.554  1.00  0.00     0.000 C 
HETATM   16  C12 UNL     1      -6.453   4.150  16.775  1.00  0.00     0.000 C 
HETATM   17  C13 UNL     1      -6.234   3.892  15.294  1.00  0.00     0.005 C 
ENDBRANCH  11  12
ENDBRANCH   7  11
BRANCH   1  18
HETATM   18  C2  UNL     1      -2.409   5.652   8.307  1.00  0.00     0.147 C 
BRANCH  18  19
HETATM   19  C1  UNL     1      -3.688   6.030   7.653  1.00  0.00     0.181 C 
BRANCH  19  20
HETATM   20  O1  UNL     1      -4.109   5.072   6.740  1.00  0.00    -0.400 OA
ATOM     21  H1  UNL     1      -4.356   4.259   7.165  1.00  0.00     0.209 HD
ENDBRANCH  19  20
ENDBRANCH  18  19
ENDBRANCH   1  18
TORSDOF 5
ENDMDL
MODEL 2
REMARK VINA RESULT: -6.815496522      3.455      4.645
REMARK  5 active torsions:
REMARK  status: ('A' for Active; 'I' for Inactive)
REMARK    1  A    between atoms: O1_1  and  C1_3 
REMARK    2  A    between atoms: C1_3  and  C2_4 
REMARK    3  A    between atoms: C2_4  and  N1_5 
REMARK    4  A    between atoms: C6_11  and  C7_12 
REMARK    5  A    between atoms: C7_12  and  C8_13 
ROOT
HETATM    1  N1  UNL     1      -4.182  -0.351  11.404  1.00  0.00    -0.186 NA
HETATM    2  C3  UNL     1      -3.892   0.618  10.395  1.00  0.00     0.127 C 
HETATM    3  C4  UNL     1      -4.745   1.847  10.744  1.00  0.00     0.079 C 
HETATM    4  C5  UNL     1      -4.683   2.087  12.209  1.00  0.00     0.072 A 
HETATM    5  N2  UNL     1      -5.122   3.146  12.948  1.00  0.00    -0.339 N 
ATOM      6  H2  UNL     1      -5.587   3.975  12.579  1.00  0.00     0.167 HD
HETATM    7  C6  UNL     1      -4.842   2.919  14.240  1.00  0.00     0.127 A 
HETATM    8  O2  UNL     1      -4.241   1.740  14.298  1.00  0.00    -0.272 OA
HETATM    9  C14 UNL     1      -4.131   1.222  13.120  1.00  0.00     0.229 A 
HETATM   10  O3  UNL     1      -3.598   0.023  12.592  1.00  0.00    -0.234 OA
ENDROOT
BRANCH   7  11
HETATM   11  C7  UNL     1      -5.159   3.831  15.362  1.00  0.00     0.089 C 
BRANCH  11  12
HETATM   12  C8  UNL     1      -6.491   3.455  15.947  1.00  0.00    -0.007 C 
HETATM   13  C9  UNL     1      -6.655   4.139  17.292  1.00  0.00     0.005 C 
HETATM   14  C10 UNL     1      -5.857   3.396  18.318  1.00  0.00     0.000 C 
HETATM   15  C11 UNL     1      -6.503   2.048  18.591  1.00  0.00     0.000 C 
HETATM   16  C12 UNL     1      -7.294   1.571  17.387  1.00  0.00     0.000 C 
HETATM   17  C13 UNL     1      -6.589   1.949  16.096  1.00  0.00     0.005 C 
ENDBRANCH  11  12
ENDBRANCH   7  11
BRANCH   1  18
HETATM   18  C2  UNL     1      -4.073  -1.710  11.062  1.00  0.00     0.147 C 
BRANCH  18  19
HETATM   19  C1  UNL     1      -2.835  -2.435  11.447  1.00  0.00     0.181 C 
BRANCH  19  20
HETATM   20  O1  UNL     1      -2.960  -3.807  11.274  1.00  0.00    -0.400 OA
ATOM     21  H1  UNL     1      -2.922  -4.055  10.357  1.00  0.00     0.209 HD
ENDBRANCH  19  20
ENDBRANCH  18  19
ENDBRANCH   1  18
TORSDOF 5
ENDMDL
MODEL 3
REMARK VINA RESULT: -6.796266716      1.221      1.310
REMARK  5 active torsions:
REMARK  status: ('A' for Active; 'I' for Inactive)
REMARK    1  A    between atoms: O1_1  and  C1_3 
REMARK    2  A    between atoms: C1_3  and  C2_4 
REMARK    3  A    between atoms: C2_4  and  N1_5 
REMARK    4  A    between atoms: C6_11  and  C7_12 
REMARK    5  A    between atoms: C7_12  and  C8_13 
ROOT
HETATM    1  N1  UNL     1      -3.501   5.262   9.598  1.00  0.00    -0.186 NA
HETATM    2  C3  UNL     1      -2.156   4.789   9.496  1.00  0.00     0.127 C 
HETATM    3  C4  UNL     1      -1.737   4.420  10.926  1.00  0.00     0.079 C 
HETATM    4  C5  UNL     1      -2.852   3.701  11.595  1.00  0.00     0.072 A 
HETATM    5  N2  UNL     1      -2.884   3.031  12.783  1.00  0.00    -0.339 N 
ATOM      6  H2  UNL     1      -2.098   2.924  13.425  1.00  0.00     0.167 HD
HETATM    7  C6  UNL     1      -4.116   2.537  12.970  1.00  0.00     0.127 A 
HETATM    8  O2  UNL     1      -4.835   2.895  11.917  1.00  0.00    -0.272 OA
HETATM    9  C14 UNL     1      -4.122   3.582  11.087  1.00  0.00     0.229 A 
HETATM   10  O3  UNL     1      -4.350   4.206   9.839  1.00  0.00    -0.234 OA
ENDROOT
BRANCH   7  11
HETATM   11  C7  UNL     1      -4.558   1.749  14.142  1.00  0.00     0.089 C 
BRANCH  11  12
HETATM   12  C8  UNL     1      -4.639   2.647  15.345  1.00  0.00    -0.007 C 
HETATM   13  C9  UNL     1      -4.629   1.797  16.602  1.00  0.00     0.005 C 
HETATM   14  C10 UNL     1      -5.989   1.205  16.801  1.00  0.00     0.000 C 
HETATM   15  C11 UNL     1      -6.972   2.298  17.190  1.00  0.00     0.000 C 
HETATM   16  C12 UNL     1      -6.525   3.645  16.653  1.00  0.00     0.000 C 
HETATM   17  C13 UNL     1      -5.895   3.494  15.279  1.00  0.00     0.005 C 
ENDBRANCH  11  12
ENDBRANCH   7  11
BRANCH   1  18
HETATM   18  C2  UNL     1      -3.940   6.207   8.655  1.00  0.00     0.147 C 
BRANCH  18  19
HETATM   19  C1  UNL     1      -5.048   7.119   9.037  1.00  0.00     0.181 C 
BRANCH  19  20
HETATM   20  O1  UNL     1      -6.127   6.429   9.576  1.00  0.00    -0.400 OA
ATOM     21  H1  UNL     1      -6.695   6.997  10.083  1.00  0.00     0.209 HD
ENDBRANCH  19  20
ENDBRANCH  18  19
ENDBRANCH   1  18
TORSDOF 5
ENDMDL
MODEL 4
REMARK VINA RESULT: -6.751282836      2.321      2.734
REMARK  5 active torsions:
REMARK  status: ('A' for Active; 'I' for Inactive)
REMARK    1  A    between atoms: O1_1  and  C1_3 
REMARK    2  A    between atoms: C1_3  and  C2_4 
REMARK    3  A    between atoms: C2_4  and  N1_5 
REMARK    4  A    between atoms: C6_11  and  C7_12 
REMARK    5  A    between atoms: C7_12  and  C8_13 
ROOT
HETATM    1  N1  UNL     1      -0.946   3.628  11.376  1.00  0.00    -0.186 NA
HETATM    2  C3  UNL     1      -1.491   2.724  10.412  1.00  0.00     0.127 C 
HETATM    3  C4  UNL     1      -2.477   1.838  11.187  1.00  0.00     0.079 C 
HETATM    4  C5  UNL     1      -3.271   2.683  12.116  1.00  0.00     0.072 A 
HETATM    5  N2  UNL     1      -4.370   2.380  12.864  1.00  0.00    -0.339 N 
ATOM      6  H2  UNL     1      -4.833   1.471  12.897  1.00  0.00     0.167 HD
HETATM    7  C6  UNL     1      -4.743   3.470  13.549  1.00  0.00     0.127 A 
HETATM    8  O2  UNL     1      -3.890   4.431  13.232  1.00  0.00    -0.272 OA
HETATM    9  C14 UNL     1      -3.008   4.002  12.390  1.00  0.00     0.229 A 
HETATM   10  O3  UNL     1      -1.893   4.563  11.726  1.00  0.00    -0.234 OA
ENDROOT
BRANCH   7  11
HETATM   11  C7  UNL     1      -5.894   3.551  14.478  1.00  0.00     0.089 C 
BRANCH  11  12
HETATM   12  C8  UNL     1      -5.388   3.653  15.889  1.00  0.00    -0.007 C 
HETATM   13  C9  UNL     1      -4.478   2.472  16.177  1.00  0.00     0.005 C 
HETATM   14  C10 UNL     1      -5.318   1.260  16.436  1.00  0.00     0.000 C 
HETATM   15  C11 UNL     1      -6.039   1.411  17.766  1.00  0.00     0.000 C 
HETATM   16  C12 UNL     1      -6.244   2.875  18.109  1.00  0.00     0.000 C 
HETATM   17  C13 UNL     1      -6.552   3.682  16.860  1.00  0.00     0.005 C 
ENDBRANCH  11  12
ENDBRANCH   7  11
BRANCH   1  18
HETATM   18  C2  UNL     1       0.355   4.115  11.160  1.00  0.00     0.147 C 
BRANCH  18  19
HETATM   19  C1  UNL     1       0.829   4.257   9.760  1.00  0.00     0.181 C 
BRANCH  19  20
HETATM   20  O1  UNL     1       2.139   3.822   9.607  1.00  0.00    -0.400 OA
ATOM     21  H1  UNL     1       2.765   4.452   9.945  1.00  0.00     0.209 HD
ENDBRANCH  19  20
ENDBRANCH  18  19
ENDBRANCH   1  18
TORSDOF 5
ENDMDL
MODEL 5
REMARK VINA RESULT: -6.749484747      2.341      2.781
REMARK  5 active torsions:
REMARK  status: ('A' for Active; 'I' for Inactive)
REMARK    1  A    between atoms: O1_1  and  C1_3 
REMARK    2  A    between atoms: C1_3  and  C2_4 
REMARK    3  A    between atoms: C2_4  and  N1_5 
REMARK    4  A    between atoms: C6_11  and  C7_12 
REMARK    5  A    between atoms: C7_12  and  C8_13 
ROOT
HETATM    1  N1  UNL     1      -1.210   3.318  11.285  1.00  0.00    -0.186 NA
HETATM    2  C3  UNL     1      -1.769   2.297  10.457  1.00  0.00     0.127 C 
HETATM    3  C4  UNL     1      -2.707   1.492  11.369  1.00  0.00     0.079 C 
HETATM    4  C5  UNL     1      -3.485   2.429  12.221  1.00  0.00     0.072 A 
HETATM    5  N2  UNL     1      -4.550   2.197  13.041  1.00  0.00    -0.339 N 
ATOM      6  H2  UNL     1      -4.991   1.291  13.199  1.00  0.00     0.167 HD
HETATM    7  C6  UNL     1      -4.922   3.355  13.606  1.00  0.00     0.127 A 
HETATM    8  O2  UNL     1      -4.102   4.286  13.144  1.00  0.00    -0.272 OA
HETATM    9  C14 UNL     1      -3.242   3.775  12.325  1.00  0.00     0.229 A 
HETATM   10  O3  UNL     1      -2.164   4.272  11.558  1.00  0.00    -0.234 OA
ENDROOT
BRANCH   7  11
HETATM   11  C7  UNL     1      -6.040   3.526  14.561  1.00  0.00     0.089 C 
BRANCH  11  12
HETATM   12  C8  UNL     1      -5.489   3.656  15.953  1.00  0.00    -0.007 C 
HETATM   13  C9  UNL     1      -4.541   2.501  16.222  1.00  0.00     0.005 C 
HETATM   14  C10 UNL     1      -5.343   1.272  16.522  1.00  0.00     0.000 C 
HETATM   15  C11 UNL     1      -6.021   1.421  17.875  1.00  0.00     0.000 C 
HETATM   16  C12 UNL     1      -6.250   2.883  18.209  1.00  0.00     0.000 C 
HETATM   17  C13 UNL     1      -6.620   3.668  16.963  1.00  0.00     0.005 C 
ENDBRANCH  11  12
ENDBRANCH   7  11
BRANCH   1  18
HETATM   18  C2  UNL     1       0.071   3.799  10.963  1.00  0.00     0.147 C 
BRANCH  18  19
HETATM   19  C1  UNL     1       0.369   5.232  11.219  1.00  0.00     0.181 C 
BRANCH  19  20
HETATM   20  O1  UNL     1       0.070   5.601  12.524  1.00  0.00    -0.400 OA
ATOM     21  H1  UNL     1      -0.424   6.411  12.560  1.00  0.00     0.209 HD
ENDBRANCH  19  20
ENDBRANCH  18  19
ENDBRANCH   1  18
TORSDOF 5
ENDMDL
