MODEL 1
REMARK VINA RESULT: -7.064395902      0.000      0.000
REMARK  4 active torsions:
REMARK  status: ('A' for Active; 'I' for Inactive)
REMARK    1  A    between atoms: C3_7  and  C4_8 
REMARK    2  A    between atoms: C4_8  and  N3_10 
REMARK       I    between atoms: N3_10  and  C6_11 
REMARK    3  A    between atoms: N3_10  and  C10_18 
REMARK       I    between atoms: C6_11  and  N4_13 
REMARK    4  A    between atoms: N4_13  and  C7_15 
ROOT
HETATM    1  N3  UNL     1      -4.508   4.029  14.336  1.00  0.00    -0.318 N 
HETATM    2  C6  UNL     1      -4.764   3.093  15.357  1.00  0.00     0.319 C 
HETATM    3  O1  UNL     1      -4.060   2.019  15.396  1.00  0.00    -0.247 OA
HETATM    4  N4  UNL     1      -5.730   3.190  16.379  1.00  0.00    -0.339 N 
ATOM      5  H4  UNL     1      -6.320   4.023  16.399  1.00  0.00     0.164 HD
ENDROOT
BRANCH   1   6
HETATM    6  C4  UNL     1      -3.463   3.760  13.359  1.00  0.00     0.162 C 
HETATM    7  C5  UNL     1      -3.166   4.949  12.503  1.00  0.00     0.041 C 
BRANCH   6   8
HETATM    8  C3  UNL     1      -3.814   2.615  12.487  1.00  0.00     0.163 A 
HETATM    9  N2  UNL     1      -4.906   2.580  11.712  1.00  0.00    -0.280 N 
HETATM   10  N1  UNL     1      -4.943   1.447  11.065  1.00  0.00    -0.282 N 
ATOM     11  H2  UNL     1      -5.602   3.323  11.640  1.00  0.00     0.189 HD
HETATM   12  C2  UNL     1      -3.838   0.781  11.462  1.00  0.00     0.136 A 
ATOM     13  H1  UNL     1      -5.653   1.133  10.402  1.00  0.00     0.189 HD
HETATM   14  C1  UNL     1      -3.481  -0.591  10.955  1.00  0.00     0.099 C 
HETATM   15  O2  UNL     1      -3.161   1.483  12.315  1.00  0.00    -0.280 OA
ENDBRANCH   6   8
ENDBRANCH   1   6
BRANCH   1  16
HETATM   16  C10 UNL     1      -5.254   5.236  14.242  1.00  0.00     0.090 A 
HETATM   17  C11 UNL     1      -4.613   6.384  15.066  1.00  0.00     0.027 A 
HETATM   18  C12 UNL     1      -5.938   5.853  15.395  1.00  0.00     0.027 A 
ENDBRANCH   1  16
BRANCH   4  19
HETATM   19  C7  UNL     1      -5.940   2.201  17.391  1.00  0.00     0.078 C 
HETATM   20  C8  UNL     1      -6.083   2.788  18.779  1.00  0.00     0.032 C 
HETATM   21  C9  UNL     1      -7.101   1.274  17.065  1.00  0.00     0.032 C 
ENDBRANCH   4  19
TORSDOF 4
ENDMDL
MODEL 2
REMARK VINA RESULT: -6.860958589      1.799      5.340
REMARK  4 active torsions:
REMARK  status: ('A' for Active; 'I' for Inactive)
REMARK    1  A    between atoms: C3_7  and  C4_8 
REMARK    2  A    between atoms: C4_8  and  N3_10 
REMARK       I    between atoms: N3_10  and  C6_11 
REMARK    3  A    between atoms: N3_10  and  C10_18 
REMARK       I    between atoms: C6_11  and  N4_13 
REMARK    4  A    between atoms: N4_13  and  C7_15 
ROOT
HETATM    1  N3  UNL     1      -4.175   4.314  13.816  1.00  0.00    -0.318 N 
HETATM    2  C6  UNL     1      -3.822   3.659  12.620  1.00  0.00     0.319 C 
HETATM    3  O1  UNL     1      -4.760   3.212  11.865  1.00  0.00    -0.247 OA
HETATM    4  N4  UNL     1      -2.521   3.422  12.131  1.00  0.00    -0.339 N 
ATOM      5  H4  UNL     1      -1.735   3.754  12.689  1.00  0.00     0.164 HD
ENDROOT
BRANCH   1   6
HETATM    6  C4  UNL     1      -5.580   4.469  14.163  1.00  0.00     0.162 C 
HETATM    7  C5  UNL     1      -5.964   5.901  14.352  1.00  0.00     0.041 C 
BRANCH   6   8
HETATM    8  C3  UNL     1      -5.925   3.713  15.389  1.00  0.00     0.163 A 
HETATM    9  N2  UNL     1      -6.481   4.271  16.473  1.00  0.00    -0.280 N 
HETATM   10  N1  UNL     1      -6.665   3.356  17.386  1.00  0.00    -0.282 N 
ATOM     11  H2  UNL     1      -6.723   5.257  16.570  1.00  0.00     0.189 HD
HETATM   12  C2  UNL     1      -6.206   2.213  16.833  1.00  0.00     0.136 A 
ATOM     13  H1  UNL     1      -7.069   3.478  18.315  1.00  0.00     0.189 HD
HETATM   14  C1  UNL     1      -6.226   0.889  17.551  1.00  0.00     0.099 C 
HETATM   15  O2  UNL     1      -5.762   2.428  15.636  1.00  0.00    -0.280 OA
ENDBRANCH   6   8
ENDBRANCH   1   6
BRANCH   1  16
HETATM   16  C10 UNL     1      -3.181   4.830  14.692  1.00  0.00     0.090 A 
HETATM   17  C11 UNL     1      -2.809   6.298  14.354  1.00  0.00     0.027 A 
HETATM   18  C12 UNL     1      -1.829   5.214  14.241  1.00  0.00     0.027 A 
ENDBRANCH   1  16
BRANCH   4  19
HETATM   19  C7  UNL     1      -2.229   2.747  10.904  1.00  0.00     0.078 C 
HETATM   20  C8  UNL     1      -1.184   3.455  10.067  1.00  0.00     0.032 C 
HETATM   21  C9  UNL     1      -1.862   1.286  11.117  1.00  0.00     0.032 C 
ENDBRANCH   4  19
TORSDOF 4
ENDMDL
MODEL 3
REMARK VINA RESULT: -6.668555237      1.471      2.023
REMARK  4 active torsions:
REMARK  status: ('A' for Active; 'I' for Inactive)
REMARK    1  A    between atoms: C3_7  and  C4_8 
REMARK    2  A    between atoms: C4_8  and  N3_10 
REMARK       I    between atoms: N3_10  and  C6_11 
REMARK    3  A    between atoms: N3_10  and  C10_18 
REMARK       I    between atoms: C6_11  and  N4_13 
REMARK    4  A    between atoms: N4_13  and  C7_15 
ROOT
HETATM    1  N3  UNL     1      -3.470   4.244  13.419  1.00  0.00    -0.318 N 
HETATM    2  C6  UNL     1      -4.571   3.760  14.153  1.00  0.00     0.319 C 
HETATM    3  O1  UNL     1      -5.542   3.213  13.514  1.00  0.00    -0.247 OA
HETATM    4  N4  UNL     1      -4.748   3.803  15.551  1.00  0.00    -0.339 N 
ATOM      5  H4  UNL     1      -4.009   4.227  16.111  1.00  0.00     0.164 HD
ENDROOT
BRANCH   1   6
HETATM    6  C4  UNL     1      -3.458   4.113  11.970  1.00  0.00     0.162 C 
HETATM    7  C5  UNL     1      -4.408   5.057  11.307  1.00  0.00     0.041 C 
BRANCH   6   8
HETATM    8  C3  UNL     1      -3.777   2.731  11.544  1.00  0.00     0.163 A 
HETATM    9  N2  UNL     1      -4.827   2.416  10.774  1.00  0.00    -0.280 N 
HETATM   10  N1  UNL     1      -4.845   1.126  10.570  1.00  0.00    -0.282 N 
ATOM     11  H2  UNL     1      -5.508   3.080  10.405  1.00  0.00     0.189 HD
HETATM   12  C2  UNL     1      -3.772   0.653  11.238  1.00  0.00     0.136 A 
ATOM     13  H1  UNL     1      -5.522   0.593  10.026  1.00  0.00     0.189 HD
HETATM   14  C1  UNL     1      -3.407  -0.808  11.272  1.00  0.00     0.099 C 
HETATM   15  O2  UNL     1      -3.132   1.616  11.821  1.00  0.00    -0.280 OA
ENDBRANCH   6   8
ENDBRANCH   1   6
BRANCH   1  16
HETATM   16  C10 UNL     1      -2.366   4.859  14.071  1.00  0.00     0.090 A 
HETATM   17  C11 UNL     1      -2.558   6.390  14.226  1.00  0.00     0.027 A 
HETATM   18  C12 UNL     1      -1.478   5.833  13.408  1.00  0.00     0.027 A 
ENDBRANCH   1  16
BRANCH   4  19
HETATM   19  C7  UNL     1      -5.895   3.292  16.237  1.00  0.00     0.078 C 
HETATM   20  C8  UNL     1      -5.564   2.166  17.194  1.00  0.00     0.032 C 
HETATM   21  C9  UNL     1      -6.692   4.385  16.931  1.00  0.00     0.032 C 
ENDBRANCH   4  19
TORSDOF 4
ENDMDL
MODEL 4
REMARK VINA RESULT: -6.644680722      1.301      1.605
REMARK  4 active torsions:
REMARK  status: ('A' for Active; 'I' for Inactive)
REMARK    1  A    between atoms: C3_7  and  C4_8 
REMARK    2  A    between atoms: C4_8  and  N3_10 
REMARK       I    between atoms: N3_10  and  C6_11 
REMARK    3  A    between atoms: N3_10  and  C10_18 
REMARK       I    between atoms: C6_11  and  N4_13 
REMARK    4  A    between atoms: N4_13  and  C7_15 
ROOT
HETATM    1  N3  UNL     1      -4.051   4.557  15.065  1.00  0.00    -0.318 N 
HETATM    2  C6  UNL     1      -4.395   3.478  15.903  1.00  0.00     0.319 C 
HETATM    3  O1  UNL     1      -3.571   2.498  16.011  1.00  0.00    -0.247 OA
HETATM    4  N4  UNL     1      -5.572   3.332  16.665  1.00  0.00    -0.339 N 
ATOM      5  H4  UNL     1      -6.265   4.079  16.618  1.00  0.00     0.164 HD
ENDROOT
BRANCH   1   6
HETATM    6  C4  UNL     1      -2.783   4.537  14.350  1.00  0.00     0.162 C 
HETATM    7  C5  UNL     1      -2.218   5.907  14.159  1.00  0.00     0.041 C 
BRANCH   6   8
HETATM    8  C3  UNL     1      -2.913   3.882  13.029  1.00  0.00     0.163 A 
HETATM    9  N2  UNL     1      -2.826   4.537  11.864  1.00  0.00    -0.280 N 
HETATM   10  N1  UNL     1      -2.981   3.695  10.878  1.00  0.00    -0.282 N 
ATOM     11  H2  UNL     1      -2.664   5.540  11.762  1.00  0.00     0.189 HD
HETATM   12  C2  UNL     1      -3.167   2.496  11.470  1.00  0.00     0.136 A 
ATOM     13  H1  UNL     1      -2.966   3.898   9.879  1.00  0.00     0.189 HD
HETATM   14  C1  UNL     1      -3.388   1.224  10.694  1.00  0.00     0.099 C 
HETATM   15  O2  UNL     1      -3.126   2.609  12.760  1.00  0.00    -0.280 OA
ENDBRANCH   6   8
ENDBRANCH   1   6
BRANCH   1  16
HETATM   16  C10 UNL     1      -4.922   5.670  14.906  1.00  0.00     0.090 A 
HETATM   17  C11 UNL     1      -6.310   5.250  14.355  1.00  0.00     0.027 A 
HETATM   18  C12 UNL     1      -5.416   6.126  13.592  1.00  0.00     0.027 A 
ENDBRANCH   1  16
BRANCH   4  19
HETATM   19  C7  UNL     1      -5.862   2.206  17.498  1.00  0.00     0.078 C 
HETATM   20  C8  UNL     1      -6.084   2.580  18.949  1.00  0.00     0.032 C 
HETATM   21  C9  UNL     1      -7.014   1.369  16.965  1.00  0.00     0.032 C 
ENDBRANCH   4  19
TORSDOF 4
ENDMDL
MODEL 5
REMARK VINA RESULT: -6.590320857      2.057      5.120
REMARK  4 active torsions:
REMARK  status: ('A' for Active; 'I' for Inactive)
REMARK    1  A    between atoms: C3_7  and  C4_8 
REMARK    2  A    between atoms: C4_8  and  N3_10 
REMARK       I    between atoms: N3_10  and  C6_11 
REMARK    3  A    between atoms: N3_10  and  C10_18 
REMARK       I    between atoms: C6_11  and  N4_13 
REMARK    4  A    between atoms: N4_13  and  C7_15 
ROOT
HETATM    1  N3  UNL     1      -4.675   2.684  15.049  1.00  0.00    -0.318 N 
HETATM    2  C6  UNL     1      -4.425   2.261  13.729  1.00  0.00     0.319 C 
HETATM    3  O1  UNL     1      -4.287   3.153  12.815  1.00  0.00    -0.247 OA
HETATM    4  N4  UNL     1      -4.304   0.935  13.266  1.00  0.00    -0.339 N 
ATOM      5  H4  UNL     1      -4.406   0.183  13.948  1.00  0.00     0.164 HD
ENDROOT
BRANCH   1   6
HETATM    6  C4  UNL     1      -4.768   4.106  15.344  1.00  0.00     0.162 C 
HETATM    7  C5  UNL     1      -5.962   4.740  14.708  1.00  0.00     0.041 C 
BRANCH   6   8
HETATM    8  C3  UNL     1      -3.551   4.833  14.916  1.00  0.00     0.163 A 
HETATM    9  N2  UNL     1      -2.326   4.291  14.913  1.00  0.00    -0.280 N 
HETATM   10  N1  UNL     1      -1.463   5.173  14.487  1.00  0.00    -0.282 N 
ATOM     11  H2  UNL     1      -2.102   3.338  15.201  1.00  0.00     0.189 HD
HETATM   12  C2  UNL     1      -2.192   6.278  14.224  1.00  0.00     0.136 A 
ATOM     13  H1  UNL     1      -0.456   5.053  14.376  1.00  0.00     0.189 HD
HETATM   14  C1  UNL     1      -1.587   7.555  13.703  1.00  0.00     0.099 C 
HETATM   15  O2  UNL     1      -3.445   6.073  14.482  1.00  0.00    -0.280 OA
ENDBRANCH   6   8
ENDBRANCH   1   6
BRANCH   1  16
HETATM   16  C10 UNL     1      -4.837   1.742  16.103  1.00  0.00     0.090 A 
HETATM   17  C11 UNL     1      -6.331   1.480  16.427  1.00  0.00     0.027 A 
HETATM   18  C12 UNL     1      -5.430   2.088  17.409  1.00  0.00     0.027 A 
ENDBRANCH   1  16
BRANCH   4  19
HETATM   19  C7  UNL     1      -4.050   0.572  11.906  1.00  0.00     0.078 C 
HETATM   20  C8  UNL     1      -2.668   0.972  11.431  1.00  0.00     0.032 C 
HETATM   21  C9  UNL     1      -4.317  -0.901  11.637  1.00  0.00     0.032 C 
ENDBRANCH   4  19
TORSDOF 4
ENDMDL
