MODEL 1
REMARK VINA RESULT: -6.884738754      0.000      0.000
REMARK  4 active torsions:
REMARK  status: ('A' for Active; 'I' for Inactive)
REMARK    1  A    between atoms: C3_6  and  C4_7 
REMARK    2  A    between atoms: C4_7  and  N3_8 
REMARK    3  A    between atoms: N4_14  and  C9_15 
REMARK    4  A    between atoms: C9_15  and  C10_16 
ROOT
HETATM    1  N1  UNL     1      -5.965   6.265  15.545  1.00  0.00    -0.081 NA
HETATM    2  C1  UNL     1      -5.255   5.646  14.490  1.00  0.00     0.139 A 
HETATM    3  C2  UNL     1      -5.109   6.243  13.248  1.00  0.00     0.135 A 
HETATM    4  N2  UNL     1      -4.392   5.390  12.511  1.00  0.00    -0.351 N 
ATOM      5  H2  UNL     1      -4.108   5.529  11.542  1.00  0.00     0.166 HD
HETATM    6  C3  UNL     1      -4.113   4.324  13.263  1.00  0.00     0.117 A 
HETATM    7  N4  UNL     1      -4.631   4.457  14.482  1.00  0.00    -0.301 N 
ENDROOT
BRANCH   6   8
HETATM    8  C4  UNL     1      -3.323   3.147  12.742  1.00  0.00     0.349 C 
BRANCH   8   9
HETATM    9  N3  UNL     1      -4.224   2.178  12.147  1.00  0.00     0.099 N 
HETATM   10  C5  UNL     1      -3.836   1.991  10.740  1.00  0.00     0.299 C 
HETATM   11  C6  UNL     1      -2.765   0.958  10.605  1.00  0.00     0.198 C 
HETATM   12  O1  UNL     1      -3.356  -0.288  10.841  1.00  0.00    -0.388 OA
HETATM   13  C7  UNL     1      -4.373  -0.195  11.777  1.00  0.00     0.198 C 
HETATM   14  C8  UNL     1      -4.092   0.884  12.804  1.00  0.00     0.299 C 
ENDBRANCH   8   9
ENDBRANCH   6   8
BRANCH   7  15
HETATM   15  C9  UNL     1      -4.566   3.545  15.553  1.00  0.00     0.077 C 
BRANCH  15  16
HETATM   16  C10 UNL     1      -5.662   2.604  15.792  1.00  0.00     0.025 C 
HETATM   17  C11 UNL     1      -5.047   1.339  16.423  1.00  0.00     0.010 C 
HETATM   18  C12 UNL     1      -6.042   0.839  17.413  1.00  0.00     0.001 C 
HETATM   19  C13 UNL     1      -7.297   1.632  17.130  1.00  0.00     0.001 C 
HETATM   20  C14 UNL     1      -6.692   3.010  16.808  1.00  0.00     0.010 C 
ENDBRANCH  15  16
ENDBRANCH   7  15
TORSDOF 4
ENDMDL
MODEL 2
REMARK VINA RESULT: -6.652741554      2.539      5.582
REMARK  4 active torsions:
REMARK  status: ('A' for Active; 'I' for Inactive)
REMARK    1  A    between atoms: C3_6  and  C4_7 
REMARK    2  A    between atoms: C4_7  and  N3_8 
REMARK    3  A    between atoms: N4_14  and  C9_15 
REMARK    4  A    between atoms: C9_15  and  C10_16 
ROOT
HETATM    1  N1  UNL     1      -4.781  -0.036  15.195  1.00  0.00    -0.081 NA
HETATM    2  C1  UNL     1      -4.754   1.367  15.368  1.00  0.00     0.139 A 
HETATM    3  C2  UNL     1      -4.757   1.957  16.622  1.00  0.00     0.135 A 
HETATM    4  N2  UNL     1      -4.727   3.275  16.409  1.00  0.00    -0.351 N 
ATOM      5  H2  UNL     1      -4.721   3.998  17.129  1.00  0.00     0.166 HD
HETATM    6  C3  UNL     1      -4.706   3.484  15.092  1.00  0.00     0.117 A 
HETATM    7  N4  UNL     1      -4.722   2.328  14.431  1.00  0.00    -0.301 N 
ENDROOT
BRANCH   6   8
HETATM    8  C4  UNL     1      -4.682   4.868  14.489  1.00  0.00     0.349 C 
BRANCH   8   9
HETATM    9  N3  UNL     1      -3.443   5.535  14.845  1.00  0.00     0.099 N 
HETATM   10  C5  UNL     1      -2.381   5.040  13.957  1.00  0.00     0.299 C 
HETATM   11  C6  UNL     1      -2.337   5.814  12.679  1.00  0.00     0.198 C 
HETATM   12  O1  UNL     1      -1.809   7.076  12.975  1.00  0.00    -0.388 OA
HETATM   13  C7  UNL     1      -2.182   7.493  14.242  1.00  0.00     0.198 C 
HETATM   14  C8  UNL     1      -3.553   6.971  14.624  1.00  0.00     0.299 C 
ENDBRANCH   8   9
ENDBRANCH   6   8
BRANCH   7  15
HETATM   15  C9  UNL     1      -4.722   2.131  13.037  1.00  0.00     0.077 C 
BRANCH  15  16
HETATM   16  C10 UNL     1      -3.608   1.439  12.385  1.00  0.00     0.025 C 
HETATM   17  C11 UNL     1      -4.215   0.338  11.493  1.00  0.00     0.010 C 
HETATM   18  C12 UNL     1      -3.356   0.267  10.276  1.00  0.00     0.001 C 
HETATM   19  C13 UNL     1      -2.139   1.095  10.616  1.00  0.00     0.001 C 
HETATM   20  C14 UNL     1      -2.791   2.240  11.411  1.00  0.00     0.010 C 
ENDBRANCH  15  16
ENDBRANCH   7  15
TORSDOF 4
ENDMDL
MODEL 3
REMARK VINA RESULT: -6.636617014      0.833      1.308
REMARK  4 active torsions:
REMARK  status: ('A' for Active; 'I' for Inactive)
REMARK    1  A    between atoms: C3_6  and  C4_7 
REMARK    2  A    between atoms: C4_7  and  N3_8 
REMARK    3  A    between atoms: N4_14  and  C9_15 
REMARK    4  A    between atoms: C9_15  and  C10_16 
ROOT
HETATM    1  N1  UNL     1      -3.899   6.719  15.259  1.00  0.00    -0.081 NA
HETATM    2  C1  UNL     1      -4.159   5.813  14.205  1.00  0.00     0.139 A 
HETATM    3  C2  UNL     1      -4.196   6.215  12.879  1.00  0.00     0.135 A 
HETATM    4  N2  UNL     1      -4.463   5.116  12.168  1.00  0.00    -0.351 N 
ATOM      5  H2  UNL     1      -4.559   5.068  11.154  1.00  0.00     0.166 HD
HETATM    6  C3  UNL     1      -4.583   4.092  13.015  1.00  0.00     0.117 A 
HETATM    7  N4  UNL     1      -4.400   4.495  14.271  1.00  0.00    -0.301 N 
ENDROOT
BRANCH   6   8
HETATM    8  C4  UNL     1      -4.898   2.689  12.553  1.00  0.00     0.349 C 
BRANCH   8   9
HETATM    9  N3  UNL     1      -3.688   1.887  12.566  1.00  0.00     0.099 N 
HETATM   10  C5  UNL     1      -4.073   0.474  12.703  1.00  0.00     0.299 C 
HETATM   11  C6  UNL     1      -4.371  -0.140  11.373  1.00  0.00     0.198 C 
HETATM   12  O1  UNL     1      -3.150  -0.305  10.709  1.00  0.00    -0.388 OA
HETATM   13  C7  UNL     1      -2.260   0.708  11.030  1.00  0.00     0.198 C 
HETATM   14  C8  UNL     1      -2.975   2.016  11.302  1.00  0.00     0.299 C 
ENDBRANCH   8   9
ENDBRANCH   6   8
BRANCH   7  15
HETATM   15  C9  UNL     1      -4.460   3.717  15.443  1.00  0.00     0.077 C 
BRANCH  15  16
HETATM   16  C10 UNL     1      -5.619   2.861  15.707  1.00  0.00     0.025 C 
HETATM   17  C11 UNL     1      -5.080   1.497  16.180  1.00  0.00     0.010 C 
HETATM   18  C12 UNL     1      -6.034   1.006  17.214  1.00  0.00     0.001 C 
HETATM   19  C13 UNL     1      -7.225   1.930  17.106  1.00  0.00     0.001 C 
HETATM   20  C14 UNL     1      -6.518   3.270  16.839  1.00  0.00     0.010 C 
ENDBRANCH  15  16
ENDBRANCH   7  15
TORSDOF 4
ENDMDL
MODEL 4
REMARK VINA RESULT: -6.534151706      0.930      1.613
REMARK  4 active torsions:
REMARK  status: ('A' for Active; 'I' for Inactive)
REMARK    1  A    between atoms: C3_6  and  C4_7 
REMARK    2  A    between atoms: C4_7  and  N3_8 
REMARK    3  A    between atoms: N4_14  and  C9_15 
REMARK    4  A    between atoms: C9_15  and  C10_16 
ROOT
HETATM    1  N1  UNL     1      -4.728   6.646  15.603  1.00  0.00    -0.081 NA
HETATM    2  C1  UNL     1      -4.449   5.860  14.461  1.00  0.00     0.139 A 
HETATM    3  C2  UNL     1      -3.551   6.266  13.487  1.00  0.00     0.135 A 
HETATM    4  N2  UNL     1      -3.537   5.294  12.570  1.00  0.00    -0.351 N 
ATOM      5  H2  UNL     1      -2.976   5.283  11.718  1.00  0.00     0.166 HD
HETATM    6  C3  UNL     1      -4.383   4.340  12.963  1.00  0.00     0.117 A 
HETATM    7  N4  UNL     1      -4.955   4.664  14.121  1.00  0.00    -0.301 N 
ENDROOT
BRANCH   6   8
HETATM    8  C4  UNL     1      -4.628   3.089  12.154  1.00  0.00     0.349 C 
BRANCH   8   9
HETATM    9  N3  UNL     1      -3.546   2.146  12.372  1.00  0.00     0.099 N 
HETATM   10  C5  UNL     1      -4.133   0.823  12.631  1.00  0.00     0.299 C 
HETATM   11  C6  UNL     1      -4.408   0.091  11.357  1.00  0.00     0.198 C 
HETATM   12  O1  UNL     1      -3.174  -0.312  10.835  1.00  0.00    -0.388 OA
HETATM   13  C7  UNL     1      -2.180   0.611  11.121  1.00  0.00     0.198 C 
HETATM   14  C8  UNL     1      -2.725   2.024  11.174  1.00  0.00     0.299 C 
ENDBRANCH   8   9
ENDBRANCH   6   8
BRANCH   7  15
HETATM   15  C9  UNL     1      -5.910   3.927  14.847  1.00  0.00     0.077 C 
BRANCH  15  16
HETATM   16  C10 UNL     1      -5.526   3.221  16.072  1.00  0.00     0.025 C 
HETATM   17  C11 UNL     1      -6.655   3.442  17.098  1.00  0.00     0.010 C 
HETATM   18  C12 UNL     1      -6.771   2.174  17.872  1.00  0.00     0.001 C 
HETATM   19  C13 UNL     1      -5.546   1.376  17.486  1.00  0.00     0.001 C 
HETATM   20  C14 UNL     1      -5.444   1.723  15.990  1.00  0.00     0.010 C 
ENDBRANCH  15  16
ENDBRANCH   7  15
TORSDOF 4
ENDMDL
MODEL 5
REMARK VINA RESULT: -6.531018744      2.116      5.083
REMARK  4 active torsions:
REMARK  status: ('A' for Active; 'I' for Inactive)
REMARK    1  A    between atoms: C3_6  and  C4_7 
REMARK    2  A    between atoms: C4_7  and  N3_8 
REMARK    3  A    between atoms: N4_14  and  C9_15 
REMARK    4  A    between atoms: C9_15  and  C10_16 
ROOT
HETATM    1  N1  UNL     1      -1.929   4.947  12.149  1.00  0.00    -0.081 NA
HETATM    2  C1  UNL     1      -2.915   4.854  13.158  1.00  0.00     0.139 A 
HETATM    3  C2  UNL     1      -2.925   5.694  14.261  1.00  0.00     0.135 A 
HETATM    4  N2  UNL     1      -3.980   5.327  14.994  1.00  0.00    -0.351 N 
ATOM      5  H2  UNL     1      -4.271   5.749  15.876  1.00  0.00     0.166 HD
HETATM    6  C3  UNL     1      -4.587   4.315  14.372  1.00  0.00     0.117 A 
HETATM    7  N4  UNL     1      -3.952   4.006  13.243  1.00  0.00    -0.301 N 
ENDROOT
BRANCH   6   8
HETATM    8  C4  UNL     1      -5.817   3.640  14.930  1.00  0.00     0.349 C 
BRANCH   8   9
HETATM    9  N3  UNL     1      -5.479   2.945  16.158  1.00  0.00     0.099 N 
HETATM   10  C5  UNL     1      -6.667   2.932  17.024  1.00  0.00     0.299 C 
HETATM   11  C6  UNL     1      -7.558   1.774  16.708  1.00  0.00     0.198 C 
HETATM   12  O1  UNL     1      -6.925   0.621  17.183  1.00  0.00    -0.388 OA
HETATM   13  C7  UNL     1      -5.547   0.723  17.079  1.00  0.00     0.198 C 
HETATM   14  C8  UNL     1      -5.135   1.555  15.882  1.00  0.00     0.299 C 
ENDBRANCH   8   9
ENDBRANCH   6   8
BRANCH   7  15
HETATM   15  C9  UNL     1      -4.275   2.991  12.322  1.00  0.00     0.077 C 
BRANCH  15  16
HETATM   16  C10 UNL     1      -3.457   1.779  12.237  1.00  0.00     0.025 C 
HETATM   17  C11 UNL     1      -4.414   0.575  12.347  1.00  0.00     0.010 C 
HETATM   18  C12 UNL     1      -3.867  -0.476  11.443  1.00  0.00     0.001 C 
HETATM   19  C13 UNL     1      -2.488   0.017  11.070  1.00  0.00     0.001 C 
HETATM   20  C14 UNL     1      -2.758   1.526  10.931  1.00  0.00     0.010 C 
ENDBRANCH  15  16
ENDBRANCH   7  15
TORSDOF 4
ENDMDL
