MODEL 1
REMARK VINA RESULT: -4.996505311      0.000      0.000
REMARK  2 active torsions:
REMARK  status: ('A' for Active; 'I' for Inactive)
REMARK    1  A    between atoms: C2_5  and  O3_6 
REMARK    2  A    between atoms: C4_9  and  O4_10 
ROOT
HETATM    1  O1  UNL     1       6.127  -6.532  26.716  1.00  0.00    -0.228 OA
HETATM    2  S1  UNL     1       5.378  -7.848  26.649  1.00  0.00     0.149 S 
HETATM    3  O2  UNL     1       4.649  -7.987  25.372  1.00  0.00    -0.228 OA
HETATM    4  C1  UNL     1       4.303  -7.950  28.071  1.00  0.00     0.172 C 
HETATM    5  C2  UNL     1       4.983  -8.942  29.025  1.00  0.00     0.134 C 
HETATM    6  C3  UNL     1       6.380  -8.403  29.263  1.00  0.00     0.065 C 
HETATM    7  C4  UNL     1       7.337  -8.760  28.165  1.00  0.00     0.134 C 
HETATM    8  C5  UNL     1       6.619  -9.125  26.868  1.00  0.00     0.172 C 
ENDROOT
BRANCH   5   9
HETATM    9  O3  UNL     1       4.249  -9.033  30.185  1.00  0.00    -0.395 OA
ATOM     10  H3  UNL     1       4.228  -8.185  30.610  1.00  0.00     0.210 HD
ENDBRANCH   5   9
BRANCH   7  11
HETATM   11  O4  UNL     1       8.242  -9.720  28.554  1.00  0.00    -0.395 OA
ATOM     12  H4  UNL     1       9.004  -9.747  27.987  1.00  0.00     0.210 HD
ENDBRANCH   7  11
TORSDOF 2
ENDMDL
MODEL 2
REMARK VINA RESULT: -4.706900636      1.803      1.996
REMARK  2 active torsions:
REMARK  status: ('A' for Active; 'I' for Inactive)
REMARK    1  A    between atoms: C2_5  and  O3_6 
REMARK    2  A    between atoms: C4_9  and  O4_10 
ROOT
HETATM    1  O1  UNL     1       3.068  -6.716  26.547  1.00  0.00    -0.228 OA
HETATM    2  S1  UNL     1       3.592  -8.135  26.617  1.00  0.00     0.149 S 
HETATM    3  O2  UNL     1       3.060  -8.959  25.513  1.00  0.00    -0.228 OA
HETATM    4  C1  UNL     1       3.192  -8.798  28.227  1.00  0.00     0.172 C 
HETATM    5  C2  UNL     1       4.512  -8.787  29.010  1.00  0.00     0.134 C 
HETATM    6  C3  UNL     1       5.013  -7.358  28.967  1.00  0.00     0.065 C 
HETATM    7  C4  UNL     1       5.734  -7.032  27.694  1.00  0.00     0.134 C 
HETATM    8  C5  UNL     1       5.379  -7.996  26.564  1.00  0.00     0.172 C 
ENDROOT
BRANCH   5   9
HETATM    9  O3  UNL     1       4.281  -9.226  30.294  1.00  0.00    -0.395 OA
ATOM     10  H3  UNL     1       4.037  -8.487  30.839  1.00  0.00     0.210 HD
ENDBRANCH   5   9
BRANCH   7  11
HETATM   11  O4  UNL     1       7.092  -6.915  27.878  1.00  0.00    -0.395 OA
ATOM     12  H4  UNL     1       7.429  -6.085  27.562  1.00  0.00     0.210 HD
ENDBRANCH   7  11
TORSDOF 2
ENDMDL
MODEL 3
REMARK VINA RESULT: -4.478273469      1.674      2.390
REMARK  2 active torsions:
REMARK  status: ('A' for Active; 'I' for Inactive)
REMARK    1  A    between atoms: C2_5  and  O3_6 
REMARK    2  A    between atoms: C4_9  and  O4_10 
ROOT
HETATM    1  O1  UNL     1       6.490  -6.152  26.634  1.00  0.00    -0.228 OA
HETATM    2  S1  UNL     1       5.897  -7.289  25.826  1.00  0.00     0.149 S 
HETATM    3  O2  UNL     1       6.537  -7.397  24.500  1.00  0.00    -0.228 OA
HETATM    4  C1  UNL     1       4.132  -7.035  25.721  1.00  0.00     0.172 C 
HETATM    5  C2  UNL     1       3.517  -8.049  26.695  1.00  0.00     0.134 C 
HETATM    6  C3  UNL     1       4.165  -7.785  28.039  1.00  0.00     0.065 C 
HETATM    7  C4  UNL     1       5.511  -8.431  28.174  1.00  0.00     0.134 C 
HETATM    8  C5  UNL     1       6.131  -8.764  26.819  1.00  0.00     0.172 C 
ENDROOT
BRANCH   5   9
HETATM    9  O3  UNL     1       2.152  -7.879  26.725  1.00  0.00    -0.395 OA
ATOM     10  H3  UNL     1       1.882  -7.377  25.965  1.00  0.00     0.210 HD
ENDBRANCH   5   9
BRANCH   7  11
HETATM   11  O4  UNL     1       5.488  -9.514  29.022  1.00  0.00    -0.395 OA
ATOM     12  H4  UNL     1       5.871 -10.288  28.628  1.00  0.00     0.210 HD
ENDBRANCH   7  11
TORSDOF 2
ENDMDL
MODEL 4
REMARK VINA RESULT: -4.452538267      7.227      8.021
REMARK  2 active torsions:
REMARK  status: ('A' for Active; 'I' for Inactive)
REMARK    1  A    between atoms: C2_5  and  O3_6 
REMARK    2  A    between atoms: C4_9  and  O4_10 
ROOT
HETATM    1  O1  UNL     1       9.201  -0.918  23.860  1.00  0.00    -0.228 OA
HETATM    2  S1  UNL     1       9.620  -2.348  24.136  1.00  0.00     0.149 S 
HETATM    3  O2  UNL     1       9.476  -3.192  22.933  1.00  0.00    -0.228 OA
HETATM    4  C1  UNL     1       8.665  -2.950  25.520  1.00  0.00     0.172 C 
HETATM    5  C2  UNL     1       9.631  -2.947  26.712  1.00  0.00     0.134 C 
HETATM    6  C3  UNL     1      10.165  -1.533  26.816  1.00  0.00     0.065 C 
HETATM    7  C4  UNL     1      11.293  -1.264  25.867  1.00  0.00     0.134 C 
HETATM    8  C5  UNL     1      11.319  -2.254  24.704  1.00  0.00     0.172 C 
ENDROOT
BRANCH   5   9
HETATM    9  O3  UNL     1       8.956  -3.341  27.845  1.00  0.00    -0.395 OA
ATOM     10  H3  UNL     1       9.248  -2.818  28.582  1.00  0.00     0.210 HD
ENDBRANCH   5   9
BRANCH   7  11
HETATM   11  O4  UNL     1      12.506  -1.176  26.509  1.00  0.00    -0.395 OA
ATOM     12  H4  UNL     1      13.158  -0.724  25.986  1.00  0.00     0.210 HD
ENDBRANCH   7  11
TORSDOF 2
ENDMDL
MODEL 5
REMARK VINA RESULT: -4.418879192      1.370      2.739
REMARK  2 active torsions:
REMARK  status: ('A' for Active; 'I' for Inactive)
REMARK    1  A    between atoms: C2_5  and  O3_6 
REMARK    2  A    between atoms: C4_9  and  O4_10 
ROOT
HETATM    1  O1  UNL     1       4.442  -8.334  26.341  1.00  0.00    -0.228 OA
HETATM    2  S1  UNL     1       5.888  -7.883  26.311  1.00  0.00     0.149 S 
HETATM    3  O2  UNL     1       6.224  -7.240  25.024  1.00  0.00    -0.228 OA
HETATM    4  C1  UNL     1       6.920  -9.297  26.665  1.00  0.00     0.172 C 
HETATM    5  C2  UNL     1       7.395  -9.101  28.112  1.00  0.00     0.134 C 
HETATM    6  C3  UNL     1       6.141  -8.946  28.947  1.00  0.00     0.065 C 
HETATM    7  C4  UNL     1       5.586  -7.554  28.912  1.00  0.00     0.134 C 
HETATM    8  C5  UNL     1       6.078  -6.765  27.702  1.00  0.00     0.172 C 
ENDROOT
BRANCH   5   9
HETATM    9  O3  UNL     1       8.151 -10.186  28.492  1.00  0.00    -0.395 OA
ATOM     10  H3  UNL     1       8.056 -10.323  29.427  1.00  0.00     0.210 HD
ENDBRANCH   5   9
BRANCH   7  11
HETATM   11  O4  UNL     1       5.787  -6.882  30.096  1.00  0.00    -0.395 OA
ATOM     12  H4  UNL     1       6.644  -7.056  30.467  1.00  0.00     0.210 HD
ENDBRANCH   7  11
TORSDOF 2
ENDMDL
