MODEL 1
REMARK VINA RESULT: -4.715887201      0.000      0.000
REMARK  2 active torsions:
REMARK  status: ('A' for Active; 'I' for Inactive)
REMARK    1  A    between atoms: N1_1  and  C1_5 
REMARK    2  A    between atoms: C8_14  and  O3_15 
ROOT
HETATM    1  C1  UNL     1       1.990  -4.605  19.829  1.00  0.00     0.236 C 
HETATM    2  C2  UNL     1       1.508  -3.473  18.966  1.00  0.00     0.203 C 
HETATM    3  O1  UNL     1       2.658  -2.754  18.584  1.00  0.00    -0.389 OA
HETATM    4  C3  UNL     1       2.732  -1.663  19.401  1.00  0.00     0.174 C 
HETATM    5  C4  UNL     1       3.435  -1.858  20.688  1.00  0.00     0.042 C 
HETATM    6  C5  UNL     1       2.728  -1.263  21.879  1.00  0.00     0.174 C 
HETATM    7  O2  UNL     1       3.054  -1.999  22.985  1.00  0.00    -0.390 OA
HETATM    8  C6  UNL     1       3.978  -2.968  22.614  1.00  0.00     0.175 C 
HETATM    9  C7  UNL     1       3.676  -3.250  21.127  1.00  0.00     0.048 C 
HETATM   10  C8  UNL     1       2.524  -4.168  21.154  1.00  0.00     0.157 C 
ENDROOT
BRANCH   1  11
HETATM   11  N1  UNL     1       2.913  -5.397  19.067  1.00  0.00    -0.070 N 
ATOM     12  H13 UNL     1       2.630  -5.497  18.091  1.00  0.00     0.274 HD
ATOM     13  H12 UNL     1       3.800  -4.919  18.908  1.00  0.00     0.274 HD
ATOM     14  H11 UNL     1       3.031  -6.295  19.535  1.00  0.00     0.274 HD
ENDBRANCH   1  11
BRANCH  10  15
HETATM   15  O3  UNL     1       1.521  -3.642  21.942  1.00  0.00    -0.393 OA
ATOM     16  H3  UNL     1       1.830  -2.886  22.427  1.00  0.00     0.210 HD
ENDBRANCH  10  15
TORSDOF 2
ENDMDL
MODEL 2
REMARK VINA RESULT: -4.656315244      2.191      2.939
REMARK  2 active torsions:
REMARK  status: ('A' for Active; 'I' for Inactive)
REMARK    1  A    between atoms: N1_1  and  C1_5 
REMARK    2  A    between atoms: C8_14  and  O3_15 
ROOT
HETATM    1  C1  UNL     1       4.019  -4.446  23.316  1.00  0.00     0.236 C 
HETATM    2  C2  UNL     1       3.500  -5.358  22.241  1.00  0.00     0.203 C 
HETATM    3  O1  UNL     1       4.124  -4.950  21.045  1.00  0.00    -0.389 OA
HETATM    4  C3  UNL     1       3.221  -4.181  20.370  1.00  0.00     0.174 C 
HETATM    5  C4  UNL     1       3.208  -2.741  20.707  1.00  0.00     0.042 C 
HETATM    6  C5  UNL     1       1.830  -2.157  20.890  1.00  0.00     0.174 C 
HETATM    7  O2  UNL     1       1.917  -1.116  21.773  1.00  0.00    -0.390 OA
HETATM    8  C6  UNL     1       3.253  -0.933  22.109  1.00  0.00     0.175 C 
HETATM    9  C7  UNL     1       3.893  -2.328  21.951  1.00  0.00     0.048 C 
HETATM   10  C8  UNL     1       3.540  -3.036  23.194  1.00  0.00     0.157 C 
ENDROOT
BRANCH   1  11
HETATM   11  N1  UNL     1       5.447  -4.568  23.366  1.00  0.00    -0.070 N 
ATOM     12  H13 UNL     1       5.770  -5.499  23.098  1.00  0.00     0.274 HD
ATOM     13  H12 UNL     1       5.911  -4.041  22.626  1.00  0.00     0.274 HD
ATOM     14  H11 UNL     1       5.763  -4.297  24.296  1.00  0.00     0.274 HD
ENDBRANCH   1  11
BRANCH  10  15
HETATM   15  O3  UNL     1       2.180  -2.956  23.412  1.00  0.00    -0.393 OA
ATOM     16  H3  UNL     1       1.972  -2.251  24.014  1.00  0.00     0.210 HD
ENDBRANCH  10  15
TORSDOF 2
ENDMDL
MODEL 3
REMARK VINA RESULT: -4.540455467      1.601      2.243
REMARK  2 active torsions:
REMARK  status: ('A' for Active; 'I' for Inactive)
REMARK    1  A    between atoms: N1_1  and  C1_5 
REMARK    2  A    between atoms: C8_14  and  O3_15 
ROOT
HETATM    1  C1  UNL     1       1.776  -2.860  19.923  1.00  0.00     0.236 C 
HETATM    2  C2  UNL     1       1.784  -1.546  20.649  1.00  0.00     0.203 C 
HETATM    3  O1  UNL     1       3.139  -1.193  20.806  1.00  0.00    -0.389 OA
HETATM    4  C3  UNL     1       3.490  -1.525  22.083  1.00  0.00     0.174 C 
HETATM    5  C4  UNL     1       3.957  -2.913  22.292  1.00  0.00     0.042 C 
HETATM    6  C5  UNL     1       3.372  -3.591  23.505  1.00  0.00     0.174 C 
HETATM    7  O2  UNL     1       3.324  -4.936  23.266  1.00  0.00    -0.390 OA
HETATM    8  C6  UNL     1       3.907  -5.186  22.029  1.00  0.00     0.175 C 
HETATM    9  C7  UNL     1       3.678  -3.893  21.219  1.00  0.00     0.048 C 
HETATM   10  C8  UNL     1       2.290  -4.003  20.737  1.00  0.00     0.157 C 
ENDROOT
BRANCH   1  11
HETATM   11  N1  UNL     1       2.454  -2.692  18.670  1.00  0.00    -0.070 N 
ATOM     12  H13 UNL     1       2.090  -1.906  18.130  1.00  0.00     0.274 HD
ATOM     13  H12 UNL     1       3.409  -2.353  18.785  1.00  0.00     0.274 HD
ATOM     14  H11 UNL     1       2.410  -3.573  18.158  1.00  0.00     0.274 HD
ENDBRANCH   1  11
BRANCH  10  15
HETATM   15  O3  UNL     1       1.445  -4.277  21.792  1.00  0.00    -0.393 OA
ATOM     16  H3  UNL     1       1.541  -3.631  22.482  1.00  0.00     0.210 HD
ENDBRANCH  10  15
TORSDOF 2
ENDMDL
MODEL 4
REMARK VINA RESULT: -4.507517508      6.758      8.277
REMARK  2 active torsions:
REMARK  status: ('A' for Active; 'I' for Inactive)
REMARK    1  A    between atoms: N1_1  and  C1_5 
REMARK    2  A    between atoms: C8_14  and  O3_15 
ROOT
HETATM    1  C1  UNL     1       5.819  -7.814  27.934  1.00  0.00     0.236 C 
HETATM    2  C2  UNL     1       4.367  -7.519  28.179  1.00  0.00     0.203 C 
HETATM    3  O1  UNL     1       3.643  -8.517  27.496  1.00  0.00    -0.389 OA
HETATM    4  C3  UNL     1       3.217  -7.963  26.323  1.00  0.00     0.174 C 
HETATM    5  C4  UNL     1       4.157  -8.041  25.184  1.00  0.00     0.042 C 
HETATM    6  C5  UNL     1       4.294  -6.760  24.401  1.00  0.00     0.174 C 
HETATM    7  O2  UNL     1       5.548  -6.719  23.858  1.00  0.00    -0.390 OA
HETATM    8  C6  UNL     1       6.200  -7.909  24.161  1.00  0.00     0.175 C 
HETATM    9  C7  UNL     1       5.566  -8.376  25.488  1.00  0.00     0.048 C 
HETATM   10  C8  UNL     1       6.251  -7.582  26.522  1.00  0.00     0.157 C 
ENDROOT
BRANCH   1  11
HETATM   11  N1  UNL     1       6.104  -9.135  28.415  1.00  0.00    -0.070 N 
ATOM     12  H13 UNL     1       6.482  -9.133  29.363  1.00  0.00     0.274 HD
ATOM     13  H12 UNL     1       5.258  -9.673  28.603  1.00  0.00     0.274 HD
ATOM     14  H11 UNL     1       6.722  -9.596  27.749  1.00  0.00     0.274 HD
ENDBRANCH   1  11
BRANCH  10  15
HETATM   15  O3  UNL     1       6.194  -6.241  26.202  1.00  0.00    -0.393 OA
ATOM     16  H3  UNL     1       6.651  -6.066  25.388  1.00  0.00     0.210 HD
ENDBRANCH  10  15
TORSDOF 2
ENDMDL
MODEL 5
REMARK VINA RESULT: -4.492447620      2.240      3.422
REMARK  2 active torsions:
REMARK  status: ('A' for Active; 'I' for Inactive)
REMARK    1  A    between atoms: N1_1  and  C1_5 
REMARK    2  A    between atoms: C8_14  and  O3_15 
ROOT
HETATM    1  C1  UNL     1       3.442  -2.459  22.486  1.00  0.00     0.236 C 
HETATM    2  C2  UNL     1       3.779  -1.499  21.382  1.00  0.00     0.203 C 
HETATM    3  O1  UNL     1       2.553  -1.140  20.786  1.00  0.00    -0.389 OA
HETATM    4  C3  UNL     1       2.430  -1.889  19.651  1.00  0.00     0.174 C 
HETATM    5  C4  UNL     1       1.817  -3.225  19.813  1.00  0.00     0.042 C 
HETATM    6  C5  UNL     1       2.534  -4.331  19.082  1.00  0.00     0.174 C 
HETATM    7  O2  UNL     1       2.333  -5.499  19.764  1.00  0.00    -0.390 OA
HETATM    8  C6  UNL     1       1.476  -5.247  20.829  1.00  0.00     0.175 C 
HETATM    9  C7  UNL     1       1.720  -3.766  21.187  1.00  0.00     0.048 C 
HETATM   10  C8  UNL     1       2.945  -3.783  22.004  1.00  0.00     0.157 C 
ENDROOT
BRANCH   1  11
HETATM   11  N1  UNL     1       2.551  -1.806  23.401  1.00  0.00    -0.070 N 
ATOM     12  H13 UNL     1       3.030  -1.133  24.001  1.00  0.00     0.274 HD
ATOM     13  H12 UNL     1       1.920  -1.155  22.935  1.00  0.00     0.274 HD
ATOM     14  H11 UNL     1       2.054  -2.520  23.933  1.00  0.00     0.274 HD
ENDBRANCH   1  11
BRANCH  10  15
HETATM   15  O3  UNL     1       3.942  -4.474  21.345  1.00  0.00    -0.393 OA
ATOM     16  H3  UNL     1       3.607  -5.282  20.974  1.00  0.00     0.210 HD
ENDBRANCH  10  15
TORSDOF 2
ENDMDL
