MODEL 1
REMARK VINA RESULT: -4.923322847      0.000      0.000
REMARK  2 active torsions:
REMARK  status: ('A' for Active; 'I' for Inactive)
REMARK    1  A    between atoms: N1_1  and  C1_5 
REMARK    2  A    between atoms: C5_10  and  O2_11 
ROOT
HETATM    1  C1  UNL     1       2.709  -1.341  19.989  1.00  0.00     0.217 C 
HETATM    2  C2  UNL     1       3.825  -1.378  21.004  1.00  0.00     0.068 C 
HETATM    3  C3  UNL     1       3.071  -1.313  22.295  1.00  0.00     0.133 C 
HETATM    4  O1  UNL     1       1.718  -1.095  21.965  1.00  0.00    -0.375 OA
HETATM    5  C4  UNL     1       1.570  -1.908  20.821  1.00  0.00     0.183 C 
HETATM    6  C5  UNL     1       1.712  -3.356  21.113  1.00  0.00     0.178 C 
HETATM    7  C6  UNL     1       2.406  -3.701  22.381  1.00  0.00     0.161 C 
HETATM    8  O3  UNL     1       3.672  -4.302  22.187  1.00  0.00    -0.382 OA
HETATM    9  C7  UNL     1       4.302  -3.414  23.070  1.00  0.00     0.178 C 
HETATM   10  C8  UNL     1       3.083  -2.586  23.076  1.00  0.00     0.070 C 
ENDROOT
BRANCH   1  11
HETATM   11  N1  UNL     1       2.961  -2.036  18.793  1.00  0.00    -0.072 N 
ATOM     12  H13 UNL     1       3.951  -2.270  18.726  1.00  0.00     0.274 HD
ATOM     13  H12 UNL     1       2.558  -2.973  18.840  1.00  0.00     0.274 HD
ATOM     14  H11 UNL     1       2.653  -1.566  17.942  1.00  0.00     0.274 HD
ENDBRANCH   1  11
BRANCH   6  15
HETATM   15  O2  UNL     1       2.328  -4.067  20.077  1.00  0.00    -0.390 OA
ATOM     16  H2  UNL     1       2.365  -5.003  20.239  1.00  0.00     0.210 HD
ENDBRANCH   6  15
TORSDOF 2
ENDMDL
MODEL 2
REMARK VINA RESULT: -4.891135203      7.172      8.143
REMARK  2 active torsions:
REMARK  status: ('A' for Active; 'I' for Inactive)
REMARK    1  A    between atoms: N1_1  and  C1_5 
REMARK    2  A    between atoms: C5_10  and  O2_11 
ROOT
HETATM    1  C1  UNL     1       6.294  -8.497  25.347  1.00  0.00     0.217 C 
HETATM    2  C2  UNL     1       6.355  -8.874  26.807  1.00  0.00     0.068 C 
HETATM    3  C3  UNL     1       6.041  -7.573  27.476  1.00  0.00     0.133 C 
HETATM    4  O1  UNL     1       5.991  -6.596  26.461  1.00  0.00    -0.375 OA
HETATM    5  C4  UNL     1       5.356  -7.303  25.417  1.00  0.00     0.183 C 
HETATM    6  C5  UNL     1       3.952  -7.667  25.730  1.00  0.00     0.178 C 
HETATM    7  C6  UNL     1       3.581  -7.658  27.169  1.00  0.00     0.161 C 
HETATM    8  O3  UNL     1       3.325  -8.946  27.696  1.00  0.00    -0.382 OA
HETATM    9  C7  UNL     1       4.184  -8.744  28.784  1.00  0.00     0.178 C 
HETATM   10  C8  UNL     1       4.698  -7.529  28.128  1.00  0.00     0.070 C 
ENDROOT
BRANCH   1  11
HETATM   11  N1  UNL     1       5.872  -9.520  24.479  1.00  0.00    -0.072 N 
ATOM     12  H13 UNL     1       4.853  -9.578  24.475  1.00  0.00     0.274 HD
ATOM     13  H12 UNL     1       6.040  -9.250  23.510  1.00  0.00     0.274 HD
ATOM     14  H11 UNL     1       6.275 -10.440  24.662  1.00  0.00     0.274 HD
ENDBRANCH   1  11
BRANCH   6  15
HETATM   15  O2  UNL     1       3.574  -8.904  25.196  1.00  0.00    -0.390 OA
ATOM     16  H2  UNL     1       3.016  -8.825  24.431  1.00  0.00     0.210 HD
ENDBRANCH   6  15
TORSDOF 2
ENDMDL
MODEL 3
REMARK VINA RESULT: -4.549097902      1.897      3.060
REMARK  2 active torsions:
REMARK  status: ('A' for Active; 'I' for Inactive)
REMARK    1  A    between atoms: N1_1  and  C1_5 
REMARK    2  A    between atoms: C5_10  and  O2_11 
ROOT
HETATM    1  C1  UNL     1       3.502  -2.291  21.881  1.00  0.00     0.217 C 
HETATM    2  C2  UNL     1       3.789  -3.598  21.184  1.00  0.00     0.068 C 
HETATM    3  C3  UNL     1       2.486  -4.319  21.328  1.00  0.00     0.133 C 
HETATM    4  O1  UNL     1       1.672  -3.524  22.161  1.00  0.00    -0.375 OA
HETATM    5  C4  UNL     1       1.992  -2.224  21.715  1.00  0.00     0.183 C 
HETATM    6  C5  UNL     1       1.559  -1.965  20.320  1.00  0.00     0.178 C 
HETATM    7  C6  UNL     1       1.293  -3.164  19.485  1.00  0.00     0.161 C 
HETATM    8  O3  UNL     1       2.236  -3.351  18.446  1.00  0.00    -0.382 OA
HETATM    9  C7  UNL     1       2.460  -4.688  18.799  1.00  0.00     0.178 C 
HETATM   10  C8  UNL     1       1.720  -4.460  20.053  1.00  0.00     0.070 C 
ENDROOT
BRANCH   1  11
HETATM   11  N1  UNL     1       4.194  -1.176  21.377  1.00  0.00    -0.072 N 
ATOM     12  H13 UNL     1       4.836  -0.814  22.081  1.00  0.00     0.274 HD
ATOM     13  H12 UNL     1       4.860  -1.470  20.662  1.00  0.00     0.274 HD
ATOM     14  H11 UNL     1       3.606  -0.423  21.018  1.00  0.00     0.274 HD
ENDBRANCH   1  11
BRANCH   6  15
HETATM   15  O2  UNL     1       2.442  -1.137  19.615  1.00  0.00    -0.390 OA
ATOM     16  H2  UNL     1       3.222  -1.592  19.319  1.00  0.00     0.210 HD
ENDBRANCH   6  15
TORSDOF 2
ENDMDL
MODEL 4
REMARK VINA RESULT: -4.509391202      6.554      8.307
REMARK  2 active torsions:
REMARK  status: ('A' for Active; 'I' for Inactive)
REMARK    1  A    between atoms: N1_1  and  C1_5 
REMARK    2  A    between atoms: C5_10  and  O2_11 
ROOT
HETATM    1  C1  UNL     1       6.610  -7.294  27.353  1.00  0.00     0.217 C 
HETATM    2  C2  UNL     1       6.135  -6.848  25.991  1.00  0.00     0.068 C 
HETATM    3  C3  UNL     1       5.572  -8.115  25.430  1.00  0.00     0.133 C 
HETATM    4  O1  UNL     1       5.882  -9.140  26.348  1.00  0.00    -0.375 OA
HETATM    5  C4  UNL     1       5.691  -8.482  27.582  1.00  0.00     0.183 C 
HETATM    6  C5  UNL     1       4.277  -8.102  27.826  1.00  0.00     0.178 C 
HETATM    7  C6  UNL     1       3.402  -8.043  26.627  1.00  0.00     0.161 C 
HETATM    8  O3  UNL     1       2.993  -6.731  26.289  1.00  0.00    -0.382 OA
HETATM    9  C7  UNL     1       3.385  -6.882  24.952  1.00  0.00     0.178 C 
HETATM   10  C8  UNL     1       4.083  -8.128  25.319  1.00  0.00     0.070 C 
ENDROOT
BRANCH   1  11
HETATM   11  N1  UNL     1       6.557  -6.312  28.358  1.00  0.00    -0.072 N 
ATOM     12  H13 UNL     1       7.311  -5.638  28.230  1.00  0.00     0.274 HD
ATOM     13  H12 UNL     1       5.748  -5.707  28.216  1.00  0.00     0.274 HD
ATOM     14  H11 UNL     1       6.564  -6.668  29.314  1.00  0.00     0.274 HD
ENDBRANCH   1  11
BRANCH   6  15
HETATM   15  O2  UNL     1       4.146  -6.891  28.516  1.00  0.00    -0.390 OA
ATOM     16  H2  UNL     1       4.042  -7.006  29.453  1.00  0.00     0.210 HD
ENDBRANCH   6  15
TORSDOF 2
ENDMDL
MODEL 5
REMARK VINA RESULT: -4.432748183      4.413      5.820
REMARK  2 active torsions:
REMARK  status: ('A' for Active; 'I' for Inactive)
REMARK    1  A    between atoms: N1_1  and  C1_5 
REMARK    2  A    between atoms: C5_10  and  O2_11 
ROOT
HETATM    1  C1  UNL     1       3.822  -5.496  23.437  1.00  0.00     0.217 C 
HETATM    2  C2  UNL     1       3.876  -6.699  24.346  1.00  0.00     0.068 C 
HETATM    3  C3  UNL     1       3.981  -7.824  23.366  1.00  0.00     0.133 C 
HETATM    4  O1  UNL     1       3.826  -7.261  22.082  1.00  0.00    -0.375 OA
HETATM    5  C4  UNL     1       4.539  -6.050  22.217  1.00  0.00     0.183 C 
HETATM    6  C5  UNL     1       5.994  -6.251  22.423  1.00  0.00     0.178 C 
HETATM    7  C6  UNL     1       6.406  -7.597  22.898  1.00  0.00     0.161 C 
HETATM    8  O3  UNL     1       6.899  -7.603  24.225  1.00  0.00    -0.382 OA
HETATM    9  C7  UNL     1       6.056  -8.655  24.605  1.00  0.00     0.178 C 
HETATM   10  C8  UNL     1       5.316  -8.492  23.341  1.00  0.00     0.070 C 
ENDROOT
BRANCH   1  11
HETATM   11  N1  UNL     1       4.387  -4.320  23.962  1.00  0.00    -0.072 N 
ATOM     12  H13 UNL     1       4.448  -3.607  23.236  1.00  0.00     0.274 HD
ATOM     13  H12 UNL     1       3.730  -3.871  24.601  1.00  0.00     0.274 HD
ATOM     14  H11 UNL     1       5.292  -4.438  24.417  1.00  0.00     0.274 HD
ENDBRANCH   1  11
BRANCH   6  15
HETATM   15  O2  UNL     1       6.565  -5.300  23.277  1.00  0.00    -0.390 OA
ATOM     16  H2  UNL     1       7.277  -5.649  23.800  1.00  0.00     0.210 HD
ENDBRANCH   6  15
TORSDOF 2
ENDMDL
