MODEL 1
REMARK VINA RESULT: -5.093170491      0.000      0.000
REMARK  6 active torsions:
REMARK  status: ('A' for Active; 'I' for Inactive)
REMARK    1  A    between atoms: C2_2  and  O1_3 
REMARK    2  A    between atoms: C2_2  and  O2_5 
REMARK    3  A    between atoms: C2_2  and  C3_7 
REMARK    4  A    between atoms: C3_7  and  C4_8 
REMARK    5  A    between atoms: C5_9  and  O3_10 
REMARK    6  A    between atoms: C6_12  and  C7_13 
ROOT
HETATM    1  C4  UNL     1       5.331  -4.390  25.196  1.00  0.00     0.056 C 
HETATM    2  C5  UNL     1       4.627  -4.457  26.527  1.00  0.00     0.155 C 
HETATM    3  C6  UNL     1       4.887  -5.877  27.026  1.00  0.00     0.161 C 
HETATM    4  O4  UNL     1       5.372  -6.574  25.966  1.00  0.00    -0.372 OA
HETATM    5  C8  UNL     1       5.302  -5.851  24.804  1.00  0.00     0.060 C 
HETATM    6  C9  UNL     1       6.507  -6.223  23.956  1.00  0.00     0.046 C 
HETATM    7  C10 UNL     1       4.076  -6.229  24.041  1.00  0.00     0.046 C 
ENDROOT
BRANCH   1   8
HETATM    8  C3  UNL     1       4.705  -3.576  24.149  1.00  0.00     0.078 C 
BRANCH   8   9
HETATM    9  C2  UNL     1       5.347  -2.319  23.724  1.00  0.00     0.155 C 
HETATM   10  C1  UNL     1       4.518  -1.475  22.786  1.00  0.00     0.078 C 
BRANCH   9  11
HETATM   11  O1  UNL     1       5.512  -1.516  24.883  1.00  0.00    -0.366 OA
ATOM     12  H1  UNL     1       6.335  -1.802  25.261  1.00  0.00     0.213 HD
ENDBRANCH   9  11
BRANCH   9  13
HETATM   13  O2  UNL     1       6.622  -2.421  23.189  1.00  0.00    -0.366 OA
ATOM     14  H2  UNL     1       7.040  -3.180  23.577  1.00  0.00     0.213 HD
ENDBRANCH   9  13
ENDBRANCH   8   9
ENDBRANCH   1   8
BRANCH   2  15
HETATM   15  O3  UNL     1       3.237  -4.383  26.395  1.00  0.00    -0.392 OA
ATOM     16  H3  UNL     1       2.851  -5.223  26.176  1.00  0.00     0.210 HD
ENDBRANCH   2  15
BRANCH   3  17
HETATM   17  C7  UNL     1       5.913  -5.886  28.138  1.00  0.00     0.120 C 
HETATM   18  S1  UNL     1       7.287  -7.013  27.797  1.00  0.00    -0.095 SA
ENDBRANCH   3  17
TORSDOF 6
ENDMDL
MODEL 2
REMARK VINA RESULT: -4.944104529      2.697      4.495
REMARK  6 active torsions:
REMARK  status: ('A' for Active; 'I' for Inactive)
REMARK    1  A    between atoms: C2_2  and  O1_3 
REMARK    2  A    between atoms: C2_2  and  O2_5 
REMARK    3  A    between atoms: C2_2  and  C3_7 
REMARK    4  A    between atoms: C3_7  and  C4_8 
REMARK    5  A    between atoms: C5_9  and  O3_10 
REMARK    6  A    between atoms: C6_12  and  C7_13 
ROOT
HETATM    1  C4  UNL     1       4.891  -5.917  25.946  1.00  0.00     0.056 C 
HETATM    2  C5  UNL     1       3.416  -5.610  25.958  1.00  0.00     0.155 C 
HETATM    3  C6  UNL     1       3.012  -5.616  24.485  1.00  0.00     0.161 C 
HETATM    4  O4  UNL     1       4.165  -5.595  23.769  1.00  0.00    -0.372 OA
HETATM    5  C8  UNL     1       5.260  -5.403  24.571  1.00  0.00     0.060 C 
HETATM    6  C9  UNL     1       6.414  -6.191  23.974  1.00  0.00     0.046 C 
HETATM    7  C10 UNL     1       5.647  -3.961  24.570  1.00  0.00     0.046 C 
ENDROOT
BRANCH   1   8
HETATM    8  C3  UNL     1       5.718  -5.264  26.966  1.00  0.00     0.078 C 
BRANCH   8   9
HETATM    9  C2  UNL     1       6.303  -6.071  28.053  1.00  0.00     0.155 C 
HETATM   10  C1  UNL     1       7.324  -7.087  27.602  1.00  0.00     0.078 C 
BRANCH   9  11
HETATM   11  O1  UNL     1       7.022  -5.184  28.896  1.00  0.00    -0.366 OA
ATOM     12  H1  UNL     1       6.354  -4.681  29.346  1.00  0.00     0.213 HD
ENDBRANCH   9  11
BRANCH   9  13
HETATM   13  O2  UNL     1       5.413  -6.710  28.901  1.00  0.00    -0.366 OA
ATOM     14  H2  UNL     1       4.544  -6.629  28.527  1.00  0.00     0.213 HD
ENDBRANCH   9  13
ENDBRANCH   8   9
ENDBRANCH   1   8
BRANCH   2  15
HETATM   15  O3  UNL     1       3.150  -4.305  26.386  1.00  0.00    -0.392 OA
ATOM     16  H3  UNL     1       3.679  -4.058  27.136  1.00  0.00     0.210 HD
ENDBRANCH   2  15
BRANCH   3  17
HETATM   17  C7  UNL     1       2.235  -6.867  24.137  1.00  0.00     0.120 C 
HETATM   18  S1  UNL     1       0.816  -7.123  25.232  1.00  0.00    -0.095 SA
ENDBRANCH   3  17
TORSDOF 6
ENDMDL
MODEL 3
REMARK VINA RESULT: -4.850957452      2.585      4.385
REMARK  6 active torsions:
REMARK  status: ('A' for Active; 'I' for Inactive)
REMARK    1  A    between atoms: C2_2  and  O1_3 
REMARK    2  A    between atoms: C2_2  and  O2_5 
REMARK    3  A    between atoms: C2_2  and  C3_7 
REMARK    4  A    between atoms: C3_7  and  C4_8 
REMARK    5  A    between atoms: C5_9  and  O3_10 
REMARK    6  A    between atoms: C6_12  and  C7_13 
ROOT
HETATM    1  C4  UNL     1       4.883  -5.711  25.576  1.00  0.00     0.056 C 
HETATM    2  C5  UNL     1       3.391  -5.503  25.605  1.00  0.00     0.155 C 
HETATM    3  C6  UNL     1       2.979  -5.484  24.134  1.00  0.00     0.161 C 
HETATM    4  O4  UNL     1       4.125  -5.361  23.415  1.00  0.00    -0.372 OA
HETATM    5  C8  UNL     1       5.209  -5.125  24.219  1.00  0.00     0.060 C 
HETATM    6  C9  UNL     1       6.409  -5.813  23.590  1.00  0.00     0.046 C 
HETATM    7  C10 UNL     1       5.499  -3.661  24.268  1.00  0.00     0.046 C 
ENDROOT
BRANCH   1   8
HETATM    8  C3  UNL     1       5.672  -5.041  26.616  1.00  0.00     0.078 C 
BRANCH   8   9
HETATM    9  C2  UNL     1       6.329  -5.847  27.661  1.00  0.00     0.155 C 
HETATM   10  C1  UNL     1       5.443  -6.203  28.830  1.00  0.00     0.078 C 
BRANCH   9  11
HETATM   11  O1  UNL     1       6.676  -7.093  27.077  1.00  0.00    -0.366 OA
ATOM     12  H1  UNL     1       7.375  -6.889  26.467  1.00  0.00     0.213 HD
ENDBRANCH   9  11
BRANCH   9  13
HETATM   13  O2  UNL     1       7.523  -5.357  28.166  1.00  0.00    -0.366 OA
ATOM     14  H2  UNL     1       8.157  -5.350  27.460  1.00  0.00     0.213 HD
ENDBRANCH   9  13
ENDBRANCH   8   9
ENDBRANCH   1   8
BRANCH   2  15
HETATM   15  O3  UNL     1       3.042  -4.235  26.080  1.00  0.00    -0.392 OA
ATOM     16  H3  UNL     1       2.491  -4.280  26.853  1.00  0.00     0.210 HD
ENDBRANCH   2  15
BRANCH   3  17
HETATM   17  C7  UNL     1       2.284  -6.770  23.745  1.00  0.00     0.120 C 
HETATM   18  S1  UNL     1       0.949  -7.204  24.887  1.00  0.00    -0.095 SA
ENDBRANCH   3  17
TORSDOF 6
ENDMDL
MODEL 4
REMARK VINA RESULT: -4.816584561      5.772      6.923
REMARK  6 active torsions:
REMARK  status: ('A' for Active; 'I' for Inactive)
REMARK    1  A    between atoms: C2_2  and  O1_3 
REMARK    2  A    between atoms: C2_2  and  O2_5 
REMARK    3  A    between atoms: C2_2  and  C3_7 
REMARK    4  A    between atoms: C3_7  and  C4_8 
REMARK    5  A    between atoms: C5_9  and  O3_10 
REMARK    6  A    between atoms: C6_12  and  C7_13 
ROOT
HETATM    1  C4  UNL     1       2.605  -1.617  20.699  1.00  0.00     0.056 C 
HETATM    2  C5  UNL     1       2.530  -3.121  20.739  1.00  0.00     0.155 C 
HETATM    3  C6  UNL     1       2.600  -3.547  19.274  1.00  0.00     0.161 C 
HETATM    4  O4  UNL     1       2.401  -2.424  18.537  1.00  0.00    -0.372 OA
HETATM    5  C8  UNL     1       2.041  -1.357  19.319  1.00  0.00     0.060 C 
HETATM    6  C9  UNL     1       2.641  -0.106  18.700  1.00  0.00     0.046 C 
HETATM    7  C10 UNL     1       0.556  -1.199  19.314  1.00  0.00     0.046 C 
ENDROOT
BRANCH   1   8
HETATM    8  C3  UNL     1       1.831  -0.883  21.706  1.00  0.00     0.078 C 
BRANCH   8   9
HETATM    9  C2  UNL     1       2.534  -0.046  22.695  1.00  0.00     0.155 C 
HETATM   10  C1  UNL     1       2.938   1.318  22.191  1.00  0.00     0.078 C 
BRANCH   9  11
HETATM   11  O1  UNL     1       1.622   0.214  23.752  1.00  0.00    -0.366 OA
ATOM     12  H1  UNL     1       1.831  -0.431  24.417  1.00  0.00     0.213 HD
ENDBRANCH   9  11
BRANCH   9  13
HETATM   13  O2  UNL     1       3.635  -0.612  23.319  1.00  0.00    -0.366 OA
ATOM     14  H2  UNL     1       3.358  -0.920  24.173  1.00  0.00     0.213 HD
ENDBRANCH   9  13
ENDBRANCH   8   9
ENDBRANCH   1   8
BRANCH   2  15
HETATM   15  O3  UNL     1       1.282  -3.579  21.175  1.00  0.00    -0.392 OA
ATOM     16  H3  UNL     1       0.747  -2.879  21.532  1.00  0.00     0.210 HD
ENDBRANCH   2  15
BRANCH   3  17
HETATM   17  C7  UNL     1       3.956  -4.127  18.938  1.00  0.00     0.120 C 
HETATM   18  S1  UNL     1       3.962  -5.936  18.985  1.00  0.00    -0.095 SA
ENDBRANCH   3  17
TORSDOF 6
ENDMDL
MODEL 5
REMARK VINA RESULT: -4.791948705      5.355      7.813
REMARK  6 active torsions:
REMARK  status: ('A' for Active; 'I' for Inactive)
REMARK    1  A    between atoms: C2_2  and  O1_3 
REMARK    2  A    between atoms: C2_2  and  O2_5 
REMARK    3  A    between atoms: C2_2  and  C3_7 
REMARK    4  A    between atoms: C3_7  and  C4_8 
REMARK    5  A    between atoms: C5_9  and  O3_10 
REMARK    6  A    between atoms: C6_12  and  C7_13 
ROOT
HETATM    1  C4  UNL     1       1.738  -1.052  21.682  1.00  0.00     0.056 C 
HETATM    2  C5  UNL     1       0.715  -0.291  22.485  1.00  0.00     0.155 C 
HETATM    3  C6  UNL     1       0.518   1.013  21.716  1.00  0.00     0.161 C 
HETATM    4  O4  UNL     1       1.534   1.088  20.817  1.00  0.00    -0.372 OA
HETATM    5  C8  UNL     1       2.460   0.097  21.011  1.00  0.00     0.060 C 
HETATM    6  C9  UNL     1       2.999  -0.305  19.648  1.00  0.00     0.046 C 
HETATM    7  C10 UNL     1       3.604   0.618  21.816  1.00  0.00     0.046 C 
ENDROOT
BRANCH   1   8
HETATM    8  C3  UNL     1       2.692  -1.880  22.427  1.00  0.00     0.078 C 
BRANCH   8   9
HETATM    9  C2  UNL     1       2.295  -3.230  22.867  1.00  0.00     0.155 C 
HETATM   10  C1  UNL     1       3.437  -4.102  23.328  1.00  0.00     0.078 C 
BRANCH   9  11
HETATM   11  O1  UNL     1       1.473  -3.074  24.015  1.00  0.00    -0.366 OA
ATOM     12  H1  UNL     1       0.585  -3.153  23.689  1.00  0.00     0.213 HD
ENDBRANCH   9  11
BRANCH   9  13
HETATM   13  O2  UNL     1       1.523  -3.970  21.986  1.00  0.00    -0.366 OA
ATOM     14  H2  UNL     1       0.629  -3.963  22.305  1.00  0.00     0.213 HD
ENDBRANCH   9  13
ENDBRANCH   8   9
ENDBRANCH   1   8
BRANCH   2  15
HETATM   15  O3  UNL     1       1.211   0.110  23.730  1.00  0.00    -0.392 OA
ATOM     16  H3  UNL     1       1.268   1.055  23.807  1.00  0.00     0.210 HD
ENDBRANCH   2  15
BRANCH   3  17
HETATM   17  C7  UNL     1      -0.801   1.017  20.976  1.00  0.00     0.120 C 
HETATM   18  S1  UNL     1      -0.598   1.355  19.209  1.00  0.00    -0.095 SA
ENDBRANCH   3  17
TORSDOF 6
ENDMDL
