MODEL 1
REMARK VINA RESULT: -5.787577324      0.000      0.000
REMARK  7 active torsions:
REMARK  status: ('A' for Active; 'I' for Inactive)
REMARK    1  A    between atoms: C2_2  and  O1_4 
REMARK    2  A    between atoms: O1_4  and  C4_5 
REMARK    3  A    between atoms: C5_7  and  C6_8 
REMARK    4  A    between atoms: C6_8  and  O3_10 
REMARK    5  A    between atoms: C8_12  and  O4_13 
REMARK    6  A    between atoms: C9_15  and  O5_16 
REMARK    7  A    between atoms: C10_18  and  O6_19 
ROOT
HETATM    1  C4  UNL     1       5.425  -3.729  25.624  1.00  0.00     0.292 C 
HETATM    2  O2  UNL     1       5.956  -4.559  26.571  1.00  0.00    -0.348 OA
HETATM    3  C5  UNL     1       5.230  -5.599  27.007  1.00  0.00     0.184 C 
HETATM    4  C8  UNL     1       3.771  -5.450  26.666  1.00  0.00     0.181 C 
HETATM    5  C9  UNL     1       3.739  -5.527  25.135  1.00  0.00     0.183 C 
HETATM    6  C10 UNL     1       4.541  -4.381  24.620  1.00  0.00     0.204 C 
ENDROOT
BRANCH   1   7
HETATM    7  O1  UNL     1       6.518  -3.089  25.067  1.00  0.00    -0.354 OA
BRANCH   7   8
HETATM    8  C2  UNL     1       6.561  -1.737  25.173  1.00  0.00     0.116 C 
HETATM    9  C1  UNL     1       7.666  -1.235  26.091  1.00  0.00     0.039 C 
HETATM   10  C3  UNL     1       6.874  -1.224  23.772  1.00  0.00     0.039 C 
ENDBRANCH   7   8
ENDBRANCH   1   7
BRANCH   6  11
HETATM   11  O6  UNL     1       3.607  -3.465  24.086  1.00  0.00    -0.388 OA
ATOM     12  H6  UNL     1       3.103  -3.856  23.383  1.00  0.00     0.210 HD
ENDBRANCH   6  11
BRANCH   3  13
HETATM   13  C6  UNL     1       5.369  -5.910  28.485  1.00  0.00     0.145 C 
HETATM   14  C7  UNL     1       6.224  -4.923  29.213  1.00  0.00     0.042 C 
BRANCH  13  15
HETATM   15  O3  UNL     1       5.843  -7.186  28.710  1.00  0.00    -0.393 OA
ATOM     16  H3  UNL     1       5.148  -7.795  28.935  1.00  0.00     0.210 HD
ENDBRANCH  13  15
ENDBRANCH   3  13
BRANCH   5  17
HETATM   17  O5  UNL     1       4.241  -6.757  24.735  1.00  0.00    -0.390 OA
ATOM     18  H5  UNL     1       3.547  -7.252  24.317  1.00  0.00     0.210 HD
ENDBRANCH   5  17
BRANCH   4  19
HETATM   19  O4  UNL     1       3.058  -6.479  27.247  1.00  0.00    -0.390 OA
ATOM     20  H4  UNL     1       2.198  -6.530  26.848  1.00  0.00     0.210 HD
ENDBRANCH   4  19
TORSDOF 7
ENDMDL
MODEL 2
REMARK VINA RESULT: -5.471978725      1.451      3.458
REMARK  7 active torsions:
REMARK  status: ('A' for Active; 'I' for Inactive)
REMARK    1  A    between atoms: C2_2  and  O1_4 
REMARK    2  A    between atoms: O1_4  and  C4_5 
REMARK    3  A    between atoms: C5_7  and  C6_8 
REMARK    4  A    between atoms: C6_8  and  O3_10 
REMARK    5  A    between atoms: C8_12  and  O4_13 
REMARK    6  A    between atoms: C9_15  and  O5_16 
REMARK    7  A    between atoms: C10_18  and  O6_19 
ROOT
HETATM    1  C4  UNL     1       5.610  -4.531  25.357  1.00  0.00     0.292 C 
HETATM    2  O2  UNL     1       4.369  -4.021  25.096  1.00  0.00    -0.348 OA
HETATM    3  C5  UNL     1       3.303  -4.553  25.713  1.00  0.00     0.184 C 
HETATM    4  C8  UNL     1       3.609  -5.906  26.299  1.00  0.00     0.181 C 
HETATM    5  C9  UNL     1       4.630  -5.607  27.405  1.00  0.00     0.183 C 
HETATM    6  C10 UNL     1       5.827  -5.012  26.747  1.00  0.00     0.204 C 
ENDROOT
BRANCH   1   7
HETATM    7  O1  UNL     1       6.486  -3.531  24.973  1.00  0.00    -0.354 OA
BRANCH   7   8
HETATM    8  C2  UNL     1       6.079  -2.250  25.157  1.00  0.00     0.116 C 
HETATM    9  C1  UNL     1       6.923  -1.485  26.166  1.00  0.00     0.039 C 
HETATM   10  C3  UNL     1       6.260  -1.562  23.809  1.00  0.00     0.039 C 
ENDBRANCH   7   8
ENDBRANCH   1   7
BRANCH   6  11
HETATM   11  O6  UNL     1       6.829  -6.009  26.795  1.00  0.00    -0.388 OA
ATOM     12  H6  UNL     1       6.497  -6.847  26.494  1.00  0.00     0.210 HD
ENDBRANCH   6  11
BRANCH   3  13
HETATM   13  C6  UNL     1       2.048  -4.647  24.867  1.00  0.00     0.145 C 
HETATM   14  C7  UNL     1       2.333  -4.854  23.414  1.00  0.00     0.042 C 
BRANCH  13  15
HETATM   15  O3  UNL     1       1.226  -3.549  25.025  1.00  0.00    -0.393 OA
ATOM     16  H3  UNL     1       1.157  -3.277  25.933  1.00  0.00     0.210 HD
ENDBRANCH  13  15
ENDBRANCH   3  13
BRANCH   5  17
HETATM   17  O5  UNL     1       4.050  -4.757  28.336  1.00  0.00    -0.390 OA
ATOM     18  H5  UNL     1       3.209  -5.112  28.596  1.00  0.00     0.210 HD
ENDBRANCH   5  17
BRANCH   4  19
HETATM   19  O4  UNL     1       2.449  -6.457  26.806  1.00  0.00    -0.390 OA
ATOM     20  H4  UNL     1       2.018  -6.961  26.127  1.00  0.00     0.210 HD
ENDBRANCH   4  19
TORSDOF 7
ENDMDL
MODEL 3
REMARK VINA RESULT: -5.270035284      2.865      4.635
REMARK  7 active torsions:
REMARK  status: ('A' for Active; 'I' for Inactive)
REMARK    1  A    between atoms: C2_2  and  O1_4 
REMARK    2  A    between atoms: O1_4  and  C4_5 
REMARK    3  A    between atoms: C5_7  and  C6_8 
REMARK    4  A    between atoms: C6_8  and  O3_10 
REMARK    5  A    between atoms: C8_12  and  O4_13 
REMARK    6  A    between atoms: C9_15  and  O5_16 
REMARK    7  A    between atoms: C10_18  and  O6_19 
ROOT
HETATM    1  C4  UNL     1       5.433  -6.236  25.186  1.00  0.00     0.292 C 
HETATM    2  O2  UNL     1       4.111  -6.574  25.268  1.00  0.00    -0.348 OA
HETATM    3  C5  UNL     1       3.317  -6.360  24.209  1.00  0.00     0.184 C 
HETATM    4  C8  UNL     1       3.935  -5.401  23.226  1.00  0.00     0.181 C 
HETATM    5  C9  UNL     1       5.157  -6.157  22.690  1.00  0.00     0.183 C 
HETATM    6  C10 UNL     1       6.059  -6.412  23.848  1.00  0.00     0.204 C 
ENDROOT
BRANCH   1   7
HETATM    7  O1  UNL     1       6.044  -6.972  26.186  1.00  0.00    -0.354 OA
BRANCH   7   8
HETATM    8  C2  UNL     1       6.449  -6.296  27.290  1.00  0.00     0.116 C 
HETATM    9  C1  UNL     1       5.392  -6.230  28.382  1.00  0.00     0.039 C 
HETATM   10  C3  UNL     1       7.625  -7.089  27.851  1.00  0.00     0.039 C 
ENDBRANCH   7   8
ENDBRANCH   1   7
BRANCH   6  11
HETATM   11  O6  UNL     1       7.160  -5.542  23.678  1.00  0.00    -0.388 OA
ATOM     12  H6  UNL     1       7.465  -5.543  22.779  1.00  0.00     0.210 HD
ENDBRANCH   6  11
BRANCH   3  13
HETATM   13  C6  UNL     1       1.910  -5.899  24.539  1.00  0.00     0.145 C 
HETATM   14  C7  UNL     1       1.607  -5.943  26.003  1.00  0.00     0.042 C 
BRANCH  13  15
HETATM   15  O3  UNL     1       0.950  -6.609  23.847  1.00  0.00    -0.393 OA
ATOM     16  H3  UNL     1       1.048  -6.524  22.905  1.00  0.00     0.210 HD
ENDBRANCH  13  15
ENDBRANCH   3  13
BRANCH   5  17
HETATM   17  O5  UNL     1       4.729  -7.326  22.075  1.00  0.00    -0.390 OA
ATOM     18  H5  UNL     1       5.008  -7.317  21.167  1.00  0.00     0.210 HD
ENDBRANCH   5  17
BRANCH   4  19
HETATM   19  O4  UNL     1       3.025  -5.121  22.227  1.00  0.00    -0.390 OA
ATOM     20  H4  UNL     1       3.248  -4.290  21.823  1.00  0.00     0.210 HD
ENDBRANCH   4  19
TORSDOF 7
ENDMDL
MODEL 4
REMARK VINA RESULT: -5.261576519      5.124      8.125
REMARK  7 active torsions:
REMARK  status: ('A' for Active; 'I' for Inactive)
REMARK    1  A    between atoms: C2_2  and  O1_4 
REMARK    2  A    between atoms: O1_4  and  C4_5 
REMARK    3  A    between atoms: C5_7  and  C6_8 
REMARK    4  A    between atoms: C6_8  and  O3_10 
REMARK    5  A    between atoms: C8_12  and  O4_13 
REMARK    6  A    between atoms: C9_15  and  O5_16 
REMARK    7  A    between atoms: C10_18  and  O6_19 
ROOT
HETATM    1  C4  UNL     1       2.535  -1.128  22.365  1.00  0.00     0.292 C 
HETATM    2  O2  UNL     1       2.806  -1.310  21.038  1.00  0.00    -0.348 OA
HETATM    3  C5  UNL     1       2.670  -0.274  20.197  1.00  0.00     0.184 C 
HETATM    4  C8  UNL     1       1.846   0.834  20.798  1.00  0.00     0.181 C 
HETATM    5  C9  UNL     1       2.706   1.346  21.960  1.00  0.00     0.183 C 
HETATM    6  C10 UNL     1       2.877   0.213  22.912  1.00  0.00     0.204 C 
ENDROOT
BRANCH   1   7
HETATM    7  O1  UNL     1       3.188  -2.169  23.001  1.00  0.00    -0.354 OA
BRANCH   7   8
HETATM    8  C2  UNL     1       4.453  -2.444  22.595  1.00  0.00     0.116 C 
HETATM    9  C1  UNL     1       5.515  -2.054  23.612  1.00  0.00     0.039 C 
HETATM   10  C3  UNL     1       4.515  -3.960  22.440  1.00  0.00     0.039 C 
ENDBRANCH   7   8
ENDBRANCH   1   7
BRANCH   6  11
HETATM   11  O6  UNL     1       2.077   0.529  24.034  1.00  0.00    -0.388 OA
ATOM     12  H6  UNL     1       1.158   0.581  23.799  1.00  0.00     0.210 HD
ENDBRANCH   6  11
BRANCH   3  13
HETATM   13  C6  UNL     1       2.117  -0.622  18.828  1.00  0.00     0.145 C 
HETATM   14  C7  UNL     1       2.278  -2.067  18.480  1.00  0.00     0.042 C 
BRANCH  13  15
HETATM   15  O3  UNL     1       2.663   0.158  17.829  1.00  0.00    -0.393 OA
ATOM     16  H3  UNL     1       2.711  -0.301  16.998  1.00  0.00     0.210 HD
ENDBRANCH  13  15
ENDBRANCH   3  13
BRANCH   5  17
HETATM   17  O5  UNL     1       3.913   1.810  21.457  1.00  0.00    -0.390 OA
ATOM     18  H5  UNL     1       4.341   1.107  20.982  1.00  0.00     0.210 HD
ENDBRANCH   5  17
BRANCH   4  19
HETATM   19  O4  UNL     1       1.634   1.812  19.847  1.00  0.00    -0.390 OA
ATOM     20  H4  UNL     1       2.461   2.040  19.440  1.00  0.00     0.210 HD
ENDBRANCH   4  19
TORSDOF 7
ENDMDL
MODEL 5
REMARK VINA RESULT: -5.157144026      1.962      4.636
REMARK  7 active torsions:
REMARK  status: ('A' for Active; 'I' for Inactive)
REMARK    1  A    between atoms: C2_2  and  O1_4 
REMARK    2  A    between atoms: O1_4  and  C4_5 
REMARK    3  A    between atoms: C5_7  and  C6_8 
REMARK    4  A    between atoms: C6_8  and  O3_10 
REMARK    5  A    between atoms: C8_12  and  O4_13 
REMARK    6  A    between atoms: C9_15  and  O5_16 
REMARK    7  A    between atoms: C10_18  and  O6_19 
ROOT
HETATM    1  C4  UNL     1       6.154  -6.133  25.189  1.00  0.00     0.292 C 
HETATM    2  O2  UNL     1       5.870  -4.835  25.507  1.00  0.00    -0.348 OA
HETATM    3  C5  UNL     1       5.562  -3.976  24.524  1.00  0.00     0.184 C 
HETATM    4  C8  UNL     1       5.973  -4.496  23.172  1.00  0.00     0.181 C 
HETATM    5  C9  UNL     1       5.075  -5.721  22.958  1.00  0.00     0.183 C 
HETATM    6  C10 UNL     1       5.395  -6.695  24.040  1.00  0.00     0.204 C 
ENDROOT
BRANCH   1   7
HETATM    7  O1  UNL     1       5.968  -6.831  26.370  1.00  0.00    -0.354 OA
BRANCH   7   8
HETATM    8  C2  UNL     1       6.457  -6.266  27.503  1.00  0.00     0.116 C 
HETATM    9  C1  UNL     1       5.481  -6.305  28.669  1.00  0.00     0.039 C 
HETATM   10  C3  UNL     1       7.662  -7.113  27.899  1.00  0.00     0.039 C 
ENDBRANCH   7   8
ENDBRANCH   1   7
BRANCH   6  11
HETATM   11  O6  UNL     1       6.109  -7.744  23.416  1.00  0.00    -0.388 OA
ATOM     12  H6  UNL     1       5.520  -8.411  23.083  1.00  0.00     0.210 HD
ENDBRANCH   6  11
BRANCH   3  13
HETATM   13  C6  UNL     1       6.099  -2.569  24.703  1.00  0.00     0.145 C 
HETATM   14  C7  UNL     1       6.625  -2.314  26.079  1.00  0.00     0.042 C 
BRANCH  13  15
HETATM   15  O3  UNL     1       5.166  -1.606  24.379  1.00  0.00    -0.393 OA
ATOM     16  H3  UNL     1       5.546  -0.885  23.891  1.00  0.00     0.210 HD
ENDBRANCH  13  15
ENDBRANCH   3  13
BRANCH   5  17
HETATM   17  O5  UNL     1       3.748  -5.316  22.975  1.00  0.00    -0.390 OA
ATOM     18  H5  UNL     1       3.307  -5.670  22.213  1.00  0.00     0.210 HD
ENDBRANCH   5  17
BRANCH   4  19
HETATM   19  O4  UNL     1       5.749  -3.522  22.220  1.00  0.00    -0.390 OA
ATOM     20  H4  UNL     1       6.417  -2.851  22.294  1.00  0.00     0.210 HD
ENDBRANCH   4  19
TORSDOF 7
ENDMDL
