MODEL 1
REMARK VINA RESULT: -5.227757560      0.000      0.000
REMARK  5 active torsions:
REMARK  status: ('A' for Active; 'I' for Inactive)
REMARK    1  A    between atoms: O1_2  and  C2_3 
REMARK    2  A    between atoms: C3_5  and  N1_6 
REMARK    3  A    between atoms: N1_6  and  C4_9 
REMARK    4  A    between atoms: C8_15  and  O2_16 
REMARK    5  A    between atoms: C9_18  and  O3_19 
ROOT
HETATM    1  C2  UNL     1       5.513  -3.870  22.819  1.00  0.00     0.215 C 
HETATM    2  S1  UNL     1       4.440  -2.884  21.746  1.00  0.00    -0.099 SA
HETATM    3  C3  UNL     1       4.589  -1.291  22.657  1.00  0.00     0.283 C 
HETATM    4  C8  UNL     1       5.568  -1.609  23.754  1.00  0.00     0.191 C 
HETATM    5  C9  UNL     1       5.423  -3.063  24.094  1.00  0.00     0.188 C 
ENDROOT
BRANCH   3   6
HETATM    6  N1  UNL     1       3.329  -0.808  23.058  1.00  0.00    -0.039 N 
ATOM      7  H12 UNL     1       2.583  -1.409  22.710  1.00  0.00     0.281 HD
ATOM      8  H11 UNL     1       3.195  -0.935  24.061  1.00  0.00     0.281 HD
BRANCH   6   9
HETATM    9  C4  UNL     1       3.103   0.542  22.686  1.00  0.00     0.285 C 
HETATM   10  C5  UNL     1       3.863   1.029  21.491  1.00  0.00     0.059 C 
HETATM   11  C6  UNL     1       2.930   0.716  20.346  1.00  0.00     0.048 C 
HETATM   12  C7  UNL     1       1.605   0.761  21.022  1.00  0.00     0.057 C 
HETATM   13  N2  UNL     1       1.737   0.666  22.276  1.00  0.00    -0.376 N 
ATOM     14  H2  UNL     1       0.952   0.677  22.928  1.00  0.00     0.160 HD
ENDBRANCH   6   9
ENDBRANCH   3   6
BRANCH   4  15
HETATM   15  O2  UNL     1       6.875  -1.319  23.411  1.00  0.00    -0.390 OA
ATOM     16  H2  UNL     1       7.459  -1.295  24.161  1.00  0.00     0.210 HD
ENDBRANCH   4  15
BRANCH   1  17
HETATM   17  O1  UNL     1       6.823  -3.908  22.347  1.00  0.00    -0.378 OA
HETATM   18  C1  UNL     1       6.807  -3.925  20.944  1.00  0.00     0.203 C 
ENDBRANCH   1  17
BRANCH   5  19
HETATM   19  O3  UNL     1       6.452  -3.455  24.928  1.00  0.00    -0.389 OA
ATOM     20  H3  UNL     1       6.216  -3.225  25.819  1.00  0.00     0.210 HD
ENDBRANCH   5  19
TORSDOF 5
ENDMDL
MODEL 2
REMARK VINA RESULT: -5.125096603      1.452      1.682
REMARK  5 active torsions:
REMARK  status: ('A' for Active; 'I' for Inactive)
REMARK    1  A    between atoms: O1_2  and  C2_3 
REMARK    2  A    between atoms: C3_5  and  N1_6 
REMARK    3  A    between atoms: N1_6  and  C4_9 
REMARK    4  A    between atoms: C8_15  and  O2_16 
REMARK    5  A    between atoms: C9_18  and  O3_19 
ROOT
HETATM    1  C2  UNL     1       5.524  -4.117  24.555  1.00  0.00     0.215 C 
HETATM    2  S1  UNL     1       4.234  -3.765  23.334  1.00  0.00    -0.099 SA
HETATM    3  C3  UNL     1       4.650  -1.994  23.051  1.00  0.00     0.283 C 
HETATM    4  C8  UNL     1       5.871  -1.783  23.905  1.00  0.00     0.191 C 
HETATM    5  C9  UNL     1       5.784  -2.721  25.072  1.00  0.00     0.188 C 
ENDROOT
BRANCH   3   6
HETATM    6  N1  UNL     1       3.548  -1.159  23.311  1.00  0.00    -0.039 N 
ATOM      7  H12 UNL     1       2.884  -1.619  23.933  1.00  0.00     0.281 HD
ATOM      8  H11 UNL     1       3.819  -0.375  23.904  1.00  0.00     0.281 HD
BRANCH   6   9
HETATM    9  C4  UNL     1       2.902  -0.700  22.134  1.00  0.00     0.285 C 
HETATM   10  C5  UNL     1       1.917   0.412  22.317  1.00  0.00     0.059 C 
HETATM   11  C6  UNL     1       2.768   1.649  22.149  1.00  0.00     0.048 C 
HETATM   12  C7  UNL     1       3.854   1.144  21.265  1.00  0.00     0.057 C 
HETATM   13  N2  UNL     1       3.895  -0.119  21.281  1.00  0.00    -0.376 N 
ATOM     14  H2  UNL     1       4.566  -0.668  20.743  1.00  0.00     0.160 HD
ENDBRANCH   6   9
ENDBRANCH   3   6
BRANCH   4  15
HETATM   15  O2  UNL     1       7.052  -1.977  23.215  1.00  0.00    -0.390 OA
ATOM     16  H2  UNL     1       7.679  -1.275  23.348  1.00  0.00     0.210 HD
ENDBRANCH   4  15
BRANCH   1  17
HETATM   17  O1  UNL     1       6.667  -4.647  23.961  1.00  0.00    -0.378 OA
HETATM   18  C1  UNL     1       6.293  -5.428  22.857  1.00  0.00     0.203 C 
ENDBRANCH   1  17
BRANCH   5  19
HETATM   19  O3  UNL     1       6.983  -2.729  25.758  1.00  0.00    -0.389 OA
ATOM     20  H3  UNL     1       7.649  -3.093  25.187  1.00  0.00     0.210 HD
ENDBRANCH   5  19
TORSDOF 5
ENDMDL
MODEL 3
REMARK VINA RESULT: -5.121665499      1.224      1.311
REMARK  5 active torsions:
REMARK  status: ('A' for Active; 'I' for Inactive)
REMARK    1  A    between atoms: O1_2  and  C2_3 
REMARK    2  A    between atoms: C3_5  and  N1_6 
REMARK    3  A    between atoms: N1_6  and  C4_9 
REMARK    4  A    between atoms: C8_15  and  O2_16 
REMARK    5  A    between atoms: C9_18  and  O3_19 
ROOT
HETATM    1  C2  UNL     1       5.513  -3.797  24.489  1.00  0.00     0.215 C 
HETATM    2  S1  UNL     1       4.275  -3.416  23.225  1.00  0.00    -0.099 SA
HETATM    3  C3  UNL     1       4.828  -1.699  22.857  1.00  0.00     0.283 C 
HETATM    4  C8  UNL     1       6.046  -1.534  23.726  1.00  0.00     0.191 C 
HETATM    5  C9  UNL     1       5.868  -2.398  24.939  1.00  0.00     0.188 C 
ENDROOT
BRANCH   3   6
HETATM    6  N1  UNL     1       3.787  -0.772  23.050  1.00  0.00    -0.039 N 
ATOM      7  H12 UNL     1       2.890  -1.247  23.136  1.00  0.00     0.281 HD
ATOM      8  H11 UNL     1       3.844  -0.350  23.976  1.00  0.00     0.281 HD
BRANCH   6   9
HETATM    9  C4  UNL     1       3.734   0.227  22.044  1.00  0.00     0.285 C 
HETATM   10  C5  UNL     1       3.335  -0.239  20.679  1.00  0.00     0.059 C 
HETATM   11  C6  UNL     1       1.832  -0.086  20.695  1.00  0.00     0.048 C 
HETATM   12  C7  UNL     1       1.656   1.012  21.685  1.00  0.00     0.057 C 
HETATM   13  N2  UNL     1       2.697   1.151  22.390  1.00  0.00    -0.376 N 
ATOM     14  H2  UNL     1       2.787   1.849  23.129  1.00  0.00     0.160 HD
ENDBRANCH   6   9
ENDBRANCH   3   6
BRANCH   4  15
HETATM   15  O2  UNL     1       7.221  -1.851  23.072  1.00  0.00    -0.390 OA
ATOM     16  H2  UNL     1       7.732  -1.086  22.835  1.00  0.00     0.210 HD
ENDBRANCH   4  15
BRANCH   1  17
HETATM   17  O1  UNL     1       6.623  -4.442  23.949  1.00  0.00    -0.378 OA
HETATM   18  C1  UNL     1       6.206  -5.281  22.905  1.00  0.00     0.203 C 
ENDBRANCH   1  17
BRANCH   5  19
HETATM   19  O3  UNL     1       7.051  -2.459  25.649  1.00  0.00    -0.389 OA
ATOM     20  H3  UNL     1       7.731  -2.777  25.068  1.00  0.00     0.210 HD
ENDBRANCH   5  19
TORSDOF 5
ENDMDL
MODEL 4
REMARK VINA RESULT: -4.962284886      3.227      4.326
REMARK  5 active torsions:
REMARK  status: ('A' for Active; 'I' for Inactive)
REMARK    1  A    between atoms: O1_2  and  C2_3 
REMARK    2  A    between atoms: C3_5  and  N1_6 
REMARK    3  A    between atoms: N1_6  and  C4_9 
REMARK    4  A    between atoms: C8_15  and  O2_16 
REMARK    5  A    between atoms: C9_18  and  O3_19 
ROOT
HETATM    1  C2  UNL     1       2.500  -1.544  22.101  1.00  0.00     0.215 C 
HETATM    2  S1  UNL     1       2.974  -0.178  21.011  1.00  0.00    -0.099 SA
HETATM    3  C3  UNL     1       1.947   1.128  21.804  1.00  0.00     0.283 C 
HETATM    4  C8  UNL     1       1.319   0.415  22.971  1.00  0.00     0.191 C 
HETATM    5  C9  UNL     1       1.169  -1.031  22.602  1.00  0.00     0.188 C 
ENDROOT
BRANCH   3   6
HETATM    6  N1  UNL     1       1.066   1.721  20.881  1.00  0.00    -0.039 N 
ATOM      7  H12 UNL     1       0.106   1.683  21.220  1.00  0.00     0.281 HD
ATOM      8  H11 UNL     1       1.196   2.732  20.854  1.00  0.00     0.281 HD
BRANCH   6   9
HETATM    9  C4  UNL     1       1.164   1.166  19.579  1.00  0.00     0.285 C 
HETATM   10  C5  UNL     1      -0.036   0.412  19.097  1.00  0.00     0.059 C 
HETATM   11  C6  UNL     1      -0.857   1.480  18.415  1.00  0.00     0.048 C 
HETATM   12  C7  UNL     1       0.198   2.444  17.999  1.00  0.00     0.057 C 
HETATM   13  N2  UNL     1       1.268   2.245  18.644  1.00  0.00    -0.376 N 
ATOM     14  H2  UNL     1       2.116   2.796  18.511  1.00  0.00     0.160 HD
ENDBRANCH   6   9
ENDBRANCH   3   6
BRANCH   4  15
HETATM   15  O2  UNL     1       2.049   0.544  24.138  1.00  0.00    -0.390 OA
ATOM     16  H2  UNL     1       2.598   1.320  24.148  1.00  0.00     0.210 HD
ENDBRANCH   4  15
BRANCH   1  17
HETATM   17  O1  UNL     1       3.398  -1.702  23.154  1.00  0.00    -0.378 OA
HETATM   18  C1  UNL     1       4.682  -1.332  22.723  1.00  0.00     0.203 C 
ENDBRANCH   1  17
BRANCH   5  19
HETATM   19  O3  UNL     1       0.813  -1.765  23.715  1.00  0.00    -0.389 OA
ATOM     20  H3  UNL     1       0.129  -1.294  24.176  1.00  0.00     0.210 HD
ENDBRANCH   5  19
TORSDOF 5
ENDMDL
MODEL 5
REMARK VINA RESULT: -4.902225069      5.494      6.345
REMARK  5 active torsions:
REMARK  status: ('A' for Active; 'I' for Inactive)
REMARK    1  A    between atoms: O1_2  and  C2_3 
REMARK    2  A    between atoms: C3_5  and  N1_6 
REMARK    3  A    between atoms: N1_6  and  C4_9 
REMARK    4  A    between atoms: C8_15  and  O2_16 
REMARK    5  A    between atoms: C9_18  and  O3_19 
ROOT
HETATM    1  C2  UNL     1       6.672  -6.048  28.149  1.00  0.00     0.215 C 
HETATM    2  S1  UNL     1       6.145  -6.355  26.445  1.00  0.00    -0.099 SA
HETATM    3  C3  UNL     1       5.640  -4.632  26.037  1.00  0.00     0.283 C 
HETATM    4  C8  UNL     1       5.994  -3.863  27.281  1.00  0.00     0.191 C 
HETATM    5  C9  UNL     1       5.879  -4.797  28.449  1.00  0.00     0.188 C 
ENDROOT
BRANCH   3   6
HETATM    6  N1  UNL     1       4.297  -4.574  25.622  1.00  0.00    -0.039 N 
ATOM      7  H12 UNL     1       3.777  -3.890  26.171  1.00  0.00     0.281 HD
ATOM      8  H11 UNL     1       4.220  -4.145  24.700  1.00  0.00     0.281 HD
BRANCH   6   9
HETATM    9  C4  UNL     1       3.649  -5.836  25.646  1.00  0.00     0.285 C 
HETATM   10  C5  UNL     1       2.446  -5.938  26.531  1.00  0.00     0.059 C 
HETATM   11  C6  UNL     1       1.314  -5.545  25.612  1.00  0.00     0.048 C 
HETATM   12  C7  UNL     1       1.861  -5.937  24.284  1.00  0.00     0.057 C 
HETATM   13  N2  UNL     1       3.115  -6.085  24.340  1.00  0.00    -0.376 N 
ATOM     14  H2  UNL     1       3.688  -6.353  23.540  1.00  0.00     0.160 HD
ENDBRANCH   6   9
ENDBRANCH   3   6
BRANCH   4  15
HETATM   15  O2  UNL     1       7.257  -3.306  27.229  1.00  0.00    -0.390 OA
ATOM     16  H2  UNL     1       7.268  -2.387  27.472  1.00  0.00     0.210 HD
ENDBRANCH   4  15
BRANCH   1  17
HETATM   17  O1  UNL     1       8.040  -5.799  28.231  1.00  0.00    -0.378 OA
HETATM   18  C1  UNL     1       8.739  -7.006  28.067  1.00  0.00     0.203 C 
ENDBRANCH   1  17
BRANCH   5  19
HETATM   19  O3  UNL     1       6.412  -4.206  29.577  1.00  0.00    -0.389 OA
ATOM     20  H3  UNL     1       7.095  -3.606  29.304  1.00  0.00     0.210 HD
ENDBRANCH   5  19
TORSDOF 5
ENDMDL
