MODEL 1
REMARK VINA RESULT: -7.223245672      0.000      0.000
REMARK  6 active torsions:
REMARK  status: ('A' for Active; 'I' for Inactive)
REMARK    1  A    between atoms: N1_10  and  C9_11 
REMARK    2  A    between atoms: C9_11  and  C10_13 
REMARK    3  A    between atoms: C10_13  and  C11_14 
REMARK    4  A    between atoms: C11_14  and  C12_15 
REMARK    5  A    between atoms: C12_15  and  N2_16 
REMARK       I    between atoms: N2_16  and  C13_18 
REMARK    6  A    between atoms: N4_20  and  O2_22 
ROOT
HETATM    1  C9  UNL     1       6.544  -2.336  25.904  1.00  0.00     0.102 C 
HETATM    2  S1  UNL     1       6.242  -2.050  24.327  1.00  0.00    -0.063 SA
ENDROOT
BRANCH   1   3
HETATM    3  N1  UNL     1       6.233  -3.644  26.399  1.00  0.00    -0.241 N 
HETATM    4  C8  UNL     1       5.231  -4.422  25.714  1.00  0.00     0.144 C 
HETATM    5  C4  UNL     1       5.641  -5.871  25.859  1.00  0.00     0.150 C 
HETATM    6  C7  UNL     1       3.865  -4.352  26.317  1.00  0.00     0.030 C 
HETATM    7  O1  UNL     1       5.923  -6.220  27.155  1.00  0.00    -0.346 OA
HETATM    8  C5  UNL     1       4.348  -6.583  25.476  1.00  0.00     0.034 C 
HETATM    9  C2  UNL     1       6.706  -5.370  27.862  1.00  0.00     0.183 C 
HETATM   10  C1  UNL     1       6.142  -5.339  29.294  1.00  0.00     0.081 C 
HETATM   11  C3  UNL     1       8.089  -6.017  28.015  1.00  0.00     0.081 C 
HETATM   12  O3  UNL     1       6.860  -4.110  27.456  1.00  0.00    -0.238 OA
HETATM   13  C6  UNL     1       3.238  -5.691  25.982  1.00  0.00     0.005 C 
ENDBRANCH   1   3
BRANCH   1  14
HETATM   14  C10 UNL     1       7.085  -1.343  26.848  1.00  0.00     0.073 C 
BRANCH  14  15
HETATM   15  C11 UNL     1       8.516  -0.989  26.681  1.00  0.00     0.026 C 
BRANCH  15  16
HETATM   16  C12 UNL     1       8.796   0.254  25.887  1.00  0.00     0.122 C 
BRANCH  16  17
HETATM   17  N2  UNL     1      10.121   0.117  25.310  1.00  0.00    -0.363 N 
HETATM   18  C13 UNL     1      10.326   0.520  23.983  1.00  0.00     0.208 C 
HETATM   19  N3  UNL     1      10.181  -0.330  22.859  1.00  0.00    -0.062 NA
HETATM   20  N4  UNL     1      10.666   1.742  23.786  1.00  0.00    -0.241 N 
ATOM     21  H4  UNL     1      10.776   2.372  24.581  1.00  0.00     0.197 HD
ATOM     22  H2  UNL     1      10.890  -0.265  25.861  1.00  0.00     0.162 HD
BRANCH  20  23
HETATM   23  O2  UNL     1      10.883   2.207  22.516  1.00  0.00    -0.287 OA
ATOM     24  H2  UNL     1      10.489   3.022  22.227  1.00  0.00     0.244 HD
ENDBRANCH  20  23
ENDBRANCH  16  17
ENDBRANCH  15  16
ENDBRANCH  14  15
ENDBRANCH   1  14
TORSDOF 6
ENDMDL
MODEL 2
REMARK VINA RESULT: -6.954700524      2.318      3.053
REMARK  6 active torsions:
REMARK  status: ('A' for Active; 'I' for Inactive)
REMARK    1  A    between atoms: N1_10  and  C9_11 
REMARK    2  A    between atoms: C9_11  and  C10_13 
REMARK    3  A    between atoms: C10_13  and  C11_14 
REMARK    4  A    between atoms: C11_14  and  C12_15 
REMARK    5  A    between atoms: C12_15  and  N2_16 
REMARK       I    between atoms: N2_16  and  C13_18 
REMARK    6  A    between atoms: N4_20  and  O2_22 
ROOT
HETATM    1  C9  UNL     1       7.085  -1.718  26.241  1.00  0.00     0.102 C 
HETATM    2  S1  UNL     1       6.807  -2.112  27.798  1.00  0.00    -0.063 SA
ENDROOT
BRANCH   1   3
HETATM    3  N1  UNL     1       6.430  -2.510  25.242  1.00  0.00    -0.241 N 
HETATM    4  C8  UNL     1       5.712  -1.837  24.188  1.00  0.00     0.144 C 
HETATM    5  C4  UNL     1       5.832  -2.714  22.962  1.00  0.00     0.150 C 
HETATM    6  C7  UNL     1       4.241  -1.705  24.418  1.00  0.00     0.030 C 
HETATM    7  O1  UNL     1       5.501  -4.023  23.206  1.00  0.00    -0.346 OA
HETATM    8  C5  UNL     1       4.737  -2.133  22.075  1.00  0.00     0.034 C 
HETATM    9  C2  UNL     1       6.021  -4.589  24.321  1.00  0.00     0.183 C 
HETATM   10  C1  UNL     1       4.921  -5.488  24.913  1.00  0.00     0.081 C 
HETATM   11  C3  UNL     1       7.117  -5.571  23.886  1.00  0.00     0.081 C 
HETATM   12  O3  UNL     1       6.492  -3.821  25.303  1.00  0.00    -0.238 OA
HETATM   13  C6  UNL     1       3.643  -1.704  23.025  1.00  0.00     0.005 C 
ENDBRANCH   1   3
BRANCH   1  14
HETATM   14  C10 UNL     1       7.975  -0.631  25.797  1.00  0.00     0.073 C 
BRANCH  14  15
HETATM   15  C11 UNL     1       9.343  -0.625  26.370  1.00  0.00     0.026 C 
BRANCH  15  16
HETATM   16  C12 UNL     1      10.102   0.663  26.243  1.00  0.00     0.122 C 
BRANCH  16  17
HETATM   17  N2  UNL     1      11.052   0.509  25.156  1.00  0.00    -0.363 N 
HETATM   18  C13 UNL     1      10.626   0.760  23.845  1.00  0.00     0.208 C 
HETATM   19  N3  UNL     1      10.081  -0.221  22.981  1.00  0.00    -0.062 NA
HETATM   20  N4  UNL     1      10.741   1.962  23.409  1.00  0.00    -0.241 N 
ATOM     21  H4  UNL     1      11.131   2.685  24.015  1.00  0.00     0.197 HD
ATOM     22  H2  UNL     1      12.013   0.224  25.344  1.00  0.00     0.162 HD
BRANCH  20  23
HETATM   23  O2  UNL     1      10.345   2.282  22.138  1.00  0.00    -0.287 OA
ATOM     24  H2  UNL     1      10.857   2.885  21.611  1.00  0.00     0.244 HD
ENDBRANCH  20  23
ENDBRANCH  16  17
ENDBRANCH  15  16
ENDBRANCH  14  15
ENDBRANCH   1  14
TORSDOF 6
ENDMDL
MODEL 3
REMARK VINA RESULT: -6.813781607      3.341      6.275
REMARK  6 active torsions:
REMARK  status: ('A' for Active; 'I' for Inactive)
REMARK    1  A    between atoms: N1_10  and  C9_11 
REMARK    2  A    between atoms: C9_11  and  C10_13 
REMARK    3  A    between atoms: C10_13  and  C11_14 
REMARK    4  A    between atoms: C11_14  and  C12_15 
REMARK    5  A    between atoms: C12_15  and  N2_16 
REMARK       I    between atoms: N2_16  and  C13_18 
REMARK    6  A    between atoms: N4_20  and  O2_22 
ROOT
HETATM    1  C9  UNL     1       6.373  -5.069  24.554  1.00  0.00     0.102 C 
HETATM    2  S1  UNL     1       7.083  -5.431  23.132  1.00  0.00    -0.063 SA
ENDROOT
BRANCH   1   3
HETATM    3  N1  UNL     1       6.161  -3.681  24.840  1.00  0.00    -0.241 N 
HETATM    4  C8  UNL     1       5.120  -2.980  24.129  1.00  0.00     0.144 C 
HETATM    5  C4  UNL     1       4.585  -1.932  25.079  1.00  0.00     0.150 C 
HETATM    6  C7  UNL     1       5.588  -2.209  22.937  1.00  0.00     0.030 C 
HETATM    7  O1  UNL     1       5.574  -1.170  25.648  1.00  0.00    -0.346 OA
HETATM    8  C5  UNL     1       3.820  -1.027  24.120  1.00  0.00     0.034 C 
HETATM    9  C2  UNL     1       6.653  -1.829  26.133  1.00  0.00     0.183 C 
HETATM   10  C1  UNL     1       7.883  -0.966  25.801  1.00  0.00     0.081 C 
HETATM   11  C3  UNL     1       6.575  -1.801  27.666  1.00  0.00     0.081 C 
HETATM   12  O3  UNL     1       6.909  -3.075  25.735  1.00  0.00    -0.238 OA
HETATM   13  C6  UNL     1       4.612  -1.053  22.833  1.00  0.00     0.005 C 
ENDBRANCH   1   3
BRANCH   1  14
HETATM   14  C10 UNL     1       5.963  -6.060  25.563  1.00  0.00     0.073 C 
BRANCH  14  15
HETATM   15  C11 UNL     1       7.054  -6.707  26.331  1.00  0.00     0.026 C 
BRANCH  15  16
HETATM   16  C12 UNL     1       7.481  -6.002  27.586  1.00  0.00     0.122 C 
BRANCH  16  17
HETATM   17  N2  UNL     1       6.330  -5.284  28.101  1.00  0.00    -0.363 N 
HETATM   18  C13 UNL     1       6.060  -5.335  29.475  1.00  0.00     0.208 C 
HETATM   19  N3  UNL     1       5.233  -6.306  30.092  1.00  0.00    -0.062 NA
HETATM   20  N4  UNL     1       6.605  -4.438  30.215  1.00  0.00    -0.241 N 
ATOM     21  H4  UNL     1       7.205  -3.729  29.792  1.00  0.00     0.197 HD
ATOM     22  H2  UNL     1       5.727  -4.751  27.474  1.00  0.00     0.162 HD
BRANCH  20  23
HETATM   23  O2  UNL     1       6.387  -4.425  31.567  1.00  0.00    -0.287 OA
ATOM     24  H2  UNL     1       6.271  -5.238  32.045  1.00  0.00     0.244 HD
ENDBRANCH  20  23
ENDBRANCH  16  17
ENDBRANCH  15  16
ENDBRANCH  14  15
ENDBRANCH   1  14
TORSDOF 6
ENDMDL
MODEL 4
REMARK VINA RESULT: -6.778383629      4.594      7.070
REMARK  6 active torsions:
REMARK  status: ('A' for Active; 'I' for Inactive)
REMARK    1  A    between atoms: N1_10  and  C9_11 
REMARK    2  A    between atoms: C9_11  and  C10_13 
REMARK    3  A    between atoms: C10_13  and  C11_14 
REMARK    4  A    between atoms: C11_14  and  C12_15 
REMARK    5  A    between atoms: C12_15  and  N2_16 
REMARK       I    between atoms: N2_16  and  C13_18 
REMARK    6  A    between atoms: N4_20  and  O2_22 
ROOT
HETATM    1  C9  UNL     1       4.588  -2.664  24.328  1.00  0.00     0.102 C 
HETATM    2  S1  UNL     1       3.623  -3.732  25.095  1.00  0.00    -0.063 SA
ENDROOT
BRANCH   1   3
HETATM    3  N1  UNL     1       4.039  -1.996  23.185  1.00  0.00    -0.241 N 
HETATM    4  C8  UNL     1       4.101  -0.556  23.130  1.00  0.00     0.144 C 
HETATM    5  C4  UNL     1       4.237  -0.190  21.669  1.00  0.00     0.150 C 
HETATM    6  C7  UNL     1       2.859   0.141  23.583  1.00  0.00     0.030 C 
HETATM    7  O1  UNL     1       3.302  -0.805  20.874  1.00  0.00    -0.346 OA
HETATM    8  C5  UNL     1       3.888   1.294  21.703  1.00  0.00     0.034 C 
HETATM    9  C2  UNL     1       3.101  -2.129  21.077  1.00  0.00     0.183 C 
HETATM   10  C1  UNL     1       1.590  -2.374  20.923  1.00  0.00     0.081 C 
HETATM   11  C3  UNL     1       3.729  -2.888  19.900  1.00  0.00     0.081 C 
HETATM   12  O3  UNL     1       3.493  -2.697  22.217  1.00  0.00    -0.238 OA
HETATM   13  C6  UNL     1       2.842   1.431  22.786  1.00  0.00     0.005 C 
ENDBRANCH   1   3
BRANCH   1  14
HETATM   14  C10 UNL     1       5.977  -2.363  24.712  1.00  0.00     0.073 C 
BRANCH  14  15
HETATM   15  C11 UNL     1       6.157  -1.508  25.911  1.00  0.00     0.026 C 
BRANCH  15  16
HETATM   16  C12 UNL     1       6.874  -2.143  27.067  1.00  0.00     0.122 C 
BRANCH  16  17
HETATM   17  N2  UNL     1       5.902  -2.917  27.817  1.00  0.00    -0.363 N 
HETATM   18  C13 UNL     1       6.291  -3.497  29.031  1.00  0.00     0.208 C 
HETATM   19  N3  UNL     1       6.835  -4.799  29.157  1.00  0.00    -0.062 NA
HETATM   20  N4  UNL     1       6.140  -2.793  30.094  1.00  0.00    -0.241 N 
ATOM     21  H4  UNL     1       5.749  -1.853  30.027  1.00  0.00     0.197 HD
ATOM     22  H2  UNL     1       4.952  -3.037  27.465  1.00  0.00     0.162 HD
BRANCH  20  23
HETATM   23  O2  UNL     1       6.498  -3.294  31.318  1.00  0.00    -0.287 OA
ATOM     24  H2  UNL     1       6.052  -3.007  32.106  1.00  0.00     0.244 HD
ENDBRANCH  20  23
ENDBRANCH  16  17
ENDBRANCH  15  16
ENDBRANCH  14  15
ENDBRANCH   1  14
TORSDOF 6
ENDMDL
MODEL 5
REMARK VINA RESULT: -6.715038248      1.895      2.720
REMARK  6 active torsions:
REMARK  status: ('A' for Active; 'I' for Inactive)
REMARK    1  A    between atoms: N1_10  and  C9_11 
REMARK    2  A    between atoms: C9_11  and  C10_13 
REMARK    3  A    between atoms: C10_13  and  C11_14 
REMARK    4  A    between atoms: C11_14  and  C12_15 
REMARK    5  A    between atoms: C12_15  and  N2_16 
REMARK       I    between atoms: N2_16  and  C13_18 
REMARK    6  A    between atoms: N4_20  and  O2_22 
ROOT
HETATM    1  C9  UNL     1       6.981  -1.790  26.473  1.00  0.00     0.102 C 
HETATM    2  S1  UNL     1       6.628  -1.719  28.063  1.00  0.00    -0.063 SA
ENDROOT
BRANCH   1   3
HETATM    3  N1  UNL     1       6.344  -2.823  25.711  1.00  0.00    -0.241 N 
HETATM    4  C8  UNL     1       5.135  -3.416  26.226  1.00  0.00     0.144 C 
HETATM    5  C4  UNL     1       4.299  -3.795  25.025  1.00  0.00     0.150 C 
HETATM    6  C7  UNL     1       5.334  -4.697  26.970  1.00  0.00     0.030 C 
HETATM    7  O1  UNL     1       4.999  -4.517  24.092  1.00  0.00    -0.346 OA
HETATM    8  C5  UNL     1       3.287  -4.744  25.657  1.00  0.00     0.034 C 
HETATM    9  C2  UNL     1       6.231  -4.062  23.763  1.00  0.00     0.183 C 
HETATM   10  C1  UNL     1       7.128  -5.301  23.588  1.00  0.00     0.081 C 
HETATM   11  C3  UNL     1       6.151  -3.452  22.356  1.00  0.00     0.081 C 
HETATM   12  O3  UNL     1       6.865  -3.210  24.568  1.00  0.00    -0.238 OA
HETATM   13  C6  UNL     1       4.045  -5.463  26.748  1.00  0.00     0.005 C 
ENDBRANCH   1   3
BRANCH   1  14
HETATM   14  C10 UNL     1       7.918  -0.889  25.781  1.00  0.00     0.073 C 
BRANCH  14  15
HETATM   15  C11 UNL     1       9.231  -0.676  26.437  1.00  0.00     0.026 C 
BRANCH  15  16
HETATM   16  C12 UNL     1       9.861   0.669  26.222  1.00  0.00     0.122 C 
BRANCH  16  17
HETATM   17  N2  UNL     1      10.884   0.519  25.203  1.00  0.00    -0.363 N 
HETATM   18  C13 UNL     1      10.543   0.749  23.864  1.00  0.00     0.208 C 
HETATM   19  N3  UNL     1      10.072  -0.249  22.976  1.00  0.00    -0.062 NA
HETATM   20  N4  UNL     1      10.670   1.948  23.423  1.00  0.00    -0.241 N 
ATOM     21  H4  UNL     1      11.008   2.683  24.045  1.00  0.00     0.197 HD
ATOM     22  H2  UNL     1      11.835   0.249  25.458  1.00  0.00     0.162 HD
BRANCH  20  23
HETATM   23  O2  UNL     1      10.356   2.249  22.124  1.00  0.00    -0.287 OA
ATOM     24  H2  UNL     1       9.681   2.887  21.926  1.00  0.00     0.244 HD
ENDBRANCH  20  23
ENDBRANCH  16  17
ENDBRANCH  15  16
ENDBRANCH  14  15
ENDBRANCH   1  14
TORSDOF 6
ENDMDL
