MODEL 1
REMARK VINA RESULT: -6.082792778      0.000      0.000
REMARK  7 active torsions:
REMARK  status: ('A' for Active; 'I' for Inactive)
REMARK    1  A    between atoms: N1_2  and  C2_5 
REMARK    2  A    between atoms: C3_6  and  O1_7 
REMARK    3  A    between atoms: C4_9  and  O2_10 
REMARK    4  A    between atoms: N2_12  and  C5_13 
REMARK    5  A    between atoms: C10_18  and  C11_19 
REMARK    6  A    between atoms: C11_19  and  C12_20 
REMARK    7  A    between atoms: C18_26  and  O3_27 
ROOT
HETATM    1  C2  UNL     1       2.203  -3.918  18.710  1.00  0.00     0.252 C 
HETATM    2  C3  UNL     1       2.381  -2.521  18.115  1.00  0.00     0.200 C 
HETATM    3  C4  UNL     1       2.012  -1.598  19.217  1.00  0.00     0.256 C 
HETATM    4  N2  UNL     1       2.914  -1.823  20.395  1.00  0.00    -0.323 N 
HETATM    5  C10 UNL     1       3.535  -3.049  20.648  1.00  0.00     0.042 C 
HETATM    6  C18 UNL     1       3.403  -4.126  19.583  1.00  0.00     0.201 C 
ENDROOT
BRANCH   5   7
HETATM    7  C11 UNL     1       4.923  -3.133  21.154  1.00  0.00     0.006 C 
BRANCH   7   8
HETATM    8  C12 UNL     1       5.241  -3.637  22.495  1.00  0.00     0.010 C 
HETATM    9  C13 UNL     1       3.978  -3.352  23.344  1.00  0.00     0.008 C 
HETATM   10  C14 UNL     1       4.333  -3.085  24.784  1.00  0.00     0.001 C 
HETATM   11  C15 UNL     1       4.891  -1.667  24.876  1.00  0.00     0.000 C 
HETATM   12  C16 UNL     1       5.689  -1.413  23.606  1.00  0.00     0.001 C 
HETATM   13  C17 UNL     1       6.294  -2.706  23.158  1.00  0.00     0.008 C 
ENDBRANCH   7   8
ENDBRANCH   5   7
BRANCH   4  14
HETATM   14  C5  UNL     1       3.014  -0.652  21.171  1.00  0.00     0.011 C 
HETATM   15  C6  UNL     1       3.845   0.342  20.948  1.00  0.00    -0.002 C 
HETATM   16  C7  UNL     1       3.661   1.401  21.977  1.00  0.00     0.029 C 
HETATM   17  C8  UNL     1       2.149   1.265  22.245  1.00  0.00     0.010 C 
HETATM   18  C9  UNL     1       2.130  -0.281  22.347  1.00  0.00     0.057 C 
ENDBRANCH   4  14
BRANCH   6  19
HETATM   19  O3  UNL     1       3.271  -5.363  20.195  1.00  0.00    -0.387 OA
ATOM     20  H3  UNL     1       4.122  -5.608  20.540  1.00  0.00     0.210 HD
ENDBRANCH   6  19
BRANCH   3  21
HETATM   21  O2  UNL     1       2.025  -0.277  18.894  1.00  0.00    -0.374 OA
ATOM     22  H2  UNL     1       1.169   0.126  18.806  1.00  0.00     0.212 HD
ENDBRANCH   3  21
BRANCH   1  23
HETATM   23  N1  UNL     1       2.197  -4.868  17.638  1.00  0.00    -0.069 N 
HETATM   24  C1  UNL     1       0.973  -5.671  17.654  1.00  0.00     0.267 C 
ATOM     25  H12 UNL     1       3.032  -5.455  17.652  1.00  0.00     0.277 HD
ATOM     26  H11 UNL     1       2.339  -4.417  16.734  1.00  0.00     0.277 HD
ENDBRANCH   1  23
BRANCH   2  27
HETATM   27  O1  UNL     1       1.448  -2.403  17.085  1.00  0.00    -0.389 OA
ATOM     28  H1  UNL     1       1.686  -3.044  16.426  1.00  0.00     0.210 HD
ENDBRANCH   2  27
TORSDOF 7
ENDMDL
MODEL 2
REMARK VINA RESULT: -6.063359852      3.507      6.342
REMARK  7 active torsions:
REMARK  status: ('A' for Active; 'I' for Inactive)
REMARK    1  A    between atoms: N1_2  and  C2_5 
REMARK    2  A    between atoms: C3_6  and  O1_7 
REMARK    3  A    between atoms: C4_9  and  O2_10 
REMARK    4  A    between atoms: N2_12  and  C5_13 
REMARK    5  A    between atoms: C10_18  and  C11_19 
REMARK    6  A    between atoms: C11_19  and  C12_20 
REMARK    7  A    between atoms: C18_26  and  O3_27 
ROOT
HETATM    1  C2  UNL     1       4.869  -5.175  25.711  1.00  0.00     0.252 C 
HETATM    2  C3  UNL     1       6.168  -4.902  24.953  1.00  0.00     0.200 C 
HETATM    3  C4  UNL     1       5.931  -5.458  23.597  1.00  0.00     0.256 C 
HETATM    4  N2  UNL     1       4.759  -4.770  22.962  1.00  0.00    -0.323 N 
HETATM    5  C10 UNL     1       3.724  -4.198  23.705  1.00  0.00     0.042 C 
HETATM    6  C18 UNL     1       3.903  -4.142  25.214  1.00  0.00     0.201 C 
ENDROOT
BRANCH   5   7
HETATM    7  C11 UNL     1       3.096  -2.917  23.314  1.00  0.00     0.006 C 
BRANCH   7   8
HETATM    8  C12 UNL     1       3.477  -1.636  23.923  1.00  0.00     0.010 C 
HETATM    9  C13 UNL     1       2.257  -0.707  23.705  1.00  0.00     0.008 C 
HETATM   10  C14 UNL     1       2.684   0.731  23.553  1.00  0.00     0.001 C 
HETATM   11  C15 UNL     1       3.251   0.907  22.147  1.00  0.00     0.000 C 
HETATM   12  C16 UNL     1       3.988  -0.376  21.794  1.00  0.00     0.001 C 
HETATM   13  C17 UNL     1       4.564  -0.954  23.047  1.00  0.00     0.008 C 
ENDBRANCH   7   8
ENDBRANCH   5   7
BRANCH   4  14
HETATM   14  C5  UNL     1       4.867  -4.809  21.558  1.00  0.00     0.011 C 
HETATM   15  C6  UNL     1       4.419  -5.775  20.785  1.00  0.00    -0.002 C 
HETATM   16  C7  UNL     1       4.717  -5.467  19.360  1.00  0.00     0.029 C 
HETATM   17  C8  UNL     1       4.609  -3.930  19.381  1.00  0.00     0.010 C 
HETATM   18  C9  UNL     1       5.436  -3.715  20.673  1.00  0.00     0.057 C 
ENDBRANCH   4  14
BRANCH   6  19
HETATM   19  O3  UNL     1       2.683  -4.372  25.830  1.00  0.00    -0.387 OA
ATOM     20  H3  UNL     1       2.083  -3.691  25.548  1.00  0.00     0.210 HD
ENDBRANCH   6  19
BRANCH   3  21
HETATM   21  O2  UNL     1       6.996  -5.394  22.752  1.00  0.00    -0.374 OA
ATOM     22  H2  UNL     1       6.851  -5.770  21.892  1.00  0.00     0.212 HD
ENDBRANCH   3  21
BRANCH   1  23
HETATM   23  N1  UNL     1       5.114  -4.994  27.110  1.00  0.00    -0.069 N 
HETATM   24  C1  UNL     1       5.621  -3.648  27.384  1.00  0.00     0.267 C 
ATOM     25  H12 UNL     1       5.737  -5.713  27.478  1.00  0.00     0.277 HD
ATOM     26  H11 UNL     1       4.287  -5.204  27.667  1.00  0.00     0.277 HD
ENDBRANCH   1  23
BRANCH   2  27
HETATM   27  O1  UNL     1       7.164  -5.646  25.587  1.00  0.00    -0.389 OA
ATOM     28  H1  UNL     1       7.533  -5.088  26.261  1.00  0.00     0.210 HD
ENDBRANCH   2  27
TORSDOF 7
ENDMDL
MODEL 3
REMARK VINA RESULT: -6.046449139      0.992      1.708
REMARK  7 active torsions:
REMARK  status: ('A' for Active; 'I' for Inactive)
REMARK    1  A    between atoms: N1_2  and  C2_5 
REMARK    2  A    between atoms: C3_6  and  O1_7 
REMARK    3  A    between atoms: C4_9  and  O2_10 
REMARK    4  A    between atoms: N2_12  and  C5_13 
REMARK    5  A    between atoms: C10_18  and  C11_19 
REMARK    6  A    between atoms: C11_19  and  C12_20 
REMARK    7  A    between atoms: C18_26  and  O3_27 
ROOT
HETATM    1  C2  UNL     1       2.939  -4.140  19.393  1.00  0.00     0.252 C 
HETATM    2  C3  UNL     1       3.092  -2.884  18.534  1.00  0.00     0.200 C 
HETATM    3  C4  UNL     1       2.377  -1.827  19.292  1.00  0.00     0.256 C 
HETATM    4  N2  UNL     1       3.002  -1.658  20.645  1.00  0.00    -0.323 N 
HETATM    5  C10 UNL     1       3.680  -2.690  21.299  1.00  0.00     0.042 C 
HETATM    6  C18 UNL     1       3.920  -3.969  20.513  1.00  0.00     0.201 C 
ENDROOT
BRANCH   5   7
HETATM    7  C11 UNL     1       4.914  -2.443  22.077  1.00  0.00     0.006 C 
BRANCH   7   8
HETATM    8  C12 UNL     1       4.916  -1.663  23.321  1.00  0.00     0.010 C 
HETATM    9  C13 UNL     1       6.356  -1.793  23.877  1.00  0.00     0.008 C 
HETATM   10  C14 UNL     1       6.369  -1.745  25.383  1.00  0.00     0.001 C 
HETATM   11  C15 UNL     1       5.892  -3.099  25.901  1.00  0.00     0.000 C 
HETATM   12  C16 UNL     1       4.817  -3.595  24.945  1.00  0.00     0.001 C 
HETATM   13  C17 UNL     1       4.084  -2.410  24.399  1.00  0.00     0.008 C 
ENDBRANCH   7   8
ENDBRANCH   5   7
BRANCH   4  14
HETATM   14  C5  UNL     1       2.787  -0.352  21.127  1.00  0.00     0.011 C 
HETATM   15  C6  UNL     1       1.771   0.030  21.870  1.00  0.00    -0.002 C 
HETATM   16  C7  UNL     1       1.883   1.481  22.181  1.00  0.00     0.029 C 
HETATM   17  C8  UNL     1       3.416   1.631  22.246  1.00  0.00     0.010 C 
HETATM   18  C9  UNL     1       3.723   0.831  20.955  1.00  0.00     0.057 C 
ENDBRANCH   4  14
BRANCH   6  19
HETATM   19  O3  UNL     1       3.789  -5.058  21.359  1.00  0.00    -0.387 OA
ATOM     20  H3  UNL     1       4.565  -5.095  21.907  1.00  0.00     0.210 HD
ENDBRANCH   6  19
BRANCH   3  21
HETATM   21  O2  UNL     1       2.316  -0.615  18.675  1.00  0.00    -0.374 OA
ATOM     22  H2  UNL     1       1.907   0.076  19.183  1.00  0.00     0.212 HD
ENDBRANCH   3  21
BRANCH   1  23
HETATM   23  N1  UNL     1       3.288  -5.278  18.596  1.00  0.00    -0.069 N 
HETATM   24  C1  UNL     1       2.206  -6.265  18.587  1.00  0.00     0.267 C 
ATOM     25  H12 UNL     1       4.171  -5.690  18.897  1.00  0.00     0.277 HD
ATOM     26  H11 UNL     1       3.556  -5.007  17.650  1.00  0.00     0.277 HD
ENDBRANCH   1  23
BRANCH   2  27
HETATM   27  O1  UNL     1       2.415  -3.132  17.340  1.00  0.00    -0.389 OA
ATOM     28  H1  UNL     1       2.257  -2.287  16.936  1.00  0.00     0.210 HD
ENDBRANCH   2  27
TORSDOF 7
ENDMDL
MODEL 4
REMARK VINA RESULT: -6.001742015      3.759      6.768
REMARK  7 active torsions:
REMARK  status: ('A' for Active; 'I' for Inactive)
REMARK    1  A    between atoms: N1_2  and  C2_5 
REMARK    2  A    between atoms: C3_6  and  O1_7 
REMARK    3  A    between atoms: C4_9  and  O2_10 
REMARK    4  A    between atoms: N2_12  and  C5_13 
REMARK    5  A    between atoms: C10_18  and  C11_19 
REMARK    6  A    between atoms: C11_19  and  C12_20 
REMARK    7  A    between atoms: C18_26  and  O3_27 
ROOT
HETATM    1  C2  UNL     1       5.206  -5.216  26.220  1.00  0.00     0.252 C 
HETATM    2  C3  UNL     1       6.513  -5.357  25.440  1.00  0.00     0.200 C 
HETATM    3  C4  UNL     1       6.091  -5.803  24.088  1.00  0.00     0.256 C 
HETATM    4  N2  UNL     1       5.181  -4.779  23.474  1.00  0.00    -0.323 N 
HETATM    5  C10 UNL     1       4.388  -3.918  24.237  1.00  0.00     0.042 C 
HETATM    6  C18 UNL     1       4.602  -3.930  25.742  1.00  0.00     0.201 C 
ENDROOT
BRANCH   5   7
HETATM    7  C11 UNL     1       4.184  -2.502  23.858  1.00  0.00     0.006 C 
BRANCH   7   8
HETATM    8  C12 UNL     1       3.176  -2.090  22.874  1.00  0.00     0.010 C 
HETATM    9  C13 UNL     1       3.935  -1.182  21.875  1.00  0.00     0.008 C 
HETATM   10  C14 UNL     1       3.032  -0.119  21.304  1.00  0.00     0.001 C 
HETATM   11  C15 UNL     1       2.847   0.961  22.367  1.00  0.00     0.000 C 
HETATM   12  C16 UNL     1       2.807   0.262  23.718  1.00  0.00     0.001 C 
HETATM   13  C17 UNL     1       2.190  -1.088  23.536  1.00  0.00     0.008 C 
ENDBRANCH   7   8
ENDBRANCH   5   7
BRANCH   4  14
HETATM   14  C5  UNL     1       5.247  -4.841  22.068  1.00  0.00     0.011 C 
HETATM   15  C6  UNL     1       4.483  -5.588  21.301  1.00  0.00    -0.002 C 
HETATM   16  C7  UNL     1       4.847  -5.389  19.872  1.00  0.00     0.029 C 
HETATM   17  C8  UNL     1       5.273  -3.908  19.899  1.00  0.00     0.010 C 
HETATM   18  C9  UNL     1       6.144  -4.001  21.177  1.00  0.00     0.057 C 
ENDBRANCH   4  14
BRANCH   6  19
HETATM   19  O3  UNL     1       3.382  -3.773  26.380  1.00  0.00    -0.387 OA
ATOM     20  H3  UNL     1       2.947  -4.618  26.387  1.00  0.00     0.210 HD
ENDBRANCH   6  19
BRANCH   3  21
HETATM   21  O2  UNL     1       7.108  -6.068  23.223  1.00  0.00    -0.374 OA
ATOM     22  H2  UNL     1       6.945  -5.820  22.321  1.00  0.00     0.212 HD
ENDBRANCH   3  21
BRANCH   1  23
HETATM   23  N1  UNL     1       5.520  -5.129  27.615  1.00  0.00    -0.069 N 
HETATM   24  C1  UNL     1       6.260  -3.901  27.912  1.00  0.00     0.267 C 
ATOM     25  H12 UNL     1       6.020  -5.957  27.940  1.00  0.00     0.277 HD
ATOM     26  H11 UNL     1       4.685  -5.214  28.194  1.00  0.00     0.277 HD
ENDBRANCH   1  23
BRANCH   2  27
HETATM   27  O1  UNL     1       7.238  -6.378  26.054  1.00  0.00    -0.389 OA
ATOM     28  H1  UNL     1       7.602  -6.911  25.358  1.00  0.00     0.210 HD
ENDBRANCH   2  27
TORSDOF 7
ENDMDL
MODEL 5
REMARK VINA RESULT: -5.860292315      1.524      4.159
REMARK  7 active torsions:
REMARK  status: ('A' for Active; 'I' for Inactive)
REMARK    1  A    between atoms: N1_2  and  C2_5 
REMARK    2  A    between atoms: C3_6  and  O1_7 
REMARK    3  A    between atoms: C4_9  and  O2_10 
REMARK    4  A    between atoms: N2_12  and  C5_13 
REMARK    5  A    between atoms: C10_18  and  C11_19 
REMARK    6  A    between atoms: C11_19  and  C12_20 
REMARK    7  A    between atoms: C18_26  and  O3_27 
ROOT
HETATM    1  C2  UNL     1       4.094  -5.213  19.308  1.00  0.00     0.252 C 
HETATM    2  C3  UNL     1       4.111  -5.927  20.660  1.00  0.00     0.200 C 
HETATM    3  C4  UNL     1       5.015  -5.104  21.503  1.00  0.00     0.256 C 
HETATM    4  N2  UNL     1       4.476  -3.707  21.614  1.00  0.00    -0.323 N 
HETATM    5  C10 UNL     1       3.667  -3.128  20.633  1.00  0.00     0.042 C 
HETATM    6  C18 UNL     1       3.197  -4.029  19.503  1.00  0.00     0.201 C 
ENDROOT
BRANCH   5   7
HETATM    7  C11 UNL     1       2.519  -2.261  20.979  1.00  0.00     0.006 C 
BRANCH   7   8
HETATM    8  C12 UNL     1       2.463  -0.844  20.601  1.00  0.00     0.010 C 
HETATM    9  C13 UNL     1       3.802  -0.241  21.095  1.00  0.00     0.008 C 
HETATM   10  C14 UNL     1       3.641   1.205  21.486  1.00  0.00     0.001 C 
HETATM   11  C15 UNL     1       2.953   1.249  22.849  1.00  0.00     0.000 C 
HETATM   12  C16 UNL     1       1.949   0.106  22.884  1.00  0.00     0.001 C 
HETATM   13  C17 UNL     1       1.428  -0.112  21.499  1.00  0.00     0.008 C 
ENDBRANCH   7   8
ENDBRANCH   5   7
BRANCH   4  14
HETATM   14  C5  UNL     1       4.916  -3.104  22.809  1.00  0.00     0.011 C 
HETATM   15  C6  UNL     1       6.104  -2.577  23.005  1.00  0.00    -0.002 C 
HETATM   16  C7  UNL     1       6.201  -2.038  24.390  1.00  0.00     0.029 C 
HETATM   17  C8  UNL     1       4.744  -1.590  24.614  1.00  0.00     0.010 C 
HETATM   18  C9  UNL     1       4.080  -2.873  24.055  1.00  0.00     0.057 C 
ENDBRANCH   4  14
BRANCH   6  19
HETATM   19  O3  UNL     1       3.184  -3.309  18.318  1.00  0.00    -0.387 OA
ATOM     20  H3  UNL     1       2.597  -3.752  17.716  1.00  0.00     0.210 HD
ENDBRANCH   6  19
BRANCH   3  21
HETATM   21  O2  UNL     1       5.244  -5.592  22.752  1.00  0.00    -0.374 OA
ATOM     22  H2  UNL     1       5.945  -5.164  23.230  1.00  0.00     0.212 HD
ENDBRANCH   3  21
BRANCH   1  23
HETATM   23  N1  UNL     1       3.538  -6.104  18.334  1.00  0.00    -0.069 N 
HETATM   24  C1  UNL     1       2.120  -6.354  18.601  1.00  0.00     0.267 C 
ATOM     25  H12 UNL     1       4.068  -6.973  18.274  1.00  0.00     0.277 HD
ATOM     26  H11 UNL     1       3.687  -5.763  17.384  1.00  0.00     0.277 HD
ENDBRANCH   1  23
BRANCH   2  27
HETATM   27  O1  UNL     1       4.694  -7.176  20.446  1.00  0.00    -0.389 OA
ATOM     28  H1  UNL     1       5.309  -7.315  21.156  1.00  0.00     0.210 HD
ENDBRANCH   2  27
TORSDOF 7
ENDMDL
