MODEL 1
REMARK VINA RESULT: -5.673345304      0.000      0.000
REMARK  8 active torsions:
REMARK  status: ('A' for Active; 'I' for Inactive)
REMARK    1  A    between atoms: C2_2  and  C3_3 
REMARK    2  A    between atoms: C5_6  and  C6_7 
REMARK    3  A    between atoms: C6_7  and  C7_8 
REMARK    4  A    between atoms: C7_8  and  N1_10 
REMARK    5  A    between atoms: N1_10  and  C9_12 
REMARK    6  A    between atoms: C9_12  and  N2_14 
REMARK    7  A    between atoms: N2_14  and  N3_16 
REMARK       I    between atoms: N3_16  and  C10_18 
REMARK       I    between atoms: C10_18  and  N4_20 
REMARK    8  A    between atoms: N4_20  and  O3_22 
ROOT
HETATM    1  N1  UNL     1       5.226  -4.497  24.739  1.00  0.00    -0.362 N 
ATOM      2  H1  UNL     1       4.301  -4.908  24.618  1.00  0.00     0.162 HD
ENDROOT
BRANCH   1   3
HETATM    3  C7  UNL     1       6.232  -4.684  23.691  1.00  0.00     0.082 C 
HETATM    4  C8  UNL     1       7.092  -5.867  23.884  1.00  0.00     0.032 C 
BRANCH   3   5
HETATM    5  C6  UNL     1       5.507  -4.637  22.393  1.00  0.00     0.062 C 
BRANCH   5   6
HETATM    6  C5  UNL     1       5.319  -3.321  21.726  1.00  0.00     0.186 C 
HETATM    7  C4  UNL     1       4.023  -3.081  21.017  1.00  0.00     0.206 C 
HETATM    8  O1  UNL     1       3.914  -1.668  20.854  1.00  0.00    -0.356 OA
HETATM    9  C3  UNL     1       3.644  -1.156  22.120  1.00  0.00     0.296 C 
HETATM   10  O5  UNL     1       4.156  -2.047  23.066  1.00  0.00    -0.208 OA
HETATM   11  O4  UNL     1       5.418  -2.329  22.738  1.00  0.00    -0.231 OA
BRANCH   9  12
HETATM   12  C2  UNL     1       4.143   0.236  22.339  1.00  0.00     0.059 C 
HETATM   13  C1  UNL     1       3.822   1.205  21.247  1.00  0.00     0.010 C 
ENDBRANCH   9  12
ENDBRANCH   5   6
ENDBRANCH   3   5
ENDBRANCH   1   3
BRANCH   1  14
HETATM   14  C9  UNL     1       5.498  -3.771  25.899  1.00  0.00     0.186 C 
HETATM   15  S1  UNL     1       5.822  -4.571  27.316  1.00  0.00    -0.040 SA
BRANCH  14  16
HETATM   16  N2  UNL     1       5.529  -2.352  25.877  1.00  0.00    -0.272 N 
ATOM     17  H2  UNL     1       4.796  -1.825  26.351  1.00  0.00     0.189 HD
BRANCH  16  18
HETATM   18  N3  UNL     1       6.545  -1.675  25.217  1.00  0.00    -0.248 N 
HETATM   19  C10 UNL     1       7.643  -1.179  26.006  1.00  0.00     0.360 C 
HETATM   20  O2  UNL     1       7.657  -1.372  27.223  1.00  0.00    -0.243 OA
HETATM   21  N4  UNL     1       8.701  -0.476  25.379  1.00  0.00    -0.214 N 
HETATM   22  C11 UNL     1       9.797   0.013  26.181  1.00  0.00     0.190 C 
ATOM     23  H3  UNL     1       6.514  -1.532  24.208  1.00  0.00     0.192 HD
BRANCH  21  24
HETATM   24  O3  UNL     1       8.736  -0.226  24.043  1.00  0.00    -0.284 OA
ATOM     25  H3  UNL     1       9.455  -0.497  23.484  1.00  0.00     0.245 HD
ENDBRANCH  21  24
ENDBRANCH  16  18
ENDBRANCH  14  16
ENDBRANCH   1  14
TORSDOF 8
ENDMDL
MODEL 2
REMARK VINA RESULT: -5.614103023      2.515      3.302
REMARK  8 active torsions:
REMARK  status: ('A' for Active; 'I' for Inactive)
REMARK    1  A    between atoms: C2_2  and  C3_3 
REMARK    2  A    between atoms: C5_6  and  C6_7 
REMARK    3  A    between atoms: C6_7  and  C7_8 
REMARK    4  A    between atoms: C7_8  and  N1_10 
REMARK    5  A    between atoms: N1_10  and  C9_12 
REMARK    6  A    between atoms: C9_12  and  N2_14 
REMARK    7  A    between atoms: N2_14  and  N3_16 
REMARK       I    between atoms: N3_16  and  C10_18 
REMARK       I    between atoms: C10_18  and  N4_20 
REMARK    8  A    between atoms: N4_20  and  O3_22 
ROOT
HETATM    1  N1  UNL     1       4.542  -4.273  27.804  1.00  0.00    -0.362 N 
ATOM      2  H1  UNL     1       3.740  -4.162  28.424  1.00  0.00     0.162 HD
ENDROOT
BRANCH   1   3
HETATM    3  C7  UNL     1       4.349  -4.901  26.494  1.00  0.00     0.082 C 
HETATM    4  C8  UNL     1       3.414  -6.042  26.503  1.00  0.00     0.032 C 
BRANCH   3   5
HETATM    5  C6  UNL     1       4.001  -3.807  25.547  1.00  0.00     0.062 C 
BRANCH   5   6
HETATM    6  C5  UNL     1       5.007  -3.389  24.536  1.00  0.00     0.186 C 
HETATM    7  C4  UNL     1       6.298  -4.147  24.488  1.00  0.00     0.206 C 
HETATM    8  O1  UNL     1       6.878  -3.865  23.214  1.00  0.00    -0.356 OA
HETATM    9  C3  UNL     1       6.108  -4.556  22.282  1.00  0.00     0.296 C 
HETATM   10  O5  UNL     1       4.829  -4.725  22.816  1.00  0.00    -0.208 OA
HETATM   11  O4  UNL     1       4.398  -3.544  23.260  1.00  0.00    -0.231 OA
BRANCH   9  12
HETATM   12  C2  UNL     1       6.067  -3.921  20.930  1.00  0.00     0.059 C 
HETATM   13  C1  UNL     1       5.170  -4.592  19.939  1.00  0.00     0.010 C 
ENDBRANCH   9  12
ENDBRANCH   5   6
ENDBRANCH   3   5
ENDBRANCH   1   3
BRANCH   1  14
HETATM   14  C9  UNL     1       5.793  -3.824  28.227  1.00  0.00     0.186 C 
HETATM   15  S1  UNL     1       6.939  -4.918  28.720  1.00  0.00    -0.040 SA
BRANCH  14  16
HETATM   16  N2  UNL     1       6.109  -2.440  28.216  1.00  0.00    -0.272 N 
ATOM     17  H2  UNL     1       5.382  -1.756  28.424  1.00  0.00     0.189 HD
BRANCH  16  18
HETATM   18  N3  UNL     1       7.395  -2.009  27.923  1.00  0.00    -0.248 N 
HETATM   19  C10 UNL     1       7.585  -1.222  26.732  1.00  0.00     0.360 C 
HETATM   20  O2  UNL     1       6.616  -0.950  26.019  1.00  0.00    -0.243 OA
HETATM   21  N4  UNL     1       8.880  -0.763  26.387  1.00  0.00    -0.214 N 
HETATM   22  C11 UNL     1       9.054   0.026  25.191  1.00  0.00     0.190 C 
ATOM     23  H3  UNL     1       8.180  -2.241  28.532  1.00  0.00     0.192 HD
BRANCH  21  24
HETATM   24  O3  UNL     1       9.985  -1.038  27.130  1.00  0.00    -0.284 OA
ATOM     25  H3  UNL     1      10.834  -0.646  26.959  1.00  0.00     0.245 HD
ENDBRANCH  21  24
ENDBRANCH  16  18
ENDBRANCH  14  16
ENDBRANCH   1  14
TORSDOF 8
ENDMDL
MODEL 3
REMARK VINA RESULT: -5.510720240      1.945      2.223
REMARK  8 active torsions:
REMARK  status: ('A' for Active; 'I' for Inactive)
REMARK    1  A    between atoms: C2_2  and  C3_3 
REMARK    2  A    between atoms: C5_6  and  C6_7 
REMARK    3  A    between atoms: C6_7  and  C7_8 
REMARK    4  A    between atoms: C7_8  and  N1_10 
REMARK    5  A    between atoms: N1_10  and  C9_12 
REMARK    6  A    between atoms: C9_12  and  N2_14 
REMARK    7  A    between atoms: N2_14  and  N3_16 
REMARK       I    between atoms: N3_16  and  C10_18 
REMARK       I    between atoms: C10_18  and  N4_20 
REMARK    8  A    between atoms: N4_20  and  O3_22 
ROOT
HETATM    1  N1  UNL     1       4.610  -4.081  27.454  1.00  0.00    -0.362 N 
ATOM      2  H1  UNL     1       3.743  -3.963  27.978  1.00  0.00     0.162 HD
ENDROOT
BRANCH   1   3
HETATM    3  C7  UNL     1       4.552  -4.619  26.093  1.00  0.00     0.082 C 
HETATM    4  C8  UNL     1       4.178  -6.044  26.021  1.00  0.00     0.032 C 
BRANCH   3   5
HETATM    5  C6  UNL     1       3.685  -3.698  25.309  1.00  0.00     0.062 C 
BRANCH   5   6
HETATM    6  C5  UNL     1       4.285  -2.932  24.185  1.00  0.00     0.186 C 
HETATM    7  C4  UNL     1       3.753  -3.187  22.809  1.00  0.00     0.206 C 
HETATM    8  O1  UNL     1       4.154  -2.072  22.014  1.00  0.00    -0.356 OA
HETATM    9  C3  UNL     1       3.366  -1.002  22.430  1.00  0.00     0.296 C 
HETATM   10  O5  UNL     1       2.976  -1.238  23.750  1.00  0.00    -0.208 OA
HETATM   11  O4  UNL     1       4.061  -1.556  24.458  1.00  0.00    -0.231 OA
BRANCH   9  12
HETATM   12  C2  UNL     1       4.014   0.335  22.272  1.00  0.00     0.059 C 
HETATM   13  C1  UNL     1       3.111   1.508  22.479  1.00  0.00     0.010 C 
ENDBRANCH   9  12
ENDBRANCH   5   6
ENDBRANCH   3   5
ENDBRANCH   1   3
BRANCH   1  14
HETATM   14  C9  UNL     1       5.818  -3.725  28.054  1.00  0.00     0.186 C 
HETATM   15  S1  UNL     1       6.861  -4.907  28.573  1.00  0.00    -0.040 SA
BRANCH  14  16
HETATM   16  N2  UNL     1       6.180  -2.361  28.202  1.00  0.00    -0.272 N 
ATOM     17  H2  UNL     1       5.486  -1.687  28.525  1.00  0.00     0.189 HD
BRANCH  16  18
HETATM   18  N3  UNL     1       7.469  -1.933  27.912  1.00  0.00    -0.248 N 
HETATM   19  C10 UNL     1       7.671  -1.191  26.695  1.00  0.00     0.360 C 
HETATM   20  O2  UNL     1       6.711  -0.951  25.958  1.00  0.00    -0.243 OA
HETATM   21  N4  UNL     1       8.969  -0.738  26.351  1.00  0.00    -0.214 N 
HETATM   22  C11 UNL     1       9.156   0.007  25.129  1.00  0.00     0.190 C 
ATOM     23  H3  UNL     1       8.246  -2.138  28.539  1.00  0.00     0.192 HD
BRANCH  21  24
HETATM   24  O3  UNL     1      10.065  -0.979  27.119  1.00  0.00    -0.284 OA
ATOM     25  H3  UNL     1      10.086  -0.820  28.055  1.00  0.00     0.245 HD
ENDBRANCH  21  24
ENDBRANCH  16  18
ENDBRANCH  14  16
ENDBRANCH   1  14
TORSDOF 8
ENDMDL
MODEL 4
REMARK VINA RESULT: -5.472727670      1.657      1.824
REMARK  8 active torsions:
REMARK  status: ('A' for Active; 'I' for Inactive)
REMARK    1  A    between atoms: C2_2  and  C3_3 
REMARK    2  A    between atoms: C5_6  and  C6_7 
REMARK    3  A    between atoms: C6_7  and  C7_8 
REMARK    4  A    between atoms: C7_8  and  N1_10 
REMARK    5  A    between atoms: N1_10  and  C9_12 
REMARK    6  A    between atoms: C9_12  and  N2_14 
REMARK    7  A    between atoms: N2_14  and  N3_16 
REMARK       I    between atoms: N3_16  and  C10_18 
REMARK       I    between atoms: C10_18  and  N4_20 
REMARK    8  A    between atoms: N4_20  and  O3_22 
ROOT
HETATM    1  N1  UNL     1       5.360  -4.274  26.556  1.00  0.00    -0.362 N 
ATOM      2  H1  UNL     1       4.353  -4.386  26.675  1.00  0.00     0.162 HD
ENDROOT
BRANCH   1   3
HETATM    3  C7  UNL     1       5.979  -4.689  25.295  1.00  0.00     0.082 C 
HETATM    4  C8  UNL     1       6.452  -6.086  25.285  1.00  0.00     0.032 C 
BRANCH   3   5
HETATM    5  C6  UNL     1       5.015  -4.342  24.215  1.00  0.00     0.062 C 
BRANCH   5   6
HETATM    6  C5  UNL     1       4.985  -2.946  23.704  1.00  0.00     0.186 C 
HETATM    7  C4  UNL     1       4.462  -2.725  22.319  1.00  0.00     0.206 C 
HETATM    8  O1  UNL     1       4.133  -1.339  22.234  1.00  0.00    -0.356 OA
HETATM    9  C3  UNL     1       2.984  -1.170  23.002  1.00  0.00     0.296 C 
HETATM   10  O5  UNL     1       2.957  -2.177  23.969  1.00  0.00    -0.208 OA
HETATM   11  O4  UNL     1       4.142  -2.206  24.579  1.00  0.00    -0.231 OA
BRANCH   9  12
HETATM   12  C2  UNL     1       2.846   0.189  23.608  1.00  0.00     0.059 C 
HETATM   13  C1  UNL     1       3.007   1.330  22.656  1.00  0.00     0.010 C 
ENDBRANCH   9  12
ENDBRANCH   5   6
ENDBRANCH   3   5
ENDBRANCH   1   3
BRANCH   1  14
HETATM   14  C9  UNL     1       6.110  -3.730  27.599  1.00  0.00     0.186 C 
HETATM   15  S1  UNL     1       6.786  -4.730  28.737  1.00  0.00    -0.040 SA
BRANCH  14  16
HETATM   16  N2  UNL     1       6.324  -2.330  27.685  1.00  0.00    -0.272 N 
ATOM     17  H2  UNL     1       5.530  -1.706  27.826  1.00  0.00     0.189 HD
BRANCH  16  18
HETATM   18  N3  UNL     1       7.603  -1.800  27.578  1.00  0.00    -0.248 N 
HETATM   19  C10 UNL     1       7.936  -1.090  26.370  1.00  0.00     0.360 C 
HETATM   20  O2  UNL     1       7.090  -0.966  25.481  1.00  0.00    -0.243 OA
HETATM   21  N4  UNL     1       9.230  -0.536  26.210  1.00  0.00    -0.214 N 
HETATM   22  C11 UNL     1       9.549   0.175  24.995  1.00  0.00     0.190 C 
ATOM     23  H3  UNL     1       8.284  -1.910  28.329  1.00  0.00     0.192 HD
BRANCH  21  24
HETATM   24  O3  UNL     1      10.205  -0.648  27.152  1.00  0.00    -0.284 OA
ATOM     25  H3  UNL     1      11.105  -0.385  26.999  1.00  0.00     0.245 HD
ENDBRANCH  21  24
ENDBRANCH  16  18
ENDBRANCH  14  16
ENDBRANCH   1  14
TORSDOF 8
ENDMDL
MODEL 5
REMARK VINA RESULT: -5.463919877      0.804      1.169
REMARK  8 active torsions:
REMARK  status: ('A' for Active; 'I' for Inactive)
REMARK    1  A    between atoms: C2_2  and  C3_3 
REMARK    2  A    between atoms: C5_6  and  C6_7 
REMARK    3  A    between atoms: C6_7  and  C7_8 
REMARK    4  A    between atoms: C7_8  and  N1_10 
REMARK    5  A    between atoms: N1_10  and  C9_12 
REMARK    6  A    between atoms: C9_12  and  N2_14 
REMARK    7  A    between atoms: N2_14  and  N3_16 
REMARK       I    between atoms: N3_16  and  C10_18 
REMARK       I    between atoms: C10_18  and  N4_20 
REMARK    8  A    between atoms: N4_20  and  O3_22 
ROOT
HETATM    1  N1  UNL     1       5.399  -4.207  24.771  1.00  0.00    -0.362 N 
ATOM      2  H1  UNL     1       4.487  -4.663  24.791  1.00  0.00     0.162 HD
ENDROOT
BRANCH   1   3
HETATM    3  C7  UNL     1       6.276  -4.415  23.616  1.00  0.00     0.082 C 
HETATM    4  C8  UNL     1       7.147  -5.601  23.724  1.00  0.00     0.032 C 
BRANCH   3   5
HETATM    5  C6  UNL     1       5.404  -4.380  22.410  1.00  0.00     0.062 C 
BRANCH   5   6
HETATM    6  C5  UNL     1       5.111  -3.068  21.777  1.00  0.00     0.186 C 
HETATM    7  C4  UNL     1       3.758  -2.879  21.166  1.00  0.00     0.206 C 
HETATM    8  O1  UNL     1       3.575  -1.470  21.030  1.00  0.00    -0.356 OA
HETATM    9  C3  UNL     1       3.375  -0.984  22.320  1.00  0.00     0.296 C 
HETATM   10  O5  UNL     1       3.993  -1.861  23.214  1.00  0.00    -0.208 OA
HETATM   11  O4  UNL     1       5.239  -2.082  22.793  1.00  0.00    -0.231 OA
BRANCH   9  12
HETATM   12  C2  UNL     1       3.827   0.426  22.522  1.00  0.00     0.059 C 
HETATM   13  C1  UNL     1       3.982   1.229  21.270  1.00  0.00     0.010 C 
ENDBRANCH   9  12
ENDBRANCH   5   6
ENDBRANCH   3   5
ENDBRANCH   1   3
BRANCH   1  14
HETATM   14  C9  UNL     1       5.778  -3.403  25.847  1.00  0.00     0.186 C 
HETATM   15  S1  UNL     1       5.787  -4.030  27.383  1.00  0.00    -0.040 SA
BRANCH  14  16
HETATM   16  N2  UNL     1       6.183  -2.059  25.640  1.00  0.00    -0.272 N 
ATOM     17  H2  UNL     1       5.615  -1.446  25.054  1.00  0.00     0.189 HD
BRANCH  16  18
HETATM   18  N3  UNL     1       7.342  -1.569  26.225  1.00  0.00    -0.248 N 
HETATM   19  C10 UNL     1       8.243  -0.810  25.396  1.00  0.00     0.360 C 
HETATM   20  O2  UNL     1       7.963  -0.612  24.212  1.00  0.00    -0.243 OA
HETATM   21  N4  UNL     1       9.443  -0.294  25.945  1.00  0.00    -0.214 N 
HETATM   22  C11 UNL     1      10.335   0.467  25.103  1.00  0.00     0.190 C 
ATOM     23  H3  UNL     1       7.549  -1.740  27.208  1.00  0.00     0.192 HD
BRANCH  21  24
HETATM   24  O3  UNL     1       9.807  -0.487  27.241  1.00  0.00    -0.284 OA
ATOM     25  H3  UNL     1      10.041  -1.338  27.592  1.00  0.00     0.245 HD
ENDBRANCH  21  24
ENDBRANCH  16  18
ENDBRANCH  14  16
ENDBRANCH   1  14
TORSDOF 8
ENDMDL
