MODEL 1
REMARK VINA RESULT: -6.240927673      0.000      0.000
REMARK  6 active torsions:
REMARK  status: ('A' for Active; 'I' for Inactive)
REMARK    1  A    between atoms: N1_2  and  C2_5 
REMARK    2  A    between atoms: C2_5  and  C3_6 
REMARK    3  A    between atoms: C3_6  and  C4_7 
REMARK       I    between atoms: C4_7  and  N2_9 
REMARK    4  A    between atoms: N2_9  and  C5_11 
REMARK    5  A    between atoms: C14_21  and  O3_22 
REMARK    6  A    between atoms: C16_25  and  O4_26 
ROOT
HETATM    1  C5  UNL     1       5.121  -3.044  25.383  1.00  0.00     0.252 C 
HETATM    2  O2  UNL     1       3.761  -2.718  25.292  1.00  0.00    -0.364 OA
HETATM    3  C6  UNL     1       3.235  -3.323  24.152  1.00  0.00     0.178 C 
HETATM    4  C7  UNL     1       3.424  -2.465  22.920  1.00  0.00     0.048 C 
HETATM    5  C8  UNL     1       3.965  -3.264  21.758  1.00  0.00    -0.010 C 
HETATM    6  C9  UNL     1       3.109  -4.512  21.566  1.00  0.00     0.010 C 
HETATM    7  C10 UNL     1       3.869  -2.424  20.521  1.00  0.00     0.005 C 
HETATM    8  C11 UNL     1       3.494  -0.999  20.795  1.00  0.00     0.007 C 
HETATM    9  C12 UNL     1       4.233  -0.384  21.941  1.00  0.00     0.016 C 
HETATM   10  C13 UNL     1       3.518   0.922  22.284  1.00  0.00     0.013 C 
HETATM   11  C14 UNL     1       4.249  -1.253  23.178  1.00  0.00     0.069 C 
HETATM   12  C15 UNL     1       5.665  -1.521  23.545  1.00  0.00     0.074 C 
HETATM   13  C16 UNL     1       5.883  -1.776  25.011  1.00  0.00     0.169 C 
ENDROOT
BRANCH   1  14
HETATM   14  N2  UNL     1       5.511  -3.404  26.710  1.00  0.00    -0.332 N 
HETATM   15  C4  UNL     1       5.426  -4.752  27.129  1.00  0.00     0.221 C 
HETATM   16  O1  UNL     1       5.006  -5.613  26.320  1.00  0.00    -0.274 OA
ATOM     17  H2  UNL     1       5.850  -2.690  27.354  1.00  0.00     0.165 HD
BRANCH  15  18
HETATM   18  C3  UNL     1       5.825  -5.154  28.503  1.00  0.00     0.130 C 
BRANCH  18  19
HETATM   19  C2  UNL     1       7.303  -5.444  28.530  1.00  0.00     0.241 C 
BRANCH  19  20
HETATM   20  N1  UNL     1       7.666  -6.438  27.559  1.00  0.00    -0.079 N 
HETATM   21  C1  UNL     1       8.856  -7.119  27.981  1.00  0.00     0.267 C 
ATOM     22  H12 UNL     1       7.761  -6.043  26.623  1.00  0.00     0.276 HD
ATOM     23  H11 UNL     1       6.900  -7.085  27.370  1.00  0.00     0.276 HD
ENDBRANCH  19  20
ENDBRANCH  18  19
ENDBRANCH  15  18
ENDBRANCH   1  14
BRANCH  13  24
HETATM   24  O4  UNL     1       7.252  -1.935  25.221  1.00  0.00    -0.391 OA
ATOM     25  H4  UNL     1       7.742  -1.217  24.836  1.00  0.00     0.210 HD
ENDBRANCH  13  24
BRANCH  11  26
HETATM   26  O3  UNL     1       3.657  -0.572  24.268  1.00  0.00    -0.389 OA
ATOM     27  H3  UNL     1       4.255   0.121  24.523  1.00  0.00     0.210 HD
ENDBRANCH  11  26
TORSDOF 6
ENDMDL
MODEL 2
REMARK VINA RESULT: -5.975501392      1.454      1.807
REMARK  6 active torsions:
REMARK  status: ('A' for Active; 'I' for Inactive)
REMARK    1  A    between atoms: N1_2  and  C2_5 
REMARK    2  A    between atoms: C2_5  and  C3_6 
REMARK    3  A    between atoms: C3_6  and  C4_7 
REMARK       I    between atoms: C4_7  and  N2_9 
REMARK    4  A    between atoms: N2_9  and  C5_11 
REMARK    5  A    between atoms: C14_21  and  O3_22 
REMARK    6  A    between atoms: C16_25  and  O4_26 
ROOT
HETATM    1  C5  UNL     1       4.429  -2.955  24.809  1.00  0.00     0.252 C 
HETATM    2  O2  UNL     1       3.076  -2.626  24.645  1.00  0.00    -0.364 OA
HETATM    3  C6  UNL     1       2.674  -3.022  23.371  1.00  0.00     0.178 C 
HETATM    4  C7  UNL     1       2.959  -1.958  22.334  1.00  0.00     0.048 C 
HETATM    5  C8  UNL     1       3.625  -2.535  21.107  1.00  0.00    -0.010 C 
HETATM    6  C9  UNL     1       2.820  -3.734  20.616  1.00  0.00     0.010 C 
HETATM    7  C10 UNL     1       3.628  -1.489  20.034  1.00  0.00     0.005 C 
HETATM    8  C11 UNL     1       3.196  -0.137  20.518  1.00  0.00     0.007 C 
HETATM    9  C12 UNL     1       3.809   0.269  21.820  1.00  0.00     0.016 C 
HETATM   10  C13 UNL     1       3.035   1.489  22.316  1.00  0.00     0.013 C 
HETATM   11  C14 UNL     1       3.728  -0.806  22.880  1.00  0.00     0.069 C 
HETATM   12  C15 UNL     1       5.109  -1.126  23.330  1.00  0.00     0.074 C 
HETATM   13  C16 UNL     1       5.194  -1.637  24.742  1.00  0.00     0.169 C 
ENDROOT
BRANCH   1  14
HETATM   14  N2  UNL     1       4.700  -3.543  26.083  1.00  0.00    -0.332 N 
HETATM   15  C4  UNL     1       5.812  -4.401  26.243  1.00  0.00     0.221 C 
HETATM   16  O1  UNL     1       6.547  -4.632  25.252  1.00  0.00    -0.274 OA
ATOM     17  H2  UNL     1       4.091  -3.343  26.877  1.00  0.00     0.165 HD
BRANCH  15  18
HETATM   18  C3  UNL     1       6.117  -5.026  27.555  1.00  0.00     0.130 C 
BRANCH  18  19
HETATM   19  C2  UNL     1       6.396  -3.947  28.570  1.00  0.00     0.241 C 
BRANCH  19  20
HETATM   20  N1  UNL     1       7.138  -2.860  27.996  1.00  0.00    -0.079 N 
HETATM   21  C1  UNL     1       6.593  -1.610  28.442  1.00  0.00     0.267 C 
ATOM     22  H12 UNL     1       7.179  -2.918  26.979  1.00  0.00     0.276 HD
ATOM     23  H11 UNL     1       8.137  -2.933  28.190  1.00  0.00     0.276 HD
ENDBRANCH  19  20
ENDBRANCH  18  19
ENDBRANCH  15  18
ENDBRANCH   1  14
BRANCH  13  24
HETATM   24  O4  UNL     1       6.540  -1.822  25.052  1.00  0.00    -0.391 OA
ATOM     25  H4  UNL     1       6.825  -1.208  25.719  1.00  0.00     0.210 HD
ENDBRANCH  13  24
BRANCH  11  26
HETATM   26  O3  UNL     1       3.020  -0.333  24.010  1.00  0.00    -0.389 OA
ATOM     27  H3  UNL     1       3.486   0.431  24.332  1.00  0.00     0.210 HD
ENDBRANCH  11  26
TORSDOF 6
ENDMDL
MODEL 3
REMARK VINA RESULT: -5.906690882      1.316      1.503
REMARK  6 active torsions:
REMARK  status: ('A' for Active; 'I' for Inactive)
REMARK    1  A    between atoms: N1_2  and  C2_5 
REMARK    2  A    between atoms: C2_5  and  C3_6 
REMARK    3  A    between atoms: C3_6  and  C4_7 
REMARK       I    between atoms: C4_7  and  N2_9 
REMARK    4  A    between atoms: N2_9  and  C5_11 
REMARK    5  A    between atoms: C14_21  and  O3_22 
REMARK    6  A    between atoms: C16_25  and  O4_26 
ROOT
HETATM    1  C5  UNL     1       4.687  -2.971  24.729  1.00  0.00     0.252 C 
HETATM    2  O2  UNL     1       3.336  -2.599  24.683  1.00  0.00    -0.364 OA
HETATM    3  C6  UNL     1       2.819  -2.959  23.440  1.00  0.00     0.178 C 
HETATM    4  C7  UNL     1       3.050  -1.885  22.400  1.00  0.00     0.048 C 
HETATM    5  C8  UNL     1       3.595  -2.458  21.113  1.00  0.00    -0.010 C 
HETATM    6  C9  UNL     1       2.715  -3.624  20.672  1.00  0.00     0.010 C 
HETATM    7  C10 UNL     1       3.541  -1.393  20.061  1.00  0.00     0.005 C 
HETATM    8  C11 UNL     1       3.193  -0.039  20.600  1.00  0.00     0.007 C 
HETATM    9  C12 UNL     1       3.923   0.325  21.853  1.00  0.00     0.016 C 
HETATM   10  C13 UNL     1       3.231   1.558  22.431  1.00  0.00     0.013 C 
HETATM   11  C14 UNL     1       3.896  -0.766  22.899  1.00  0.00     0.069 C 
HETATM   12  C15 UNL     1       5.299  -1.136  23.228  1.00  0.00     0.074 C 
HETATM   13  C16 UNL     1       5.484  -1.675  24.620  1.00  0.00     0.169 C 
ENDROOT
BRANCH   1  14
HETATM   14  N2  UNL     1       5.044  -3.590  25.966  1.00  0.00    -0.332 N 
HETATM   15  C4  UNL     1       6.026  -4.606  25.991  1.00  0.00     0.221 C 
HETATM   16  O1  UNL     1       6.571  -4.948  24.913  1.00  0.00    -0.274 OA
ATOM     17  H2  UNL     1       4.589  -3.299  26.832  1.00  0.00     0.165 HD
BRANCH  15  18
HETATM   18  C3  UNL     1       6.416  -5.267  27.262  1.00  0.00     0.130 C 
BRANCH  18  19
HETATM   19  C2  UNL     1       5.282  -5.163  28.249  1.00  0.00     0.241 C 
BRANCH  19  20
HETATM   20  N1  UNL     1       5.710  -5.474  29.583  1.00  0.00    -0.079 N 
HETATM   21  C1  UNL     1       6.610  -4.461  30.054  1.00  0.00     0.267 C 
ATOM     22  H12 UNL     1       6.117  -6.407  29.648  1.00  0.00     0.276 HD
ATOM     23  H11 UNL     1       4.922  -5.611  30.216  1.00  0.00     0.276 HD
ENDBRANCH  19  20
ENDBRANCH  18  19
ENDBRANCH  15  18
ENDBRANCH   1  14
BRANCH  13  24
HETATM   24  O4  UNL     1       6.845  -1.906  24.814  1.00  0.00    -0.391 OA
ATOM     25  H4  UNL     1       7.199  -1.323  25.476  1.00  0.00     0.210 HD
ENDBRANCH  13  24
BRANCH  11  26
HETATM   26  O3  UNL     1       3.299  -0.293  24.092  1.00  0.00    -0.389 OA
ATOM     27  H3  UNL     1       3.949  -0.374  24.780  1.00  0.00     0.210 HD
ENDBRANCH  11  26
TORSDOF 6
ENDMDL
MODEL 4
REMARK VINA RESULT: -5.898768920      1.966      3.507
REMARK  6 active torsions:
REMARK  status: ('A' for Active; 'I' for Inactive)
REMARK    1  A    between atoms: N1_2  and  C2_5 
REMARK    2  A    between atoms: C2_5  and  C3_6 
REMARK    3  A    between atoms: C3_6  and  C4_7 
REMARK       I    between atoms: C4_7  and  N2_9 
REMARK    4  A    between atoms: N2_9  and  C5_11 
REMARK    5  A    between atoms: C14_21  and  O3_22 
REMARK    6  A    between atoms: C16_25  and  O4_26 
ROOT
HETATM    1  C5  UNL     1       5.144  -4.205  24.593  1.00  0.00     0.252 C 
HETATM    2  O2  UNL     1       6.158  -3.714  23.759  1.00  0.00    -0.364 OA
HETATM    3  C6  UNL     1       5.752  -2.486  23.240  1.00  0.00     0.178 C 
HETATM    4  C7  UNL     1       4.929  -2.651  21.981  1.00  0.00     0.048 C 
HETATM    5  C8  UNL     1       3.675  -1.810  22.017  1.00  0.00    -0.010 C 
HETATM    6  C9  UNL     1       4.044  -0.374  22.380  1.00  0.00     0.010 C 
HETATM    7  C10 UNL     1       3.063  -1.815  20.649  1.00  0.00     0.005 C 
HETATM    8  C11 UNL     1       3.703  -2.795  19.713  1.00  0.00     0.007 C 
HETATM    9  C12 UNL     1       3.953  -4.140  20.316  1.00  0.00     0.016 C 
HETATM   10  C13 UNL     1       4.879  -4.892  19.362  1.00  0.00     0.013 C 
HETATM   11  C14 UNL     1       4.622  -4.074  21.670  1.00  0.00     0.069 C 
HETATM   12  C15 UNL     1       3.749  -4.760  22.659  1.00  0.00     0.074 C 
HETATM   13  C16 UNL     1       4.488  -5.350  23.829  1.00  0.00     0.169 C 
ENDROOT
BRANCH   1  14
HETATM   14  N2  UNL     1       5.651  -4.741  25.816  1.00  0.00    -0.332 N 
HETATM   15  C4  UNL     1       4.918  -4.582  27.015  1.00  0.00     0.221 C 
HETATM   16  O1  UNL     1       3.825  -3.966  26.980  1.00  0.00    -0.274 OA
ATOM     17  H2  UNL     1       6.541  -5.238  25.825  1.00  0.00     0.165 HD
BRANCH  15  18
HETATM   18  C3  UNL     1       5.421  -5.129  28.301  1.00  0.00     0.130 C 
BRANCH  18  19
HETATM   19  C2  UNL     1       6.402  -4.160  28.907  1.00  0.00     0.241 C 
BRANCH  19  20
HETATM   20  N1  UNL     1       5.878  -2.823  28.935  1.00  0.00    -0.079 N 
HETATM   21  C1  UNL     1       6.700  -1.961  28.136  1.00  0.00     0.267 C 
ATOM     22  H12 UNL     1       5.768  -2.474  29.887  1.00  0.00     0.276 HD
ATOM     23  H11 UNL     1       4.898  -2.791  28.651  1.00  0.00     0.276 HD
ENDBRANCH  19  20
ENDBRANCH  18  19
ENDBRANCH  15  18
ENDBRANCH   1  14
BRANCH  13  24
HETATM   24  O4  UNL     1       3.564  -6.021  24.627  1.00  0.00    -0.391 OA
ATOM     25  H4  UNL     1       2.674  -5.818  24.365  1.00  0.00     0.210 HD
ENDBRANCH  13  24
BRANCH  11  26
HETATM   26  O3  UNL     1       5.854  -4.770  21.647  1.00  0.00    -0.389 OA
ATOM     27  H3  UNL     1       5.934  -5.167  20.788  1.00  0.00     0.210 HD
ENDBRANCH  11  26
TORSDOF 6
ENDMDL
MODEL 5
REMARK VINA RESULT: -5.882120567      1.924      2.611
REMARK  6 active torsions:
REMARK  status: ('A' for Active; 'I' for Inactive)
REMARK    1  A    between atoms: N1_2  and  C2_5 
REMARK    2  A    between atoms: C2_5  and  C3_6 
REMARK    3  A    between atoms: C3_6  and  C4_7 
REMARK       I    between atoms: C4_7  and  N2_9 
REMARK    4  A    between atoms: N2_9  and  C5_11 
REMARK    5  A    between atoms: C14_21  and  O3_22 
REMARK    6  A    between atoms: C16_25  and  O4_26 
ROOT
HETATM    1  C5  UNL     1       4.921  -4.502  24.687  1.00  0.00     0.252 C 
HETATM    2  O2  UNL     1       3.591  -4.488  24.243  1.00  0.00    -0.364 OA
HETATM    3  C6  UNL     1       3.460  -5.407  23.203  1.00  0.00     0.178 C 
HETATM    4  C7  UNL     1       3.812  -4.796  21.864  1.00  0.00     0.048 C 
HETATM    5  C8  UNL     1       4.737  -5.687  21.068  1.00  0.00    -0.010 C 
HETATM    6  C9  UNL     1       4.156  -7.096  21.017  1.00  0.00     0.010 C 
HETATM    7  C10 UNL     1       4.821  -5.153  19.671  1.00  0.00     0.005 C 
HETATM    8  C11 UNL     1       4.176  -3.810  19.505  1.00  0.00     0.007 C 
HETATM    9  C12 UNL     1       4.508  -2.837  20.592  1.00  0.00     0.016 C 
HETATM   10  C13 UNL     1       3.540  -1.664  20.451  1.00  0.00     0.013 C 
HETATM   11  C14 UNL     1       4.353  -3.414  21.980  1.00  0.00     0.069 C 
HETATM   12  C15 UNL     1       5.659  -3.306  22.683  1.00  0.00     0.074 C 
HETATM   13  C16 UNL     1       5.548  -3.208  24.179  1.00  0.00     0.169 C 
ENDROOT
BRANCH   1  14
HETATM   14  N2  UNL     1       5.024  -4.498  26.112  1.00  0.00    -0.332 N 
HETATM   15  C4  UNL     1       6.113  -5.141  26.743  1.00  0.00     0.221 C 
HETATM   16  O1  UNL     1       6.977  -5.709  26.032  1.00  0.00    -0.274 OA
ATOM     17  H2  UNL     1       4.312  -4.031  26.673  1.00  0.00     0.165 HD
BRANCH  15  18
HETATM   18  C3  UNL     1       6.245  -5.152  28.223  1.00  0.00     0.130 C 
BRANCH  18  19
HETATM   19  C2  UNL     1       6.375  -3.737  28.724  1.00  0.00     0.241 C 
BRANCH  19  20
HETATM   20  N1  UNL     1       7.262  -2.964  27.902  1.00  0.00    -0.079 N 
HETATM   21  C1  UNL     1       6.789  -1.613  27.811  1.00  0.00     0.267 C 
ATOM     22  H12 UNL     1       7.398  -3.385  26.983  1.00  0.00     0.276 HD
ATOM     23  H11 UNL     1       8.227  -3.011  28.231  1.00  0.00     0.276 HD
ENDBRANCH  19  20
ENDBRANCH  18  19
ENDBRANCH  15  18
ENDBRANCH   1  14
BRANCH  13  24
HETATM   24  O4  UNL     1       6.831  -3.036  24.696  1.00  0.00    -0.391 OA
ATOM     25  H4  UNL     1       7.213  -2.219  24.399  1.00  0.00     0.210 HD
ENDBRANCH  13  24
BRANCH  11  26
HETATM   26  O3  UNL     1       3.415  -2.662  22.726  1.00  0.00    -0.389 OA
ATOM     27  H3  UNL     1       2.587  -3.126  22.683  1.00  0.00     0.210 HD
ENDBRANCH  11  26
TORSDOF 6
ENDMDL
