MODEL 1
REMARK VINA RESULT: -6.327352792      0.000      0.000
REMARK  7 active torsions:
REMARK  status: ('A' for Active; 'I' for Inactive)
REMARK    1  A    between atoms: C6_7  and  N1_8 
REMARK    2  A    between atoms: N1_8  and  C7_10 
REMARK    3  A    between atoms: C8_12  and  N2_13 
REMARK    4  A    between atoms: N2_13  and  O2_14 
REMARK    5  A    between atoms: C9_16  and  O3_17 
REMARK    6  A    between atoms: C9_16  and  N3_19 
REMARK       I    between atoms: N3_19  and  C10_21 
REMARK    7  A    between atoms: C10_21  and  C11_23 
ROOT
HETATM    1  C1  UNL     1       4.882  -5.527  26.713  1.00  0.00     0.029 C 
HETATM    2  C2  UNL     1       5.443  -4.725  25.529  1.00  0.00     0.022 A 
HETATM    3  C3  UNL     1       6.496  -5.607  24.903  1.00  0.00     0.029 C 
HETATM    4  S1  UNL     1       4.045  -4.435  24.417  1.00  0.00    -0.147 SA
HETATM    5  C4  UNL     1       4.151  -2.631  24.335  1.00  0.00     0.113 A 
HETATM    6  C5  UNL     1       5.235  -2.284  25.251  1.00  0.00     0.055 A 
HETATM    7  C6  UNL     1       5.899  -3.382  25.915  1.00  0.00     0.108 A 
HETATM    8  C8  UNL     1       5.920  -1.510  24.173  1.00  0.00     0.170 C 
HETATM    9  C9  UNL     1       4.983  -2.112  23.189  1.00  0.00     0.167 C 
ENDROOT
BRANCH   9  10
HETATM   10  O3  UNL     1       5.517  -3.155  22.418  1.00  0.00    -0.368 OA
ATOM     11  H3  UNL     1       5.200  -3.131  21.522  1.00  0.00     0.212 HD
ENDBRANCH   9  10
BRANCH   9  12
HETATM   12  N3  UNL     1       4.227  -1.158  22.426  1.00  0.00    -0.327 N 
HETATM   13  C10 UNL     1       3.519  -1.393  21.238  1.00  0.00     0.224 C 
HETATM   14  O4  UNL     1       3.497  -2.526  20.714  1.00  0.00    -0.273 OA
ATOM     15  H3  UNL     1       4.202  -0.205  22.789  1.00  0.00     0.165 HD
BRANCH  13  16
HETATM   16  C11 UNL     1       2.785  -0.312  20.580  1.00  0.00     0.078 C 
HETATM   17  C12 UNL     1       2.913  -0.357  19.059  1.00  0.00     0.014 C 
HETATM   18  C13 UNL     1       3.054   1.154  19.099  1.00  0.00     0.002 C 
HETATM   19  C14 UNL     1       3.558   1.006  20.521  1.00  0.00     0.014 C 
ENDBRANCH  13  16
ENDBRANCH   9  12
BRANCH   8  20
HETATM   20  N2  UNL     1       7.273  -1.954  23.855  1.00  0.00    -0.093 NA
BRANCH  20  21
HETATM   21  O2  UNL     1       8.120  -0.893  23.865  1.00  0.00    -0.295 OA
ATOM     22  H2  UNL     1       8.607  -0.862  23.049  1.00  0.00     0.238 HD
ENDBRANCH  20  21
ENDBRANCH   8  20
BRANCH   7  23
HETATM   23  N1  UNL     1       5.669  -3.250  27.359  1.00  0.00    -0.362 N 
ATOM     24  H1  UNL     1       4.834  -3.687  27.751  1.00  0.00     0.162 HD
BRANCH  23  25
HETATM   25  C7  UNL     1       6.512  -2.570  28.225  1.00  0.00     0.348 C 
HETATM   26  O1  UNL     1       6.162  -1.479  28.724  1.00  0.00    -0.284 OA
ENDBRANCH  23  25
ENDBRANCH   7  23
TORSDOF 7
ENDMDL
MODEL 2
REMARK VINA RESULT: -6.249070875      3.188      5.471
REMARK  7 active torsions:
REMARK  status: ('A' for Active; 'I' for Inactive)
REMARK    1  A    between atoms: C6_7  and  N1_8 
REMARK    2  A    between atoms: N1_8  and  C7_10 
REMARK    3  A    between atoms: C8_12  and  N2_13 
REMARK    4  A    between atoms: N2_13  and  O2_14 
REMARK    5  A    between atoms: C9_16  and  O3_17 
REMARK    6  A    between atoms: C9_16  and  N3_19 
REMARK       I    between atoms: N3_19  and  C10_21 
REMARK    7  A    between atoms: C10_21  and  C11_23 
ROOT
HETATM    1  C1  UNL     1       3.222  -5.155  21.850  1.00  0.00     0.029 C 
HETATM    2  C2  UNL     1       4.127  -4.812  23.043  1.00  0.00     0.022 A 
HETATM    3  C3  UNL     1       4.487  -6.134  23.674  1.00  0.00     0.029 C 
HETATM    4  S1  UNL     1       5.571  -3.971  22.346  1.00  0.00    -0.147 SA
HETATM    5  C4  UNL     1       5.478  -2.451  23.322  1.00  0.00     0.113 A 
HETATM    6  C5  UNL     1       4.263  -2.598  24.121  1.00  0.00     0.055 A 
HETATM    7  C6  UNL     1       3.523  -3.827  23.952  1.00  0.00     0.108 A 
HETATM    8  C8  UNL     1       5.033  -2.331  25.371  1.00  0.00     0.170 C 
HETATM    9  C9  UNL     1       6.291  -2.481  24.593  1.00  0.00     0.167 C 
ENDROOT
BRANCH   9  10
HETATM   10  O3  UNL     1       6.952  -3.708  24.760  1.00  0.00    -0.368 OA
ATOM     11  H3  UNL     1       6.340  -4.426  24.875  1.00  0.00     0.212 HD
ENDBRANCH   9  10
BRANCH   9  12
HETATM   12  N3  UNL     1       7.164  -1.342  24.645  1.00  0.00    -0.327 N 
HETATM   13  C10 UNL     1       8.020  -0.978  25.694  1.00  0.00     0.224 C 
HETATM   14  O4  UNL     1       8.089  -1.659  26.738  1.00  0.00    -0.273 OA
ATOM     15  H3  UNL     1       7.160  -0.731  23.828  1.00  0.00     0.165 HD
BRANCH  13  16
HETATM   16  C11 UNL     1       8.861   0.216  25.592  1.00  0.00     0.078 C 
HETATM   17  C12 UNL     1       9.688   0.243  24.308  1.00  0.00     0.014 C 
HETATM   18  C13 UNL     1      10.840   0.763  25.149  1.00  0.00     0.002 C 
HETATM   19  C14 UNL     1      10.187   0.096  26.344  1.00  0.00     0.014 C 
ENDBRANCH  13  16
ENDBRANCH   9  12
BRANCH   8  20
HETATM   20  N2  UNL     1       4.980  -3.391  26.372  1.00  0.00    -0.093 NA
BRANCH  20  21
HETATM   21  O2  UNL     1       5.606  -2.987  27.507  1.00  0.00    -0.295 OA
ATOM     22  H2  UNL     1       6.143  -3.692  27.848  1.00  0.00     0.238 HD
ENDBRANCH  20  21
ENDBRANCH   8  20
BRANCH   7  23
HETATM   23  N1  UNL     1       2.201  -3.494  23.405  1.00  0.00    -0.362 N 
ATOM     24  H1  UNL     1       2.140  -3.265  22.413  1.00  0.00     0.162 HD
BRANCH  23  25
HETATM   25  C7  UNL     1       1.032  -3.469  24.150  1.00  0.00     0.348 C 
HETATM   26  O1  UNL     1       0.990  -3.997  25.281  1.00  0.00    -0.284 OA
ENDBRANCH  23  25
ENDBRANCH   7  23
TORSDOF 7
ENDMDL
MODEL 3
REMARK VINA RESULT: -6.104830250      0.941      1.267
REMARK  7 active torsions:
REMARK  status: ('A' for Active; 'I' for Inactive)
REMARK    1  A    between atoms: C6_7  and  N1_8 
REMARK    2  A    between atoms: N1_8  and  C7_10 
REMARK    3  A    between atoms: C8_12  and  N2_13 
REMARK    4  A    between atoms: N2_13  and  O2_14 
REMARK    5  A    between atoms: C9_16  and  O3_17 
REMARK    6  A    between atoms: C9_16  and  N3_19 
REMARK       I    between atoms: N3_19  and  C10_21 
REMARK    7  A    between atoms: C10_21  and  C11_23 
ROOT
HETATM    1  C1  UNL     1       5.273  -5.853  26.018  1.00  0.00     0.029 C 
HETATM    2  C2  UNL     1       5.730  -4.826  24.970  1.00  0.00     0.022 A 
HETATM    3  C3  UNL     1       6.767  -5.534  24.133  1.00  0.00     0.029 C 
HETATM    4  S1  UNL     1       4.253  -4.401  24.014  1.00  0.00    -0.147 SA
HETATM    5  C4  UNL     1       4.296  -2.609  24.259  1.00  0.00     0.113 A 
HETATM    6  C5  UNL     1       5.426  -2.387  25.158  1.00  0.00     0.055 A 
HETATM    7  C6  UNL     1       6.167  -3.557  25.569  1.00  0.00     0.108 A 
HETATM    8  C8  UNL     1       6.014  -1.402  24.202  1.00  0.00     0.170 C 
HETATM    9  C9  UNL     1       5.035  -1.855  23.180  1.00  0.00     0.167 C 
ENDROOT
BRANCH   9  10
HETATM   10  O3  UNL     1       5.550  -2.718  22.201  1.00  0.00    -0.368 OA
ATOM     11  H3  UNL     1       5.177  -3.589  22.267  1.00  0.00     0.212 HD
ENDBRANCH   9  10
BRANCH   9  12
HETATM   12  N3  UNL     1       4.201  -0.813  22.651  1.00  0.00    -0.327 N 
HETATM   13  C10 UNL     1       3.613  -0.761  21.378  1.00  0.00     0.224 C 
HETATM   14  O4  UNL     1       3.789  -1.678  20.549  1.00  0.00    -0.273 OA
ATOM     15  H3  UNL     1       4.014  -0.023  23.269  1.00  0.00     0.165 HD
BRANCH  13  16
HETATM   16  C11 UNL     1       2.775   0.373  20.988  1.00  0.00     0.078 C 
HETATM   17  C12 UNL     1       2.523   1.342  22.142  1.00  0.00     0.014 C 
HETATM   18  C13 UNL     1       1.089   1.438  21.650  1.00  0.00     0.002 C 
HETATM   19  C14 UNL     1       1.276   0.069  21.028  1.00  0.00     0.014 C 
ENDBRANCH  13  16
ENDBRANCH   9  12
BRANCH   8  20
HETATM   20  N2  UNL     1       7.357  -1.722  23.729  1.00  0.00    -0.093 NA
BRANCH  20  21
HETATM   21  O2  UNL     1       8.190  -0.676  23.964  1.00  0.00    -0.295 OA
ATOM     22  H2  UNL     1       8.993  -0.785  23.467  1.00  0.00     0.238 HD
ENDBRANCH  20  21
ENDBRANCH   8  20
BRANCH   7  23
HETATM   23  N1  UNL     1       6.028  -3.699  27.024  1.00  0.00    -0.362 N 
ATOM     24  H1  UNL     1       5.375  -4.400  27.374  1.00  0.00     0.162 HD
BRANCH  23  25
HETATM   25  C7  UNL     1       6.727  -2.942  27.953  1.00  0.00     0.348 C 
HETATM   26  O1  UNL     1       6.130  -2.111  28.670  1.00  0.00    -0.284 OA
ENDBRANCH  23  25
ENDBRANCH   7  23
TORSDOF 7
ENDMDL
MODEL 4
REMARK VINA RESULT: -6.073585506      1.100      1.115
REMARK  7 active torsions:
REMARK  status: ('A' for Active; 'I' for Inactive)
REMARK    1  A    between atoms: C6_7  and  N1_8 
REMARK    2  A    between atoms: N1_8  and  C7_10 
REMARK    3  A    between atoms: C8_12  and  N2_13 
REMARK    4  A    between atoms: N2_13  and  O2_14 
REMARK    5  A    between atoms: C9_16  and  O3_17 
REMARK    6  A    between atoms: C9_16  and  N3_19 
REMARK       I    between atoms: N3_19  and  C10_21 
REMARK    7  A    between atoms: C10_21  and  C11_23 
ROOT
HETATM    1  C1  UNL     1       4.988  -5.204  27.829  1.00  0.00     0.029 C 
HETATM    2  C2  UNL     1       5.194  -4.932  26.330  1.00  0.00     0.022 A 
HETATM    3  C3  UNL     1       5.600  -6.255  25.729  1.00  0.00     0.029 C 
HETATM    4  S1  UNL     1       3.595  -4.359  25.705  1.00  0.00    -0.147 SA
HETATM    5  C4  UNL     1       4.144  -2.788  24.996  1.00  0.00     0.113 A 
HETATM    6  C5  UNL     1       5.562  -2.705  25.338  1.00  0.00     0.055 A 
HETATM    7  C6  UNL     1       6.117  -3.817  26.075  1.00  0.00     0.108 A 
HETATM    8  C8  UNL     1       5.912  -2.485  23.903  1.00  0.00     0.170 C 
HETATM    9  C9  UNL     1       4.523  -2.867  23.538  1.00  0.00     0.167 C 
ENDROOT
BRANCH   9  10
HETATM   10  O3  UNL     1       4.376  -4.167  23.030  1.00  0.00    -0.368 OA
ATOM     11  H3  UNL     1       3.461  -4.403  22.925  1.00  0.00     0.212 HD
ENDBRANCH   9  10
BRANCH   9  12
HETATM   12  N3  UNL     1       3.808  -1.871  22.790  1.00  0.00    -0.327 N 
HETATM   13  C10 UNL     1       3.737  -1.745  21.395  1.00  0.00     0.224 C 
HETATM   14  O4  UNL     1       4.338  -2.542  20.644  1.00  0.00    -0.273 OA
ATOM     15  H3  UNL     1       3.294  -1.178  23.335  1.00  0.00     0.165 HD
BRANCH  13  16
HETATM   16  C11 UNL     1       2.953  -0.674  20.780  1.00  0.00     0.078 C 
HETATM   17  C12 UNL     1       3.082  -0.653  19.258  1.00  0.00     0.014 C 
HETATM   18  C13 UNL     1       3.153   0.861  19.359  1.00  0.00     0.002 C 
HETATM   19  C14 UNL     1       3.665   0.680  20.774  1.00  0.00     0.014 C 
ENDBRANCH  13  16
ENDBRANCH   9  12
BRANCH   8  20
HETATM   20  N2  UNL     1       6.827  -3.465  23.329  1.00  0.00    -0.093 NA
BRANCH  20  21
HETATM   21  O2  UNL     1       7.157  -3.103  22.063  1.00  0.00    -0.295 OA
ATOM     22  H2  UNL     1       8.100  -3.012  21.989  1.00  0.00     0.238 HD
ENDBRANCH  20  21
ENDBRANCH   8  20
BRANCH   7  23
HETATM   23  N1  UNL     1       6.562  -3.321  27.384  1.00  0.00    -0.362 N 
ATOM     24  H1  UNL     1       6.673  -3.999  28.138  1.00  0.00     0.162 HD
BRANCH  23  25
HETATM   25  C7  UNL     1       6.842  -1.992  27.661  1.00  0.00     0.348 C 
HETATM   26  O1  UNL     1       6.227  -1.391  28.568  1.00  0.00    -0.284 OA
ENDBRANCH  23  25
ENDBRANCH   7  23
TORSDOF 7
ENDMDL
MODEL 5
REMARK VINA RESULT: -6.039641414      3.134      5.343
REMARK  7 active torsions:
REMARK  status: ('A' for Active; 'I' for Inactive)
REMARK    1  A    between atoms: C6_7  and  N1_8 
REMARK    2  A    between atoms: N1_8  and  C7_10 
REMARK    3  A    between atoms: C8_12  and  N2_13 
REMARK    4  A    between atoms: N2_13  and  O2_14 
REMARK    5  A    between atoms: C9_16  and  O3_17 
REMARK    6  A    between atoms: C9_16  and  N3_19 
REMARK       I    between atoms: N3_19  and  C10_21 
REMARK    7  A    between atoms: C10_21  and  C11_23 
ROOT
HETATM    1  C1  UNL     1       1.757  -3.341  23.766  1.00  0.00     0.029 C 
HETATM    2  C2  UNL     1       3.272  -3.265  23.519  1.00  0.00     0.022 A 
HETATM    3  C3  UNL     1       3.470  -3.675  22.080  1.00  0.00     0.029 C 
HETATM    4  S1  UNL     1       3.737  -1.540  23.808  1.00  0.00    -0.147 SA
HETATM    5  C4  UNL     1       5.013  -1.824  25.058  1.00  0.00     0.113 A 
HETATM    6  C5  UNL     1       4.993  -3.267  25.284  1.00  0.00     0.055 A 
HETATM    7  C6  UNL     1       4.049  -4.032  24.502  1.00  0.00     0.108 A 
HETATM    8  C8  UNL     1       6.459  -3.347  25.013  1.00  0.00     0.170 C 
HETATM    9  C9  UNL     1       6.408  -1.954  24.498  1.00  0.00     0.167 C 
ENDROOT
BRANCH   9  10
HETATM   10  O3  UNL     1       6.422  -1.835  23.100  1.00  0.00    -0.368 OA
ATOM     11  H3  UNL     1       5.620  -1.446  22.771  1.00  0.00     0.212 HD
ENDBRANCH   9  10
BRANCH   9  12
HETATM   12  N3  UNL     1       7.292  -1.040  25.165  1.00  0.00    -0.327 N 
HETATM   13  C10 UNL     1       8.462  -0.463  24.649  1.00  0.00     0.224 C 
HETATM   14  O4  UNL     1       8.855  -0.724  23.492  1.00  0.00    -0.273 OA
ATOM     15  H3  UNL     1       7.041  -0.781  26.119  1.00  0.00     0.165 HD
BRANCH  13  16
HETATM   16  C11 UNL     1       9.256   0.465  25.455  1.00  0.00     0.078 C 
HETATM   17  C12 UNL     1      10.580   0.836  24.789  1.00  0.00     0.014 C 
HETATM   18  C13 UNL     1      11.218   0.717  26.163  1.00  0.00     0.002 C 
HETATM   19  C14 UNL     1      10.089  -0.223  26.537  1.00  0.00     0.014 C 
ENDBRANCH  13  16
ENDBRANCH   9  12
BRANCH   8  20
HETATM   20  N2  UNL     1       6.840  -4.232  23.918  1.00  0.00    -0.093 NA
BRANCH  20  21
HETATM   21  O2  UNL     1       7.541  -5.289  24.401  1.00  0.00    -0.295 OA
ATOM     22  H2  UNL     1       8.129  -5.620  23.732  1.00  0.00     0.238 HD
ENDBRANCH  20  21
ENDBRANCH   8  20
BRANCH   7  23
HETATM   23  N1  UNL     1       3.086  -4.650  25.423  1.00  0.00    -0.362 N 
ATOM     24  H1  UNL     1       2.094  -4.469  25.266  1.00  0.00     0.162 HD
BRANCH  23  25
HETATM   25  C7  UNL     1       3.436  -5.461  26.491  1.00  0.00     0.348 C 
HETATM   26  O1  UNL     1       4.045  -6.535  26.297  1.00  0.00    -0.284 OA
ENDBRANCH  23  25
ENDBRANCH   7  23
TORSDOF 7
ENDMDL
