MODEL 1
REMARK VINA RESULT: -6.567098454      0.000      0.000
REMARK  7 active torsions:
REMARK  status: ('A' for Active; 'I' for Inactive)
REMARK    1  A    between atoms: C5_5  and  O1_6 
REMARK    2  A    between atoms: C6_8  and  O2_9 
REMARK    3  A    between atoms: C7_11  and  C8_12 
REMARK    4  A    between atoms: C8_12  and  C9_13 
REMARK    5  A    between atoms: C9_13  and  C10_14 
REMARK    6  A    between atoms: C10_14  and  C11_15 
REMARK    7  A    between atoms: C16_23  and  O6_24 
ROOT
HETATM    1  C1  UNL     1       3.528  -1.514  19.808  1.00  0.00     0.018 C 
HETATM    2  C2  UNL     1       3.206  -0.082  20.203  1.00  0.00    -0.007 A 
HETATM    3  C3  UNL     1       3.250   0.838  18.975  1.00  0.00     0.018 C 
HETATM    4  C4  UNL     1       2.161   0.172  21.108  1.00  0.00     0.063 A 
HETATM    5  C5  UNL     1       1.752   1.349  21.932  1.00  0.00     0.155 C 
HETATM    6  C6  UNL     1       2.369   0.841  23.275  1.00  0.00     0.154 C 
HETATM    7  C7  UNL     1       3.539  -0.001  22.855  1.00  0.00     0.053 C 
HETATM    8  C16 UNL     1       3.682   0.373  21.449  1.00  0.00     0.078 A 
ENDROOT
BRANCH   7   9
HETATM    9  C8  UNL     1       3.525  -1.430  23.202  1.00  0.00     0.014 C 
BRANCH   9  10
HETATM   10  C9  UNL     1       4.319  -1.838  24.406  1.00  0.00     0.050 C 
BRANCH  10  11
HETATM   11  C10 UNL     1       5.446  -2.802  24.045  1.00  0.00     0.148 C 
HETATM   12  C12 UNL     1       5.549  -2.957  22.536  1.00  0.00     0.049 C 
HETATM   13  C13 UNL     1       6.773  -3.861  22.317  1.00  0.00     0.006 C 
HETATM   14  C14 UNL     1       6.590  -5.166  23.047  1.00  0.00     0.026 C 
HETATM   15  C15 UNL     1       6.160  -5.007  24.465  1.00  0.00     0.169 C 
HETATM   16  O5  UNL     1       5.274  -4.008  24.614  1.00  0.00    -0.369 OA
BRANCH  11  17
HETATM   17  C11 UNL     1       6.686  -2.143  24.483  1.00  0.00     0.209 C 
HETATM   18  O3  UNL     1       7.158  -2.426  25.605  1.00  0.00    -0.646 OA
HETATM   19  O4  UNL     1       7.339  -1.230  23.698  1.00  0.00    -0.646 OA
ENDBRANCH  11  17
ENDBRANCH  10  11
ENDBRANCH   9  10
ENDBRANCH   7   9
BRANCH   6  20
HETATM   20  O2  UNL     1       1.403   0.238  24.018  1.00  0.00    -0.393 OA
ATOM     21  H2  UNL     1       1.786  -0.475  24.516  1.00  0.00     0.210 HD
ENDBRANCH   6  20
BRANCH   8  22
HETATM   22  O6  UNL     1       4.132   1.727  21.423  1.00  0.00    -0.388 OA
ATOM     23  H6  UNL     1       5.070   1.815  21.544  1.00  0.00     0.210 HD
ENDBRANCH   8  22
BRANCH   5  24
HETATM   24  O1  UNL     1       0.380   1.324  22.104  1.00  0.00    -0.392 OA
ATOM     25  H1  UNL     1       0.162   1.766  22.916  1.00  0.00     0.210 HD
ENDBRANCH   5  24
TORSDOF 7
ENDMDL
MODEL 2
REMARK VINA RESULT: -6.280656881      1.276      1.693
REMARK  7 active torsions:
REMARK  status: ('A' for Active; 'I' for Inactive)
REMARK    1  A    between atoms: C5_5  and  O1_6 
REMARK    2  A    between atoms: C6_8  and  O2_9 
REMARK    3  A    between atoms: C7_11  and  C8_12 
REMARK    4  A    between atoms: C8_12  and  C9_13 
REMARK    5  A    between atoms: C9_13  and  C10_14 
REMARK    6  A    between atoms: C10_14  and  C11_15 
REMARK    7  A    between atoms: C16_23  and  O6_24 
ROOT
HETATM    1  C1  UNL     1       3.622  -1.862  20.187  1.00  0.00     0.018 C 
HETATM    2  C2  UNL     1       3.170  -0.425  20.390  1.00  0.00    -0.007 A 
HETATM    3  C3  UNL     1       3.166   0.331  19.054  1.00  0.00     0.018 C 
HETATM    4  C4  UNL     1       2.085  -0.149  21.240  1.00  0.00     0.063 A 
HETATM    5  C5  UNL     1       1.558   1.083  21.900  1.00  0.00     0.155 C 
HETATM    6  C6  UNL     1       2.183   0.806  23.305  1.00  0.00     0.154 C 
HETATM    7  C7  UNL     1       3.430   0.022  23.013  1.00  0.00     0.053 C 
HETATM    8  C16 UNL     1       3.575   0.225  21.573  1.00  0.00     0.078 A 
ENDROOT
BRANCH   7   9
HETATM    9  C8  UNL     1       3.528  -1.346  23.542  1.00  0.00     0.014 C 
BRANCH   9  10
HETATM   10  C9  UNL     1       4.574  -1.591  24.588  1.00  0.00     0.050 C 
BRANCH  10  11
HETATM   11  C10 UNL     1       4.694  -3.071  24.938  1.00  0.00     0.148 C 
HETATM   12  C12 UNL     1       4.330  -3.932  23.738  1.00  0.00     0.049 C 
HETATM   13  C13 UNL     1       4.592  -5.375  24.198  1.00  0.00     0.006 C 
HETATM   14  C14 UNL     1       3.780  -5.682  25.430  1.00  0.00     0.026 C 
HETATM   15  C15 UNL     1       3.887  -4.644  26.494  1.00  0.00     0.169 C 
HETATM   16  O5  UNL     1       3.918  -3.401  25.985  1.00  0.00    -0.369 OA
BRANCH  11  17
HETATM   17  C11 UNL     1       6.123  -3.301  25.200  1.00  0.00     0.209 C 
HETATM   18  O3  UNL     1       6.917  -3.335  24.235  1.00  0.00    -0.646 OA
HETATM   19  O4  UNL     1       6.609  -3.477  26.468  1.00  0.00    -0.646 OA
ENDBRANCH  11  17
ENDBRANCH  10  11
ENDBRANCH   9  10
ENDBRANCH   7   9
BRANCH   6  20
HETATM   20  O2  UNL     1       1.254   0.221  24.107  1.00  0.00    -0.393 OA
ATOM     21  H2  UNL     1       0.578  -0.177  23.572  1.00  0.00     0.210 HD
ENDBRANCH   6  20
BRANCH   8  22
HETATM   22  O6  UNL     1       3.909   1.598  21.378  1.00  0.00    -0.388 OA
ATOM     23  H6  UNL     1       4.225   2.025  22.165  1.00  0.00     0.210 HD
ENDBRANCH   8  22
BRANCH   5  24
HETATM   24  O1  UNL     1       0.189   0.961  22.055  1.00  0.00    -0.392 OA
ATOM     25  H1  UNL     1      -0.139   0.336  21.419  1.00  0.00     0.210 HD
ENDBRANCH   5  24
TORSDOF 7
ENDMDL
MODEL 3
REMARK VINA RESULT: -6.208764259      3.023      5.142
REMARK  7 active torsions:
REMARK  status: ('A' for Active; 'I' for Inactive)
REMARK    1  A    between atoms: C5_5  and  O1_6 
REMARK    2  A    between atoms: C6_8  and  O2_9 
REMARK    3  A    between atoms: C7_11  and  C8_12 
REMARK    4  A    between atoms: C8_12  and  C9_13 
REMARK    5  A    between atoms: C9_13  and  C10_14 
REMARK    6  A    between atoms: C10_14  and  C11_15 
REMARK    7  A    between atoms: C16_23  and  O6_24 
ROOT
HETATM    1  C1  UNL     1       4.341  -0.910  23.151  1.00  0.00     0.018 C 
HETATM    2  C2  UNL     1       4.113  -2.138  22.286  1.00  0.00    -0.007 A 
HETATM    3  C3  UNL     1       2.923  -1.918  21.342  1.00  0.00     0.018 C 
HETATM    4  C4  UNL     1       5.212  -2.808  21.721  1.00  0.00     0.063 A 
HETATM    5  C5  UNL     1       5.414  -4.149  21.097  1.00  0.00     0.155 C 
HETATM    6  C6  UNL     1       6.046  -4.830  22.353  1.00  0.00     0.154 C 
HETATM    7  C7  UNL     1       5.429  -4.113  23.519  1.00  0.00     0.053 C 
HETATM    8  C16 UNL     1       4.326  -3.400  22.876  1.00  0.00     0.078 A 
ENDROOT
BRANCH   7   9
HETATM    9  C8  UNL     1       6.317  -3.363  24.420  1.00  0.00     0.014 C 
BRANCH   9  10
HETATM   10  C9  UNL     1       5.799  -3.091  25.801  1.00  0.00     0.050 C 
BRANCH  10  11
HETATM   11  C10 UNL     1       6.078  -4.251  26.752  1.00  0.00     0.148 C 
HETATM   12  C12 UNL     1       6.697  -3.742  28.045  1.00  0.00     0.049 C 
HETATM   13  C13 UNL     1       6.826  -4.989  28.935  1.00  0.00     0.006 C 
HETATM   14  C14 UNL     1       7.655  -6.038  28.240  1.00  0.00     0.026 C 
HETATM   15  C15 UNL     1       7.238  -6.299  26.834  1.00  0.00     0.169 C 
HETATM   16  O5  UNL     1       6.884  -5.172  26.195  1.00  0.00    -0.369 OA
BRANCH  11  17
HETATM   17  C11 UNL     1       4.758  -4.797  27.107  1.00  0.00     0.209 C 
HETATM   18  O3  UNL     1       3.917  -4.045  27.645  1.00  0.00    -0.646 OA
HETATM   19  O4  UNL     1       4.424  -6.102  26.864  1.00  0.00    -0.646 OA
ENDBRANCH  11  17
ENDBRANCH  10  11
ENDBRANCH   9  10
ENDBRANCH   7   9
BRANCH   6  20
HETATM   20  O2  UNL     1       7.402  -4.801  22.252  1.00  0.00    -0.393 OA
ATOM     21  H2  UNL     1       7.787  -5.165  23.040  1.00  0.00     0.210 HD
ENDBRANCH   6  20
BRANCH   8  22
HETATM   22  O6  UNL     1       3.380  -4.385  22.464  1.00  0.00    -0.388 OA
ATOM     23  H6  UNL     1       2.595  -4.401  22.998  1.00  0.00     0.210 HD
ENDBRANCH   8  22
BRANCH   5  24
HETATM   24  O1  UNL     1       6.425  -4.061  20.156  1.00  0.00    -0.392 OA
ATOM     25  H1  UNL     1       6.429  -3.185  19.788  1.00  0.00     0.210 HD
ENDBRANCH   5  24
TORSDOF 7
ENDMDL
MODEL 4
REMARK VINA RESULT: -6.126825533      1.240      1.939
REMARK  7 active torsions:
REMARK  status: ('A' for Active; 'I' for Inactive)
REMARK    1  A    between atoms: C5_5  and  O1_6 
REMARK    2  A    between atoms: C6_8  and  O2_9 
REMARK    3  A    between atoms: C7_11  and  C8_12 
REMARK    4  A    between atoms: C8_12  and  C9_13 
REMARK    5  A    between atoms: C9_13  and  C10_14 
REMARK    6  A    between atoms: C10_14  and  C11_15 
REMARK    7  A    between atoms: C16_23  and  O6_24 
ROOT
HETATM    1  C1  UNL     1       3.072  -1.084  19.318  1.00  0.00     0.018 C 
HETATM    2  C2  UNL     1       2.765  -0.108  20.441  1.00  0.00    -0.007 A 
HETATM    3  C3  UNL     1       2.176   1.193  19.876  1.00  0.00     0.018 C 
HETATM    4  C4  UNL     1       2.169  -0.572  21.625  1.00  0.00     0.063 A 
HETATM    5  C5  UNL     1       1.995  -0.014  23.000  1.00  0.00     0.155 C 
HETATM    6  C6  UNL     1       3.174  -0.802  23.656  1.00  0.00     0.154 C 
HETATM    7  C7  UNL     1       4.159  -1.000  22.541  1.00  0.00     0.053 C 
HETATM    8  C16 UNL     1       3.654  -0.069  21.533  1.00  0.00     0.078 A 
ENDROOT
BRANCH   7   9
HETATM    9  C8  UNL     1       4.473  -2.376  22.128  1.00  0.00     0.014 C 
BRANCH   9  10
HETATM   10  C9  UNL     1       5.787  -2.933  22.587  1.00  0.00     0.050 C 
BRANCH  10  11
HETATM   11  C10 UNL     1       5.618  -3.899  23.756  1.00  0.00     0.148 C 
HETATM   12  C12 UNL     1       6.656  -5.009  23.683  1.00  0.00     0.049 C 
HETATM   13  C13 UNL     1       6.436  -5.836  24.960  1.00  0.00     0.006 C 
HETATM   14  C14 UNL     1       5.016  -6.339  25.013  1.00  0.00     0.026 C 
HETATM   15  C15 UNL     1       3.996  -5.286  24.752  1.00  0.00     0.169 C 
HETATM   16  O5  UNL     1       4.385  -4.433  23.790  1.00  0.00    -0.369 OA
BRANCH  11  17
HETATM   17  C11 UNL     1       5.927  -3.117  24.963  1.00  0.00     0.209 C 
HETATM   18  O3  UNL     1       7.094  -2.704  25.135  1.00  0.00    -0.646 OA
HETATM   19  O4  UNL     1       4.975  -2.827  25.903  1.00  0.00    -0.646 OA
ENDBRANCH  11  17
ENDBRANCH  10  11
ENDBRANCH   9  10
ENDBRANCH   7   9
BRANCH   6  20
HETATM   20  O2  UNL     1       2.691  -1.918  24.265  1.00  0.00    -0.393 OA
ATOM     21  H2  UNL     1       3.355  -2.597  24.253  1.00  0.00     0.210 HD
ENDBRANCH   6  20
BRANCH   8  22
HETATM   22  O6  UNL     1       3.876   1.248  22.036  1.00  0.00    -0.388 OA
ATOM     23  H6  UNL     1       4.747   1.373  22.393  1.00  0.00     0.210 HD
ENDBRANCH   8  22
BRANCH   5  24
HETATM   24  O1  UNL     1       0.834  -0.527  23.551  1.00  0.00    -0.392 OA
ATOM     25  H1  UNL     1       0.231   0.187  23.721  1.00  0.00     0.210 HD
ENDBRANCH   5  24
TORSDOF 7
ENDMDL
MODEL 5
REMARK VINA RESULT: -6.075407824      1.826      6.293
REMARK  7 active torsions:
REMARK  status: ('A' for Active; 'I' for Inactive)
REMARK    1  A    between atoms: C5_5  and  O1_6 
REMARK    2  A    between atoms: C6_8  and  O2_9 
REMARK    3  A    between atoms: C7_11  and  C8_12 
REMARK    4  A    between atoms: C8_12  and  C9_13 
REMARK    5  A    between atoms: C9_13  and  C10_14 
REMARK    6  A    between atoms: C10_14  and  C11_15 
REMARK    7  A    between atoms: C16_23  and  O6_24 
ROOT
HETATM    1  C1  UNL     1       3.876  -2.311  24.416  1.00  0.00     0.018 C 
HETATM    2  C2  UNL     1       5.137  -3.093  24.092  1.00  0.00    -0.007 A 
HETATM    3  C3  UNL     1       6.079  -3.122  25.304  1.00  0.00     0.018 C 
HETATM    4  C4  UNL     1       5.046  -4.297  23.373  1.00  0.00     0.063 A 
HETATM    5  C5  UNL     1       6.022  -5.156  22.638  1.00  0.00     0.155 C 
HETATM    6  C6  UNL     1       5.660  -4.641  21.207  1.00  0.00     0.154 C 
HETATM    7  C7  UNL     1       5.207  -3.226  21.422  1.00  0.00     0.053 C 
HETATM    8  C16 UNL     1       5.661  -2.975  22.789  1.00  0.00     0.078 A 
ENDROOT
BRANCH   7   9
HETATM    9  C8  UNL     1       3.822  -2.880  21.069  1.00  0.00     0.014 C 
BRANCH   9  10
HETATM   10  C9  UNL     1       3.633  -1.698  20.166  1.00  0.00     0.050 C 
BRANCH  10  11
HETATM   11  C10 UNL     1       2.995  -0.520  20.897  1.00  0.00     0.148 C 
HETATM   12  C12 UNL     1       4.042   0.238  21.699  1.00  0.00     0.049 C 
HETATM   13  C13 UNL     1       3.288   1.440  22.291  1.00  0.00     0.006 C 
HETATM   14  C14 UNL     1       2.121   0.963  23.118  1.00  0.00     0.026 C 
HETATM   15  C15 UNL     1       1.270  -0.047  22.430  1.00  0.00     0.169 C 
HETATM   16  O5  UNL     1       2.000  -0.916  21.710  1.00  0.00    -0.369 OA
BRANCH  11  17
HETATM   17  C11 UNL     1       2.532   0.396  19.843  1.00  0.00     0.209 C 
HETATM   18  O3  UNL     1       3.377   1.055  19.200  1.00  0.00    -0.646 OA
HETATM   19  O4  UNL     1       1.204   0.546  19.545  1.00  0.00    -0.646 OA
ENDBRANCH  11  17
ENDBRANCH  10  11
ENDBRANCH   9  10
ENDBRANCH   7   9
BRANCH   6  20
HETATM   20  O2  UNL     1       4.776  -5.496  20.627  1.00  0.00    -0.393 OA
ATOM     21  H2  UNL     1       4.982  -5.586  19.704  1.00  0.00     0.210 HD
ENDBRANCH   6  20
BRANCH   8  22
HETATM   22  O6  UNL     1       7.087  -2.939  22.753  1.00  0.00    -0.388 OA
ATOM     23  H6  UNL     1       7.462  -3.490  22.076  1.00  0.00     0.210 HD
ENDBRANCH   8  22
BRANCH   5  24
HETATM   24  O1  UNL     1       5.596  -6.471  22.693  1.00  0.00    -0.392 OA
ATOM     25  H1  UNL     1       6.296  -7.036  22.386  1.00  0.00     0.210 HD
ENDBRANCH   5  24
TORSDOF 7
ENDMDL
