MODEL 1
REMARK VINA RESULT: -6.160594435      0.000      0.000
REMARK  8 active torsions:
REMARK  status: ('A' for Active; 'I' for Inactive)
REMARK    1  A    between atoms: C2_2  and  C3_3 
REMARK    2  A    between atoms: C3_3  and  C4_4 
REMARK    3  A    between atoms: C5_5  and  O1_6 
REMARK    4  A    between atoms: C6_8  and  O2_9 
REMARK    5  A    between atoms: C8_12  and  O3_14 
REMARK    6  A    between atoms: C12_17  and  N1_18 
REMARK    7  A    between atoms: N1_18  and  C13_21 
REMARK    8  A    between atoms: C15_23  and  O4_24 
ROOT
HETATM    1  C4  UNL     1       4.975  -3.015  23.534  1.00  0.00     0.028 C 
HETATM    2  C5  UNL     1       6.051  -3.697  22.748  1.00  0.00     0.152 C 
HETATM    3  C6  UNL     1       6.234  -5.070  23.320  1.00  0.00     0.155 C 
HETATM    4  C7  UNL     1       5.117  -5.206  24.320  1.00  0.00     0.062 C 
HETATM    5  C8  UNL     1       5.372  -6.186  25.400  1.00  0.00     0.065 C 
HETATM    6  C9  UNL     1       6.231  -7.356  24.948  1.00  0.00     0.046 C 
HETATM    7  C11 UNL     1       6.162  -5.589  26.573  1.00  0.00     0.073 C 
HETATM    8  C12 UNL     1       5.422  -4.400  27.076  1.00  0.00     0.218 C 
HETATM    9  C15 UNL     1       5.514  -3.342  25.963  1.00  0.00     0.158 C 
HETATM   10  C16 UNL     1       4.763  -3.819  24.787  1.00  0.00    -0.001 C 
HETATM   11  C17 UNL     1       3.282  -3.728  25.105  1.00  0.00     0.019 C 
ENDROOT
BRANCH   8  12
HETATM   12  N1  UNL     1       6.069  -3.749  28.196  1.00  0.00    -0.069 N 
ATOM     13  H12 UNL     1       6.662  -2.985  27.873  1.00  0.00     0.277 HD
ATOM     14  H11 UNL     1       5.391  -3.220  28.744  1.00  0.00     0.277 HD
BRANCH  12  15
HETATM   15  C13 UNL     1       6.811  -4.643  29.039  1.00  0.00     0.228 C 
HETATM   16  C14 UNL     1       6.503  -4.364  30.513  1.00  0.00     0.034 C 
ENDBRANCH  12  15
ENDBRANCH   8  12
BRANCH   9  17
HETATM   17  O4  UNL     1       6.877  -3.146  25.771  1.00  0.00    -0.393 OA
ATOM     18  H4  UNL     1       7.014  -3.294  24.843  1.00  0.00     0.210 HD
ENDBRANCH   9  17
BRANCH   5  19
HETATM   19  O3  UNL     1       4.237  -6.734  25.974  1.00  0.00    -0.385 OA
HETATM   20  C10 UNL     1       3.486  -7.553  25.180  1.00  0.00     0.202 C 
ENDBRANCH   5  19
BRANCH   1  21
HETATM   21  C3  UNL     1       5.166  -1.556  23.746  1.00  0.00     0.008 C 
BRANCH  21  22
HETATM   22  C2  UNL     1       4.272  -0.710  22.862  1.00  0.00    -0.004 C 
HETATM   23  C1  UNL     1       3.096  -0.162  23.663  1.00  0.00     0.005 C 
ENDBRANCH  21  22
ENDBRANCH   1  21
BRANCH   3  24
HETATM   24  O2  UNL     1       7.491  -5.187  23.832  1.00  0.00    -0.392 OA
ATOM     25  H2  UNL     1       7.440  -5.438  24.748  1.00  0.00     0.210 HD
ENDBRANCH   3  24
BRANCH   2  26
HETATM   26  O1  UNL     1       7.248  -2.964  22.742  1.00  0.00    -0.393 OA
ATOM     27  H1  UNL     1       8.004  -3.509  22.929  1.00  0.00     0.210 HD
ENDBRANCH   2  26
TORSDOF 8
ENDMDL
MODEL 2
REMARK VINA RESULT: -5.662379074      1.019      1.117
REMARK  8 active torsions:
REMARK  status: ('A' for Active; 'I' for Inactive)
REMARK    1  A    between atoms: C2_2  and  C3_3 
REMARK    2  A    between atoms: C3_3  and  C4_4 
REMARK    3  A    between atoms: C5_5  and  O1_6 
REMARK    4  A    between atoms: C6_8  and  O2_9 
REMARK    5  A    between atoms: C8_12  and  O3_14 
REMARK    6  A    between atoms: C12_17  and  N1_18 
REMARK    7  A    between atoms: N1_18  and  C13_21 
REMARK    8  A    between atoms: C15_23  and  O4_24 
ROOT
HETATM    1  C4  UNL     1       4.584  -3.421  23.251  1.00  0.00     0.028 C 
HETATM    2  C5  UNL     1       5.354  -4.238  22.261  1.00  0.00     0.152 C 
HETATM    3  C6  UNL     1       5.536  -5.607  22.843  1.00  0.00     0.155 C 
HETATM    4  C7  UNL     1       4.698  -5.592  24.094  1.00  0.00     0.062 C 
HETATM    5  C8  UNL     1       5.117  -6.565  25.128  1.00  0.00     0.065 C 
HETATM    6  C9  UNL     1       5.713  -7.834  24.541  1.00  0.00     0.046 C 
HETATM    7  C11 UNL     1       6.233  -6.028  26.036  1.00  0.00     0.073 C 
HETATM    8  C12 UNL     1       5.766  -4.751  26.642  1.00  0.00     0.218 C 
HETATM    9  C15 UNL     1       5.681  -3.740  25.486  1.00  0.00     0.158 C 
HETATM   10  C16 UNL     1       4.614  -4.162  24.559  1.00  0.00    -0.001 C 
HETATM   11  C17 UNL     1       3.278  -3.900  25.228  1.00  0.00     0.019 C 
ENDROOT
BRANCH   8  12
HETATM   12  N1  UNL     1       6.736  -4.146  27.531  1.00  0.00    -0.069 N 
ATOM     13  H12 UNL     1       7.217  -4.860  28.077  1.00  0.00     0.277 HD
ATOM     14  H11 UNL     1       7.525  -3.775  27.001  1.00  0.00     0.277 HD
BRANCH  12  15
HETATM   15  C13 UNL     1       6.186  -3.137  28.390  1.00  0.00     0.228 C 
HETATM   16  C14 UNL     1       6.768  -1.763  28.041  1.00  0.00     0.034 C 
ENDBRANCH  12  15
ENDBRANCH   8  12
BRANCH   9  17
HETATM   17  O4  UNL     1       6.964  -3.701  24.953  1.00  0.00    -0.393 OA
ATOM     18  H4  UNL     1       6.836  -3.554  24.023  1.00  0.00     0.210 HD
ENDBRANCH   9  17
BRANCH   5  19
HETATM   19  O3  UNL     1       4.114  -6.968  25.993  1.00  0.00    -0.385 OA
HETATM   20  C10 UNL     1       3.098  -7.701  25.451  1.00  0.00     0.202 C 
ENDBRANCH   5  19
BRANCH   1  21
HETATM   21  C3  UNL     1       4.967  -1.986  23.330  1.00  0.00     0.008 C 
BRANCH  21  22
HETATM   22  C2  UNL     1       3.987  -1.074  22.621  1.00  0.00    -0.004 C 
HETATM   23  C1  UNL     1       3.223  -0.226  23.632  1.00  0.00     0.005 C 
ENDBRANCH  21  22
ENDBRANCH   1  21
BRANCH   3  24
HETATM   24  O2  UNL     1       6.863  -5.849  23.034  1.00  0.00    -0.392 OA
ATOM     25  H2  UNL     1       7.003  -6.782  23.152  1.00  0.00     0.210 HD
ENDBRANCH   3  24
BRANCH   2  26
HETATM   26  O1  UNL     1       6.578  -3.643  21.920  1.00  0.00    -0.393 OA
ATOM     27  H1  UNL     1       6.503  -3.075  21.161  1.00  0.00     0.210 HD
ENDBRANCH   2  26
TORSDOF 8
ENDMDL
MODEL 3
REMARK VINA RESULT: -5.503480976      2.199      3.835
REMARK  8 active torsions:
REMARK  status: ('A' for Active; 'I' for Inactive)
REMARK    1  A    between atoms: C2_2  and  C3_3 
REMARK    2  A    between atoms: C3_3  and  C4_4 
REMARK    3  A    between atoms: C5_5  and  O1_6 
REMARK    4  A    between atoms: C6_8  and  O2_9 
REMARK    5  A    between atoms: C8_12  and  O3_14 
REMARK    6  A    between atoms: C12_17  and  N1_18 
REMARK    7  A    between atoms: N1_18  and  C13_21 
REMARK    8  A    between atoms: C15_23  and  O4_24 
ROOT
HETATM    1  C4  UNL     1       6.194  -2.983  24.787  1.00  0.00     0.028 C 
HETATM    2  C5  UNL     1       6.452  -2.046  25.926  1.00  0.00     0.152 C 
HETATM    3  C6  UNL     1       6.674  -2.873  27.156  1.00  0.00     0.155 C 
HETATM    4  C7  UNL     1       6.713  -4.290  26.648  1.00  0.00     0.062 C 
HETATM    5  C8  UNL     1       6.361  -5.317  27.655  1.00  0.00     0.065 C 
HETATM    6  C9  UNL     1       6.770  -4.927  29.065  1.00  0.00     0.046 C 
HETATM    7  C11 UNL     1       4.847  -5.547  27.768  1.00  0.00     0.073 C 
HETATM    8  C12 UNL     1       4.327  -5.901  26.419  1.00  0.00     0.218 C 
HETATM    9  C15 UNL     1       4.467  -4.631  25.564  1.00  0.00     0.158 C 
HETATM   10  C16 UNL     1       5.900  -4.333  25.381  1.00  0.00    -0.001 C 
HETATM   11  C17 UNL     1       6.474  -5.355  24.417  1.00  0.00     0.019 C 
ENDROOT
BRANCH   8  12
HETATM   12  N1  UNL     1       2.901  -6.151  26.398  1.00  0.00    -0.069 N 
ATOM     13  H12 UNL     1       2.477  -5.889  27.288  1.00  0.00     0.277 HD
ATOM     14  H11 UNL     1       2.430  -5.488  25.782  1.00  0.00     0.277 HD
BRANCH  12  15
HETATM   15  C13 UNL     1       2.552  -7.499  26.049  1.00  0.00     0.228 C 
HETATM   16  C14 UNL     1       3.534  -8.052  25.012  1.00  0.00     0.034 C 
ENDBRANCH  12  15
ENDBRANCH   8  12
BRANCH   9  17
HETATM   17  O4  UNL     1       3.731  -3.665  26.240  1.00  0.00    -0.393 OA
ATOM     18  H4  UNL     1       3.436  -4.096  27.033  1.00  0.00     0.210 HD
ENDBRANCH   9  17
BRANCH   5  19
HETATM   19  O3  UNL     1       6.898  -6.571  27.424  1.00  0.00    -0.385 OA
HETATM   20  C10 UNL     1       8.148  -6.801  27.922  1.00  0.00     0.202 C 
ENDBRANCH   5  19
BRANCH   1  21
HETATM   21  C3  UNL     1       5.207  -2.508  23.782  1.00  0.00     0.008 C 
BRANCH  21  22
HETATM   22  C2  UNL     1       5.704  -2.646  22.357  1.00  0.00    -0.004 C 
HETATM   23  C1  UNL     1       4.537  -2.898  21.408  1.00  0.00     0.005 C 
ENDBRANCH  21  22
ENDBRANCH   1  21
BRANCH   3  24
HETATM   24  O2  UNL     1       5.695  -2.608  28.066  1.00  0.00    -0.392 OA
ATOM     25  H2  UNL     1       5.086  -1.974  27.703  1.00  0.00     0.210 HD
ENDBRANCH   3  24
BRANCH   2  26
HETATM   26  O1  UNL     1       5.415  -1.116  26.094  1.00  0.00    -0.393 OA
ATOM     27  H1  UNL     1       4.887  -1.020  25.310  1.00  0.00     0.210 HD
ENDBRANCH   2  26
TORSDOF 8
ENDMDL
MODEL 4
REMARK VINA RESULT: -5.421917931      1.806      4.431
REMARK  8 active torsions:
REMARK  status: ('A' for Active; 'I' for Inactive)
REMARK    1  A    between atoms: C2_2  and  C3_3 
REMARK    2  A    between atoms: C3_3  and  C4_4 
REMARK    3  A    between atoms: C5_5  and  O1_6 
REMARK    4  A    between atoms: C6_8  and  O2_9 
REMARK    5  A    between atoms: C8_12  and  O3_14 
REMARK    6  A    between atoms: C12_17  and  N1_18 
REMARK    7  A    between atoms: N1_18  and  C13_21 
REMARK    8  A    between atoms: C15_23  and  O4_24 
ROOT
HETATM    1  C4  UNL     1       3.109  -6.134  25.188  1.00  0.00     0.028 C 
HETATM    2  C5  UNL     1       2.337  -5.013  24.567  1.00  0.00     0.152 C 
HETATM    3  C6  UNL     1       3.324  -4.009  24.053  1.00  0.00     0.155 C 
HETATM    4  C7  UNL     1       4.661  -4.675  24.239  1.00  0.00     0.062 C 
HETATM    5  C8  UNL     1       5.805  -3.742  24.348  1.00  0.00     0.065 C 
HETATM    6  C9  UNL     1       5.614  -2.472  23.536  1.00  0.00     0.046 C 
HETATM    7  C11 UNL     1       6.020  -3.227  25.779  1.00  0.00     0.073 C 
HETATM    8  C12 UNL     1       6.183  -4.402  26.677  1.00  0.00     0.218 C 
HETATM    9  C15 UNL     1       4.813  -5.101  26.714  1.00  0.00     0.158 C 
HETATM   10  C16 UNL     1       4.520  -5.650  25.377  1.00  0.00    -0.001 C 
HETATM   11  C17 UNL     1       5.416  -6.855  25.156  1.00  0.00     0.019 C 
ENDROOT
BRANCH   8  12
HETATM   12  N1  UNL     1       6.401  -4.044  28.063  1.00  0.00    -0.069 N 
ATOM     13  H12 UNL     1       7.092  -3.298  28.136  1.00  0.00     0.277 HD
ATOM     14  H11 UNL     1       5.586  -3.560  28.440  1.00  0.00     0.277 HD
BRANCH  12  15
HETATM   15  C13 UNL     1       6.762  -5.152  28.901  1.00  0.00     0.228 C 
HETATM   16  C14 UNL     1       7.792  -6.039  28.194  1.00  0.00     0.034 C 
ENDBRANCH  12  15
ENDBRANCH   8  12
BRANCH   9  17
HETATM   17  O4  UNL     1       3.932  -4.129  27.174  1.00  0.00    -0.393 OA
ATOM     18  H4  UNL     1       3.083  -4.392  26.837  1.00  0.00     0.210 HD
ENDBRANCH   9  17
BRANCH   5  19
HETATM   19  O3  UNL     1       7.028  -4.268  23.969  1.00  0.00    -0.385 OA
HETATM   20  C10 UNL     1       7.110  -4.771  22.702  1.00  0.00     0.202 C 
ENDBRANCH   5  19
BRANCH   1  21
HETATM   21  C3  UNL     1       2.487  -6.748  26.391  1.00  0.00     0.008 C 
BRANCH  21  22
HETATM   22  C2  UNL     1       2.006  -8.164  26.147  1.00  0.00    -0.004 C 
HETATM   23  C1  UNL     1       0.510  -8.174  25.848  1.00  0.00     0.005 C 
ENDBRANCH  21  22
ENDBRANCH   1  21
BRANCH   3  24
HETATM   24  O2  UNL     1       3.163  -2.830  24.719  1.00  0.00    -0.392 OA
ATOM     25  H2  UNL     1       3.313  -2.967  25.648  1.00  0.00     0.210 HD
ENDBRANCH   3  24
BRANCH   2  26
HETATM   26  O1  UNL     1       1.418  -4.441  25.461  1.00  0.00    -0.393 OA
ATOM     27  H1  UNL     1       0.801  -3.865  25.023  1.00  0.00     0.210 HD
ENDBRANCH   2  26
TORSDOF 8
ENDMDL
MODEL 5
REMARK VINA RESULT: -5.408180878      2.125      3.903
REMARK  8 active torsions:
REMARK  status: ('A' for Active; 'I' for Inactive)
REMARK    1  A    between atoms: C2_2  and  C3_3 
REMARK    2  A    between atoms: C3_3  and  C4_4 
REMARK    3  A    between atoms: C5_5  and  O1_6 
REMARK    4  A    between atoms: C6_8  and  O2_9 
REMARK    5  A    between atoms: C8_12  and  O3_14 
REMARK    6  A    between atoms: C12_17  and  N1_18 
REMARK    7  A    between atoms: N1_18  and  C13_21 
REMARK    8  A    between atoms: C15_23  and  O4_24 
ROOT
HETATM    1  C4  UNL     1       6.157  -3.246  23.148  1.00  0.00     0.028 C 
HETATM    2  C5  UNL     1       6.228  -1.871  23.734  1.00  0.00     0.152 C 
HETATM    3  C6  UNL     1       6.382  -2.015  25.218  1.00  0.00     0.155 C 
HETATM    4  C7  UNL     1       6.576  -3.493  25.429  1.00  0.00     0.062 C 
HETATM    5  C8  UNL     1       6.198  -3.978  26.776  1.00  0.00     0.065 C 
HETATM    6  C9  UNL     1       6.431  -2.945  27.865  1.00  0.00     0.046 C 
HETATM    7  C11 UNL     1       4.701  -4.299  26.895  1.00  0.00     0.073 C 
HETATM    8  C12 UNL     1       4.350  -5.286  25.839  1.00  0.00     0.218 C 
HETATM    9  C15 UNL     1       4.485  -4.540  24.500  1.00  0.00     0.158 C 
HETATM   10  C16 UNL     1       5.903  -4.200  24.283  1.00  0.00    -0.001 C 
HETATM   11  C17 UNL     1       6.646  -5.477  23.939  1.00  0.00     0.019 C 
ENDROOT
BRANCH   8  12
HETATM   12  N1  UNL     1       2.956  -5.676  25.854  1.00  0.00    -0.069 N 
ATOM     13  H12 UNL     1       2.426  -5.090  26.498  1.00  0.00     0.277 HD
ATOM     14  H11 UNL     1       2.503  -5.420  24.976  1.00  0.00     0.277 HD
BRANCH  12  15
HETATM   15  C13 UNL     1       2.744  -7.066  26.144  1.00  0.00     0.228 C 
HETATM   16  C14 UNL     1       3.455  -7.941  25.108  1.00  0.00     0.034 C 
ENDBRANCH  12  15
ENDBRANCH   8  12
BRANCH   9  17
HETATM   17  O4  UNL     1       3.615  -3.461  24.607  1.00  0.00    -0.393 OA
ATOM     18  H4  UNL     1       3.765  -3.114  25.478  1.00  0.00     0.210 HD
ENDBRANCH   9  17
BRANCH   5  19
HETATM   19  O3  UNL     1       6.846  -5.131  27.185  1.00  0.00    -0.385 OA
HETATM   20  C10 UNL     1       7.207  -5.194  28.501  1.00  0.00     0.202 C 
ENDBRANCH   5  19
BRANCH   1  21
HETATM   21  C3  UNL     1       5.247  -3.397  21.982  1.00  0.00     0.008 C 
BRANCH  21  22
HETATM   22  C2  UNL     1       5.972  -3.814  20.719  1.00  0.00    -0.004 C 
HETATM   23  C1  UNL     1       4.971  -4.165  19.623  1.00  0.00     0.005 C 
ENDBRANCH  21  22
ENDBRANCH   1  21
BRANCH   3  24
HETATM   24  O2  UNL     1       5.298  -1.475  25.843  1.00  0.00    -0.392 OA
ATOM     25  H2  UNL     1       4.879  -2.136  26.382  1.00  0.00     0.210 HD
ENDBRANCH   3  24
BRANCH   2  26
HETATM   26  O1  UNL     1       5.114  -1.090  23.391  1.00  0.00    -0.393 OA
ATOM     27  H1  UNL     1       4.886  -0.470  24.075  1.00  0.00     0.210 HD
ENDBRANCH   2  26
TORSDOF 8
ENDMDL
