MODEL 1
REMARK VINA RESULT: -6.867603684      0.000      0.000
REMARK  7 active torsions:
REMARK  status: ('A' for Active; 'I' for Inactive)
REMARK    1  A    between atoms: C2_2  and  C3_3 
REMARK    2  A    between atoms: C4_4  and  O1_5 
REMARK    3  A    between atoms: C5_7  and  O2_8 
REMARK    4  A    between atoms: C6_10  and  O3_11 
REMARK    5  A    between atoms: C7_13  and  O4_14 
REMARK    6  A    between atoms: O4_14  and  C8_15 
REMARK    7  A    between atoms: C12_20  and  O6_21 
ROOT
HETATM    1  C3  UNL     1       6.485  -5.187  25.949  1.00  0.00     0.070 C 
HETATM    2  C4  UNL     1       5.898  -5.677  27.227  1.00  0.00     0.159 C 
HETATM    3  C5  UNL     1       6.545  -4.940  28.381  1.00  0.00     0.178 C 
HETATM    4  C6  UNL     1       6.312  -3.434  28.239  1.00  0.00     0.181 C 
HETATM    5  C7  UNL     1       6.934  -3.015  26.947  1.00  0.00     0.189 C 
HETATM    6  C12 UNL     1       6.330  -3.703  25.742  1.00  0.00     0.160 C 
ENDROOT
BRANCH   5   7
HETATM    7  O4  UNL     1       6.992  -1.617  26.785  1.00  0.00    -0.339 OA
BRANCH   7   8
HETATM    8  C8  UNL     1       7.711  -0.977  25.808  1.00  0.00     0.093 A 
HETATM    9  C9  UNL     1       8.864  -0.262  26.053  1.00  0.00     0.063 A 
HETATM   10  C10 UNL     1       9.291   0.228  24.833  1.00  0.00     0.144 A 
HETATM   11  O5  UNL     1       8.453  -0.163  23.892  1.00  0.00    -0.332 OA
HETATM   12  C11 UNL     1       7.504  -0.882  24.445  1.00  0.00     0.178 A 
ENDBRANCH   7   8
ENDBRANCH   5   7
BRANCH   4  13
HETATM   13  O3  UNL     1       4.955  -3.232  28.307  1.00  0.00    -0.390 OA
ATOM     14  H3  UNL     1       4.721  -3.241  29.228  1.00  0.00     0.210 HD
ENDBRANCH   4  13
BRANCH   6  15
HETATM   15  O6  UNL     1       5.066  -3.283  25.429  1.00  0.00    -0.392 OA
ATOM     16  H6  UNL     1       4.829  -2.424  25.758  1.00  0.00     0.210 HD
ENDBRANCH   6  15
BRANCH   3  17
HETATM   17  O2  UNL     1       5.965  -5.319  29.589  1.00  0.00    -0.390 OA
ATOM     18  H2  UNL     1       6.335  -4.819  30.307  1.00  0.00     0.210 HD
ENDBRANCH   3  17
BRANCH   1  19
HETATM   19  C2  UNL     1       6.062  -5.917  24.741  1.00  0.00    -0.027 C 
HETATM   20  C1  UNL     1       6.688  -5.962  23.587  1.00  0.00     0.007 C 
ENDBRANCH   1  19
BRANCH   2  21
HETATM   21  O1  UNL     1       4.548  -5.552  27.372  1.00  0.00    -0.392 OA
ATOM     22  H1  UNL     1       4.012  -6.254  27.023  1.00  0.00     0.210 HD
ENDBRANCH   2  21
TORSDOF 7
ENDMDL
MODEL 2
REMARK VINA RESULT: -6.385248424      3.256      5.215
REMARK  7 active torsions:
REMARK  status: ('A' for Active; 'I' for Inactive)
REMARK    1  A    between atoms: C2_2  and  C3_3 
REMARK    2  A    between atoms: C4_4  and  O1_5 
REMARK    3  A    between atoms: C5_7  and  O2_8 
REMARK    4  A    between atoms: C6_10  and  O3_11 
REMARK    5  A    between atoms: C7_13  and  O4_14 
REMARK    6  A    between atoms: O4_14  and  C8_15 
REMARK    7  A    between atoms: C12_20  and  O6_21 
ROOT
HETATM    1  C3  UNL     1       4.513  -0.683  21.902  1.00  0.00     0.070 C 
HETATM    2  C4  UNL     1       4.197  -2.033  21.359  1.00  0.00     0.159 C 
HETATM    3  C5  UNL     1       5.356  -2.965  21.647  1.00  0.00     0.178 C 
HETATM    4  C6  UNL     1       5.597  -3.048  23.157  1.00  0.00     0.181 C 
HETATM    5  C7  UNL     1       5.917  -1.667  23.627  1.00  0.00     0.189 C 
HETATM    6  C12 UNL     1       4.798  -0.678  23.381  1.00  0.00     0.160 C 
ENDROOT
BRANCH   5   7
HETATM    7  O4  UNL     1       6.379  -1.625  24.956  1.00  0.00    -0.339 OA
BRANCH   7   8
HETATM    8  C8  UNL     1       7.533  -1.003  25.359  1.00  0.00     0.093 A 
HETATM    9  C9  UNL     1       8.362  -0.305  24.505  1.00  0.00     0.063 A 
HETATM   10  C10 UNL     1       9.408   0.171  25.273  1.00  0.00     0.144 A 
HETATM   11  O5  UNL     1       9.234  -0.209  26.525  1.00  0.00    -0.332 OA
HETATM   12  C11 UNL     1       8.126  -0.908  26.603  1.00  0.00     0.178 A 
ENDBRANCH   7   8
ENDBRANCH   5   7
BRANCH   4  13
HETATM   13  O3  UNL     1       4.462  -3.589  23.713  1.00  0.00    -0.390 OA
ATOM     14  H3  UNL     1       3.750  -2.991  23.522  1.00  0.00     0.210 HD
ENDBRANCH   4  13
BRANCH   6  15
HETATM   15  O6  UNL     1       3.708  -0.850  24.190  1.00  0.00    -0.392 OA
ATOM     16  H6  UNL     1       3.231  -1.661  24.066  1.00  0.00     0.210 HD
ENDBRANCH   6  15
BRANCH   3  17
HETATM   17  O2  UNL     1       5.062  -4.257  21.220  1.00  0.00    -0.390 OA
ATOM     18  H2  UNL     1       5.347  -4.894  21.864  1.00  0.00     0.210 HD
ENDBRANCH   3  17
BRANCH   1  19
HETATM   19  C2  UNL     1       3.543   0.374  21.567  1.00  0.00    -0.027 C 
HETATM   20  C1  UNL     1       3.712   1.671  21.698  1.00  0.00     0.007 C 
ENDBRANCH   1  19
BRANCH   2  21
HETATM   21  O1  UNL     1       3.066  -2.635  21.825  1.00  0.00    -0.392 OA
ATOM     22  H1  UNL     1       3.183  -3.399  22.378  1.00  0.00     0.210 HD
ENDBRANCH   2  21
TORSDOF 7
ENDMDL
MODEL 3
REMARK VINA RESULT: -6.116150832      4.340      5.832
REMARK  7 active torsions:
REMARK  status: ('A' for Active; 'I' for Inactive)
REMARK    1  A    between atoms: C2_2  and  C3_3 
REMARK    2  A    between atoms: C4_4  and  O1_5 
REMARK    3  A    between atoms: C5_7  and  O2_8 
REMARK    4  A    between atoms: C6_10  and  O3_11 
REMARK    5  A    between atoms: C7_13  and  O4_14 
REMARK    6  A    between atoms: O4_14  and  C8_15 
REMARK    7  A    between atoms: C12_20  and  O6_21 
ROOT
HETATM    1  C3  UNL     1       4.541  -3.609  24.428  1.00  0.00     0.070 C 
HETATM    2  C4  UNL     1       5.912  -4.159  24.237  1.00  0.00     0.159 C 
HETATM    3  C5  UNL     1       6.208  -4.244  22.754  1.00  0.00     0.178 C 
HETATM    4  C6  UNL     1       6.106  -2.855  22.120  1.00  0.00     0.181 C 
HETATM    5  C7  UNL     1       4.709  -2.374  22.340  1.00  0.00     0.189 C 
HETATM    6  C12 UNL     1       4.342  -2.253  23.803  1.00  0.00     0.160 C 
ENDROOT
BRANCH   5   7
HETATM    7  O4  UNL     1       4.403  -1.204  21.618  1.00  0.00    -0.339 OA
BRANCH   7   8
HETATM    8  C8  UNL     1       3.683  -1.177  20.451  1.00  0.00     0.093 A 
HETATM    9  C9  UNL     1       3.283  -2.310  19.773  1.00  0.00     0.063 A 
HETATM   10  C10 UNL     1       2.589  -1.879  18.659  1.00  0.00     0.144 A 
HETATM   11  O5  UNL     1       2.561  -0.559  18.649  1.00  0.00    -0.332 OA
HETATM   12  C11 UNL     1       3.205  -0.117  19.705  1.00  0.00     0.178 A 
ENDBRANCH   7   8
ENDBRANCH   5   7
BRANCH   4  13
HETATM   13  O3  UNL     1       7.073  -2.075  22.707  1.00  0.00    -0.390 OA
ATOM     14  H3  UNL     1       6.796  -1.172  22.611  1.00  0.00     0.210 HD
ENDBRANCH   4  13
BRANCH   6  15
HETATM   15  O6  UNL     1       4.949  -1.212  24.450  1.00  0.00    -0.392 OA
ATOM     16  H6  UNL     1       4.392  -0.718  25.040  1.00  0.00     0.210 HD
ENDBRANCH   6  15
BRANCH   3  17
HETATM   17  O2  UNL     1       7.512  -4.683  22.541  1.00  0.00    -0.390 OA
ATOM     18  H2  UNL     1       7.980  -4.751  23.365  1.00  0.00     0.210 HD
ENDBRANCH   3  17
BRANCH   1  19
HETATM   19  C2  UNL     1       4.051  -3.606  25.817  1.00  0.00    -0.027 C 
HETATM   20  C1  UNL     1       3.746  -4.654  26.549  1.00  0.00     0.007 C 
ENDBRANCH   1  19
BRANCH   2  21
HETATM   21  O1  UNL     1       6.937  -3.471  24.817  1.00  0.00    -0.392 OA
ATOM     22  H1  UNL     1       6.729  -2.622  25.189  1.00  0.00     0.210 HD
ENDBRANCH   2  21
TORSDOF 7
ENDMDL
MODEL 4
REMARK VINA RESULT: -6.099697615      2.389      5.302
REMARK  7 active torsions:
REMARK  status: ('A' for Active; 'I' for Inactive)
REMARK    1  A    between atoms: C2_2  and  C3_3 
REMARK    2  A    between atoms: C4_4  and  O1_5 
REMARK    3  A    between atoms: C5_7  and  O2_8 
REMARK    4  A    between atoms: C6_10  and  O3_11 
REMARK    5  A    between atoms: C7_13  and  O4_14 
REMARK    6  A    between atoms: O4_14  and  C8_15 
REMARK    7  A    between atoms: C12_20  and  O6_21 
ROOT
HETATM    1  C3  UNL     1       5.658  -3.620  22.196  1.00  0.00     0.070 C 
HETATM    2  C4  UNL     1       5.772  -2.235  22.730  1.00  0.00     0.159 C 
HETATM    3  C5  UNL     1       5.114  -2.175  24.093  1.00  0.00     0.178 C 
HETATM    4  C6  UNL     1       5.792  -3.163  25.045  1.00  0.00     0.181 C 
HETATM    5  C7  UNL     1       5.629  -4.525  24.454  1.00  0.00     0.189 C 
HETATM    6  C12 UNL     1       6.272  -4.665  23.091  1.00  0.00     0.160 C 
ENDROOT
BRANCH   5   7
HETATM    7  O4  UNL     1       6.009  -5.561  25.329  1.00  0.00    -0.339 OA
BRANCH   7   8
HETATM    8  C8  UNL     1       5.752  -5.574  26.676  1.00  0.00     0.093 A 
HETATM    9  C9  UNL     1       6.729  -5.721  27.638  1.00  0.00     0.063 A 
HETATM   10  C10 UNL     1       6.087  -5.684  28.861  1.00  0.00     0.144 A 
HETATM   11  O5  UNL     1       4.792  -5.522  28.666  1.00  0.00    -0.332 OA
HETATM   12  C11 UNL     1       4.566  -5.453  27.374  1.00  0.00     0.178 A 
ENDBRANCH   7   8
ENDBRANCH   5   7
BRANCH   4  13
HETATM   13  O3  UNL     1       7.097  -2.755  25.181  1.00  0.00    -0.390 OA
ATOM     14  H3  UNL     1       7.509  -2.861  24.331  1.00  0.00     0.210 HD
ENDBRANCH   4  13
BRANCH   6  15
HETATM   15  O6  UNL     1       7.640  -4.688  23.115  1.00  0.00    -0.392 OA
ATOM     16  H6  UNL     1       8.046  -4.142  23.777  1.00  0.00     0.210 HD
ENDBRANCH   6  15
BRANCH   3  17
HETATM   17  O2  UNL     1       5.269  -0.911  24.655  1.00  0.00    -0.390 OA
ATOM     18  H2  UNL     1       5.589  -0.980  25.547  1.00  0.00     0.210 HD
ENDBRANCH   3  17
BRANCH   1  19
HETATM   19  C2  UNL     1       6.122  -3.802  20.810  1.00  0.00    -0.027 C 
HETATM   20  C1  UNL     1       5.374  -3.984  19.745  1.00  0.00     0.007 C 
ENDBRANCH   1  19
BRANCH   2  21
HETATM   21  O1  UNL     1       7.031  -1.729  22.865  1.00  0.00    -0.392 OA
ATOM     22  H1  UNL     1       7.267  -1.386  23.719  1.00  0.00     0.210 HD
ENDBRANCH   2  21
TORSDOF 7
ENDMDL
MODEL 5
REMARK VINA RESULT: -6.092967074      2.589      5.318
REMARK  7 active torsions:
REMARK  status: ('A' for Active; 'I' for Inactive)
REMARK    1  A    between atoms: C2_2  and  C3_3 
REMARK    2  A    between atoms: C4_4  and  O1_5 
REMARK    3  A    between atoms: C5_7  and  O2_8 
REMARK    4  A    between atoms: C6_10  and  O3_11 
REMARK    5  A    between atoms: C7_13  and  O4_14 
REMARK    6  A    between atoms: O4_14  and  C8_15 
REMARK    7  A    between atoms: C12_20  and  O6_21 
ROOT
HETATM    1  C3  UNL     1       5.358  -1.520  22.928  1.00  0.00     0.070 C 
HETATM    2  C4  UNL     1       5.226  -2.794  22.167  1.00  0.00     0.159 C 
HETATM    3  C5  UNL     1       6.267  -3.775  22.664  1.00  0.00     0.178 C 
HETATM    4  C6  UNL     1       6.072  -4.033  24.160  1.00  0.00     0.181 C 
HETATM    5  C7  UNL     1       6.227  -2.721  24.855  1.00  0.00     0.189 C 
HETATM    6  C12 UNL     1       5.211  -1.688  24.417  1.00  0.00     0.160 C 
ENDROOT
BRANCH   5   7
HETATM    7  O4  UNL     1       6.293  -2.838  26.258  1.00  0.00    -0.339 OA
BRANCH   7   8
HETATM    8  C8  UNL     1       6.008  -3.983  26.956  1.00  0.00     0.093 A 
HETATM    9  C9  UNL     1       4.770  -4.257  27.501  1.00  0.00     0.063 A 
HETATM   10  C10 UNL     1       4.875  -5.489  28.119  1.00  0.00     0.144 A 
HETATM   11  O5  UNL     1       6.103  -5.948  27.963  1.00  0.00    -0.332 OA
HETATM   12  C11 UNL     1       6.797  -5.071  27.275  1.00  0.00     0.178 A 
ENDBRANCH   7   8
ENDBRANCH   5   7
BRANCH   4  13
HETATM   13  O3  UNL     1       4.833  -4.610  24.307  1.00  0.00    -0.390 OA
ATOM     14  H3  UNL     1       4.854  -5.106  25.118  1.00  0.00     0.210 HD
ENDBRANCH   4  13
BRANCH   6  15
HETATM   15  O6  UNL     1       3.939  -1.928  24.860  1.00  0.00    -0.392 OA
ATOM     16  H6  UNL     1       3.430  -1.156  25.076  1.00  0.00     0.210 HD
ENDBRANCH   6  15
BRANCH   3  17
HETATM   17  O2  UNL     1       6.124  -5.005  22.027  1.00  0.00    -0.390 OA
ATOM     18  H2  UNL     1       5.266  -5.373  22.203  1.00  0.00     0.210 HD
ENDBRANCH   3  17
BRANCH   1  19
HETATM   19  C2  UNL     1       4.508  -0.414  22.454  1.00  0.00    -0.027 C 
HETATM   20  C1  UNL     1       3.925  -0.312  21.281  1.00  0.00     0.007 C 
ENDBRANCH   1  19
BRANCH   2  21
HETATM   21  O1  UNL     1       4.017  -3.423  22.223  1.00  0.00    -0.392 OA
ATOM     22  H1  UNL     1       3.726  -3.864  21.434  1.00  0.00     0.210 HD
ENDBRANCH   2  21
TORSDOF 7
ENDMDL
