MODEL 1
REMARK VINA RESULT: -7.070866405      0.000      0.000
REMARK  7 active torsions:
REMARK  status: ('A' for Active; 'I' for Inactive)
REMARK    1  A    between atoms: O1_1  and  C1_3 
REMARK    2  A    between atoms: C1_3  and  C2_4 
REMARK    3  A    between atoms: C3_6  and  O3_7 
REMARK    4  A    between atoms: O3_7  and  C4_8 
REMARK    5  A    between atoms: C10_14  and  O4_15 
REMARK    6  A    between atoms: C11_17  and  O5_18 
REMARK    7  A    between atoms: C12_20  and  O6_21 
ROOT
HETATM    1  C2  UNL     1       5.064  -3.766  24.974  1.00  0.00     0.179 C 
HETATM    2  O2  UNL     1       4.398  -3.536  23.781  1.00  0.00    -0.348 OA
HETATM    3  C3  UNL     1       5.256  -3.296  22.720  1.00  0.00     0.292 C 
HETATM    4  C10 UNL     1       6.669  -3.728  23.059  1.00  0.00     0.204 C 
HETATM    5  C11 UNL     1       6.708  -5.110  23.676  1.00  0.00     0.183 C 
HETATM    6  C12 UNL     1       5.867  -5.059  24.929  1.00  0.00     0.180 C 
ENDROOT
BRANCH   3   7
HETATM    7  O3  UNL     1       5.325  -1.946  22.390  1.00  0.00    -0.353 OA
BRANCH   7   8
HETATM    8  C4  UNL     1       4.081  -1.332  22.356  1.00  0.00     0.124 C 
HETATM    9  C5  UNL     1       3.787  -0.675  21.029  1.00  0.00     0.032 C 
HETATM   10  C6  UNL     1       3.893   0.837  21.107  1.00  0.00     0.002 C 
HETATM   11  C7  UNL     1       2.840   1.353  22.059  1.00  0.00     0.000 C 
HETATM   12  C8  UNL     1       2.895   0.630  23.364  1.00  0.00     0.002 C 
HETATM   13  C9  UNL     1       4.117  -0.234  23.413  1.00  0.00     0.032 C 
ENDBRANCH   7   8
ENDBRANCH   3   7
BRANCH   4  14
HETATM   14  O4  UNL     1       7.461  -3.662  21.916  1.00  0.00    -0.388 OA
ATOM     15  H4  UNL     1       8.361  -3.488  22.164  1.00  0.00     0.210 HD
ENDBRANCH   4  14
BRANCH   1  16
HETATM   16  C1  UNL     1       4.025  -3.958  26.055  1.00  0.00     0.198 C 
BRANCH  16  17
HETATM   17  O1  UNL     1       4.468  -3.559  27.303  1.00  0.00    -0.398 OA
ATOM     18  H1  UNL     1       4.707  -4.289  27.862  1.00  0.00     0.209 HD
ENDBRANCH  16  17
ENDBRANCH   1  16
BRANCH   5  19
HETATM   19  O5  UNL     1       6.206  -6.024  22.759  1.00  0.00    -0.390 OA
ATOM     20  H5  UNL     1       6.618  -6.867  22.910  1.00  0.00     0.210 HD
ENDBRANCH   5  19
BRANCH   6  21
HETATM   21  O6  UNL     1       6.741  -5.041  26.019  1.00  0.00    -0.390 OA
ATOM     22  H6  UNL     1       6.224  -5.208  26.797  1.00  0.00     0.210 HD
ENDBRANCH   6  21
TORSDOF 7
ENDMDL
MODEL 2
REMARK VINA RESULT: -6.750318639      2.564      4.586
REMARK  7 active torsions:
REMARK  status: ('A' for Active; 'I' for Inactive)
REMARK    1  A    between atoms: O1_1  and  C1_3 
REMARK    2  A    between atoms: C1_3  and  C2_4 
REMARK    3  A    between atoms: C3_6  and  O3_7 
REMARK    4  A    between atoms: O3_7  and  C4_8 
REMARK    5  A    between atoms: C10_14  and  O4_15 
REMARK    6  A    between atoms: C11_17  and  O5_18 
REMARK    7  A    between atoms: C12_20  and  O6_21 
ROOT
HETATM    1  C2  UNL     1       6.688  -5.806  27.179  1.00  0.00     0.179 C 
HETATM    2  O2  UNL     1       6.994  -4.796  26.282  1.00  0.00    -0.348 OA
HETATM    3  C3  UNL     1       5.874  -4.120  25.825  1.00  0.00     0.292 C 
HETATM    4  C10 UNL     1       4.675  -4.401  26.709  1.00  0.00     0.204 C 
HETATM    5  C11 UNL     1       5.009  -4.265  28.179  1.00  0.00     0.183 C 
HETATM    6  C12 UNL     1       6.114  -5.250  28.476  1.00  0.00     0.180 C 
ENDROOT
BRANCH   3   7
HETATM    7  O3  UNL     1       5.512  -4.504  24.537  1.00  0.00    -0.353 OA
BRANCH   7   8
HETATM    8  C4  UNL     1       5.968  -3.627  23.563  1.00  0.00     0.124 C 
HETATM    9  C5  UNL     1       4.848  -2.933  22.827  1.00  0.00     0.032 C 
HETATM   10  C6  UNL     1       4.658  -3.487  21.426  1.00  0.00     0.002 C 
HETATM   11  C7  UNL     1       5.906  -3.213  20.619  1.00  0.00     0.000 C 
HETATM   12  C8  UNL     1       7.126  -3.680  21.343  1.00  0.00     0.002 C 
HETATM   13  C9  UNL     1       6.729  -4.474  22.547  1.00  0.00     0.032 C 
ENDBRANCH   7   8
ENDBRANCH   3   7
BRANCH   4  14
HETATM   14  O4  UNL     1       3.626  -3.560  26.348  1.00  0.00    -0.388 OA
ATOM     15  H4  UNL     1       2.802  -3.952  26.612  1.00  0.00     0.210 HD
ENDBRANCH   4  14
BRANCH   1  16
HETATM   16  C1  UNL     1       7.978  -6.497  27.557  1.00  0.00     0.198 C 
BRANCH  16  17
HETATM   17  O1  UNL     1       8.918  -5.631  28.084  1.00  0.00    -0.398 OA
ATOM     18  H1  UNL     1       9.386  -5.141  27.418  1.00  0.00     0.209 HD
ENDBRANCH  16  17
ENDBRANCH   1  16
BRANCH   5  19
HETATM   19  O5  UNL     1       5.408  -2.958  28.428  1.00  0.00    -0.390 OA
ATOM     20  H5  UNL     1       6.345  -2.948  28.583  1.00  0.00     0.210 HD
ENDBRANCH   5  19
BRANCH   6  21
HETATM   21  O6  UNL     1       5.544  -6.321  29.168  1.00  0.00    -0.390 OA
ATOM     22  H6  UNL     1       6.251  -6.904  29.416  1.00  0.00     0.210 HD
ENDBRANCH   6  21
TORSDOF 7
ENDMDL
MODEL 3
REMARK VINA RESULT: -6.561534470      1.443      1.853
REMARK  7 active torsions:
REMARK  status: ('A' for Active; 'I' for Inactive)
REMARK    1  A    between atoms: O1_1  and  C1_3 
REMARK    2  A    between atoms: C1_3  and  C2_4 
REMARK    3  A    between atoms: C3_6  and  O3_7 
REMARK    4  A    between atoms: O3_7  and  C4_8 
REMARK    5  A    between atoms: C10_14  and  O4_15 
REMARK    6  A    between atoms: C11_17  and  O5_18 
REMARK    7  A    between atoms: C12_20  and  O6_21 
ROOT
HETATM    1  C2  UNL     1       6.257  -4.378  26.441  1.00  0.00     0.179 C 
HETATM    2  O2  UNL     1       5.205  -3.937  25.655  1.00  0.00    -0.348 OA
HETATM    3  C3  UNL     1       5.459  -4.048  24.298  1.00  0.00     0.292 C 
HETATM    4  C10 UNL     1       6.637  -4.967  24.042  1.00  0.00     0.204 C 
HETATM    5  C11 UNL     1       6.534  -6.256  24.830  1.00  0.00     0.183 C 
HETATM    6  C12 UNL     1       6.480  -5.878  26.292  1.00  0.00     0.180 C 
ENDROOT
BRANCH   3   7
HETATM    7  O3  UNL     1       5.780  -2.825  23.717  1.00  0.00    -0.353 OA
BRANCH   7   8
HETATM    8  C4  UNL     1       4.662  -2.074  23.384  1.00  0.00     0.124 C 
HETATM    9  C5  UNL     1       3.956  -2.585  22.152  1.00  0.00     0.032 C 
HETATM   10  C6  UNL     1       4.203  -1.698  20.945  1.00  0.00     0.002 C 
HETATM   11  C7  UNL     1       3.614  -0.333  21.214  1.00  0.00     0.000 C 
HETATM   12  C8  UNL     1       4.086   0.207  22.524  1.00  0.00     0.002 C 
HETATM   13  C9  UNL     1       5.168  -0.669  23.073  1.00  0.00     0.032 C 
ENDBRANCH   7   8
ENDBRANCH   3   7
BRANCH   4  14
HETATM   14  O4  UNL     1       6.742  -5.217  22.676  1.00  0.00    -0.388 OA
ATOM     15  H4  UNL     1       7.632  -5.477  22.470  1.00  0.00     0.210 HD
ENDBRANCH   4  14
BRANCH   1  16
HETATM   16  C1  UNL     1       5.882  -4.155  27.888  1.00  0.00     0.198 C 
BRANCH  16  17
HETATM   17  O1  UNL     1       4.795  -3.313  28.038  1.00  0.00    -0.398 OA
ATOM     18  H1  UNL     1       3.968  -3.737  27.841  1.00  0.00     0.209 HD
ENDBRANCH  16  17
ENDBRANCH   1  16
BRANCH   5  19
HETATM   19  O5  UNL     1       5.389  -6.933  24.434  1.00  0.00    -0.390 OA
ATOM     20  H5  UNL     1       4.636  -6.535  24.856  1.00  0.00     0.210 HD
ENDBRANCH   5  19
BRANCH   6  21
HETATM   21  O6  UNL     1       7.729  -6.168  26.845  1.00  0.00    -0.390 OA
ATOM     22  H6  UNL     1       7.749  -5.784  27.713  1.00  0.00     0.210 HD
ENDBRANCH   6  21
TORSDOF 7
ENDMDL
MODEL 4
REMARK VINA RESULT: -6.499382483      0.977      1.476
REMARK  7 active torsions:
REMARK  status: ('A' for Active; 'I' for Inactive)
REMARK    1  A    between atoms: O1_1  and  C1_3 
REMARK    2  A    between atoms: C1_3  and  C2_4 
REMARK    3  A    between atoms: C3_6  and  O3_7 
REMARK    4  A    between atoms: O3_7  and  C4_8 
REMARK    5  A    between atoms: C10_14  and  O4_15 
REMARK    6  A    between atoms: C11_17  and  O5_18 
REMARK    7  A    between atoms: C12_20  and  O6_21 
ROOT
HETATM    1  C2  UNL     1       5.085  -3.757  24.965  1.00  0.00     0.179 C 
HETATM    2  O2  UNL     1       4.375  -3.702  23.777  1.00  0.00    -0.348 OA
HETATM    3  C3  UNL     1       5.185  -3.503  22.670  1.00  0.00     0.292 C 
HETATM    4  C10 UNL     1       6.636  -3.787  23.006  1.00  0.00     0.204 C 
HETATM    5  C11 UNL     1       6.802  -5.092  23.754  1.00  0.00     0.183 C 
HETATM    6  C12 UNL     1       5.989  -4.982  25.023  1.00  0.00     0.180 C 
ENDROOT
BRANCH   3   7
HETATM    7  O3  UNL     1       5.137  -2.192  22.207  1.00  0.00    -0.353 OA
BRANCH   7   8
HETATM    8  C4  UNL     1       3.859  -1.792  21.845  1.00  0.00     0.124 C 
HETATM    9  C5  UNL     1       3.260  -2.650  20.757  1.00  0.00     0.032 C 
HETATM   10  C6  UNL     1       3.242  -1.937  19.416  1.00  0.00     0.002 C 
HETATM   11  C7  UNL     1       2.345  -0.726  19.519  1.00  0.00     0.000 C 
HETATM   12  C8  UNL     1       2.712   0.115  20.697  1.00  0.00     0.002 C 
HETATM   13  C9  UNL     1       3.994  -0.377  21.292  1.00  0.00     0.032 C 
ENDBRANCH   7   8
ENDBRANCH   3   7
BRANCH   4  14
HETATM   14  O4  UNL     1       7.393  -3.775  21.836  1.00  0.00    -0.388 OA
ATOM     15  H4  UNL     1       7.039  -3.127  21.238  1.00  0.00     0.210 HD
ENDBRANCH   4  14
BRANCH   1  16
HETATM   16  C1  UNL     1       4.092  -3.919  26.092  1.00  0.00     0.198 C 
BRANCH  16  17
HETATM   17  O1  UNL     1       4.597  -3.520  27.316  1.00  0.00    -0.398 OA
ATOM     18  H1  UNL     1       5.461  -3.130  27.251  1.00  0.00     0.209 HD
ENDBRANCH  16  17
ENDBRANCH   1  16
BRANCH   5  19
HETATM   19  O5  UNL     1       6.354  -6.131  22.948  1.00  0.00    -0.390 OA
ATOM     20  H5  UNL     1       6.242  -6.908  23.484  1.00  0.00     0.210 HD
ENDBRANCH   5  19
BRANCH   6  21
HETATM   21  O6  UNL     1       6.885  -4.785  26.076  1.00  0.00    -0.390 OA
ATOM     22  H6  UNL     1       7.759  -4.789  25.706  1.00  0.00     0.210 HD
ENDBRANCH   6  21
TORSDOF 7
ENDMDL
MODEL 5
REMARK VINA RESULT: -6.392564664      1.187      1.970
REMARK  7 active torsions:
REMARK  status: ('A' for Active; 'I' for Inactive)
REMARK    1  A    between atoms: O1_1  and  C1_3 
REMARK    2  A    between atoms: C1_3  and  C2_4 
REMARK    3  A    between atoms: C3_6  and  O3_7 
REMARK    4  A    between atoms: O3_7  and  C4_8 
REMARK    5  A    between atoms: C10_14  and  O4_15 
REMARK    6  A    between atoms: C11_17  and  O5_18 
REMARK    7  A    between atoms: C12_20  and  O6_21 
ROOT
HETATM    1  C2  UNL     1       5.179  -4.085  25.323  1.00  0.00     0.179 C 
HETATM    2  O2  UNL     1       4.481  -3.843  24.151  1.00  0.00    -0.348 OA
HETATM    3  C3  UNL     1       5.309  -3.639  23.059  1.00  0.00     0.292 C 
HETATM    4  C10 UNL     1       6.717  -4.116  23.354  1.00  0.00     0.204 C 
HETATM    5  C11 UNL     1       6.732  -5.493  23.981  1.00  0.00     0.183 C 
HETATM    6  C12 UNL     1       5.937  -5.405  25.262  1.00  0.00     0.180 C 
ENDROOT
BRANCH   3   7
HETATM    7  O3  UNL     1       5.412  -2.295  22.715  1.00  0.00    -0.353 OA
BRANCH   7   8
HETATM    8  C4  UNL     1       4.936  -2.024  21.441  1.00  0.00     0.124 C 
HETATM    9  C5  UNL     1       3.976  -0.860  21.407  1.00  0.00     0.032 C 
HETATM   10  C6  UNL     1       2.538  -1.313  21.224  1.00  0.00     0.002 C 
HETATM   11  C7  UNL     1       2.406  -1.989  19.880  1.00  0.00     0.000 C 
HETATM   12  C8  UNL     1       3.448  -3.045  19.704  1.00  0.00     0.002 C 
HETATM   13  C9  UNL     1       4.168  -3.265  20.997  1.00  0.00     0.032 C 
ENDBRANCH   7   8
ENDBRANCH   3   7
BRANCH   4  14
HETATM   14  O4  UNL     1       7.471  -4.085  22.183  1.00  0.00    -0.388 OA
ATOM     15  H4  UNL     1       8.337  -3.745  22.374  1.00  0.00     0.210 HD
ENDBRANCH   4  14
BRANCH   1  16
HETATM   16  C1  UNL     1       4.173  -4.234  26.440  1.00  0.00     0.198 C 
BRANCH  16  17
HETATM   17  O1  UNL     1       4.602  -3.671  27.629  1.00  0.00    -0.398 OA
ATOM     18  H1  UNL     1       3.899  -3.554  28.258  1.00  0.00     0.209 HD
ENDBRANCH  16  17
ENDBRANCH   1  16
BRANCH   5  19
HETATM   19  O5  UNL     1       6.168  -6.397  23.090  1.00  0.00    -0.390 OA
ATOM     20  H5  UNL     1       6.503  -7.266  23.282  1.00  0.00     0.210 HD
ENDBRANCH   5  19
BRANCH   6  21
HETATM   21  O6  UNL     1       6.848  -5.408  26.320  1.00  0.00    -0.390 OA
ATOM     22  H6  UNL     1       7.191  -6.291  26.394  1.00  0.00     0.210 HD
ENDBRANCH   6  21
TORSDOF 7
ENDMDL
