MODEL 1
REMARK VINA RESULT: -6.973757546      0.000      0.000
REMARK  7 active torsions:
REMARK  status: ('A' for Active; 'I' for Inactive)
REMARK    1  A    between atoms: O1_1  and  C1_3 
REMARK    2  A    between atoms: C1_3  and  C2_4 
REMARK    3  A    between atoms: C3_6  and  O3_7 
REMARK    4  A    between atoms: O3_7  and  C4_8 
REMARK    5  A    between atoms: C7_11  and  O4_12 
REMARK    6  A    between atoms: C11_17  and  O5_18 
REMARK    7  A    between atoms: C12_20  and  O6_21 
ROOT
HETATM    1  C2  UNL     1       7.132  -6.084  27.688  1.00  0.00     0.179 C 
HETATM    2  O2  UNL     1       7.260  -5.677  26.421  1.00  0.00    -0.351 OA
HETATM    3  C3  UNL     1       6.185  -5.183  25.753  1.00  0.00     0.263 C 
HETATM    4  C10 UNL     1       4.858  -5.438  26.467  1.00  0.00     0.095 C 
HETATM    5  C11 UNL     1       4.905  -4.920  27.875  1.00  0.00     0.154 C 
HETATM    6  C12 UNL     1       6.136  -5.429  28.563  1.00  0.00     0.178 C 
ENDROOT
BRANCH   3   7
HETATM    7  O3  UNL     1       6.397  -3.849  25.507  1.00  0.00    -0.352 OA
BRANCH   7   8
HETATM    8  C4  UNL     1       6.268  -3.447  24.214  1.00  0.00     0.147 C 
HETATM    9  C5  UNL     1       4.940  -2.832  23.964  1.00  0.00     0.003 C 
HETATM   10  C6  UNL     1       4.577  -2.645  22.708  1.00  0.00     0.003 C 
HETATM   11  C7  UNL     1       5.400  -3.005  21.542  1.00  0.00     0.141 C 
HETATM   12  C8  UNL     1       6.548  -3.903  21.809  1.00  0.00     0.038 C 
HETATM   13  C9  UNL     1       6.631  -4.478  23.187  1.00  0.00     0.039 C 
BRANCH  11  14
HETATM   14  O4  UNL     1       4.505  -3.595  20.615  1.00  0.00    -0.392 OA
ATOM     15  H4  UNL     1       4.710  -3.197  19.777  1.00  0.00     0.210 HD
ENDBRANCH  11  14
ENDBRANCH   7   8
ENDBRANCH   3   7
BRANCH   1  16
HETATM   16  C1  UNL     1       8.489  -5.917  28.369  1.00  0.00     0.198 C 
BRANCH  16  17
HETATM   17  O1  UNL     1       9.285  -7.026  28.090  1.00  0.00    -0.398 OA
ATOM     18  H1  UNL     1      10.189  -6.826  28.301  1.00  0.00     0.209 HD
ENDBRANCH  16  17
ENDBRANCH   1  16
BRANCH   5  19
HETATM   19  O5  UNL     1       4.869  -3.524  27.805  1.00  0.00    -0.393 OA
ATOM     20  H5  UNL     1       5.768  -3.218  27.797  1.00  0.00     0.210 HD
ENDBRANCH   5  19
BRANCH   6  21
HETATM   21  O6  UNL     1       6.662  -4.361  29.304  1.00  0.00    -0.390 OA
ATOM     22  H6  UNL     1       6.112  -4.100  30.033  1.00  0.00     0.210 HD
ENDBRANCH   6  21
TORSDOF 7
ENDMDL
MODEL 2
REMARK VINA RESULT: -6.847849766      1.870      5.702
REMARK  7 active torsions:
REMARK  status: ('A' for Active; 'I' for Inactive)
REMARK    1  A    between atoms: O1_1  and  C1_3 
REMARK    2  A    between atoms: C1_3  and  C2_4 
REMARK    3  A    between atoms: C3_6  and  O3_7 
REMARK    4  A    between atoms: O3_7  and  C4_8 
REMARK    5  A    between atoms: C7_11  and  O4_12 
REMARK    6  A    between atoms: C11_17  and  O5_18 
REMARK    7  A    between atoms: C12_20  and  O6_21 
ROOT
HETATM    1  C2  UNL     1       6.585  -3.369  22.729  1.00  0.00     0.179 C 
HETATM    2  O2  UNL     1       6.918  -3.308  24.023  1.00  0.00    -0.351 OA
HETATM    3  C3  UNL     1       6.620  -2.199  24.749  1.00  0.00     0.263 C 
HETATM    4  C10 UNL     1       6.190  -1.010  23.893  1.00  0.00     0.095 C 
HETATM    5  C11 UNL     1       5.050  -1.389  22.993  1.00  0.00     0.154 C 
HETATM    6  C12 UNL     1       5.383  -2.650  22.255  1.00  0.00     0.178 C 
ENDROOT
BRANCH   3   7
HETATM    7  O3  UNL     1       5.677  -2.534  25.690  1.00  0.00    -0.352 OA
BRANCH   7   8
HETATM    8  C4  UNL     1       5.977  -3.590  26.494  1.00  0.00     0.147 C 
HETATM    9  C5  UNL     1       4.789  -4.445  26.737  1.00  0.00     0.003 C 
HETATM   10  C6  UNL     1       4.865  -5.342  27.703  1.00  0.00     0.003 C 
HETATM   11  C7  UNL     1       6.047  -5.548  28.554  1.00  0.00     0.141 C 
HETATM   12  C8  UNL     1       7.072  -4.479  28.513  1.00  0.00     0.038 C 
HETATM   13  C9  UNL     1       6.707  -3.242  27.757  1.00  0.00     0.039 C 
BRANCH  11  14
HETATM   14  O4  UNL     1       5.543  -5.712  29.869  1.00  0.00    -0.392 OA
ATOM     15  H4  UNL     1       5.961  -5.034  30.387  1.00  0.00     0.210 HD
ENDBRANCH  11  14
ENDBRANCH   7   8
ENDBRANCH   3   7
BRANCH   1  16
HETATM   16  C1  UNL     1       6.384  -4.840  22.371  1.00  0.00     0.198 C 
BRANCH  16  17
HETATM   17  O1  UNL     1       5.951  -5.535  23.498  1.00  0.00    -0.398 OA
ATOM     18  H1  UNL     1       5.062  -5.840  23.357  1.00  0.00     0.209 HD
ENDBRANCH  16  17
ENDBRANCH   1  16
BRANCH   5  19
HETATM   19  O5  UNL     1       3.913  -1.522  23.797  1.00  0.00    -0.393 OA
ATOM     20  H5  UNL     1       3.394  -2.230  23.435  1.00  0.00     0.210 HD
ENDBRANCH   5  19
BRANCH   6  21
HETATM   21  O6  UNL     1       4.225  -3.442  22.253  1.00  0.00    -0.390 OA
ATOM     22  H6  UNL     1       4.236  -4.129  22.909  1.00  0.00     0.210 HD
ENDBRANCH   6  21
TORSDOF 7
ENDMDL
MODEL 3
REMARK VINA RESULT: -6.797490488      2.657      4.675
REMARK  7 active torsions:
REMARK  status: ('A' for Active; 'I' for Inactive)
REMARK    1  A    between atoms: O1_1  and  C1_3 
REMARK    2  A    between atoms: C1_3  and  C2_4 
REMARK    3  A    between atoms: C3_6  and  O3_7 
REMARK    4  A    between atoms: O3_7  and  C4_8 
REMARK    5  A    between atoms: C7_11  and  O4_12 
REMARK    6  A    between atoms: C11_17  and  O5_18 
REMARK    7  A    between atoms: C12_20  and  O6_21 
ROOT
HETATM    1  C2  UNL     1       5.299  -3.763  25.165  1.00  0.00     0.179 C 
HETATM    2  O2  UNL     1       4.731  -3.014  24.215  1.00  0.00    -0.351 OA
HETATM    3  C3  UNL     1       5.280  -2.960  22.974  1.00  0.00     0.263 C 
HETATM    4  C10 UNL     1       6.688  -3.550  22.906  1.00  0.00     0.095 C 
HETATM    5  C11 UNL     1       6.701  -4.953  23.442  1.00  0.00     0.154 C 
HETATM    6  C12 UNL     1       6.030  -4.990  24.782  1.00  0.00     0.178 C 
ENDROOT
BRANCH   3   7
HETATM    7  O3  UNL     1       4.419  -3.560  22.087  1.00  0.00    -0.352 OA
BRANCH   7   8
HETATM    8  C4  UNL     1       3.583  -2.731  21.406  1.00  0.00     0.147 C 
HETATM    9  C5  UNL     1       3.160  -3.324  20.113  1.00  0.00     0.003 C 
HETATM   10  C6  UNL     1       2.574  -2.531  19.236  1.00  0.00     0.003 C 
HETATM   11  C7  UNL     1       2.312  -1.100  19.454  1.00  0.00     0.141 C 
HETATM   12  C8  UNL     1       3.030  -0.474  20.589  1.00  0.00     0.038 C 
HETATM   13  C9  UNL     1       4.064  -1.317  21.263  1.00  0.00     0.039 C 
BRANCH  11  14
HETATM   14  O4  UNL     1       2.649  -0.463  18.233  1.00  0.00    -0.392 OA
ATOM     15  H4  UNL     1       2.011   0.234  18.127  1.00  0.00     0.210 HD
ENDBRANCH  11  14
ENDBRANCH   7   8
ENDBRANCH   3   7
BRANCH   1  16
HETATM   16  C1  UNL     1       4.201  -4.194  26.136  1.00  0.00     0.198 C 
BRANCH  16  17
HETATM   17  O1  UNL     1       3.206  -3.219  26.168  1.00  0.00    -0.398 OA
ATOM     18  H1  UNL     1       3.249  -2.699  25.375  1.00  0.00     0.209 HD
ENDBRANCH  16  17
ENDBRANCH   1  16
BRANCH   5  19
HETATM   19  O5  UNL     1       6.061  -5.763  22.499  1.00  0.00    -0.393 OA
ATOM     20  H5  UNL     1       6.199  -6.665  22.763  1.00  0.00     0.210 HD
ENDBRANCH   5  19
BRANCH   6  21
HETATM   21  O6  UNL     1       5.233  -6.145  24.809  1.00  0.00    -0.390 OA
ATOM     22  H6  UNL     1       5.342  -6.661  25.598  1.00  0.00     0.210 HD
ENDBRANCH   6  21
TORSDOF 7
ENDMDL
MODEL 4
REMARK VINA RESULT: -6.751480936      1.524      1.786
REMARK  7 active torsions:
REMARK  status: ('A' for Active; 'I' for Inactive)
REMARK    1  A    between atoms: O1_1  and  C1_3 
REMARK    2  A    between atoms: C1_3  and  C2_4 
REMARK    3  A    between atoms: C3_6  and  O3_7 
REMARK    4  A    between atoms: O3_7  and  C4_8 
REMARK    5  A    between atoms: C7_11  and  O4_12 
REMARK    6  A    between atoms: C11_17  and  O5_18 
REMARK    7  A    between atoms: C12_20  and  O6_21 
ROOT
HETATM    1  C2  UNL     1       6.327  -4.959  27.298  1.00  0.00     0.179 C 
HETATM    2  O2  UNL     1       6.781  -4.675  26.073  1.00  0.00    -0.351 OA
HETATM    3  C3  UNL     1       5.924  -4.643  25.020  1.00  0.00     0.263 C 
HETATM    4  C10 UNL     1       4.555  -5.243  25.334  1.00  0.00     0.095 C 
HETATM    5  C11 UNL     1       3.952  -4.587  26.542  1.00  0.00     0.154 C 
HETATM    6  C12 UNL     1       4.945  -4.580  27.665  1.00  0.00     0.178 C 
ENDROOT
BRANCH   3   7
HETATM    7  O3  UNL     1       5.835  -3.349  24.567  1.00  0.00    -0.352 OA
BRANCH   7   8
HETATM    8  C4  UNL     1       6.014  -3.166  23.230  1.00  0.00     0.147 C 
HETATM    9  C5  UNL     1       4.723  -2.944  22.533  1.00  0.00     0.003 C 
HETATM   10  C6  UNL     1       4.716  -3.020  21.215  1.00  0.00     0.003 C 
HETATM   11  C7  UNL     1       5.902  -3.310  20.393  1.00  0.00     0.141 C 
HETATM   12  C8  UNL     1       7.078  -3.847  21.116  1.00  0.00     0.038 C 
HETATM   13  C9  UNL     1       6.867  -4.198  22.554  1.00  0.00     0.039 C 
BRANCH  11  14
HETATM   14  O4  UNL     1       5.462  -4.223  19.402  1.00  0.00    -0.392 OA
ATOM     15  H4  UNL     1       6.242  -4.686  19.119  1.00  0.00     0.210 HD
ENDBRANCH  11  14
ENDBRANCH   7   8
ENDBRANCH   3   7
BRANCH   1  16
HETATM   16  C1  UNL     1       7.249  -4.277  28.306  1.00  0.00     0.198 C 
BRANCH  16  17
HETATM   17  O1  UNL     1       7.592  -3.010  27.836  1.00  0.00    -0.398 OA
ATOM     18  H1  UNL     1       8.529  -2.883  27.928  1.00  0.00     0.209 HD
ENDBRANCH  16  17
ENDBRANCH   1  16
BRANCH   5  19
HETATM   19  O5  UNL     1       3.561  -3.299  26.163  1.00  0.00    -0.393 OA
ATOM     20  H5  UNL     1       3.720  -3.220  25.230  1.00  0.00     0.210 HD
ENDBRANCH   5  19
BRANCH   6  21
HETATM   21  O6  UNL     1       4.857  -3.322  28.281  1.00  0.00    -0.390 OA
ATOM     22  H6  UNL     1       4.079  -2.836  28.037  1.00  0.00     0.210 HD
ENDBRANCH   6  21
TORSDOF 7
ENDMDL
MODEL 5
REMARK VINA RESULT: -6.733603933      2.657      4.616
REMARK  7 active torsions:
REMARK  status: ('A' for Active; 'I' for Inactive)
REMARK    1  A    between atoms: O1_1  and  C1_3 
REMARK    2  A    between atoms: C1_3  and  C2_4 
REMARK    3  A    between atoms: C3_6  and  O3_7 
REMARK    4  A    between atoms: O3_7  and  C4_8 
REMARK    5  A    between atoms: C7_11  and  O4_12 
REMARK    6  A    between atoms: C11_17  and  O5_18 
REMARK    7  A    between atoms: C12_20  and  O6_21 
ROOT
HETATM    1  C2  UNL     1       5.119  -3.825  25.237  1.00  0.00     0.179 C 
HETATM    2  O2  UNL     1       4.471  -3.111  24.311  1.00  0.00    -0.351 OA
HETATM    3  C3  UNL     1       5.010  -2.953  23.074  1.00  0.00     0.263 C 
HETATM    4  C10 UNL     1       6.474  -3.381  22.991  1.00  0.00     0.095 C 
HETATM    5  C11 UNL     1       6.643  -4.791  23.478  1.00  0.00     0.154 C 
HETATM    6  C12 UNL     1       5.982  -4.950  24.814  1.00  0.00     0.178 C 
ENDROOT
BRANCH   3   7
HETATM    7  O3  UNL     1       4.220  -3.614  22.165  1.00  0.00    -0.352 OA
BRANCH   7   8
HETATM    8  C4  UNL     1       3.949  -2.950  21.008  1.00  0.00     0.147 C 
HETATM    9  C5  UNL     1       3.747  -1.500  21.246  1.00  0.00     0.003 C 
HETATM   10  C6  UNL     1       3.217  -0.786  20.271  1.00  0.00     0.003 C 
HETATM   11  C7  UNL     1       2.815  -1.332  18.965  1.00  0.00     0.141 C 
HETATM   12  C8  UNL     1       2.719  -2.807  18.879  1.00  0.00     0.038 C 
HETATM   13  C9  UNL     1       2.865  -3.555  20.166  1.00  0.00     0.039 C 
BRANCH  11  14
HETATM   14  O4  UNL     1       1.566  -0.728  18.671  1.00  0.00    -0.392 OA
ATOM     15  H4  UNL     1       1.326  -0.247  19.454  1.00  0.00     0.210 HD
ENDBRANCH  11  14
ENDBRANCH   7   8
ENDBRANCH   3   7
BRANCH   1  16
HETATM   16  C1  UNL     1       4.077  -4.408  26.189  1.00  0.00     0.198 C 
BRANCH  16  17
HETATM   17  O1  UNL     1       2.971  -3.561  26.237  1.00  0.00    -0.398 OA
ATOM     18  H1  UNL     1       2.374  -3.861  26.913  1.00  0.00     0.209 HD
ENDBRANCH  16  17
ENDBRANCH   1  16
BRANCH   5  19
HETATM   19  O5  UNL     1       6.097  -5.634  22.506  1.00  0.00    -0.393 OA
ATOM     20  H5  UNL     1       6.354  -5.291  21.658  1.00  0.00     0.210 HD
ENDBRANCH   5  19
BRANCH   6  21
HETATM   21  O6  UNL     1       5.318  -6.185  24.798  1.00  0.00    -0.390 OA
ATOM     22  H6  UNL     1       5.198  -6.538  23.924  1.00  0.00     0.210 HD
ENDBRANCH   6  21
TORSDOF 7
ENDMDL
