MODEL 1
REMARK VINA RESULT: -6.639651198      0.000      0.000
REMARK  7 active torsions:
REMARK  status: ('A' for Active; 'I' for Inactive)
REMARK    1  A    between atoms: O1_1  and  C1_3 
REMARK    2  A    between atoms: C1_3  and  C2_4 
REMARK    3  A    between atoms: C3_6  and  O3_7 
REMARK    4  A    between atoms: O3_7  and  C4_8 
REMARK    5  A    between atoms: C9_13  and  O4_14 
REMARK    6  A    between atoms: C10_16  and  O5_17 
REMARK    7  A    between atoms: C11_19  and  O6_20 
ROOT
HETATM    1  C2  UNL     1       6.892  -5.287  27.239  1.00  0.00     0.179 C 
HETATM    2  O2  UNL     1       6.749  -4.929  25.960  1.00  0.00    -0.348 OA
HETATM    3  C3  UNL     1       5.652  -4.313  25.485  1.00  0.00     0.292 C 
HETATM    4  C9  UNL     1       4.387  -4.518  26.278  1.00  0.00     0.204 C 
HETATM    5  C10 UNL     1       4.634  -4.482  27.770  1.00  0.00     0.183 C 
HETATM    6  C11 UNL     1       5.673  -5.513  28.062  1.00  0.00     0.180 C 
ENDROOT
BRANCH   3   7
HETATM    7  O3  UNL     1       5.363  -4.613  24.169  1.00  0.00    -0.353 OA
BRANCH   7   8
HETATM    8  C4  UNL     1       5.645  -3.645  23.255  1.00  0.00     0.124 C 
HETATM    9  C5  UNL     1       6.389  -4.243  22.083  1.00  0.00     0.032 C 
HETATM   10  C6  UNL     1       5.837  -3.626  20.836  1.00  0.00     0.002 C 
HETATM   11  C7  UNL     1       5.132  -2.381  21.354  1.00  0.00     0.002 C 
HETATM   12  C8  UNL     1       4.499  -2.950  22.627  1.00  0.00     0.032 C 
ENDBRANCH   7   8
ENDBRANCH   3   7
BRANCH   4  13
HETATM   13  O4  UNL     1       3.420  -3.562  26.003  1.00  0.00    -0.388 OA
ATOM     14  H4  UNL     1       2.826  -3.827  25.310  1.00  0.00     0.210 HD
ENDBRANCH   4  13
BRANCH   1  15
HETATM   15  C1  UNL     1       7.781  -6.530  27.425  1.00  0.00     0.198 C 
BRANCH  15  16
HETATM   16  O1  UNL     1       8.880  -6.159  28.197  1.00  0.00    -0.398 OA
ATOM     17  H1  UNL     1       9.127  -6.905  28.731  1.00  0.00     0.209 HD
ENDBRANCH  15  16
ENDBRANCH   1  15
BRANCH   5  18
HETATM   18  O5  UNL     1       4.981  -3.208  28.202  1.00  0.00    -0.390 OA
ATOM     19  H5  UNL     1       5.701  -3.232  28.821  1.00  0.00     0.210 HD
ENDBRANCH   5  18
BRANCH   6  20
HETATM   20  O6  UNL     1       5.985  -5.498  29.427  1.00  0.00    -0.390 OA
ATOM     21  H6  UNL     1       5.201  -5.599  29.953  1.00  0.00     0.210 HD
ENDBRANCH   6  20
TORSDOF 7
ENDMDL
MODEL 2
REMARK VINA RESULT: -6.446546242      2.567      4.255
REMARK  7 active torsions:
REMARK  status: ('A' for Active; 'I' for Inactive)
REMARK    1  A    between atoms: O1_1  and  C1_3 
REMARK    2  A    between atoms: C1_3  and  C2_4 
REMARK    3  A    between atoms: C3_6  and  O3_7 
REMARK    4  A    between atoms: O3_7  and  C4_8 
REMARK    5  A    between atoms: C9_13  and  O4_14 
REMARK    6  A    between atoms: C10_16  and  O5_17 
REMARK    7  A    between atoms: C11_19  and  O6_20 
ROOT
HETATM    1  C2  UNL     1       4.628  -3.693  25.351  1.00  0.00     0.179 C 
HETATM    2  O2  UNL     1       3.945  -2.725  24.733  1.00  0.00    -0.348 OA
HETATM    3  C3  UNL     1       4.534  -1.732  24.044  1.00  0.00     0.292 C 
HETATM    4  C9  UNL     1       5.958  -1.420  24.427  1.00  0.00     0.204 C 
HETATM    5  C10 UNL     1       6.763  -2.670  24.703  1.00  0.00     0.183 C 
HETATM    6  C11 UNL     1       6.034  -3.431  25.760  1.00  0.00     0.180 C 
ENDROOT
BRANCH   3   7
HETATM    7  O3  UNL     1       3.834  -0.541  24.064  1.00  0.00    -0.353 OA
BRANCH   7   8
HETATM    8  C4  UNL     1       3.266  -0.157  22.889  1.00  0.00     0.124 C 
HETATM    9  C5  UNL     1       3.632   1.277  22.583  1.00  0.00     0.032 C 
HETATM   10  C6  UNL     1       3.934   1.363  21.120  1.00  0.00     0.002 C 
HETATM   11  C7  UNL     1       3.294   0.099  20.563  1.00  0.00     0.002 C 
HETATM   12  C8  UNL     1       3.670  -0.892  21.668  1.00  0.00     0.032 C 
ENDBRANCH   7   8
ENDBRANCH   3   7
BRANCH   4  13
HETATM   13  O4  UNL     1       6.634  -0.709  23.446  1.00  0.00    -0.388 OA
ATOM     14  H4  UNL     1       6.331   0.188  23.367  1.00  0.00     0.210 HD
ENDBRANCH   4  13
BRANCH   1  15
HETATM   15  C1  UNL     1       3.906  -4.245  26.594  1.00  0.00     0.198 C 
BRANCH  15  16
HETATM   16  O1  UNL     1       4.497  -3.675  27.720  1.00  0.00    -0.398 OA
ATOM     17  H1  UNL     1       4.247  -4.194  28.476  1.00  0.00     0.209 HD
ENDBRANCH  15  16
ENDBRANCH   1  15
BRANCH   5  18
HETATM   18  O5  UNL     1       6.984  -3.404  23.544  1.00  0.00    -0.390 OA
ATOM     19  H5  UNL     1       7.736  -3.079  23.062  1.00  0.00     0.210 HD
ENDBRANCH   5  18
BRANCH   6  20
HETATM   20  O6  UNL     1       6.704  -4.630  26.029  1.00  0.00    -0.390 OA
ATOM     21  H6  UNL     1       6.782  -5.157  25.242  1.00  0.00     0.210 HD
ENDBRANCH   6  20
TORSDOF 7
ENDMDL
MODEL 3
REMARK VINA RESULT: -6.369540274      1.740      2.448
REMARK  7 active torsions:
REMARK  status: ('A' for Active; 'I' for Inactive)
REMARK    1  A    between atoms: O1_1  and  C1_3 
REMARK    2  A    between atoms: C1_3  and  C2_4 
REMARK    3  A    between atoms: C3_6  and  O3_7 
REMARK    4  A    between atoms: O3_7  and  C4_8 
REMARK    5  A    between atoms: C9_13  and  O4_14 
REMARK    6  A    between atoms: C10_16  and  O5_17 
REMARK    7  A    between atoms: C11_19  and  O6_20 
ROOT
HETATM    1  C2  UNL     1       5.947  -3.919  27.141  1.00  0.00     0.179 C 
HETATM    2  O2  UNL     1       6.156  -3.096  26.109  1.00  0.00    -0.348 OA
HETATM    3  C3  UNL     1       6.086  -3.490  24.825  1.00  0.00     0.292 C 
HETATM    4  C9  UNL     1       6.303  -4.960  24.576  1.00  0.00     0.204 C 
HETATM    5  C10 UNL     1       5.637  -5.824  25.624  1.00  0.00     0.183 C 
HETATM    6  C11 UNL     1       6.159  -5.379  26.949  1.00  0.00     0.180 C 
ENDROOT
BRANCH   3   7
HETATM    7  O3  UNL     1       6.931  -2.801  23.978  1.00  0.00    -0.353 OA
BRANCH   7   8
HETATM    8  C4  UNL     1       6.358  -1.833  23.213  1.00  0.00     0.124 C 
HETATM    9  C5  UNL     1       5.780  -2.441  21.957  1.00  0.00     0.032 C 
HETATM   10  C6  UNL     1       4.456  -1.789  21.707  1.00  0.00     0.002 C 
HETATM   11  C7  UNL     1       4.532  -0.527  22.554  1.00  0.00     0.002 C 
HETATM   12  C8  UNL     1       5.219  -1.090  23.801  1.00  0.00     0.032 C 
ENDBRANCH   7   8
ENDBRANCH   3   7
BRANCH   4  13
HETATM   13  O4  UNL     1       5.821  -5.373  23.342  1.00  0.00    -0.388 OA
ATOM     14  H4  UNL     1       5.638  -6.304  23.311  1.00  0.00     0.210 HD
ENDBRANCH   4  13
BRANCH   1  15
HETATM   15  C1  UNL     1       6.738  -3.524  28.401  1.00  0.00     0.198 C 
BRANCH  15  16
HETATM   16  O1  UNL     1       7.870  -4.332  28.467  1.00  0.00    -0.398 OA
ATOM     17  H1  UNL     1       8.491  -3.919  29.056  1.00  0.00     0.209 HD
ENDBRANCH  15  16
ENDBRANCH   1  15
BRANCH   5  18
HETATM   18  O5  UNL     1       4.251  -5.769  25.527  1.00  0.00    -0.390 OA
ATOM     19  H5  UNL     1       3.913  -6.451  24.959  1.00  0.00     0.210 HD
ENDBRANCH   5  18
BRANCH   6  20
HETATM   20  O6  UNL     1       5.542  -6.109  27.972  1.00  0.00    -0.390 OA
ATOM     21  H6  UNL     1       5.855  -7.005  27.981  1.00  0.00     0.210 HD
ENDBRANCH   6  20
TORSDOF 7
ENDMDL
MODEL 4
REMARK VINA RESULT: -6.361536781      1.733      2.393
REMARK  7 active torsions:
REMARK  status: ('A' for Active; 'I' for Inactive)
REMARK    1  A    between atoms: O1_1  and  C1_3 
REMARK    2  A    between atoms: C1_3  and  C2_4 
REMARK    3  A    between atoms: C3_6  and  O3_7 
REMARK    4  A    between atoms: O3_7  and  C4_8 
REMARK    5  A    between atoms: C9_13  and  O4_14 
REMARK    6  A    between atoms: C10_16  and  O5_17 
REMARK    7  A    between atoms: C11_19  and  O6_20 
ROOT
HETATM    1  C2  UNL     1       6.100  -4.009  26.711  1.00  0.00     0.179 C 
HETATM    2  O2  UNL     1       6.294  -3.320  25.583  1.00  0.00    -0.348 OA
HETATM    3  C3  UNL     1       6.293  -3.887  24.363  1.00  0.00     0.292 C 
HETATM    4  C9  UNL     1       6.610  -5.359  24.322  1.00  0.00     0.204 C 
HETATM    5  C10 UNL     1       5.962  -6.116  25.460  1.00  0.00     0.183 C 
HETATM    6  C11 UNL     1       6.409  -5.464  26.725  1.00  0.00     0.180 C 
ENDROOT
BRANCH   3   7
HETATM    7  O3  UNL     1       7.123  -3.263  23.453  1.00  0.00    -0.353 OA
BRANCH   7   8
HETATM    8  C4  UNL     1       6.517  -2.698  22.374  1.00  0.00     0.124 C 
HETATM    9  C5  UNL     1       6.885  -3.456  21.119  1.00  0.00     0.032 C 
HETATM   10  C6  UNL     1       5.647  -3.578  20.286  1.00  0.00     0.002 C 
HETATM   11  C7  UNL     1       4.738  -2.504  20.866  1.00  0.00     0.002 C 
HETATM   12  C8  UNL     1       5.036  -2.687  22.357  1.00  0.00     0.032 C 
ENDBRANCH   7   8
ENDBRANCH   3   7
BRANCH   4  13
HETATM   13  O4  UNL     1       6.199  -5.964  23.143  1.00  0.00    -0.388 OA
ATOM     14  H4  UNL     1       6.761  -6.684  22.883  1.00  0.00     0.210 HD
ENDBRANCH   4  13
BRANCH   1  15
HETATM   15  C1  UNL     1       6.820  -3.397  27.927  1.00  0.00     0.198 C 
BRANCH  15  16
HETATM   16  O1  UNL     1       7.906  -4.213  28.236  1.00  0.00    -0.398 OA
ATOM     17  H1  UNL     1       7.604  -4.887  28.834  1.00  0.00     0.209 HD
ENDBRANCH  15  16
ENDBRANCH   1  15
BRANCH   5  18
HETATM   18  O5  UNL     1       4.580  -6.167  25.320  1.00  0.00    -0.390 OA
ATOM     19  H5  UNL     1       4.325  -6.309  24.416  1.00  0.00     0.210 HD
ENDBRANCH   5  18
BRANCH   6  20
HETATM   20  O6  UNL     1       5.802  -6.090  27.821  1.00  0.00    -0.390 OA
ATOM     21  H6  UNL     1       4.857  -6.009  27.775  1.00  0.00     0.210 HD
ENDBRANCH   6  20
TORSDOF 7
ENDMDL
MODEL 5
REMARK VINA RESULT: -6.235176411      2.144      3.966
REMARK  7 active torsions:
REMARK  status: ('A' for Active; 'I' for Inactive)
REMARK    1  A    between atoms: O1_1  and  C1_3 
REMARK    2  A    between atoms: C1_3  and  C2_4 
REMARK    3  A    between atoms: C3_6  and  O3_7 
REMARK    4  A    between atoms: O3_7  and  C4_8 
REMARK    5  A    between atoms: C9_13  and  O4_14 
REMARK    6  A    between atoms: C10_16  and  O5_17 
REMARK    7  A    between atoms: C11_19  and  O6_20 
ROOT
HETATM    1  C2  UNL     1       4.736  -4.782  25.512  1.00  0.00     0.179 C 
HETATM    2  O2  UNL     1       4.306  -3.654  24.940  1.00  0.00    -0.348 OA
HETATM    3  C3  UNL     1       4.934  -3.064  23.908  1.00  0.00     0.292 C 
HETATM    4  C9  UNL     1       6.400  -3.382  23.760  1.00  0.00     0.204 C 
HETATM    5  C10 UNL     1       6.699  -4.839  24.038  1.00  0.00     0.183 C 
HETATM    6  C11 UNL     1       6.177  -5.137  25.404  1.00  0.00     0.180 C 
ENDROOT
BRANCH   3   7
HETATM    7  O3  UNL     1       4.810  -1.688  23.886  1.00  0.00    -0.353 OA
BRANCH   7   8
HETATM    8  C4  UNL     1       3.828  -1.186  23.089  1.00  0.00     0.124 C 
HETATM    9  C5  UNL     1       3.381   0.161  23.609  1.00  0.00     0.032 C 
HETATM   10  C6  UNL     1       3.190   1.060  22.427  1.00  0.00     0.002 C 
HETATM   11  C7  UNL     1       3.089   0.081  21.266  1.00  0.00     0.002 C 
HETATM   12  C8  UNL     1       4.173  -0.920  21.673  1.00  0.00     0.032 C 
ENDBRANCH   7   8
ENDBRANCH   3   7
BRANCH   4  13
HETATM   13  O4  UNL     1       6.885  -3.102  22.492  1.00  0.00    -0.388 OA
ATOM     14  H4  UNL     1       7.616  -3.656  22.246  1.00  0.00     0.210 HD
ENDBRANCH   4  13
BRANCH   1  15
HETATM   15  C1  UNL     1       4.371  -4.884  27.004  1.00  0.00     0.198 C 
BRANCH  15  16
HETATM   16  O1  UNL     1       4.623  -3.647  27.592  1.00  0.00    -0.398 OA
ATOM     17  H1  UNL     1       4.957  -3.801  28.467  1.00  0.00     0.209 HD
ENDBRANCH  15  16
ENDBRANCH   1  15
BRANCH   5  18
HETATM   18  O5  UNL     1       6.176  -5.667  23.052  1.00  0.00    -0.390 OA
ATOM     19  H5  UNL     1       6.862  -6.096  22.555  1.00  0.00     0.210 HD
ENDBRANCH   5  18
BRANCH   6  20
HETATM   20  O6  UNL     1       6.380  -6.489  25.705  1.00  0.00    -0.390 OA
ATOM     21  H6  UNL     1       6.349  -7.017  24.917  1.00  0.00     0.210 HD
ENDBRANCH   6  20
TORSDOF 7
ENDMDL
