MODEL 1
REMARK VINA RESULT: -6.927005052      0.000      0.000
REMARK  7 active torsions:
REMARK  status: ('A' for Active; 'I' for Inactive)
REMARK    1  A    between atoms: O1_1  and  C1_3 
REMARK    2  A    between atoms: C1_3  and  C2_4 
REMARK    3  A    between atoms: C3_6  and  N1_7 
REMARK    4  A    between atoms: C4_9  and  C5_10 
REMARK    5  A    between atoms: C10_15  and  O3_16 
REMARK    6  A    between atoms: C11_18  and  O4_19 
REMARK    7  A    between atoms: C12_21  and  O5_22 
ROOT
HETATM    1  C2  UNL     1       4.718  -5.106  25.925  1.00  0.00     0.179 C 
HETATM    2  O2  UNL     1       4.617  -4.501  24.691  1.00  0.00    -0.354 OA
HETATM    3  C3  UNL     1       4.757  -3.127  24.882  1.00  0.00     0.252 C 
HETATM    4  C10 UNL     1       6.243  -2.875  25.022  1.00  0.00     0.198 C 
HETATM    5  C11 UNL     1       6.700  -3.592  26.267  1.00  0.00     0.182 C 
HETATM    6  C12 UNL     1       5.706  -4.515  26.848  1.00  0.00     0.180 C 
ENDROOT
BRANCH   3   7
HETATM    7  N1  UNL     1       4.146  -2.350  23.873  1.00  0.00    -0.374 N 
HETATM    8  C4  UNL     1       3.940  -1.099  24.043  1.00  0.00     0.062 C 
ATOM      9  H1  UNL     1       3.865  -2.793  22.999  1.00  0.00     0.161 HD
BRANCH   8  10
HETATM   10  C5  UNL     1       3.287  -0.373  22.911  1.00  0.00     0.024 C 
HETATM   11  C6  UNL     1       2.784   0.940  23.415  1.00  0.00     0.010 C 
HETATM   12  C7  UNL     1       2.939   1.845  22.212  1.00  0.00     0.001 C 
HETATM   13  C8  UNL     1       4.274   1.426  21.635  1.00  0.00     0.001 C 
HETATM   14  C9  UNL     1       4.373  -0.070  21.889  1.00  0.00     0.010 C 
ENDBRANCH   8  10
ENDBRANCH   3   7
BRANCH   4  15
HETATM   15  O3  UNL     1       6.944  -3.382  23.911  1.00  0.00    -0.389 OA
ATOM     16  H3  UNL     1       7.688  -2.830  23.700  1.00  0.00     0.210 HD
ENDBRANCH   4  15
BRANCH   1  17
HETATM   17  C1  UNL     1       3.295  -5.126  26.504  1.00  0.00     0.198 C 
BRANCH  17  18
HETATM   18  O1  UNL     1       2.657  -6.319  26.258  1.00  0.00    -0.398 OA
ATOM     19  H1  UNL     1       2.017  -6.243  25.560  1.00  0.00     0.209 HD
ENDBRANCH  17  18
ENDBRANCH   1  17
BRANCH   5  20
HETATM   20  O4  UNL     1       6.965  -2.584  27.225  1.00  0.00    -0.390 OA
ATOM     21  H4  UNL     1       6.410  -2.778  27.972  1.00  0.00     0.210 HD
ENDBRANCH   5  20
BRANCH   6  22
HETATM   22  O5  UNL     1       6.409  -5.571  27.475  1.00  0.00    -0.390 OA
ATOM     23  H5  UNL     1       7.050  -5.190  28.064  1.00  0.00     0.210 HD
ENDBRANCH   6  22
TORSDOF 7
ENDMDL
MODEL 2
REMARK VINA RESULT: -6.909680176      2.548      4.227
REMARK  7 active torsions:
REMARK  status: ('A' for Active; 'I' for Inactive)
REMARK    1  A    between atoms: O1_1  and  C1_3 
REMARK    2  A    between atoms: C1_3  and  C2_4 
REMARK    3  A    between atoms: C3_6  and  N1_7 
REMARK    4  A    between atoms: C4_9  and  C5_10 
REMARK    5  A    between atoms: C10_15  and  O3_16 
REMARK    6  A    between atoms: C11_18  and  O4_19 
REMARK    7  A    between atoms: C12_21  and  O5_22 
ROOT
HETATM    1  C2  UNL     1       6.867  -4.959  28.095  1.00  0.00     0.179 C 
HETATM    2  O2  UNL     1       6.716  -4.192  26.960  1.00  0.00    -0.354 OA
HETATM    3  C3  UNL     1       5.882  -4.889  26.087  1.00  0.00     0.252 C 
HETATM    4  C10 UNL     1       4.471  -4.654  26.582  1.00  0.00     0.198 C 
HETATM    5  C11 UNL     1       4.373  -5.272  27.954  1.00  0.00     0.182 C 
HETATM    6  C12 UNL     1       5.663  -5.687  28.538  1.00  0.00     0.180 C 
ENDROOT
BRANCH   3   7
HETATM    7  N1  UNL     1       6.068  -4.545  24.730  1.00  0.00    -0.374 N 
HETATM    8  C4  UNL     1       6.349  -3.344  24.391  1.00  0.00     0.062 C 
ATOM      9  H1  UNL     1       5.977  -5.263  24.012  1.00  0.00     0.161 HD
BRANCH   8  10
HETATM   10  C5  UNL     1       6.525  -3.091  22.928  1.00  0.00     0.024 C 
HETATM   11  C6  UNL     1       6.417  -4.392  22.203  1.00  0.00     0.010 C 
HETATM   12  C7  UNL     1       5.787  -3.993  20.886  1.00  0.00     0.001 C 
HETATM   13  C8  UNL     1       4.746  -2.974  21.296  1.00  0.00     0.001 C 
HETATM   14  C9  UNL     1       5.348  -2.235  22.480  1.00  0.00     0.010 C 
ENDBRANCH   8  10
ENDBRANCH   3   7
BRANCH   4  15
HETATM   15  O3  UNL     1       4.196  -3.276  26.674  1.00  0.00    -0.389 OA
ATOM     16  H3  UNL     1       3.942  -2.926  25.828  1.00  0.00     0.210 HD
ENDBRANCH   4  15
BRANCH   1  17
HETATM   17  C1  UNL     1       8.062  -5.885  27.825  1.00  0.00     0.198 C 
BRANCH  17  18
HETATM   18  O1  UNL     1       9.255  -5.303  28.187  1.00  0.00    -0.398 OA
ATOM     19  H1  UNL     1       9.763  -5.863  28.762  1.00  0.00     0.209 HD
ENDBRANCH  17  18
ENDBRANCH   1  17
BRANCH   5  20
HETATM   20  O4  UNL     1       3.573  -6.431  27.804  1.00  0.00    -0.390 OA
ATOM     21  H4  UNL     1       3.356  -6.716  28.685  1.00  0.00     0.210 HD
ENDBRANCH   5  20
BRANCH   6  22
HETATM   22  O5  UNL     1       5.563  -5.560  29.944  1.00  0.00    -0.390 OA
ATOM     23  H5  UNL     1       4.649  -5.423  30.164  1.00  0.00     0.210 HD
ENDBRANCH   6  22
TORSDOF 7
ENDMDL
MODEL 3
REMARK VINA RESULT: -6.881890647      3.343      4.805
REMARK  7 active torsions:
REMARK  status: ('A' for Active; 'I' for Inactive)
REMARK    1  A    between atoms: O1_1  and  C1_3 
REMARK    2  A    between atoms: C1_3  and  C2_4 
REMARK    3  A    between atoms: C3_6  and  N1_7 
REMARK    4  A    between atoms: C4_9  and  C5_10 
REMARK    5  A    between atoms: C10_15  and  O3_16 
REMARK    6  A    between atoms: C11_18  and  O4_19 
REMARK    7  A    between atoms: C12_21  and  O5_22 
ROOT
HETATM    1  C2  UNL     1       5.898  -3.819  24.596  1.00  0.00     0.179 C 
HETATM    2  O2  UNL     1       7.031  -3.165  25.032  1.00  0.00    -0.354 OA
HETATM    3  C3  UNL     1       6.654  -2.310  26.067  1.00  0.00     0.252 C 
HETATM    4  C10 UNL     1       6.531  -3.180  27.300  1.00  0.00     0.198 C 
HETATM    5  C11 UNL     1       5.416  -4.161  27.043  1.00  0.00     0.182 C 
HETATM    6  C12 UNL     1       4.937  -4.200  25.648  1.00  0.00     0.180 C 
ENDROOT
BRANCH   3   7
HETATM    7  N1  UNL     1       7.522  -1.210  26.236  1.00  0.00    -0.374 N 
HETATM    8  C4  UNL     1       8.114  -0.681  25.234  1.00  0.00     0.062 C 
ATOM      9  H1  UNL     1       7.678  -0.832  27.171  1.00  0.00     0.161 HD
BRANCH   8  10
HETATM   10  C5  UNL     1       9.011   0.478  25.527  1.00  0.00     0.024 C 
HETATM   11  C6  UNL     1      10.116   0.012  26.416  1.00  0.00     0.010 C 
HETATM   12  C7  UNL     1      11.284   0.873  25.982  1.00  0.00     0.001 C 
HETATM   13  C8  UNL     1      11.143   0.910  24.476  1.00  0.00     0.001 C 
HETATM   14  C9  UNL     1       9.647   0.895  24.209  1.00  0.00     0.010 C 
ENDBRANCH   8  10
ENDBRANCH   3   7
BRANCH   4  15
HETATM   15  O3  UNL     1       7.726  -3.887  27.536  1.00  0.00    -0.389 OA
ATOM     16  H3  UNL     1       7.689  -4.345  28.366  1.00  0.00     0.210 HD
ENDBRANCH   4  15
BRANCH   1  17
HETATM   17  C1  UNL     1       5.279  -2.919  23.516  1.00  0.00     0.198 C 
BRANCH  17  18
HETATM   18  O1  UNL     1       4.420  -3.615  22.697  1.00  0.00    -0.398 OA
ATOM     19  H1  UNL     1       4.859  -3.948  21.923  1.00  0.00     0.209 HD
ENDBRANCH  17  18
ENDBRANCH   1  17
BRANCH   5  20
HETATM   20  O4  UNL     1       4.336  -3.749  27.860  1.00  0.00    -0.390 OA
ATOM     21  H4  UNL     1       4.385  -4.278  28.648  1.00  0.00     0.210 HD
ENDBRANCH   5  20
BRANCH   6  22
HETATM   22  O5  UNL     1       4.489  -5.515  25.380  1.00  0.00    -0.390 OA
ATOM     23  H5  UNL     1       3.541  -5.524  25.448  1.00  0.00     0.210 HD
ENDBRANCH   6  22
TORSDOF 7
ENDMDL
MODEL 4
REMARK VINA RESULT: -6.745881895      1.418      2.736
REMARK  7 active torsions:
REMARK  status: ('A' for Active; 'I' for Inactive)
REMARK    1  A    between atoms: O1_1  and  C1_3 
REMARK    2  A    between atoms: C1_3  and  C2_4 
REMARK    3  A    between atoms: C3_6  and  N1_7 
REMARK    4  A    between atoms: C4_9  and  C5_10 
REMARK    5  A    between atoms: C10_15  and  O3_16 
REMARK    6  A    between atoms: C11_18  and  O4_19 
REMARK    7  A    between atoms: C12_21  and  O5_22 
ROOT
HETATM    1  C2  UNL     1       5.823  -4.050  27.931  1.00  0.00     0.179 C 
HETATM    2  O2  UNL     1       4.690  -3.693  27.231  1.00  0.00    -0.354 OA
HETATM    3  C3  UNL     1       5.026  -3.644  25.879  1.00  0.00     0.252 C 
HETATM    4  C10 UNL     1       5.020  -5.079  25.397  1.00  0.00     0.198 C 
HETATM    5  C11 UNL     1       6.109  -5.805  26.147  1.00  0.00     0.182 C 
HETATM    6  C12 UNL     1       6.687  -5.051  27.277  1.00  0.00     0.180 C 
ENDROOT
BRANCH   3   7
HETATM    7  N1  UNL     1       4.196  -2.791  25.120  1.00  0.00    -0.374 N 
HETATM    8  C4  UNL     1       4.563  -2.374  23.967  1.00  0.00     0.062 C 
ATOM      9  H1  UNL     1       3.292  -2.503  25.495  1.00  0.00     0.161 HD
BRANCH   8  10
HETATM   10  C5  UNL     1       3.608  -1.476  23.250  1.00  0.00     0.024 C 
HETATM   11  C6  UNL     1       3.574  -0.159  23.954  1.00  0.00     0.010 C 
HETATM   12  C7  UNL     1       3.336   0.821  22.825  1.00  0.00     0.001 C 
HETATM   13  C8  UNL     1       4.216   0.289  21.716  1.00  0.00     0.001 C 
HETATM   14  C9  UNL     1       4.186  -1.223  21.865  1.00  0.00     0.010 C 
ENDBRANCH   8  10
ENDBRANCH   3   7
BRANCH   4  15
HETATM   15  O3  UNL     1       3.782  -5.694  25.667  1.00  0.00    -0.389 OA
ATOM     16  H3  UNL     1       3.067  -5.083  25.535  1.00  0.00     0.210 HD
ENDBRANCH   4  15
BRANCH   1  17
HETATM   17  C1  UNL     1       6.557  -2.739  28.246  1.00  0.00     0.198 C 
BRANCH  17  18
HETATM   18  O1  UNL     1       7.588  -2.503  27.366  1.00  0.00    -0.398 OA
ATOM     19  H1  UNL     1       7.296  -2.033  26.594  1.00  0.00     0.209 HD
ENDBRANCH  17  18
ENDBRANCH   1  17
BRANCH   5  20
HETATM   20  O4  UNL     1       7.143  -6.038  25.209  1.00  0.00    -0.390 OA
ATOM     21  H4  UNL     1       6.840  -5.668  24.388  1.00  0.00     0.210 HD
ENDBRANCH   5  20
BRANCH   6  22
HETATM   22  O5  UNL     1       7.097  -5.986  28.257  1.00  0.00    -0.390 OA
ATOM     23  H5  UNL     1       7.456  -6.744  27.811  1.00  0.00     0.210 HD
ENDBRANCH   6  22
TORSDOF 7
ENDMDL
MODEL 5
REMARK VINA RESULT: -6.700858245      1.680      2.355
REMARK  7 active torsions:
REMARK  status: ('A' for Active; 'I' for Inactive)
REMARK    1  A    between atoms: O1_1  and  C1_3 
REMARK    2  A    between atoms: C1_3  and  C2_4 
REMARK    3  A    between atoms: C3_6  and  N1_7 
REMARK    4  A    between atoms: C4_9  and  C5_10 
REMARK    5  A    between atoms: C10_15  and  O3_16 
REMARK    6  A    between atoms: C11_18  and  O4_19 
REMARK    7  A    between atoms: C12_21  and  O5_22 
ROOT
HETATM    1  C2  UNL     1       5.149  -4.582  25.527  1.00  0.00     0.179 C 
HETATM    2  O2  UNL     1       4.544  -3.577  24.803  1.00  0.00    -0.354 OA
HETATM    3  C3  UNL     1       5.540  -2.908  24.094  1.00  0.00     0.252 C 
HETATM    4  C10 UNL     1       5.840  -3.768  22.884  1.00  0.00     0.198 C 
HETATM    5  C11 UNL     1       6.394  -5.074  23.394  1.00  0.00     0.182 C 
HETATM    6  C12 UNL     1       6.263  -5.274  24.850  1.00  0.00     0.180 C 
ENDROOT
BRANCH   3   7
HETATM    7  N1  UNL     1       5.206  -1.575  23.770  1.00  0.00    -0.374 N 
HETATM    8  C4  UNL     1       3.986  -1.193  23.744  1.00  0.00     0.062 C 
ATOM      9  H1  UNL     1       5.947  -0.909  23.553  1.00  0.00     0.161 HD
BRANCH   8  10
HETATM   10  C5  UNL     1       3.745   0.239  23.387  1.00  0.00     0.024 C 
HETATM   11  C6  UNL     1       4.667   0.614  22.275  1.00  0.00     0.010 C 
HETATM   12  C7  UNL     1       3.855   1.621  21.488  1.00  0.00     0.001 C 
HETATM   13  C8  UNL     1       2.466   1.023  21.493  1.00  0.00     0.001 C 
HETATM   14  C9  UNL     1       2.328   0.330  22.839  1.00  0.00     0.010 C 
ENDBRANCH   8  10
ENDBRANCH   3   7
BRANCH   4  15
HETATM   15  O3  UNL     1       4.667  -4.017  22.145  1.00  0.00    -0.389 OA
ATOM     16  H3  UNL     1       4.827  -3.914  21.214  1.00  0.00     0.210 HD
ENDBRANCH   4  15
BRANCH   1  17
HETATM   17  C1  UNL     1       5.561  -3.950  26.865  1.00  0.00     0.198 C 
BRANCH  17  18
HETATM   18  O1  UNL     1       4.476  -3.711  27.676  1.00  0.00    -0.398 OA
ATOM     19  H1  UNL     1       3.702  -4.177  27.381  1.00  0.00     0.209 HD
ENDBRANCH  17  18
ENDBRANCH   1  17
BRANCH   5  20
HETATM   20  O4  UNL     1       7.774  -5.062  23.081  1.00  0.00    -0.390 OA
ATOM     21  H4  UNL     1       7.853  -5.468  22.225  1.00  0.00     0.210 HD
ENDBRANCH   5  20
BRANCH   6  22
HETATM   22  O5  UNL     1       6.127  -6.662  25.087  1.00  0.00    -0.390 OA
ATOM     23  H5  UNL     1       6.149  -7.109  24.248  1.00  0.00     0.210 HD
ENDBRANCH   6  22
TORSDOF 7
ENDMDL
