MODEL 1
REMARK VINA RESULT: -6.522765181      0.000      0.000
REMARK  7 active torsions:
REMARK  status: ('A' for Active; 'I' for Inactive)
REMARK    1  A    between atoms: O1_1  and  C1_3 
REMARK    2  A    between atoms: C1_3  and  C2_4 
REMARK    3  A    between atoms: C8_11  and  O3_12 
REMARK    4  A    between atoms: C9_14  and  O4_15 
REMARK    5  A    between atoms: C10_17  and  O5_18 
REMARK    6  A    between atoms: O5_18  and  C11_19 
REMARK    7  A    between atoms: N1_20  and  O6_22 
ROOT
HETATM    1  C2  UNL     1       6.855  -2.198  25.007  1.00  0.00     0.178 C 
HETATM    2  O2  UNL     1       6.276  -1.718  23.918  1.00  0.00    -0.363 OA
HETATM    3  C3  UNL     1       5.002  -1.933  23.598  1.00  0.00     0.107 C 
HETATM    4  C4  UNL     1       4.780  -2.205  22.126  1.00  0.00     0.009 C 
HETATM    5  C5  UNL     1       3.781  -1.463  21.666  1.00  0.00    -0.027 C 
HETATM    6  C6  UNL     1       3.191  -0.599  22.725  1.00  0.00     0.030 C 
HETATM    7  C7  UNL     1       4.251  -0.598  23.774  1.00  0.00     0.049 C 
HETATM    8  C8  UNL     1       4.233  -2.945  24.350  1.00  0.00     0.188 C 
HETATM    9  C9  UNL     1       5.198  -3.954  25.017  1.00  0.00     0.182 C 
HETATM   10  C10 UNL     1       6.031  -3.135  25.892  1.00  0.00     0.192 C 
ENDROOT
BRANCH  10  11
HETATM   11  O5  UNL     1       6.849  -3.655  26.844  1.00  0.00    -0.334 OA
BRANCH  11  12
HETATM   12  C11 UNL     1       6.497  -3.872  28.144  1.00  0.00     0.248 C 
HETATM   13  N1  UNL     1       6.837  -2.953  28.931  1.00  0.00    -0.259 N 
ATOM     14  H1  UNL     1       7.331  -2.159  28.521  1.00  0.00     0.195 HD
BRANCH  13  15
HETATM   15  O6  UNL     1       6.615  -2.906  30.275  1.00  0.00    -0.289 OA
ATOM     16  H6  UNL     1       6.747  -2.160  30.847  1.00  0.00     0.244 HD
ENDBRANCH  13  15
ENDBRANCH  11  12
ENDBRANCH  10  11
BRANCH   1  17
HETATM   17  C1  UNL     1       7.397  -1.029  25.835  1.00  0.00     0.198 C 
BRANCH  17  18
HETATM   18  O1  UNL     1       8.406  -1.411  26.684  1.00  0.00    -0.398 OA
ATOM     19  H1  UNL     1       8.446  -0.872  27.465  1.00  0.00     0.209 HD
ENDBRANCH  17  18
ENDBRANCH   1  17
BRANCH   9  20
HETATM   20  O4  UNL     1       5.833  -4.547  23.936  1.00  0.00    -0.390 OA
ATOM     21  H4  UNL     1       6.702  -4.164  23.958  1.00  0.00     0.210 HD
ENDBRANCH   9  20
BRANCH   8  22
HETATM   22  O3  UNL     1       3.513  -2.387  25.426  1.00  0.00    -0.390 OA
ATOM     23  H3  UNL     1       2.708  -2.858  25.608  1.00  0.00     0.210 HD
ENDBRANCH   8  22
TORSDOF 7
ENDMDL
MODEL 2
REMARK VINA RESULT: -6.422413773      2.217      3.571
REMARK  7 active torsions:
REMARK  status: ('A' for Active; 'I' for Inactive)
REMARK    1  A    between atoms: O1_1  and  C1_3 
REMARK    2  A    between atoms: C1_3  and  C2_4 
REMARK    3  A    between atoms: C8_11  and  O3_12 
REMARK    4  A    between atoms: C9_14  and  O4_15 
REMARK    5  A    between atoms: C10_17  and  O5_18 
REMARK    6  A    between atoms: O5_18  and  C11_19 
REMARK    7  A    between atoms: N1_20  and  O6_22 
ROOT
HETATM    1  C2  UNL     1       5.453  -5.409  25.102  1.00  0.00     0.178 C 
HETATM    2  O2  UNL     1       4.982  -4.453  24.317  1.00  0.00    -0.363 OA
HETATM    3  C3  UNL     1       5.205  -3.155  24.512  1.00  0.00     0.107 C 
HETATM    4  C4  UNL     1       3.993  -2.284  24.263  1.00  0.00     0.009 C 
HETATM    5  C5  UNL     1       4.318  -1.253  23.493  1.00  0.00    -0.027 C 
HETATM    6  C6  UNL     1       5.758  -1.268  23.116  1.00  0.00     0.030 C 
HETATM    7  C7  UNL     1       6.155  -2.677  23.397  1.00  0.00     0.049 C 
HETATM    8  C8  UNL     1       5.806  -2.713  25.787  1.00  0.00     0.188 C 
HETATM    9  C9  UNL     1       5.571  -3.782  26.881  1.00  0.00     0.182 C 
HETATM   10  C10 UNL     1       6.214  -4.983  26.358  1.00  0.00     0.192 C 
ENDROOT
BRANCH  10  11
HETATM   11  O5  UNL     1       6.453  -6.089  27.111  1.00  0.00    -0.334 OA
BRANCH  11  12
HETATM   12  C11 UNL     1       7.424  -6.192  28.063  1.00  0.00     0.248 C 
HETATM   13  N1  UNL     1       8.523  -6.625  27.634  1.00  0.00    -0.259 N 
ATOM     14  H1  UNL     1       8.570  -6.849  26.639  1.00  0.00     0.195 HD
BRANCH  13  15
HETATM   15  O6  UNL     1       9.660  -6.827  28.359  1.00  0.00    -0.289 OA
ATOM     16  H6  UNL     1      10.164  -7.629  28.414  1.00  0.00     0.244 HD
ENDBRANCH  13  15
ENDBRANCH  11  12
ENDBRANCH  10  11
BRANCH   1  17
HETATM   17  C1  UNL     1       6.311  -6.360  24.261  1.00  0.00     0.198 C 
BRANCH  17  18
HETATM   18  O1  UNL     1       5.681  -7.554  24.013  1.00  0.00    -0.398 OA
ATOM     19  H1  UNL     1       6.251  -8.184  23.589  1.00  0.00     0.209 HD
ENDBRANCH  17  18
ENDBRANCH   1  17
BRANCH   9  20
HETATM   20  O4  UNL     1       4.189  -3.820  26.996  1.00  0.00    -0.390 OA
ATOM     21  H4  UNL     1       3.898  -3.873  26.093  1.00  0.00     0.210 HD
ENDBRANCH   9  20
BRANCH   8  22
HETATM   22  O3  UNL     1       7.207  -2.593  25.711  1.00  0.00    -0.390 OA
ATOM     23  H3  UNL     1       7.657  -3.351  26.064  1.00  0.00     0.210 HD
ENDBRANCH   8  22
TORSDOF 7
ENDMDL
MODEL 3
REMARK VINA RESULT: -6.069385589      2.057      2.667
REMARK  7 active torsions:
REMARK  status: ('A' for Active; 'I' for Inactive)
REMARK    1  A    between atoms: O1_1  and  C1_3 
REMARK    2  A    between atoms: C1_3  and  C2_4 
REMARK    3  A    between atoms: C8_11  and  O3_12 
REMARK    4  A    between atoms: C9_14  and  O4_15 
REMARK    5  A    between atoms: C10_17  and  O5_18 
REMARK    6  A    between atoms: O5_18  and  C11_19 
REMARK    7  A    between atoms: N1_20  and  O6_22 
ROOT
HETATM    1  C2  UNL     1       6.846  -3.719  26.718  1.00  0.00     0.178 C 
HETATM    2  O2  UNL     1       6.630  -2.965  25.652  1.00  0.00    -0.363 OA
HETATM    3  C3  UNL     1       5.818  -3.306  24.653  1.00  0.00     0.107 C 
HETATM    4  C4  UNL     1       6.361  -2.966  23.283  1.00  0.00     0.009 C 
HETATM    5  C5  UNL     1       5.435  -2.346  22.561  1.00  0.00    -0.027 C 
HETATM    6  C6  UNL     1       4.161  -2.177  23.312  1.00  0.00     0.030 C 
HETATM    7  C7  UNL     1       4.585  -2.383  24.726  1.00  0.00     0.049 C 
HETATM    8  C8  UNL     1       5.300  -4.688  24.587  1.00  0.00     0.188 C 
HETATM    9  C9  UNL     1       6.223  -5.636  25.389  1.00  0.00     0.182 C 
HETATM   10  C10 UNL     1       6.198  -5.104  26.748  1.00  0.00     0.192 C 
ENDROOT
BRANCH  10  11
HETATM   11  O5  UNL     1       6.681  -5.780  27.823  1.00  0.00    -0.334 OA
BRANCH  11  12
HETATM   12  C11 UNL     1       7.924  -6.335  27.903  1.00  0.00     0.248 C 
HETATM   13  N1  UNL     1       8.819  -5.541  28.290  1.00  0.00    -0.259 N 
ATOM     14  H1  UNL     1       8.525  -4.586  28.498  1.00  0.00     0.195 HD
BRANCH  13  15
HETATM   15  O6  UNL     1      10.142  -5.823  28.461  1.00  0.00    -0.289 OA
ATOM     16  H6  UNL     1      10.638  -5.752  29.268  1.00  0.00     0.244 HD
ENDBRANCH  13  15
ENDBRANCH  11  12
ENDBRANCH  10  11
BRANCH   1  17
HETATM   17  C1  UNL     1       6.459  -2.927  27.970  1.00  0.00     0.198 C 
BRANCH  17  18
HETATM   18  O1  UNL     1       5.175  -3.189  28.380  1.00  0.00    -0.398 OA
ATOM     19  H1  UNL     1       4.721  -2.408  28.674  1.00  0.00     0.209 HD
ENDBRANCH  17  18
ENDBRANCH   1  17
BRANCH   9  20
HETATM   20  O4  UNL     1       7.431  -5.550  24.713  1.00  0.00    -0.390 OA
ATOM     21  H4  UNL     1       7.328  -4.768  24.184  1.00  0.00     0.210 HD
ENDBRANCH   9  20
BRANCH   8  22
HETATM   22  O3  UNL     1       4.040  -4.822  25.204  1.00  0.00    -0.390 OA
ATOM     23  H3  UNL     1       3.328  -4.545  24.640  1.00  0.00     0.210 HD
ENDBRANCH   8  22
TORSDOF 7
ENDMDL
MODEL 4
REMARK VINA RESULT: -6.055630871      1.835      2.974
REMARK  7 active torsions:
REMARK  status: ('A' for Active; 'I' for Inactive)
REMARK    1  A    between atoms: O1_1  and  C1_3 
REMARK    2  A    between atoms: C1_3  and  C2_4 
REMARK    3  A    between atoms: C8_11  and  O3_12 
REMARK    4  A    between atoms: C9_14  and  O4_15 
REMARK    5  A    between atoms: C10_17  and  O5_18 
REMARK    6  A    between atoms: O5_18  and  C11_19 
REMARK    7  A    between atoms: N1_20  and  O6_22 
ROOT
HETATM    1  C2  UNL     1       5.646  -5.025  24.705  1.00  0.00     0.178 C 
HETATM    2  O2  UNL     1       4.989  -4.090  24.036  1.00  0.00    -0.363 OA
HETATM    3  C3  UNL     1       5.150  -2.783  24.235  1.00  0.00     0.107 C 
HETATM    4  C4  UNL     1       3.856  -1.999  24.210  1.00  0.00     0.009 C 
HETATM    5  C5  UNL     1       3.980  -0.931  23.432  1.00  0.00    -0.027 C 
HETATM    6  C6  UNL     1       5.338  -0.832  22.830  1.00  0.00     0.030 C 
HETATM    7  C7  UNL     1       5.872  -2.214  22.998  1.00  0.00     0.049 C 
HETATM    8  C8  UNL     1       5.916  -2.324  25.412  1.00  0.00     0.188 C 
HETATM    9  C9  UNL     1       5.935  -3.429  26.494  1.00  0.00     0.182 C 
HETATM   10  C10 UNL     1       6.568  -4.569  25.838  1.00  0.00     0.192 C 
ENDROOT
BRANCH  10  11
HETATM   11  O5  UNL     1       7.001  -5.669  26.506  1.00  0.00    -0.334 OA
BRANCH  11  12
HETATM   12  C11 UNL     1       6.938  -5.837  27.858  1.00  0.00     0.248 C 
HETATM   13  N1  UNL     1       5.769  -5.939  28.311  1.00  0.00    -0.259 N 
ATOM     14  H1  UNL     1       5.009  -5.886  27.633  1.00  0.00     0.195 HD
BRANCH  13  15
HETATM   15  O6  UNL     1       5.413  -6.114  29.616  1.00  0.00    -0.289 OA
ATOM     16  H6  UNL     1       4.606  -5.827  30.027  1.00  0.00     0.244 HD
ENDBRANCH  13  15
ENDBRANCH  11  12
ENDBRANCH  10  11
BRANCH   1  17
HETATM   17  C1  UNL     1       6.422  -5.891  23.708  1.00  0.00     0.198 C 
BRANCH  17  18
HETATM   18  O1  UNL     1       7.629  -5.337  23.360  1.00  0.00    -0.398 OA
ATOM     19  H1  UNL     1       7.680  -5.131  22.434  1.00  0.00     0.209 HD
ENDBRANCH  17  18
ENDBRANCH   1  17
BRANCH   9  20
HETATM   20  O4  UNL     1       4.596  -3.572  26.826  1.00  0.00    -0.390 OA
ATOM     21  H4  UNL     1       4.627  -3.997  27.676  1.00  0.00     0.210 HD
ENDBRANCH   9  20
BRANCH   8  22
HETATM   22  O3  UNL     1       7.275  -2.099  25.118  1.00  0.00    -0.390 OA
ATOM     23  H3  UNL     1       7.564  -1.231  25.374  1.00  0.00     0.210 HD
ENDBRANCH   8  22
TORSDOF 7
ENDMDL
MODEL 5
REMARK VINA RESULT: -6.034205030      5.172      7.781
REMARK  7 active torsions:
REMARK  status: ('A' for Active; 'I' for Inactive)
REMARK    1  A    between atoms: O1_1  and  C1_3 
REMARK    2  A    between atoms: C1_3  and  C2_4 
REMARK    3  A    between atoms: C8_11  and  O3_12 
REMARK    4  A    between atoms: C9_14  and  O4_15 
REMARK    5  A    between atoms: C10_17  and  O5_18 
REMARK    6  A    between atoms: O5_18  and  C11_19 
REMARK    7  A    between atoms: N1_20  and  O6_22 
ROOT
HETATM    1  C2  UNL     1       3.482  -0.057  20.207  1.00  0.00     0.178 C 
HETATM    2  O2  UNL     1       4.193  -0.795  21.046  1.00  0.00    -0.363 OA
HETATM    3  C3  UNL     1       4.241  -0.587  22.360  1.00  0.00     0.107 C 
HETATM    4  C4  UNL     1       5.623  -0.750  22.953  1.00  0.00     0.009 C 
HETATM    5  C5  UNL     1       5.571  -1.516  24.035  1.00  0.00    -0.027 C 
HETATM    6  C6  UNL     1       4.187  -1.975  24.331  1.00  0.00     0.030 C 
HETATM    7  C7  UNL     1       3.483  -1.746  23.038  1.00  0.00     0.049 C 
HETATM    8  C8  UNL     1       3.673   0.660  22.912  1.00  0.00     0.188 C 
HETATM    9  C9  UNL     1       3.608   1.744  21.809  1.00  0.00     0.182 C 
HETATM   10  C10 UNL     1       2.756   1.162  20.777  1.00  0.00     0.192 C 
ENDROOT
BRANCH  10  11
HETATM   11  O5  UNL     1       2.243   1.878  19.743  1.00  0.00    -0.334 OA
BRANCH  11  12
HETATM   12  C11 UNL     1       0.939   2.262  19.630  1.00  0.00     0.248 C 
HETATM   13  N1  UNL     1       0.622   2.683  18.488  1.00  0.00    -0.259 N 
ATOM     14  H1  UNL     1       1.359   2.691  17.783  1.00  0.00     0.195 HD
BRANCH  13  15
HETATM   15  O6  UNL     1      -0.605   3.129  18.094  1.00  0.00    -0.289 OA
ATOM     16  H6  UNL     1      -0.847   3.435  17.229  1.00  0.00     0.244 HD
ENDBRANCH  13  15
ENDBRANCH  11  12
ENDBRANCH  10  11
BRANCH   1  17
HETATM   17  C1  UNL     1       2.493  -0.964  19.468  1.00  0.00     0.198 C 
BRANCH  17  18
HETATM   18  O1  UNL     1       2.382  -0.644  18.138  1.00  0.00    -0.398 OA
ATOM     19  H1  UNL     1       1.487  -0.700  17.825  1.00  0.00     0.209 HD
ENDBRANCH  17  18
ENDBRANCH   1  17
BRANCH   9  20
HETATM   20  O4  UNL     1       4.941   1.937  21.475  1.00  0.00    -0.390 OA
ATOM     21  H4  UNL     1       5.271   2.464  22.194  1.00  0.00     0.210 HD
ENDBRANCH   9  20
BRANCH   8  22
HETATM   22  O3  UNL     1       2.336   0.507  23.329  1.00  0.00    -0.390 OA
ATOM     23  H3  UNL     1       1.741   0.371  22.602  1.00  0.00     0.210 HD
ENDBRANCH   8  22
TORSDOF 7
ENDMDL
