MODEL 1
REMARK VINA RESULT: -6.525582049      0.000      0.000
REMARK  5 active torsions:
REMARK  status: ('A' for Active; 'I' for Inactive)
REMARK       I    between atoms: C2_2  and  N1_4 
REMARK    1  A    between atoms: N1_4  and  C3_6 
REMARK    2  A    between atoms: C3_6  and  C4_7 
REMARK    3  A    between atoms: C3_6  and  C5_9 
REMARK    4  A    between atoms: C6_10  and  O2_11 
REMARK    5  A    between atoms: C8_15  and  O3_16 
ROOT
HETATM    1  C5  UNL     1      -1.346 -12.647  73.890  1.00  0.00     0.074 A 
HETATM    2  C6  UNL     1      -1.888 -12.494  72.631  1.00  0.00     0.104 A 
HETATM    3  C7  UNL     1      -1.262 -11.417  72.011  1.00  0.00     0.048 A 
HETATM    4  N2  UNL     1      -0.366 -10.949  72.876  1.00  0.00    -0.328 N 
HETATM    5  C8  UNL     1      -0.399 -11.684  74.040  1.00  0.00     0.158 A 
HETATM    6  C9  UNL     1       0.620  -9.912  72.760  1.00  0.00     0.131 C 
HETATM    7  C10 UNL     1       0.719  -9.237  71.434  1.00  0.00     0.020 C 
HETATM    8  C11 UNL     1       0.706 -10.267  70.325  1.00  0.00     0.002 C 
HETATM    9  C12 UNL     1      -0.695 -10.415  69.760  1.00  0.00     0.006 C 
HETATM   10  C13 UNL     1      -1.702 -10.952  70.686  1.00  0.00     0.060 C 
ENDROOT
BRANCH   1  11
HETATM   11  C3  UNL     1      -1.658 -13.809  74.774  1.00  0.00     0.043 C 
BRANCH  11  12
HETATM   12  N1  UNL     1      -2.959 -13.770  75.355  1.00  0.00    -0.329 N 
HETATM   13  C2  UNL     1      -3.983 -14.659  74.830  1.00  0.00     0.217 C 
HETATM   14  C1  UNL     1      -5.336 -14.705  75.300  1.00  0.00     0.117 C 
HETATM   15  O1  UNL     1      -3.583 -15.427  73.881  1.00  0.00    -0.274 OA
ATOM     16  H1  UNL     1      -3.167 -13.131  76.123  1.00  0.00     0.168 HD
ENDBRANCH  11  12
BRANCH  11  17
HETATM   17  C4  UNL     1      -0.562 -14.357  75.582  1.00  0.00     0.173 C 
HETATM   18 CL1  UNL     1      -1.068 -15.958  76.239  1.00  0.00    -0.124 Cl
ENDBRANCH  11  17
ENDBRANCH   1  11
BRANCH   2  19
HETATM   19  O2  UNL     1      -2.898 -13.289  72.072  1.00  0.00    -0.358 OA
ATOM     20  H2  UNL     1      -3.778 -13.001  71.864  1.00  0.00     0.217 HD
ENDBRANCH   2  19
BRANCH   5  21
HETATM   21  O3  UNL     1       0.446 -11.411  75.135  1.00  0.00    -0.345 OA
ATOM     22  H3  UNL     1       1.368 -11.180  75.150  1.00  0.00     0.219 HD
ENDBRANCH   5  21
TORSDOF 5
ENDMDL
MODEL 2
REMARK VINA RESULT: -6.343961996      1.225      2.335
REMARK  5 active torsions:
REMARK  status: ('A' for Active; 'I' for Inactive)
REMARK       I    between atoms: C2_2  and  N1_4 
REMARK    1  A    between atoms: N1_4  and  C3_6 
REMARK    2  A    between atoms: C3_6  and  C4_7 
REMARK    3  A    between atoms: C3_6  and  C5_9 
REMARK    4  A    between atoms: C6_10  and  O2_11 
REMARK    5  A    between atoms: C8_15  and  O3_16 
ROOT
HETATM    1  C5  UNL     1      -1.583 -12.530  73.798  1.00  0.00     0.074 A 
HETATM    2  C6  UNL     1      -2.099 -12.423  72.523  1.00  0.00     0.104 A 
HETATM    3  C7  UNL     1      -1.424 -11.402  71.860  1.00  0.00     0.048 A 
HETATM    4  N2  UNL     1      -0.525 -10.922  72.716  1.00  0.00    -0.328 N 
HETATM    5  C8  UNL     1      -0.604 -11.594  73.916  1.00  0.00     0.158 A 
HETATM    6  C9  UNL     1       0.500  -9.929  72.565  1.00  0.00     0.131 C 
HETATM    7  C10 UNL     1       0.646  -9.328  71.208  1.00  0.00     0.020 C 
HETATM    8  C11 UNL     1       0.613 -10.412  70.154  1.00  0.00     0.002 C 
HETATM    9  C12 UNL     1      -0.783 -10.539  69.572  1.00  0.00     0.006 C 
HETATM   10  C13 UNL     1      -1.824 -10.991  70.505  1.00  0.00     0.060 C 
ENDROOT
BRANCH   1  11
HETATM   11  C3  UNL     1      -1.952 -13.632  74.734  1.00  0.00     0.043 C 
BRANCH  11  12
HETATM   12  N1  UNL     1      -0.990 -14.680  74.811  1.00  0.00    -0.329 N 
HETATM   13  C2  UNL     1      -0.036 -14.671  75.910  1.00  0.00     0.217 C 
HETATM   14  C1  UNL     1       1.000 -15.644  76.094  1.00  0.00     0.117 C 
HETATM   15  O1  UNL     1      -0.186 -13.697  76.733  1.00  0.00    -0.274 OA
ATOM     16  H1  UNL     1      -0.969 -15.422  74.111  1.00  0.00     0.168 HD
ENDBRANCH  11  12
BRANCH  11  17
HETATM   17  C4  UNL     1      -3.371 -13.997  74.825  1.00  0.00     0.173 C 
HETATM   18 CL1  UNL     1      -3.513 -15.793  74.803  1.00  0.00    -0.124 Cl
ENDBRANCH  11  17
ENDBRANCH   1  11
BRANCH   2  19
HETATM   19  O2  UNL     1      -3.128 -13.210  71.987  1.00  0.00    -0.358 OA
ATOM     20  H2  UNL     1      -3.955 -13.402  72.412  1.00  0.00     0.217 HD
ENDBRANCH   2  19
BRANCH   5  21
HETATM   21  O3  UNL     1       0.233 -11.295  75.010  1.00  0.00    -0.345 OA
ATOM     22  H3  UNL     1       0.709 -10.499  75.213  1.00  0.00     0.219 HD
ENDBRANCH   5  21
TORSDOF 5
ENDMDL
MODEL 3
REMARK VINA RESULT: -6.233549046      3.950      5.799
REMARK  5 active torsions:
REMARK  status: ('A' for Active; 'I' for Inactive)
REMARK       I    between atoms: C2_2  and  N1_4 
REMARK    1  A    between atoms: N1_4  and  C3_6 
REMARK    2  A    between atoms: C3_6  and  C4_7 
REMARK    3  A    between atoms: C3_6  and  C5_9 
REMARK    4  A    between atoms: C6_10  and  O2_11 
REMARK    5  A    between atoms: C8_15  and  O3_16 
ROOT
HETATM    1  C5  UNL     1      -2.400 -10.485  70.594  1.00  0.00     0.074 A 
HETATM    2  C6  UNL     1      -2.802 -10.969  71.821  1.00  0.00     0.104 A 
HETATM    3  C7  UNL     1      -1.687 -11.474  72.482  1.00  0.00     0.048 A 
HETATM    4  N2  UNL     1      -0.648 -11.285  71.672  1.00  0.00    -0.328 N 
HETATM    5  C8  UNL     1      -1.058 -10.683  70.504  1.00  0.00     0.158 A 
HETATM    6  C9  UNL     1       0.756 -11.527  71.851  1.00  0.00     0.131 C 
HETATM    7  C10 UNL     1       1.175 -12.047  73.184  1.00  0.00     0.020 C 
HETATM    8  C11 UNL     1       0.491 -11.264  74.284  1.00  0.00     0.002 C 
HETATM    9  C12 UNL     1      -0.744 -12.002  74.767  1.00  0.00     0.006 C 
HETATM   10  C13 UNL     1      -1.824 -12.149  73.782  1.00  0.00     0.060 C 
ENDROOT
BRANCH   1  11
HETATM   11  C3  UNL     1      -3.302  -9.716  69.687  1.00  0.00     0.043 C 
BRANCH  11  12
HETATM   12  N1  UNL     1      -3.789 -10.463  68.575  1.00  0.00    -0.329 N 
HETATM   13  C2  UNL     1      -5.144 -10.991  68.630  1.00  0.00     0.217 C 
HETATM   14  C1  UNL     1      -5.750 -11.780  67.598  1.00  0.00     0.117 C 
HETATM   15  O1  UNL     1      -5.784 -10.696  69.703  1.00  0.00    -0.274 OA
ATOM     16  H1  UNL     1      -3.200 -10.624  67.758  1.00  0.00     0.168 HD
ENDBRANCH  11  12
BRANCH  11  17
HETATM   17  C4  UNL     1      -3.001  -8.294  69.478  1.00  0.00     0.173 C 
HETATM   18 CL1  UNL     1      -3.496  -7.834  67.807  1.00  0.00    -0.124 Cl
ENDBRANCH  11  17
ENDBRANCH   1  11
BRANCH   2  19
HETATM   19  O2  UNL     1      -4.114 -10.955  72.316  1.00  0.00    -0.358 OA
ATOM     20  H2  UNL     1      -4.405 -10.503  73.098  1.00  0.00     0.217 HD
ENDBRANCH   2  19
BRANCH   5  21
HETATM   21  O3  UNL     1      -0.165 -10.362  69.461  1.00  0.00    -0.345 OA
ATOM     22  H3  UNL     1      -0.091 -10.730  68.588  1.00  0.00     0.219 HD
ENDBRANCH   5  21
TORSDOF 5
ENDMDL
MODEL 4
REMARK VINA RESULT: -6.176455430      3.980      6.056
REMARK  5 active torsions:
REMARK  status: ('A' for Active; 'I' for Inactive)
REMARK       I    between atoms: C2_2  and  N1_4 
REMARK    1  A    between atoms: N1_4  and  C3_6 
REMARK    2  A    between atoms: C3_6  and  C4_7 
REMARK    3  A    between atoms: C3_6  and  C5_9 
REMARK    4  A    between atoms: C6_10  and  O2_11 
REMARK    5  A    between atoms: C8_15  and  O3_16 
ROOT
HETATM    1  C5  UNL     1      -2.985 -10.564  71.001  1.00  0.00     0.074 A 
HETATM    2  C6  UNL     1      -1.876 -11.376  70.882  1.00  0.00     0.104 A 
HETATM    3  C7  UNL     1      -1.727 -12.092  72.066  1.00  0.00     0.048 A 
HETATM    4  N2  UNL     1      -2.727 -11.721  72.863  1.00  0.00    -0.328 N 
HETATM    5  C8  UNL     1      -3.513 -10.781  72.235  1.00  0.00     0.158 A 
HETATM    6  C9  UNL     1      -3.130 -12.179  74.162  1.00  0.00     0.131 C 
HETATM    7  C10 UNL     1      -2.337 -13.299  74.746  1.00  0.00     0.020 C 
HETATM    8  C11 UNL     1      -2.112 -14.374  73.705  1.00  0.00     0.002 C 
HETATM    9  C12 UNL     1      -0.750 -14.203  73.056  1.00  0.00     0.006 C 
HETATM   10  C13 UNL     1      -0.568 -12.974  72.271  1.00  0.00     0.060 C 
ENDROOT
BRANCH   1  11
HETATM   11  C3  UNL     1      -3.545  -9.781  69.860  1.00  0.00     0.043 C 
BRANCH  11  12
HETATM   12  N1  UNL     1      -3.861 -10.564  68.712  1.00  0.00    -0.329 N 
HETATM   13  C2  UNL     1      -5.218 -11.071  68.566  1.00  0.00     0.217 C 
HETATM   14  C1  UNL     1      -5.664 -11.891  67.480  1.00  0.00     0.117 C 
HETATM   15  O1  UNL     1      -6.017 -10.725  69.510  1.00  0.00    -0.274 OA
ATOM     16  H1  UNL     1      -3.152 -10.765  68.008  1.00  0.00     0.168 HD
ENDBRANCH  11  12
BRANCH  11  17
HETATM   17  C4  UNL     1      -3.017  -8.428  69.643  1.00  0.00     0.173 C 
HETATM   18 CL1  UNL     1      -3.461  -7.891  67.981  1.00  0.00    -0.124 Cl
ENDBRANCH  11  17
ENDBRANCH   1  11
BRANCH   2  19
HETATM   19  O2  UNL     1      -1.043 -11.464  69.759  1.00  0.00    -0.358 OA
ATOM     20  H2  UNL     1      -0.697 -10.729  69.267  1.00  0.00     0.217 HD
ENDBRANCH   2  19
BRANCH   5  21
HETATM   21  O3  UNL     1      -4.647 -10.209  72.846  1.00  0.00    -0.345 OA
ATOM     22  H3  UNL     1      -5.047 -10.399  73.686  1.00  0.00     0.219 HD
ENDBRANCH   5  21
TORSDOF 5
ENDMDL
MODEL 5
REMARK VINA RESULT: -6.136192358      2.498      5.594
REMARK  5 active torsions:
REMARK  status: ('A' for Active; 'I' for Inactive)
REMARK       I    between atoms: C2_2  and  N1_4 
REMARK    1  A    between atoms: N1_4  and  C3_6 
REMARK    2  A    between atoms: C3_6  and  C4_7 
REMARK    3  A    between atoms: C3_6  and  C5_9 
REMARK    4  A    between atoms: C6_10  and  O2_11 
REMARK    5  A    between atoms: C8_15  and  O3_16 
ROOT
HETATM    1  C5  UNL     1      -0.375 -11.537  73.347  1.00  0.00     0.074 A 
HETATM    2  C6  UNL     1      -1.435 -11.602  72.467  1.00  0.00     0.104 A 
HETATM    3  C7  UNL     1      -2.374 -12.494  72.974  1.00  0.00     0.048 A 
HETATM    4  N2  UNL     1      -1.889 -12.940  74.130  1.00  0.00    -0.328 N 
HETATM    5  C8  UNL     1      -0.661 -12.371  74.382  1.00  0.00     0.158 A 
HETATM    6  C9  UNL     1      -2.450 -13.807  75.128  1.00  0.00     0.131 C 
HETATM    7  C10 UNL     1      -3.840 -14.287  74.884  1.00  0.00     0.020 C 
HETATM    8  C11 UNL     1      -4.716 -13.136  74.438  1.00  0.00     0.002 C 
HETATM    9  C12 UNL     1      -4.825 -13.113  72.925  1.00  0.00     0.006 C 
HETATM   10  C13 UNL     1      -3.576 -12.843  72.200  1.00  0.00     0.060 C 
ENDROOT
BRANCH   1  11
HETATM   11  C3  UNL     1       0.737 -10.552  73.210  1.00  0.00     0.043 C 
BRANCH  11  12
HETATM   12  N1  UNL     1       1.694 -10.885  72.208  1.00  0.00    -0.329 N 
HETATM   13  C2  UNL     1       1.721 -10.102  70.982  1.00  0.00     0.217 C 
HETATM   14  C1  UNL     1       2.610 -10.345  69.884  1.00  0.00     0.117 C 
HETATM   15  O1  UNL     1       0.865  -9.146  70.945  1.00  0.00    -0.274 OA
ATOM     16  H1  UNL     1       2.346 -11.657  72.347  1.00  0.00     0.168 HD
ENDBRANCH  11  12
BRANCH  11  17
HETATM   17  C4  UNL     1       1.224  -9.905  74.435  1.00  0.00     0.173 C 
HETATM   18 CL1  UNL     1       2.989 -10.234  74.604  1.00  0.00    -0.124 Cl
ENDBRANCH  11  17
ENDBRANCH   1  11
BRANCH   2  19
HETATM   19  O2  UNL     1      -1.544 -10.889  71.265  1.00  0.00    -0.358 OA
ATOM     20  H2  UNL     1      -0.828 -10.679  70.678  1.00  0.00     0.217 HD
ENDBRANCH   2  19
BRANCH   5  21
HETATM   21  O3  UNL     1       0.087 -12.661  75.541  1.00  0.00    -0.345 OA
ATOM     22  H3  UNL     1       0.866 -12.239  75.885  1.00  0.00     0.219 HD
ENDBRANCH   5  21
TORSDOF 5
ENDMDL
