MODEL 1
REMARK VINA RESULT: -7.725165795      0.000      0.000
REMARK  5 active torsions:
REMARK  status: ('A' for Active; 'I' for Inactive)
REMARK    1  A    between atoms: C6_6  and  N1_7 
REMARK    2  A    between atoms: C8_9  and  C9_10 
REMARK    3  A    between atoms: C11_12  and  O1_13 
REMARK    4  A    between atoms: C12_15  and  C13_16 
REMARK    5  A    between atoms: C13_16  and  S1_17 
ROOT
HETATM    1  N1  UNL     1       4.385  -1.244  22.384  1.00  0.00    -0.280 N 
HETATM    2  C7  UNL     1       4.046  -2.524  22.541  1.00  0.00     0.135 A 
HETATM    3  C8  UNL     1       4.689  -3.056  23.632  1.00  0.00     0.045 A 
HETATM    4  N2  UNL     1       5.434  -2.026  24.123  1.00  0.00    -0.286 N 
ATOM      5  H2  UNL     1       6.043  -2.070  24.940  1.00  0.00     0.184 HD
HETATM    6  N3  UNL     1       5.233  -0.945  23.353  1.00  0.00    -0.020 NA
ENDROOT
BRANCH   3   7
HETATM    7  C9  UNL     1       4.596  -4.427  24.155  1.00  0.00     0.041 C 
HETATM    8  C10 UNL     1       3.867  -4.509  25.465  1.00  0.00     0.043 C 
HETATM    9  C11 UNL     1       4.872  -4.864  26.527  1.00  0.00     0.124 C 
HETATM   10  C12 UNL     1       6.213  -4.920  25.873  1.00  0.00     0.032 C 
HETATM   11  C14 UNL     1       5.971  -5.014  24.383  1.00  0.00     0.019 C 
BRANCH   9  12
HETATM   12  O1  UNL     1       4.817  -3.947  27.583  1.00  0.00    -0.395 OA
ATOM     13  H1  UNL     1       5.669  -3.857  27.993  1.00  0.00     0.210 HD
ENDBRANCH   9  12
BRANCH  10  14
HETATM   14  C13 UNL     1       7.013  -6.098  26.383  1.00  0.00     0.172 C 
BRANCH  14  15
HETATM   15  S1  UNL     1       7.523  -5.815  28.083  1.00  0.00     0.102 S 
HETATM   16  O2  UNL     1       6.382  -6.206  28.989  1.00  0.00    -0.595 OA
HETATM   17  O3  UNL     1       7.865  -4.381  28.260  1.00  0.00    -0.595 OA
HETATM   18  O4  UNL     1       8.895  -6.720  28.422  1.00  0.00    -0.595 OA
ENDBRANCH  14  15
ENDBRANCH  10  14
ENDBRANCH   3   7
BRANCH   1  19
HETATM   19  C6  UNL     1       3.942  -0.325  21.374  1.00  0.00     0.109 C 
HETATM   20  C2  UNL     1       2.757   0.504  21.822  1.00  0.00     0.006 C 
HETATM   21  C1  UNL     1       3.135   1.682  22.650  1.00  0.00     0.012 C 
HETATM   22  C3  UNL     1       2.163   0.892  20.470  1.00  0.00     0.006 C 
HETATM   23  C4  UNL     1       2.098  -0.475  19.802  1.00  0.00     0.002 C 
HETATM   24  C5  UNL     1       3.455  -1.042  20.123  1.00  0.00     0.027 C 
ENDBRANCH   1  19
TORSDOF 5
ENDMDL
MODEL 2
REMARK VINA RESULT: -7.710506992      1.153      1.771
REMARK  5 active torsions:
REMARK  status: ('A' for Active; 'I' for Inactive)
REMARK    1  A    between atoms: C6_6  and  N1_7 
REMARK    2  A    between atoms: C8_9  and  C9_10 
REMARK    3  A    between atoms: C11_12  and  O1_13 
REMARK    4  A    between atoms: C12_15  and  C13_16 
REMARK    5  A    between atoms: C13_16  and  S1_17 
ROOT
HETATM    1  N1  UNL     1       4.162  -2.093  22.079  1.00  0.00    -0.280 N 
HETATM    2  C7  UNL     1       3.837  -3.002  23.000  1.00  0.00     0.135 A 
HETATM    3  C8  UNL     1       4.761  -4.018  23.012  1.00  0.00     0.045 A 
HETATM    4  N2  UNL     1       5.659  -3.671  22.047  1.00  0.00    -0.286 N 
ATOM      5  H2  UNL     1       6.486  -4.208  21.784  1.00  0.00     0.184 HD
HETATM    6  N3  UNL     1       5.275  -2.507  21.500  1.00  0.00    -0.020 NA
ENDROOT
BRANCH   3   7
HETATM    7  C9  UNL     1       4.780  -5.211  23.870  1.00  0.00     0.041 C 
HETATM    8  C10 UNL     1       3.839  -5.113  25.035  1.00  0.00     0.043 C 
HETATM    9  C11 UNL     1       4.668  -4.996  26.285  1.00  0.00     0.124 C 
HETATM   10  C12 UNL     1       6.101  -4.946  25.868  1.00  0.00     0.032 C 
HETATM   11  C14 UNL     1       6.161  -5.445  24.442  1.00  0.00     0.019 C 
BRANCH   9  12
HETATM   12  O1  UNL     1       4.277  -3.879  27.033  1.00  0.00    -0.395 OA
ATOM     13  H1  UNL     1       3.855  -4.147  27.840  1.00  0.00     0.210 HD
ENDBRANCH   9  12
BRANCH  10  14
HETATM   14  C13 UNL     1       6.960  -5.785  26.788  1.00  0.00     0.172 C 
BRANCH  14  15
HETATM   15  S1  UNL     1       7.453  -4.826  28.226  1.00  0.00     0.102 S 
HETATM   16  O2  UNL     1       6.523  -5.169  29.363  1.00  0.00    -0.595 OA
HETATM   17  O3  UNL     1       7.373  -3.380  27.902  1.00  0.00    -0.595 OA
HETATM   18  O4  UNL     1       9.044  -5.181  28.626  1.00  0.00    -0.595 OA
ENDBRANCH  14  15
ENDBRANCH  10  14
ENDBRANCH   3   7
BRANCH   1  19
HETATM   19  C6  UNL     1       3.467  -0.882  21.744  1.00  0.00     0.109 C 
HETATM   20  C2  UNL     1       3.675  -0.474  20.301  1.00  0.00     0.006 C 
HETATM   21  C1  UNL     1       2.783  -1.186  19.346  1.00  0.00     0.012 C 
HETATM   22  C3  UNL     1       3.380   1.021  20.389  1.00  0.00     0.006 C 
HETATM   23  C4  UNL     1       4.270   1.401  21.565  1.00  0.00     0.002 C 
HETATM   24  C5  UNL     1       3.966   0.306  22.552  1.00  0.00     0.027 C 
ENDBRANCH   1  19
TORSDOF 5
ENDMDL
MODEL 3
REMARK VINA RESULT: -7.567495887      1.645      2.725
REMARK  5 active torsions:
REMARK  status: ('A' for Active; 'I' for Inactive)
REMARK    1  A    between atoms: C6_6  and  N1_7 
REMARK    2  A    between atoms: C8_9  and  C9_10 
REMARK    3  A    between atoms: C11_12  and  O1_13 
REMARK    4  A    between atoms: C12_15  and  C13_16 
REMARK    5  A    between atoms: C13_16  and  S1_17 
ROOT
HETATM    1  N1  UNL     1       3.767  -1.998  22.333  1.00  0.00    -0.280 N 
HETATM    2  C7  UNL     1       4.924  -2.046  22.994  1.00  0.00     0.135 A 
HETATM    3  C8  UNL     1       5.347  -3.347  23.119  1.00  0.00     0.045 A 
HETATM    4  N2  UNL     1       4.380  -4.079  22.498  1.00  0.00    -0.286 N 
ATOM      5  H2  UNL     1       4.373  -5.095  22.402  1.00  0.00     0.184 HD
HETATM    6  N3  UNL     1       3.439  -3.243  22.033  1.00  0.00    -0.020 NA
ENDROOT
BRANCH   3   7
HETATM    7  C9  UNL     1       6.567  -3.841  23.775  1.00  0.00     0.041 C 
HETATM    8  C10 UNL     1       6.915  -5.248  23.385  1.00  0.00     0.043 C 
HETATM    9  C11 UNL     1       6.692  -6.125  24.588  1.00  0.00     0.124 C 
HETATM   10  C12 UNL     1       6.139  -5.262  25.673  1.00  0.00     0.032 C 
HETATM   11  C14 UNL     1       6.416  -3.829  25.280  1.00  0.00     0.019 C 
BRANCH   9  12
HETATM   12  O1  UNL     1       5.857  -7.200  24.264  1.00  0.00    -0.395 OA
ATOM     13  H1  UNL     1       5.679  -7.729  25.033  1.00  0.00     0.210 HD
ENDBRANCH   9  12
BRANCH  10  14
HETATM   14  C13 UNL     1       6.766  -5.605  27.007  1.00  0.00     0.172 C 
BRANCH  14  15
HETATM   15  S1  UNL     1       5.944  -4.708  28.329  1.00  0.00     0.102 S 
HETATM   16  O2  UNL     1       6.860  -3.602  28.791  1.00  0.00    -0.595 OA
HETATM   17  O3  UNL     1       5.646  -5.641  29.445  1.00  0.00    -0.595 OA
HETATM   18  O4  UNL     1       4.487  -4.086  27.773  1.00  0.00    -0.595 OA
ENDBRANCH  14  15
ENDBRANCH  10  14
ENDBRANCH   3   7
BRANCH   1  19
HETATM   19  C6  UNL     1       2.988  -0.843  21.990  1.00  0.00     0.109 C 
HETATM   20  C2  UNL     1       3.500  -0.145  20.748  1.00  0.00     0.006 C 
HETATM   21  C1  UNL     1       3.033  -0.769  19.480  1.00  0.00     0.012 C 
HETATM   22  C3  UNL     1       2.936   1.258  20.964  1.00  0.00     0.006 C 
HETATM   23  C4  UNL     1       3.399   1.516  22.392  1.00  0.00     0.002 C 
HETATM   24  C5  UNL     1       3.038   0.224  23.075  1.00  0.00     0.027 C 
ENDBRANCH   1  19
TORSDOF 5
ENDMDL
MODEL 4
REMARK VINA RESULT: -7.460991289      1.426      1.777
REMARK  5 active torsions:
REMARK  status: ('A' for Active; 'I' for Inactive)
REMARK    1  A    between atoms: C6_6  and  N1_7 
REMARK    2  A    between atoms: C8_9  and  C9_10 
REMARK    3  A    between atoms: C11_12  and  O1_13 
REMARK    4  A    between atoms: C12_15  and  C13_16 
REMARK    5  A    between atoms: C13_16  and  S1_17 
ROOT
HETATM    1  N1  UNL     1       4.752  -2.645  21.772  1.00  0.00    -0.280 N 
HETATM    2  C7  UNL     1       4.247  -3.470  22.690  1.00  0.00     0.135 A 
HETATM    3  C8  UNL     1       5.179  -4.414  23.045  1.00  0.00     0.045 A 
HETATM    4  N2  UNL     1       6.273  -4.113  22.290  1.00  0.00    -0.286 N 
ATOM      5  H2  UNL     1       7.159  -4.617  22.300  1.00  0.00     0.184 HD
HETATM    6  N3  UNL     1       5.990  -3.043  21.531  1.00  0.00    -0.020 NA
ENDROOT
BRANCH   3   7
HETATM    7  C9  UNL     1       5.033  -5.505  24.021  1.00  0.00     0.041 C 
HETATM    8  C10 UNL     1       3.838  -5.340  24.913  1.00  0.00     0.043 C 
HETATM    9  C11 UNL     1       4.339  -5.038  26.299  1.00  0.00     0.124 C 
HETATM   10  C12 UNL     1       5.827  -4.944  26.226  1.00  0.00     0.032 C 
HETATM   11  C14 UNL     1       6.244  -5.589  24.923  1.00  0.00     0.019 C 
BRANCH   9  12
HETATM   12  O1  UNL     1       3.742  -3.873  26.796  1.00  0.00    -0.395 OA
ATOM     13  H1  UNL     1       3.236  -3.441  26.118  1.00  0.00     0.210 HD
ENDBRANCH   9  12
BRANCH  10  14
HETATM   14  C13 UNL     1       6.470  -5.625  27.415  1.00  0.00     0.172 C 
BRANCH  14  15
HETATM   15  S1  UNL     1       7.397  -4.433  28.387  1.00  0.00     0.102 S 
HETATM   16  O2  UNL     1       8.800  -4.957  28.565  1.00  0.00    -0.595 OA
HETATM   17  O3  UNL     1       6.736  -4.252  29.704  1.00  0.00    -0.595 OA
HETATM   18  O4  UNL     1       7.407  -2.948  27.605  1.00  0.00    -0.595 OA
ENDBRANCH  14  15
ENDBRANCH  10  14
ENDBRANCH   3   7
BRANCH   1  19
HETATM   19  C6  UNL     1       4.115  -1.527  21.136  1.00  0.00     0.109 C 
HETATM   20  C2  UNL     1       3.050  -0.894  22.006  1.00  0.00     0.006 C 
HETATM   21  C1  UNL     1       3.592   0.058  23.013  1.00  0.00     0.012 C 
HETATM   22  C3  UNL     1       2.192  -0.211  20.943  1.00  0.00     0.006 C 
HETATM   23  C4  UNL     1       1.988  -1.370  19.977  1.00  0.00     0.002 C 
HETATM   24  C5  UNL     1       3.380  -1.933  19.866  1.00  0.00     0.027 C 
ENDBRANCH   1  19
TORSDOF 5
ENDMDL
MODEL 5
REMARK VINA RESULT: -7.326978219      4.549      7.417
REMARK  5 active torsions:
REMARK  status: ('A' for Active; 'I' for Inactive)
REMARK    1  A    between atoms: C6_6  and  N1_7 
REMARK    2  A    between atoms: C8_9  and  C9_10 
REMARK    3  A    between atoms: C11_12  and  O1_13 
REMARK    4  A    between atoms: C12_15  and  C13_16 
REMARK    5  A    between atoms: C13_16  and  S1_17 
ROOT
HETATM    1  N1  UNL     1       6.126  -3.838  25.860  1.00  0.00    -0.280 N 
HETATM    2  C7  UNL     1       5.732  -3.641  24.601  1.00  0.00     0.135 A 
HETATM    3  C8  UNL     1       6.207  -2.440  24.136  1.00  0.00     0.045 A 
HETATM    4  N2  UNL     1       6.909  -1.924  25.185  1.00  0.00    -0.286 N 
ATOM      5  H2  UNL     1       7.401  -1.030  25.188  1.00  0.00     0.184 HD
HETATM    6  N3  UNL     1       6.844  -2.786  26.211  1.00  0.00    -0.020 NA
ENDROOT
BRANCH   3   7
HETATM    7  C9  UNL     1       6.007  -1.842  22.808  1.00  0.00     0.041 C 
HETATM    8  C10 UNL     1       5.044  -0.691  22.819  1.00  0.00     0.043 C 
HETATM    9  C11 UNL     1       3.799  -1.129  22.095  1.00  0.00     0.124 C 
HETATM   10  C12 UNL     1       3.983  -2.561  21.717  1.00  0.00     0.032 C 
HETATM   11  C14 UNL     1       5.460  -2.861  21.833  1.00  0.00     0.019 C 
BRANCH   9  12
HETATM   12  O1  UNL     1       2.666  -0.913  22.889  1.00  0.00    -0.395 OA
ATOM     13  H1  UNL     1       1.874  -1.089  22.396  1.00  0.00     0.210 HD
ENDBRANCH   9  12
BRANCH  10  14
HETATM   14  C13 UNL     1       3.470  -2.819  20.317  1.00  0.00     0.172 C 
BRANCH  14  15
HETATM   15  S1  UNL     1       1.858  -3.611  20.381  1.00  0.00     0.102 S 
HETATM   16  O2  UNL     1       1.999  -4.909  21.137  1.00  0.00    -0.595 OA
HETATM   17  O3  UNL     1       1.379  -3.861  18.998  1.00  0.00    -0.595 OA
HETATM   18  O4  UNL     1       0.757  -2.595  21.135  1.00  0.00    -0.595 OA
ENDBRANCH  14  15
ENDBRANCH  10  14
ENDBRANCH   3   7
BRANCH   1  19
HETATM   19  C6  UNL     1       5.848  -4.960  26.711  1.00  0.00     0.109 C 
HETATM   20  C2  UNL     1       4.588  -4.771  27.529  1.00  0.00     0.006 C 
HETATM   21  C1  UNL     1       3.341  -5.097  26.785  1.00  0.00     0.012 C 
HETATM   22  C3  UNL     1       4.860  -5.731  28.685  1.00  0.00     0.006 C 
HETATM   23  C4  UNL     1       6.260  -5.284  29.082  1.00  0.00     0.002 C 
HETATM   24  C5  UNL     1       6.944  -5.179  27.744  1.00  0.00     0.027 C 
ENDBRANCH   1  19
TORSDOF 5
ENDMDL
