MODEL 1
REMARK VINA RESULT: -7.113447914      0.000      0.000
REMARK  6 active torsions:
REMARK  status: ('A' for Active; 'I' for Inactive)
REMARK    1  A    between atoms: C4_4  and  C5_5 
REMARK    2  A    between atoms: C5_5  and  O1_6 
REMARK    3  A    between atoms: O1_6  and  C6_7 
REMARK    4  A    between atoms: C8_9  and  C9_10 
REMARK    5  A    between atoms: C10_13  and  O4_14 
REMARK    6  A    between atoms: C16_23  and  O7_24 
ROOT
HETATM    1  C6  UNL     1       6.765  -3.586  23.772  1.00  0.00     0.179 C 
HETATM    2  C7  UNL     1       6.021  -3.735  25.022  1.00  0.00     0.024 C 
HETATM    3  C8  UNL     1       5.189  -4.712  25.258  1.00  0.00     0.051 C 
HETATM    4  C10 UNL     1       4.930  -5.760  24.262  1.00  0.00     0.223 C 
HETATM    5  C11 UNL     1       5.187  -5.300  22.828  1.00  0.00     0.224 C 
HETATM    6  O5  UNL     1       4.341  -4.284  22.497  1.00  0.00    -0.350 OA
HETATM    7  C12 UNL     1       4.111  -4.185  21.148  1.00  0.00     0.174 C 
HETATM    8  C13 UNL     1       3.421  -5.443  20.705  1.00  0.00     0.058 C 
HETATM    9  C14 UNL     1       4.164  -6.655  21.211  1.00  0.00     0.123 C 
HETATM   10  C15 UNL     1       3.163  -7.668  21.722  1.00  0.00     0.040 C 
HETATM   11  O6  UNL     1       5.200  -6.407  22.050  1.00  0.00    -0.345 OA
HETATM   12  C16 UNL     1       6.613  -4.750  22.849  1.00  0.00     0.216 C 
ENDROOT
BRANCH   1  13
HETATM   13  O1  UNL     1       6.490  -2.366  23.134  1.00  0.00    -0.376 OA
BRANCH  13  14
HETATM   14  C5  UNL     1       6.509  -1.370  24.057  1.00  0.00     0.196 C 
BRANCH  14  15
HETATM   15  C4  UNL     1       7.774  -0.651  24.241  1.00  0.00     0.001 C 
HETATM   16  C2  UNL     1       8.432  -0.420  25.341  1.00  0.00    -0.089 C 
HETATM   17  C1  UNL     1       9.702   0.332  25.319  1.00  0.00     0.042 C 
HETATM   18  C3  UNL     1       7.919  -0.908  26.635  1.00  0.00     0.042 C 
ENDBRANCH  14  15
ENDBRANCH  13  14
ENDBRANCH   1  13
BRANCH  12  19
HETATM   19  O7  UNL     1       7.424  -5.789  23.357  1.00  0.00    -0.387 OA
ATOM     20  H7  UNL     1       6.963  -6.162  24.099  1.00  0.00     0.210 HD
ENDBRANCH  12  19
BRANCH   3  21
HETATM   21  C9  UNL     1       4.469  -4.804  26.547  1.00  0.00     0.207 C 
HETATM   22  O2  UNL     1       4.831  -5.658  27.408  1.00  0.00    -0.644 OA
HETATM   23  O3  UNL     1       3.417  -3.949  26.771  1.00  0.00    -0.644 OA
ENDBRANCH   3  21
BRANCH   4  24
HETATM   24  O4  UNL     1       3.605  -6.183  24.408  1.00  0.00    -0.385 OA
ATOM     25  H4  UNL     1       3.126  -5.934  23.626  1.00  0.00     0.210 HD
ENDBRANCH   4  24
TORSDOF 6
ENDMDL
MODEL 2
REMARK VINA RESULT: -6.977519985      1.757      5.884
REMARK  6 active torsions:
REMARK  status: ('A' for Active; 'I' for Inactive)
REMARK    1  A    between atoms: C4_4  and  C5_5 
REMARK    2  A    between atoms: C5_5  and  O1_6 
REMARK    3  A    between atoms: O1_6  and  C6_7 
REMARK    4  A    between atoms: C8_9  and  C9_10 
REMARK    5  A    between atoms: C10_13  and  O4_14 
REMARK    6  A    between atoms: C16_23  and  O7_24 
ROOT
HETATM    1  C6  UNL     1       5.243  -4.818  23.144  1.00  0.00     0.179 C 
HETATM    2  C7  UNL     1       5.572  -3.407  22.953  1.00  0.00     0.024 C 
HETATM    3  C8  UNL     1       6.267  -2.702  23.803  1.00  0.00     0.051 C 
HETATM    4  C10 UNL     1       6.783  -3.288  25.047  1.00  0.00     0.223 C 
HETATM    5  C11 UNL     1       5.967  -4.486  25.528  1.00  0.00     0.224 C 
HETATM    6  O5  UNL     1       4.692  -4.105  25.823  1.00  0.00    -0.350 OA
HETATM    7  C12 UNL     1       4.077  -4.922  26.738  1.00  0.00     0.174 C 
HETATM    8  C13 UNL     1       4.837  -4.819  28.030  1.00  0.00     0.058 C 
HETATM    9  C14 UNL     1       6.314  -5.011  27.787  1.00  0.00     0.123 C 
HETATM   10  C15 UNL     1       7.082  -3.993  28.601  1.00  0.00     0.040 C 
HETATM   11  O6  UNL     1       6.693  -5.105  26.489  1.00  0.00    -0.345 OA
HETATM   12  C16 UNL     1       5.920  -5.430  24.326  1.00  0.00     0.216 C 
ENDROOT
BRANCH   1  13
HETATM   13  O1  UNL     1       3.857  -5.043  23.154  1.00  0.00    -0.376 OA
BRANCH  13  14
HETATM   14  C5  UNL     1       3.328  -4.597  21.985  1.00  0.00     0.196 C 
BRANCH  14  15
HETATM   15  C4  UNL     1       3.309  -5.536  20.858  1.00  0.00     0.001 C 
HETATM   16  C2  UNL     1       3.926  -5.454  19.714  1.00  0.00    -0.089 C 
HETATM   17  C1  UNL     1       3.778  -6.512  18.696  1.00  0.00     0.042 C 
HETATM   18  C3  UNL     1       4.790  -4.296  19.413  1.00  0.00     0.042 C 
ENDBRANCH  14  15
ENDBRANCH  13  14
ENDBRANCH   1  13
BRANCH  12  19
HETATM   19  O7  UNL     1       7.264  -5.660  23.959  1.00  0.00    -0.387 OA
ATOM     20  H7  UNL     1       7.775  -5.659  24.759  1.00  0.00     0.210 HD
ENDBRANCH  12  19
BRANCH   3  21
HETATM   21  C9  UNL     1       6.565  -1.276  23.547  1.00  0.00     0.207 C 
HETATM   22  O2  UNL     1       5.640  -0.502  23.165  1.00  0.00    -0.644 OA
HETATM   23  O3  UNL     1       7.851  -0.832  23.735  1.00  0.00    -0.644 OA
ENDBRANCH   3  21
BRANCH   4  24
HETATM   24  O4  UNL     1       6.805  -2.290  26.025  1.00  0.00    -0.385 OA
ATOM     25  H4  UNL     1       6.347  -2.614  26.791  1.00  0.00     0.210 HD
ENDBRANCH   4  24
TORSDOF 6
ENDMDL
MODEL 3
REMARK VINA RESULT: -6.971909190      2.129      3.079
REMARK  6 active torsions:
REMARK  status: ('A' for Active; 'I' for Inactive)
REMARK    1  A    between atoms: C4_4  and  C5_5 
REMARK    2  A    between atoms: C5_5  and  O1_6 
REMARK    3  A    between atoms: O1_6  and  C6_7 
REMARK    4  A    between atoms: C8_9  and  C9_10 
REMARK    5  A    between atoms: C10_13  and  O4_14 
REMARK    6  A    between atoms: C16_23  and  O7_24 
ROOT
HETATM    1  C6  UNL     1       6.269  -2.773  23.937  1.00  0.00     0.179 C 
HETATM    2  C7  UNL     1       6.410  -3.548  25.168  1.00  0.00     0.024 C 
HETATM    3  C8  UNL     1       6.356  -4.851  25.215  1.00  0.00     0.051 C 
HETATM    4  C10 UNL     1       6.144  -5.656  24.005  1.00  0.00     0.223 C 
HETATM    5  C11 UNL     1       5.411  -4.896  22.902  1.00  0.00     0.224 C 
HETATM    6  O5  UNL     1       4.160  -4.548  23.315  1.00  0.00    -0.350 OA
HETATM    7  C12 UNL     1       3.273  -4.376  22.282  1.00  0.00     0.174 C 
HETATM    8  C13 UNL     1       3.114  -5.699  21.588  1.00  0.00     0.058 C 
HETATM    9  C14 UNL     1       4.465  -6.292  21.272  1.00  0.00     0.123 C 
HETATM   10  C15 UNL     1       4.439  -7.771  21.589  1.00  0.00     0.040 C 
HETATM   11  O6  UNL     1       5.535  -5.623  21.766  1.00  0.00    -0.345 OA
HETATM   12  C16 UNL     1       6.225  -3.617  22.706  1.00  0.00     0.216 C 
ENDROOT
BRANCH   1  13
HETATM   13  O1  UNL     1       5.194  -1.872  23.998  1.00  0.00    -0.376 OA
BRANCH  13  14
HETATM   14  C5  UNL     1       5.311  -0.975  22.985  1.00  0.00     0.196 C 
BRANCH  14  15
HETATM   15  C4  UNL     1       4.184  -0.865  22.053  1.00  0.00     0.001 C 
HETATM   16  C2  UNL     1       3.698   0.197  21.477  1.00  0.00    -0.089 C 
HETATM   17  C1  UNL     1       2.545   0.100  20.560  1.00  0.00     0.042 C 
HETATM   18  C3  UNL     1       4.293   1.523  21.731  1.00  0.00     0.042 C 
ENDBRANCH  14  15
ENDBRANCH  13  14
ENDBRANCH   1  13
BRANCH  12  19
HETATM   19  O7  UNL     1       7.549  -4.034  22.444  1.00  0.00    -0.387 OA
ATOM     20  H7  UNL     1       7.510  -4.957  22.220  1.00  0.00     0.210 HD
ENDBRANCH  12  19
BRANCH   3  21
HETATM   21  C9  UNL     1       6.508  -5.574  26.497  1.00  0.00     0.207 C 
HETATM   22  O2  UNL     1       7.622  -6.093  26.796  1.00  0.00    -0.644 OA
HETATM   23  O3  UNL     1       5.421  -5.660  27.332  1.00  0.00    -0.644 OA
ENDBRANCH   3  21
BRANCH   4  24
HETATM   24  O4  UNL     1       5.430  -6.804  24.364  1.00  0.00    -0.385 OA
ATOM     25  H4  UNL     1       4.711  -6.909  23.752  1.00  0.00     0.210 HD
ENDBRANCH   4  24
TORSDOF 6
ENDMDL
MODEL 4
REMARK VINA RESULT: -6.949226834      1.938      3.043
REMARK  6 active torsions:
REMARK  status: ('A' for Active; 'I' for Inactive)
REMARK    1  A    between atoms: C4_4  and  C5_5 
REMARK    2  A    between atoms: C5_5  and  O1_6 
REMARK    3  A    between atoms: O1_6  and  C6_7 
REMARK    4  A    between atoms: C8_9  and  C9_10 
REMARK    5  A    between atoms: C10_13  and  O4_14 
REMARK    6  A    between atoms: C16_23  and  O7_24 
ROOT
HETATM    1  C6  UNL     1       6.975  -2.231  24.575  1.00  0.00     0.179 C 
HETATM    2  C7  UNL     1       6.534  -3.517  25.110  1.00  0.00     0.024 C 
HETATM    3  C8  UNL     1       5.661  -4.287  24.521  1.00  0.00     0.051 C 
HETATM    4  C10 UNL     1       5.039  -3.910  23.246  1.00  0.00     0.223 C 
HETATM    5  C11 UNL     1       5.008  -2.400  23.019  1.00  0.00     0.224 C 
HETATM    6  O5  UNL     1       4.249  -1.791  23.973  1.00  0.00    -0.350 OA
HETATM    7  C12 UNL     1       3.722  -0.591  23.566  1.00  0.00     0.174 C 
HETATM    8  C13 UNL     1       2.788  -0.863  22.422  1.00  0.00     0.058 C 
HETATM    9  C14 UNL     1       3.464  -1.728  21.386  1.00  0.00     0.123 C 
HETATM   10  C15 UNL     1       2.488  -2.783  20.914  1.00  0.00     0.040 C 
HETATM   11  O6  UNL     1       4.692  -2.197  21.718  1.00  0.00    -0.345 OA
HETATM   12  C16 UNL     1       6.458  -1.951  23.202  1.00  0.00     0.216 C 
ENDROOT
BRANCH   1  13
HETATM   13  O1  UNL     1       6.719  -1.172  25.461  1.00  0.00    -0.376 OA
BRANCH  13  14
HETATM   14  C5  UNL     1       7.892  -0.757  26.005  1.00  0.00     0.196 C 
BRANCH  14  15
HETATM   15  C4  UNL     1       8.845  -0.088  25.113  1.00  0.00     0.001 C 
HETATM   16  C2  UNL     1       9.986   0.469  25.404  1.00  0.00    -0.089 C 
HETATM   17  C1  UNL     1      10.810   1.098  24.354  1.00  0.00     0.042 C 
HETATM   18  C3  UNL     1      10.479   0.481  26.794  1.00  0.00     0.042 C 
ENDBRANCH  14  15
ENDBRANCH  13  14
ENDBRANCH   1  13
BRANCH  12  19
HETATM   19  O7  UNL     1       7.223  -2.731  22.306  1.00  0.00    -0.387 OA
ATOM     20  H7  UNL     1       7.608  -2.134  21.677  1.00  0.00     0.210 HD
ENDBRANCH  12  19
BRANCH   3  21
HETATM   21  C9  UNL     1       5.260  -5.580  25.119  1.00  0.00     0.207 C 
HETATM   22  O2  UNL     1       4.210  -5.646  25.822  1.00  0.00    -0.644 OA
HETATM   23  O3  UNL     1       6.049  -6.680  24.889  1.00  0.00    -0.644 OA
ENDBRANCH   3  21
BRANCH   4  24
HETATM   24  O4  UNL     1       3.742  -4.433  23.220  1.00  0.00    -0.385 OA
ATOM     25  H4  UNL     1       3.683  -5.044  22.495  1.00  0.00     0.210 HD
ENDBRANCH   4  24
TORSDOF 6
ENDMDL
MODEL 5
REMARK VINA RESULT: -6.831272879      1.747      2.706
REMARK  6 active torsions:
REMARK  status: ('A' for Active; 'I' for Inactive)
REMARK    1  A    between atoms: C4_4  and  C5_5 
REMARK    2  A    between atoms: C5_5  and  O1_6 
REMARK    3  A    between atoms: O1_6  and  C6_7 
REMARK    4  A    between atoms: C8_9  and  C9_10 
REMARK    5  A    between atoms: C10_13  and  O4_14 
REMARK    6  A    between atoms: C16_23  and  O7_24 
ROOT
HETATM    1  C6  UNL     1       6.413  -3.277  23.342  1.00  0.00     0.179 C 
HETATM    2  C7  UNL     1       5.805  -3.432  24.662  1.00  0.00     0.024 C 
HETATM    3  C8  UNL     1       5.207  -4.520  25.061  1.00  0.00     0.051 C 
HETATM    4  C10 UNL     1       5.095  -5.700  24.193  1.00  0.00     0.223 C 
HETATM    5  C11 UNL     1       5.152  -5.356  22.706  1.00  0.00     0.224 C 
HETATM    6  O5  UNL     1       4.097  -4.565  22.361  1.00  0.00    -0.350 OA
HETATM    7  C12 UNL     1       3.757  -4.659  21.034  1.00  0.00     0.174 C 
HETATM    8  C13 UNL     1       3.306  -6.067  20.774  1.00  0.00     0.058 C 
HETATM    9  C14 UNL     1       4.313  -7.051  21.319  1.00  0.00     0.123 C 
HETATM   10  C15 UNL     1       3.576  -8.177  22.009  1.00  0.00     0.040 C 
HETATM   11  O6  UNL     1       5.334  -6.517  22.034  1.00  0.00    -0.345 OA
HETATM   12  C16 UNL     1       6.435  -4.540  22.546  1.00  0.00     0.216 C 
ENDROOT
BRANCH   1  13
HETATM   13  O1  UNL     1       5.853  -2.209  22.622  1.00  0.00    -0.376 OA
BRANCH  13  14
HETATM   14  C5  UNL     1       5.190  -1.395  23.483  1.00  0.00     0.196 C 
BRANCH  14  15
HETATM   15  C4  UNL     1       4.614  -0.163  22.932  1.00  0.00     0.001 C 
HETATM   16  C2  UNL     1       3.460   0.013  22.356  1.00  0.00    -0.089 C 
HETATM   17  C1  UNL     1       3.056   1.345  21.862  1.00  0.00     0.042 C 
HETATM   18  C3  UNL     1       2.529  -1.118  22.185  1.00  0.00     0.042 C 
ENDBRANCH  14  15
ENDBRANCH  13  14
ENDBRANCH   1  13
BRANCH  12  19
HETATM   19  O7  UNL     1       7.473  -5.341  23.072  1.00  0.00    -0.387 OA
ATOM     20  H7  UNL     1       8.176  -5.340  22.433  1.00  0.00     0.210 HD
ENDBRANCH  12  19
BRANCH   3  21
HETATM   21  C9  UNL     1       4.612  -4.610  26.413  1.00  0.00     0.207 C 
HETATM   22  O2  UNL     1       3.729  -3.776  26.766  1.00  0.00    -0.644 OA
HETATM   23  O3  UNL     1       5.044  -5.609  27.252  1.00  0.00    -0.644 OA
ENDBRANCH   3  21
BRANCH   4  24
HETATM   24  O4  UNL     1       3.897  -6.354  24.496  1.00  0.00    -0.385 OA
ATOM     25  H4  UNL     1       4.104  -7.239  24.772  1.00  0.00     0.210 HD
ENDBRANCH   4  24
TORSDOF 6
ENDMDL
