MODEL 1
REMARK VINA RESULT: -7.399745887      0.000      0.000
REMARK  7 active torsions:
REMARK  status: ('A' for Active; 'I' for Inactive)
REMARK    1  A    between atoms: C2_2  and  C4_4 
REMARK       I    between atoms: C4_4  and  N1_6 
REMARK    2  A    between atoms: N1_6  and  C5_8 
REMARK    3  A    between atoms: C5_8  and  C6_9 
REMARK    4  A    between atoms: C6_9  and  O2_10 
REMARK    5  A    between atoms: N2_12  and  O3_14 
REMARK    6  A    between atoms: N3_18  and  C9_19 
REMARK    7  A    between atoms: C9_19  and  C10_20 
ROOT
HETATM    1  C5  UNL     1       4.989  -3.569  22.100  1.00  0.00     0.102 C 
HETATM    2  C7  UNL     1       4.107  -4.244  23.089  1.00  0.00     0.059 C 
HETATM    3  C8  UNL     1       4.746  -4.727  24.340  1.00  0.00     0.120 C 
HETATM    4  N3  UNL     1       5.981  -5.389  24.132  1.00  0.00    -0.408 N 
HETATM    5  C14 UNL     1       6.839  -4.888  23.118  1.00  0.00     0.120 C 
HETATM    6  C15 UNL     1       6.441  -3.621  22.456  1.00  0.00     0.059 C 
ENDROOT
BRANCH   1   7
HETATM    7  N1  UNL     1       4.640  -2.184  21.849  1.00  0.00    -0.344 N 
HETATM    8  C4  UNL     1       4.602  -1.154  22.805  1.00  0.00     0.222 C 
HETATM    9  O1  UNL     1       4.879  -1.377  23.995  1.00  0.00    -0.273 OA
ATOM     10  H1  UNL     1       4.399  -1.934  20.890  1.00  0.00     0.163 HD
BRANCH   8  11
HETATM   11  C2  UNL     1       4.229   0.211  22.399  1.00  0.00     0.070 C 
HETATM   12  C1  UNL     1       3.879   0.295  20.928  1.00  0.00     0.019 C 
HETATM   13  C3  UNL     1       3.052   0.736  23.194  1.00  0.00     0.019 C 
ENDBRANCH   8  11
ENDBRANCH   1   7
BRANCH   1  14
HETATM   14  C6  UNL     1       4.820  -4.301  20.786  1.00  0.00     0.164 C 
HETATM   15  N2  UNL     1       5.529  -4.024  19.757  1.00  0.00    -0.249 N 
ATOM     16  H2  UNL     1       6.237  -3.291  19.801  1.00  0.00     0.196 HD
BRANCH  14  17
HETATM   17  O2  UNL     1       3.865  -5.299  20.701  1.00  0.00    -0.346 OA
ATOM     18  H2  UNL     1       4.086  -6.101  20.243  1.00  0.00     0.219 HD
ENDBRANCH  14  17
BRANCH  15  19
HETATM   19  O3  UNL     1       5.328  -4.723  18.597  1.00  0.00    -0.288 OA
ATOM     20  H3  UNL     1       6.076  -4.959  18.061  1.00  0.00     0.244 HD
ENDBRANCH  15  19
ENDBRANCH   1  14
BRANCH   4  21
HETATM   21  C9  UNL     1       6.683  -5.713  25.356  1.00  0.00     0.177 C 
BRANCH  21  22
HETATM   22  C10 UNL     1       6.133  -4.881  26.479  1.00  0.00     0.276 C 
HETATM   23  O4  UNL     1       7.059  -3.915  26.881  1.00  0.00    -0.360 OA
HETATM   24  C11 UNL     1       6.828  -3.503  28.170  1.00  0.00     0.173 C 
HETATM   25  C12 UNL     1       7.040  -4.648  29.130  1.00  0.00     0.053 C 
HETATM   26  C13 UNL     1       6.843  -5.937  28.328  1.00  0.00     0.173 C 
HETATM   27  O5  UNL     1       5.739  -5.716  27.517  1.00  0.00    -0.360 OA
ENDBRANCH  21  22
ENDBRANCH   4  21
TORSDOF 7
ENDMDL
MODEL 2
REMARK VINA RESULT: -7.096369047      1.116      1.523
REMARK  7 active torsions:
REMARK  status: ('A' for Active; 'I' for Inactive)
REMARK    1  A    between atoms: C2_2  and  C4_4 
REMARK       I    between atoms: C4_4  and  N1_6 
REMARK    2  A    between atoms: N1_6  and  C5_8 
REMARK    3  A    between atoms: C5_8  and  C6_9 
REMARK    4  A    between atoms: C6_9  and  O2_10 
REMARK    5  A    between atoms: N2_12  and  O3_14 
REMARK    6  A    between atoms: N3_18  and  C9_19 
REMARK    7  A    between atoms: C9_19  and  C10_20 
ROOT
HETATM    1  C5  UNL     1       5.114  -2.820  22.018  1.00  0.00     0.102 C 
HETATM    2  C7  UNL     1       3.922  -3.598  22.446  1.00  0.00     0.059 C 
HETATM    3  C8  UNL     1       3.919  -4.114  23.839  1.00  0.00     0.120 C 
HETATM    4  N3  UNL     1       5.150  -4.692  24.237  1.00  0.00    -0.408 N 
HETATM    5  C14 UNL     1       6.347  -4.086  23.771  1.00  0.00     0.120 C 
HETATM    6  C15 UNL     1       6.218  -2.809  23.028  1.00  0.00     0.059 C 
ENDROOT
BRANCH   1   7
HETATM    7  N1  UNL     1       4.821  -1.445  21.661  1.00  0.00    -0.344 N 
HETATM    8  C4  UNL     1       4.380  -0.439  22.538  1.00  0.00     0.222 C 
HETATM    9  O1  UNL     1       4.199  -0.676  23.744  1.00  0.00    -0.273 OA
ATOM     10  H1  UNL     1       4.947  -1.184  20.683  1.00  0.00     0.163 HD
BRANCH   8  11
HETATM   11  C2  UNL     1       4.125   0.919  22.028  1.00  0.00     0.070 C 
HETATM   12  C1  UNL     1       3.789   0.922  20.551  1.00  0.00     0.019 C 
HETATM   13  C3  UNL     1       2.992   1.598  22.769  1.00  0.00     0.019 C 
ENDBRANCH   8  11
ENDBRANCH   1   7
BRANCH   1  14
HETATM   14  C6  UNL     1       5.651  -3.484  20.769  1.00  0.00     0.164 C 
HETATM   15  N2  UNL     1       4.886  -4.066  19.925  1.00  0.00    -0.249 N 
ATOM     16  H2  UNL     1       3.878  -4.097  20.079  1.00  0.00     0.196 HD
BRANCH  14  17
HETATM   17  O2  UNL     1       7.016  -3.457  20.540  1.00  0.00    -0.346 OA
ATOM     18  H2  UNL     1       7.325  -3.434  19.642  1.00  0.00     0.219 HD
ENDBRANCH  14  17
BRANCH  15  19
HETATM   19  O3  UNL     1       5.434  -4.648  18.814  1.00  0.00    -0.288 OA
ATOM     20  H3  UNL     1       5.173  -4.343  17.953  1.00  0.00     0.244 HD
ENDBRANCH  15  19
ENDBRANCH   1  14
BRANCH   4  21
HETATM   21  C9  UNL     1       5.204  -5.045  25.640  1.00  0.00     0.177 C 
BRANCH  21  22
HETATM   22  C10 UNL     1       6.640  -5.163  26.067  1.00  0.00     0.276 C 
HETATM   23  O4  UNL     1       6.876  -6.397  26.677  1.00  0.00    -0.360 OA
HETATM   24  C11 UNL     1       7.970  -6.346  27.505  1.00  0.00     0.173 C 
HETATM   25  C12 UNL     1       7.711  -5.403  28.655  1.00  0.00     0.053 C 
HETATM   26  C13 UNL     1       6.632  -4.424  28.186  1.00  0.00     0.173 C 
HETATM   27  O5  UNL     1       6.964  -4.085  26.882  1.00  0.00    -0.360 OA
ENDBRANCH  21  22
ENDBRANCH   4  21
TORSDOF 7
ENDMDL
MODEL 3
REMARK VINA RESULT: -7.083892827      1.383      1.587
REMARK  7 active torsions:
REMARK  status: ('A' for Active; 'I' for Inactive)
REMARK    1  A    between atoms: C2_2  and  C4_4 
REMARK       I    between atoms: C4_4  and  N1_6 
REMARK    2  A    between atoms: N1_6  and  C5_8 
REMARK    3  A    between atoms: C5_8  and  C6_9 
REMARK    4  A    between atoms: C6_9  and  O2_10 
REMARK    5  A    between atoms: N2_12  and  O3_14 
REMARK    6  A    between atoms: N3_18  and  C9_19 
REMARK    7  A    between atoms: C9_19  and  C10_20 
ROOT
HETATM    1  C5  UNL     1       4.569  -2.830  21.670  1.00  0.00     0.102 C 
HETATM    2  C7  UNL     1       3.918  -3.220  22.949  1.00  0.00     0.059 C 
HETATM    3  C8  UNL     1       4.808  -3.708  24.034  1.00  0.00     0.120 C 
HETATM    4  N3  UNL     1       5.797  -4.622  23.595  1.00  0.00    -0.408 N 
HETATM    5  C14 UNL     1       6.387  -4.398  22.324  1.00  0.00     0.120 C 
HETATM    6  C15 UNL     1       6.031  -3.142  21.620  1.00  0.00     0.059 C 
ENDROOT
BRANCH   1   7
HETATM    7  N1  UNL     1       4.398  -1.431  21.327  1.00  0.00    -0.344 N 
HETATM    8  C4  UNL     1       3.176  -0.740  21.255  1.00  0.00     0.222 C 
HETATM    9  O1  UNL     1       2.101  -1.317  21.491  1.00  0.00    -0.273 OA
ATOM     10  H1  UNL     1       5.243  -0.899  21.118  1.00  0.00     0.163 HD
BRANCH   8  11
HETATM   11  C2  UNL     1       3.159   0.687  20.894  1.00  0.00     0.070 C 
HETATM   12  C1  UNL     1       4.239   1.471  21.611  1.00  0.00     0.019 C 
HETATM   13  C3  UNL     1       3.336   0.897  19.405  1.00  0.00     0.019 C 
ENDBRANCH   8  11
ENDBRANCH   1   7
BRANCH   1  14
HETATM   14  C6  UNL     1       3.899  -3.627  20.572  1.00  0.00     0.164 C 
HETATM   15  N2  UNL     1       4.393  -3.713  19.395  1.00  0.00    -0.249 N 
ATOM     16  H2  UNL     1       5.265  -3.236  19.166  1.00  0.00     0.196 HD
BRANCH  14  17
HETATM   17  O2  UNL     1       2.713  -4.281  20.858  1.00  0.00    -0.346 OA
ATOM     18  H2  UNL     1       1.948  -3.761  21.073  1.00  0.00     0.219 HD
ENDBRANCH  14  17
BRANCH  15  19
HETATM   19  O3  UNL     1       3.738  -4.450  18.445  1.00  0.00    -0.288 OA
ATOM     20  H3  UNL     1       4.238  -4.859  17.748  1.00  0.00     0.244 HD
ENDBRANCH  15  19
ENDBRANCH   1  14
BRANCH   4  21
HETATM   21  C9  UNL     1       6.764  -4.971  24.614  1.00  0.00     0.177 C 
BRANCH  21  22
HETATM   22  C10 UNL     1       6.194  -4.653  25.968  1.00  0.00     0.276 C 
HETATM   23  O4  UNL     1       6.987  -3.714  26.632  1.00  0.00    -0.360 OA
HETATM   24  C11 UNL     1       6.814  -3.783  27.992  1.00  0.00     0.173 C 
HETATM   25  C12 UNL     1       7.295  -5.115  28.513  1.00  0.00     0.053 C 
HETATM   26  C13 UNL     1       7.233  -6.095  27.339  1.00  0.00     0.173 C 
HETATM   27  O5  UNL     1       6.037  -5.832  26.686  1.00  0.00    -0.360 OA
ENDBRANCH  21  22
ENDBRANCH   4  21
TORSDOF 7
ENDMDL
MODEL 4
REMARK VINA RESULT: -7.066330831      1.278      1.580
REMARK  7 active torsions:
REMARK  status: ('A' for Active; 'I' for Inactive)
REMARK    1  A    between atoms: C2_2  and  C4_4 
REMARK       I    between atoms: C4_4  and  N1_6 
REMARK    2  A    between atoms: N1_6  and  C5_8 
REMARK    3  A    between atoms: C5_8  and  C6_9 
REMARK    4  A    between atoms: C6_9  and  O2_10 
REMARK    5  A    between atoms: N2_12  and  O3_14 
REMARK    6  A    between atoms: N3_18  and  C9_19 
REMARK    7  A    between atoms: C9_19  and  C10_20 
ROOT
HETATM    1  C5  UNL     1       4.669  -3.404  21.045  1.00  0.00     0.102 C 
HETATM    2  C7  UNL     1       4.018  -4.192  22.126  1.00  0.00     0.059 C 
HETATM    3  C8  UNL     1       4.846  -4.510  23.318  1.00  0.00     0.120 C 
HETATM    4  N3  UNL     1       6.157  -4.946  23.004  1.00  0.00    -0.408 N 
HETATM    5  C14 UNL     1       6.812  -4.333  21.904  1.00  0.00     0.120 C 
HETATM    6  C15 UNL     1       6.132  -3.182  21.262  1.00  0.00     0.059 C 
ENDROOT
BRANCH   1   7
HETATM    7  N1  UNL     1       4.051  -2.114  20.806  1.00  0.00    -0.344 N 
HETATM    8  C4  UNL     1       4.142  -0.986  21.640  1.00  0.00     0.222 C 
HETATM    9  O1  UNL     1       4.792  -1.024  22.698  1.00  0.00    -0.273 OA
ATOM     10  H1  UNL     1       3.499  -2.016  19.954  1.00  0.00     0.163 HD
BRANCH   8  11
HETATM   11  C2  UNL     1       3.459   0.263  21.263  1.00  0.00     0.070 C 
HETATM   12  C1  UNL     1       4.201   1.490  21.750  1.00  0.00     0.019 C 
HETATM   13  C3  UNL     1       3.286   0.383  19.763  1.00  0.00     0.019 C 
ENDBRANCH   8  11
ENDBRANCH   1   7
BRANCH   1  14
HETATM   14  C6  UNL     1       4.517  -4.198  19.766  1.00  0.00     0.164 C 
HETATM   15  N2  UNL     1       3.482  -4.912  19.527  1.00  0.00    -0.249 N 
ATOM     16  H2  UNL     1       2.723  -4.963  20.206  1.00  0.00     0.196 HD
BRANCH  14  17
HETATM   17  O2  UNL     1       5.534  -4.145  18.829  1.00  0.00    -0.346 OA
ATOM     18  H2  UNL     1       5.811  -4.953  18.413  1.00  0.00     0.219 HD
ENDBRANCH  14  17
BRANCH  15  19
HETATM   19  O3  UNL     1       3.405  -5.606  18.350  1.00  0.00    -0.288 OA
ATOM     20  H3  UNL     1       2.924  -6.426  18.324  1.00  0.00     0.244 HD
ENDBRANCH  15  19
ENDBRANCH   1  14
BRANCH   4  21
HETATM   21  C9  UNL     1       7.015  -5.097  24.160  1.00  0.00     0.177 C 
BRANCH  21  22
HETATM   22  C10 UNL     1       6.221  -4.823  25.406  1.00  0.00     0.276 C 
HETATM   23  O4  UNL     1       6.800  -3.791  26.147  1.00  0.00    -0.360 OA
HETATM   24  C11 UNL     1       6.437  -3.857  27.469  1.00  0.00     0.173 C 
HETATM   25  C12 UNL     1       6.978  -5.118  28.098  1.00  0.00     0.053 C 
HETATM   26  C13 UNL     1       7.196  -6.117  26.959  1.00  0.00     0.173 C 
HETATM   27  O5  UNL     1       6.088  -6.001  26.131  1.00  0.00    -0.360 OA
ENDBRANCH  21  22
ENDBRANCH   4  21
TORSDOF 7
ENDMDL
MODEL 5
REMARK VINA RESULT: -7.035659494      2.620      7.153
REMARK  7 active torsions:
REMARK  status: ('A' for Active; 'I' for Inactive)
REMARK    1  A    between atoms: C2_2  and  C4_4 
REMARK       I    between atoms: C4_4  and  N1_6 
REMARK    2  A    between atoms: N1_6  and  C5_8 
REMARK    3  A    between atoms: C5_8  and  C6_9 
REMARK    4  A    between atoms: C6_9  and  O2_10 
REMARK    5  A    between atoms: N2_12  and  O3_14 
REMARK    6  A    between atoms: N3_18  and  C9_19 
REMARK    7  A    between atoms: C9_19  and  C10_20 
ROOT
HETATM    1  C5  UNL     1       5.237  -2.442  23.572  1.00  0.00     0.102 C 
HETATM    2  C7  UNL     1       4.377  -1.235  23.455  1.00  0.00     0.059 C 
HETATM    3  C8  UNL     1       3.269  -1.293  22.467  1.00  0.00     0.120 C 
HETATM    4  N3  UNL     1       3.644  -1.851  21.220  1.00  0.00    -0.408 N 
HETATM    5  C14 UNL     1       4.562  -2.933  21.228  1.00  0.00     0.120 C 
HETATM    6  C15 UNL     1       4.943  -3.491  22.548  1.00  0.00     0.059 C 
ENDROOT
BRANCH   1   7
HETATM    7  N1  UNL     1       5.193  -3.069  24.880  1.00  0.00    -0.344 N 
HETATM    8  C4  UNL     1       6.162  -3.937  25.413  1.00  0.00     0.222 C 
HETATM    9  O1  UNL     1       7.175  -4.243  24.762  1.00  0.00    -0.273 OA
ATOM     10  H1  UNL     1       4.385  -2.862  25.466  1.00  0.00     0.163 HD
BRANCH   8  11
HETATM   11  C2  UNL     1       5.982  -4.497  26.763  1.00  0.00     0.070 C 
HETATM   12  C1  UNL     1       4.534  -4.828  27.057  1.00  0.00     0.019 C 
HETATM   13  C3  UNL     1       6.802  -5.754  26.969  1.00  0.00     0.019 C 
ENDBRANCH   8  11
ENDBRANCH   1   7
BRANCH   1  14
HETATM   14  C6  UNL     1       6.665  -1.990  23.360  1.00  0.00     0.164 C 
HETATM   15  N2  UNL     1       7.154  -0.973  23.963  1.00  0.00    -0.249 N 
ATOM     16  H2  UNL     1       6.581  -0.433  24.612  1.00  0.00     0.196 HD
BRANCH  14  17
HETATM   17  O2  UNL     1       7.463  -2.705  22.483  1.00  0.00    -0.346 OA
ATOM     18  H2  UNL     1       8.292  -2.328  22.213  1.00  0.00     0.219 HD
ENDBRANCH  14  17
BRANCH  15  19
HETATM   19  O3  UNL     1       8.454  -0.615  23.727  1.00  0.00    -0.288 OA
ATOM     20  H3  UNL     1       8.978  -1.133  23.127  1.00  0.00     0.244 HD
ENDBRANCH  15  19
ENDBRANCH   1  14
BRANCH   4  21
HETATM   21  C9  UNL     1       2.532  -2.060  20.315  1.00  0.00     0.177 C 
BRANCH  21  22
HETATM   22  C10 UNL     1       2.583  -1.031  19.222  1.00  0.00     0.276 C 
HETATM   23  O4  UNL     1       3.552  -0.063  19.495  1.00  0.00    -0.360 OA
HETATM   24  C11 UNL     1       3.289   1.112  18.834  1.00  0.00     0.173 C 
HETATM   25  C12 UNL     1       2.003   1.718  19.339  1.00  0.00     0.053 C 
HETATM   26  C13 UNL     1       1.177   0.571  19.928  1.00  0.00     0.173 C 
HETATM   27  O5  UNL     1       1.314  -0.490  19.044  1.00  0.00    -0.360 OA
ENDBRANCH  21  22
ENDBRANCH   4  21
TORSDOF 7
ENDMDL
