MODEL 1
REMARK VINA RESULT: -5.819757660      0.000      0.000
REMARK  11 active torsions:
REMARK  status: ('A' for Active; 'I' for Inactive)
REMARK    1  A    between atoms: C2_2  and  N1_3 
REMARK    2  A    between atoms: C5_6  and  N2_7 
REMARK    3  A    between atoms: N2_7  and  N3_8 
REMARK    4  A    between atoms: N3_8  and  C6_10 
REMARK    5  A    between atoms: C6_10  and  O1_11 
REMARK    6  A    between atoms: C6_10  and  N4_13 
REMARK    7  A    between atoms: N4_13  and  C7_15 
REMARK    8  A    between atoms: C7_15  and  N5_17 
REMARK    9  A    between atoms: N5_17  and  C8_19 
REMARK   10  A    between atoms: C8_19  and  C9_20 
REMARK   11  A    between atoms: C12_23  and  O2_24 
ROOT
HETATM    1  N3  UNL     1       5.855  -1.464  24.381  1.00  0.00    -0.198 N 
ATOM      2  H3  UNL     1       6.170  -0.546  24.696  1.00  0.00     0.205 HD
ENDROOT
BRANCH   1   3
HETATM    3  N2  UNL     1       4.811  -1.523  23.565  1.00  0.00    -0.329 NA
BRANCH   3   4
HETATM    4  C5  UNL     1       3.904  -1.564  22.840  1.00  0.00     0.122 C 
HETATM    5  C4  UNL     1       3.574  -2.830  22.057  1.00  0.00     0.093 C 
HETATM    6  C3  UNL     1       4.050  -2.440  20.653  1.00  0.00     0.129 C 
HETATM    7  N1  UNL     1       3.417  -1.271  20.170  1.00  0.00    -0.390 N 
HETATM    8  C14 UNL     1       3.242  -0.181  21.030  1.00  0.00     0.097 C 
HETATM    9  C12 UNL     1       2.956  -0.487  22.490  1.00  0.00     0.221 C 
BRANCH   7  10
HETATM   10  C2  UNL     1       2.371  -1.535  19.215  1.00  0.00     0.117 C 
HETATM   11  C1  UNL     1       2.772  -2.819  18.480  1.00  0.00     0.026 C 
ENDBRANCH   7  10
BRANCH   9  12
HETATM   12  O2  UNL     1       3.065   0.622  23.282  1.00  0.00    -0.379 OA
HETATM   13  C13 UNL     1       3.426   1.682  22.456  1.00  0.00     0.203 C 
ENDBRANCH   9  12
ENDBRANCH   3   4
ENDBRANCH   1   3
BRANCH   1  14
HETATM   14  C6  UNL     1       6.557  -2.609  24.841  1.00  0.00     0.249 C 
BRANCH  14  15
HETATM   15  O1  UNL     1       7.105  -2.467  26.026  1.00  0.00    -0.331 OA
ATOM     16  H1  UNL     1       7.726  -1.751  26.087  1.00  0.00     0.221 HD
ENDBRANCH  14  15
BRANCH  14  17
HETATM   17  N4  UNL     1       6.756  -3.857  24.244  1.00  0.00    -0.297 N 
ATOM     18  H4  UNL     1       7.330  -3.919  23.403  1.00  0.00     0.172 HD
BRANCH  17  19
HETATM   19  C7  UNL     1       6.182  -5.033  24.773  1.00  0.00     0.174 C 
HETATM   20  S1  UNL     1       5.598  -6.135  23.664  1.00  0.00    -0.041 SA
BRANCH  19  21
HETATM   21  N5  UNL     1       6.038  -5.352  26.165  1.00  0.00    -0.367 N 
ATOM     22  H5  UNL     1       5.239  -5.063  26.730  1.00  0.00     0.161 HD
BRANCH  21  23
HETATM   23  C8  UNL     1       7.134  -6.122  26.678  1.00  0.00     0.126 C 
BRANCH  23  24
HETATM   24  C9  UNL     1       7.530  -6.055  28.076  1.00  0.00    -0.005 C 
HETATM   25  C10 UNL     1       9.009  -6.585  28.095  1.00  0.00     0.011 C 
HETATM   26  C11 UNL     1       7.587  -4.716  28.730  1.00  0.00     0.011 C 
ENDBRANCH  23  24
ENDBRANCH  21  23
ENDBRANCH  19  21
ENDBRANCH  17  19
ENDBRANCH  14  17
ENDBRANCH   1  14
TORSDOF 11
ENDMDL
MODEL 2
REMARK VINA RESULT: -5.786828045      2.277      6.660
REMARK  11 active torsions:
REMARK  status: ('A' for Active; 'I' for Inactive)
REMARK    1  A    between atoms: C2_2  and  N1_3 
REMARK    2  A    between atoms: C5_6  and  N2_7 
REMARK    3  A    between atoms: N2_7  and  N3_8 
REMARK    4  A    between atoms: N3_8  and  C6_10 
REMARK    5  A    between atoms: C6_10  and  O1_11 
REMARK    6  A    between atoms: C6_10  and  N4_13 
REMARK    7  A    between atoms: N4_13  and  C7_15 
REMARK    8  A    between atoms: C7_15  and  N5_17 
REMARK    9  A    between atoms: N5_17  and  C8_19 
REMARK   10  A    between atoms: C8_19  and  C9_20 
REMARK   11  A    between atoms: C12_23  and  O2_24 
ROOT
HETATM    1  N3  UNL     1       3.471  -0.892  24.033  1.00  0.00    -0.198 N 
ATOM      2  H3  UNL     1       2.839  -0.766  24.824  1.00  0.00     0.205 HD
ENDROOT
BRANCH   1   3
HETATM    3  N2  UNL     1       4.288  -1.938  24.044  1.00  0.00    -0.329 NA
BRANCH   3   4
HETATM    4  C5  UNL     1       5.006  -2.852  24.070  1.00  0.00     0.122 C 
HETATM    5  C4  UNL     1       4.473  -4.279  24.032  1.00  0.00     0.093 C 
HETATM    6  C3  UNL     1       4.670  -4.707  25.490  1.00  0.00     0.129 C 
HETATM    7  N1  UNL     1       6.016  -4.595  25.911  1.00  0.00    -0.390 N 
HETATM    8  C14 UNL     1       6.757  -3.465  25.549  1.00  0.00     0.097 C 
HETATM    9  C12 UNL     1       6.479  -2.861  24.184  1.00  0.00     0.221 C 
BRANCH   7  10
HETATM   10  C2  UNL     1       6.712  -5.857  25.955  1.00  0.00     0.117 C 
HETATM   11  C1  UNL     1       7.160  -6.053  27.407  1.00  0.00     0.026 C 
ENDBRANCH   7  10
BRANCH   9  12
HETATM   12  O2  UNL     1       7.051  -1.628  24.038  1.00  0.00    -0.379 OA
HETATM   13  C13 UNL     1       7.489  -1.227  25.296  1.00  0.00     0.203 C 
ENDBRANCH   9  12
ENDBRANCH   3   4
ENDBRANCH   1   3
BRANCH   1  14
HETATM   14  C6  UNL     1       3.429   0.060  22.982  1.00  0.00     0.249 C 
BRANCH  14  15
HETATM   15  O1  UNL     1       2.750   1.148  23.264  1.00  0.00    -0.331 OA
ATOM     16  H1  UNL     1       3.069   1.931  22.833  1.00  0.00     0.221 HD
ENDBRANCH  14  15
BRANCH  14  17
HETATM   17  N4  UNL     1       3.994   0.031  21.704  1.00  0.00    -0.297 N 
ATOM     18  H4  UNL     1       4.717   0.709  21.465  1.00  0.00     0.172 HD
BRANCH  17  19
HETATM   19  C7  UNL     1       3.590  -0.913  20.735  1.00  0.00     0.174 C 
HETATM   20  S1  UNL     1       2.914  -0.297  19.338  1.00  0.00    -0.041 SA
BRANCH  19  21
HETATM   21  N5  UNL     1       3.686  -2.340  20.851  1.00  0.00    -0.367 N 
ATOM     22  H5  UNL     1       3.666  -2.836  21.743  1.00  0.00     0.161 HD
BRANCH  21  23
HETATM   23  C8  UNL     1       3.812  -2.997  19.583  1.00  0.00     0.126 C 
BRANCH  23  24
HETATM   24  C9  UNL     1       4.901  -3.919  19.301  1.00  0.00    -0.005 C 
HETATM   25  C10 UNL     1       5.858  -3.792  20.541  1.00  0.00     0.011 C 
HETATM   26  C11 UNL     1       4.585  -5.374  19.199  1.00  0.00     0.011 C 
ENDBRANCH  23  24
ENDBRANCH  21  23
ENDBRANCH  19  21
ENDBRANCH  17  19
ENDBRANCH  14  17
ENDBRANCH   1  14
TORSDOF 11
ENDMDL
MODEL 3
REMARK VINA RESULT: -5.730559019      3.081      4.570
REMARK  11 active torsions:
REMARK  status: ('A' for Active; 'I' for Inactive)
REMARK    1  A    between atoms: C2_2  and  N1_3 
REMARK    2  A    between atoms: C5_6  and  N2_7 
REMARK    3  A    between atoms: N2_7  and  N3_8 
REMARK    4  A    between atoms: N3_8  and  C6_10 
REMARK    5  A    between atoms: C6_10  and  O1_11 
REMARK    6  A    between atoms: C6_10  and  N4_13 
REMARK    7  A    between atoms: N4_13  and  C7_15 
REMARK    8  A    between atoms: C7_15  and  N5_17 
REMARK    9  A    between atoms: N5_17  and  C8_19 
REMARK   10  A    between atoms: C8_19  and  C9_20 
REMARK   11  A    between atoms: C12_23  and  O2_24 
ROOT
HETATM    1  N3  UNL     1       3.639  -3.790  26.044  1.00  0.00    -0.198 N 
ATOM      2  H3  UNL     1       2.719  -3.365  26.158  1.00  0.00     0.205 HD
ENDROOT
BRANCH   1   3
HETATM    3  N2  UNL     1       4.274  -3.608  24.893  1.00  0.00    -0.329 NA
BRANCH   3   4
HETATM    4  C5  UNL     1       4.827  -3.465  23.881  1.00  0.00     0.122 C 
HETATM    5  C4  UNL     1       4.260  -2.565  22.790  1.00  0.00     0.093 C 
HETATM    6  C3  UNL     1       3.736  -3.605  21.793  1.00  0.00     0.129 C 
HETATM    7  N1  UNL     1       4.747  -4.492  21.354  1.00  0.00    -0.390 N 
HETATM    8  C14 UNL     1       5.658  -5.009  22.282  1.00  0.00     0.097 C 
HETATM    9  C12 UNL     1       6.081  -4.096  23.420  1.00  0.00     0.221 C 
BRANCH   7  10
HETATM   10  C2  UNL     1       5.244  -4.191  20.035  1.00  0.00     0.117 C 
HETATM   11  C1  UNL     1       4.081  -3.550  19.271  1.00  0.00     0.026 C 
ENDBRANCH   7  10
BRANCH   9  12
HETATM   12  O2  UNL     1       6.752  -4.770  24.402  1.00  0.00    -0.379 OA
HETATM   13  C13 UNL     1       6.536  -6.128  24.187  1.00  0.00     0.203 C 
ENDBRANCH   9  12
ENDBRANCH   3   4
ENDBRANCH   1   3
BRANCH   1  14
HETATM   14  C6  UNL     1       4.170  -4.543  27.124  1.00  0.00     0.249 C 
BRANCH  14  15
HETATM   15  O1  UNL     1       3.721  -5.775  27.196  1.00  0.00    -0.331 OA
ATOM     16  H1  UNL     1       3.953  -6.228  27.997  1.00  0.00     0.221 HD
ENDBRANCH  14  15
BRANCH  14  17
HETATM   17  N4  UNL     1       5.090  -4.189  28.114  1.00  0.00    -0.297 N 
ATOM     18  H4  UNL     1       4.780  -4.136  29.084  1.00  0.00     0.172 HD
BRANCH  17  19
HETATM   19  C7  UNL     1       6.439  -3.905  27.808  1.00  0.00     0.174 C 
HETATM   20  S1  UNL     1       7.586  -4.589  28.809  1.00  0.00    -0.041 SA
BRANCH  19  21
HETATM   21  N5  UNL     1       6.906  -3.071  26.737  1.00  0.00    -0.367 N 
ATOM     22  H5  UNL     1       6.777  -3.295  25.750  1.00  0.00     0.161 HD
BRANCH  21  23
HETATM   23  C8  UNL     1       7.572  -1.888  27.201  1.00  0.00     0.126 C 
BRANCH  23  24
HETATM   24  C9  UNL     1       7.777  -0.735  26.338  1.00  0.00    -0.005 C 
HETATM   25  C10 UNL     1       9.296  -0.375  26.512  1.00  0.00     0.011 C 
HETATM   26  C11 UNL     1       7.582  -0.910  24.869  1.00  0.00     0.011 C 
ENDBRANCH  23  24
ENDBRANCH  21  23
ENDBRANCH  19  21
ENDBRANCH  17  19
ENDBRANCH  14  17
ENDBRANCH   1  14
TORSDOF 11
ENDMDL
MODEL 4
REMARK VINA RESULT: -5.726512271      1.818      2.587
REMARK  11 active torsions:
REMARK  status: ('A' for Active; 'I' for Inactive)
REMARK    1  A    between atoms: C2_2  and  N1_3 
REMARK    2  A    between atoms: C5_6  and  N2_7 
REMARK    3  A    between atoms: N2_7  and  N3_8 
REMARK    4  A    between atoms: N3_8  and  C6_10 
REMARK    5  A    between atoms: C6_10  and  O1_11 
REMARK    6  A    between atoms: C6_10  and  N4_13 
REMARK    7  A    between atoms: N4_13  and  C7_15 
REMARK    8  A    between atoms: C7_15  and  N5_17 
REMARK    9  A    between atoms: N5_17  and  C8_19 
REMARK   10  A    between atoms: C8_19  and  C9_20 
REMARK   11  A    between atoms: C12_23  and  O2_24 
ROOT
HETATM    1  N3  UNL     1       6.518  -1.252  24.757  1.00  0.00    -0.198 N 
ATOM      2  H3  UNL     1       6.950  -0.389  25.088  1.00  0.00     0.205 HD
ENDROOT
BRANCH   1   3
HETATM    3  N2  UNL     1       5.769  -1.199  23.664  1.00  0.00    -0.329 NA
BRANCH   3   4
HETATM    4  C5  UNL     1       5.123  -1.162  22.698  1.00  0.00     0.122 C 
HETATM    5  C4  UNL     1       4.412   0.116  22.269  1.00  0.00     0.093 C 
HETATM    6  C3  UNL     1       2.961  -0.217  22.637  1.00  0.00     0.129 C 
HETATM    7  N1  UNL     1       2.495  -1.389  21.997  1.00  0.00    -0.390 N 
HETATM    8  C14 UNL     1       3.330  -2.510  21.925  1.00  0.00     0.097 C 
HETATM    9  C12 UNL     1       4.818  -2.257  21.754  1.00  0.00     0.221 C 
BRANCH   7  10
HETATM   10  C2  UNL     1       1.638  -1.128  20.869  1.00  0.00     0.117 C 
HETATM   11  C1  UNL     1       0.599  -2.254  20.844  1.00  0.00     0.026 C 
ENDBRANCH   7  10
BRANCH   9  12
HETATM   12  O2  UNL     1       5.561  -3.385  21.959  1.00  0.00    -0.379 OA
HETATM   13  C13 UNL     1       5.021  -4.384  21.155  1.00  0.00     0.203 C 
ENDBRANCH   9  12
ENDBRANCH   3   4
ENDBRANCH   1   3
BRANCH   1  14
HETATM   14  C6  UNL     1       6.751  -2.444  25.492  1.00  0.00     0.249 C 
BRANCH  14  15
HETATM   15  O1  UNL     1       7.446  -2.273  26.593  1.00  0.00    -0.331 OA
ATOM     16  H1  UNL     1       7.579  -3.066  27.099  1.00  0.00     0.221 HD
ENDBRANCH  14  15
BRANCH  14  17
HETATM   17  N4  UNL     1       6.359  -3.761  25.239  1.00  0.00    -0.297 N 
ATOM     18  H4  UNL     1       6.913  -4.330  24.599  1.00  0.00     0.172 HD
BRANCH  17  19
HETATM   19  C7  UNL     1       5.216  -4.326  25.846  1.00  0.00     0.174 C 
HETATM   20  S1  UNL     1       4.245  -5.265  24.867  1.00  0.00    -0.041 SA
BRANCH  19  21
HETATM   21  N5  UNL     1       4.807  -4.147  27.210  1.00  0.00    -0.367 N 
ATOM     22  H5  UNL     1       4.403  -3.282  27.569  1.00  0.00     0.161 HD
BRANCH  21  23
HETATM   23  C8  UNL     1       5.024  -5.314  28.016  1.00  0.00     0.126 C 
BRANCH  23  24
HETATM   24  C9  UNL     1       6.113  -5.389  28.978  1.00  0.00    -0.005 C 
HETATM   25  C10 UNL     1       7.226  -6.227  28.251  1.00  0.00     0.011 C 
HETATM   26  C11 UNL     1       6.783  -4.120  29.385  1.00  0.00     0.011 C 
ENDBRANCH  23  24
ENDBRANCH  21  23
ENDBRANCH  19  21
ENDBRANCH  17  19
ENDBRANCH  14  17
ENDBRANCH   1  14
TORSDOF 11
ENDMDL
MODEL 5
REMARK VINA RESULT: -5.720031942      2.465      7.168
REMARK  11 active torsions:
REMARK  status: ('A' for Active; 'I' for Inactive)
REMARK    1  A    between atoms: C2_2  and  N1_3 
REMARK    2  A    between atoms: C5_6  and  N2_7 
REMARK    3  A    between atoms: N2_7  and  N3_8 
REMARK    4  A    between atoms: N3_8  and  C6_10 
REMARK    5  A    between atoms: C6_10  and  O1_11 
REMARK    6  A    between atoms: C6_10  and  N4_13 
REMARK    7  A    between atoms: N4_13  and  C7_15 
REMARK    8  A    between atoms: C7_15  and  N5_17 
REMARK    9  A    between atoms: N5_17  and  C8_19 
REMARK   10  A    between atoms: C8_19  and  C9_20 
REMARK   11  A    between atoms: C12_23  and  O2_24 
ROOT
HETATM    1  N3  UNL     1       4.064  -2.006  24.240  1.00  0.00    -0.198 N 
ATOM      2  H3  UNL     1       3.099  -1.725  24.410  1.00  0.00     0.205 HD
ENDROOT
BRANCH   1   3
HETATM    3  N2  UNL     1       4.510  -3.108  24.829  1.00  0.00    -0.329 NA
BRANCH   3   4
HETATM    4  C5  UNL     1       4.895  -4.067  25.360  1.00  0.00     0.122 C 
HETATM    5  C4  UNL     1       3.985  -4.893  26.261  1.00  0.00     0.093 C 
HETATM    6  C3  UNL     1       4.515  -4.508  27.647  1.00  0.00     0.129 C 
HETATM    7  N1  UNL     1       5.895  -4.785  27.796  1.00  0.00    -0.390 N 
HETATM    8  C14 UNL     1       6.773  -4.478  26.751  1.00  0.00     0.097 C 
HETATM    9  C12 UNL     1       6.253  -4.650  25.334  1.00  0.00     0.221 C 
BRANCH   7  10
HETATM   10  C2  UNL     1       6.164  -5.977  28.559  1.00  0.00     0.117 C 
HETATM   11  C1  UNL     1       7.608  -6.378  28.239  1.00  0.00     0.026 C 
ENDBRANCH   7  10
BRANCH   9  12
HETATM   12  O2  UNL     1       7.079  -4.081  24.407  1.00  0.00    -0.379 OA
HETATM   13  C13 UNL     1       7.112  -4.935  23.308  1.00  0.00     0.203 C 
ENDBRANCH   9  12
ENDBRANCH   3   4
ENDBRANCH   1   3
BRANCH   1  14
HETATM   14  C6  UNL     1       4.858  -1.196  23.385  1.00  0.00     0.249 C 
BRANCH  14  15
HETATM   15  O1  UNL     1       6.140  -1.475  23.414  1.00  0.00    -0.331 OA
ATOM     16  H1  UNL     1       6.699  -0.729  23.593  1.00  0.00     0.221 HD
ENDBRANCH  14  15
BRANCH  14  17
HETATM   17  N4  UNL     1       4.497  -0.159  22.520  1.00  0.00    -0.297 N 
ATOM     18  H4  UNL     1       4.819   0.788  22.720  1.00  0.00     0.172 HD
BRANCH  17  19
HETATM   19  C7  UNL     1       3.699  -0.388  21.379  1.00  0.00     0.174 C 
HETATM   20  S1  UNL     1       3.462   0.919  20.368  1.00  0.00    -0.041 SA
BRANCH  19  21
HETATM   21  N5  UNL     1       3.062  -1.625  21.025  1.00  0.00    -0.367 N 
ATOM     22  H5  UNL     1       2.184  -1.943  21.434  1.00  0.00     0.161 HD
BRANCH  21  23
HETATM   23  C8  UNL     1       3.790  -2.365  20.035  1.00  0.00     0.126 C 
BRANCH  23  24
HETATM   24  C9  UNL     1       4.629  -3.499  20.389  1.00  0.00    -0.005 C 
HETATM   25  C10 UNL     1       3.795  -4.289  21.462  1.00  0.00     0.011 C 
HETATM   26  C11 UNL     1       4.946  -4.499  19.328  1.00  0.00     0.011 C 
ENDBRANCH  23  24
ENDBRANCH  21  23
ENDBRANCH  19  21
ENDBRANCH  17  19
ENDBRANCH  14  17
ENDBRANCH   1  14
TORSDOF 11
ENDMDL
