MODEL 1
REMARK VINA RESULT: -6.934014579      0.000      0.000
REMARK  6 active torsions:
REMARK  status: ('A' for Active; 'I' for Inactive)
REMARK    1  A    between atoms: C2_2  and  C3_3 
REMARK    2  A    between atoms: C7_10  and  C8_11 
REMARK    3  A    between atoms: C8_11  and  N3_12 
REMARK    4  A    between atoms: N3_12  and  C9_15 
REMARK    5  A    between atoms: C13_22  and  N5_23 
REMARK    6  A    between atoms: C16_26  and  O1_27 
ROOT
HETATM    1  C9  UNL     1       4.949  -3.845  23.096  1.00  0.00     0.222 C 
HETATM    2  C10 UNL     1       5.180  -4.657  21.807  1.00  0.00     0.062 C 
HETATM    3  C11 UNL     1       4.304  -5.901  21.847  1.00  0.00     0.234 C 
HETATM    4  N4  UNL     1       4.866  -6.758  22.843  1.00  0.00    -0.073 N 
ATOM      5  H41 UNL     1       5.524  -7.417  22.427  1.00  0.00     0.277 HD
ATOM      6  H42 UNL     1       4.169  -7.416  23.192  1.00  0.00     0.277 HD
HETATM    7  C12 UNL     1       5.494  -6.017  23.953  1.00  0.00     0.270 C 
HETATM    8  C13 UNL     1       4.698  -4.728  24.179  1.00  0.00     0.278 C 
ENDROOT
BRANCH   1   9
HETATM    9  N3  UNL     1       3.989  -2.794  22.697  1.00  0.00    -0.065 N 
ATOM     10  H32 UNL     1       3.745  -2.130  23.432  1.00  0.00     0.278 HD
ATOM     11  H31 UNL     1       3.033  -3.117  22.541  1.00  0.00     0.278 HD
BRANCH   9  12
HETATM   12  C8  UNL     1       4.650  -2.211  21.524  1.00  0.00     0.275 C 
BRANCH  12  13
HETATM   13  C7  UNL     1       3.900  -1.294  20.664  1.00  0.00     0.015 A 
HETATM   14  C3  UNL     1       3.227  -1.798  19.542  1.00  0.00     0.035 A 
HETATM   15  N1  UNL     1       2.536  -0.732  18.998  1.00  0.00    -0.302 N 
HETATM   16  N2  UNL     1       2.773   0.305  19.744  1.00  0.00    -0.300 N 
ATOM     17  H1  UNL     1       1.949  -0.755  18.165  1.00  0.00     0.186 HD
HETATM   18  C4  UNL     1       2.119   1.578  19.524  1.00  0.00     0.177 C 
HETATM   19  C5  UNL     1       3.614   0.039  20.802  1.00  0.00     0.034 A 
HETATM   20  C6  UNL     1       4.104   1.093  21.682  1.00  0.00     0.070 C 
BRANCH  14  21
HETATM   21  C2  UNL     1       3.289  -3.156  19.011  1.00  0.00     0.055 C 
HETATM   22  C1  UNL     1       2.049  -3.878  19.491  1.00  0.00     0.011 C 
ENDBRANCH  14  21
ENDBRANCH  12  13
ENDBRANCH   9  12
ENDBRANCH   1   9
BRANCH   8  23
HETATM   23  N5  UNL     1       4.907  -4.161  25.498  1.00  0.00     0.097 N 
HETATM   24  C14 UNL     1       6.187  -4.332  26.031  1.00  0.00     0.275 C 
HETATM   25  C15 UNL     1       6.444  -5.434  27.020  1.00  0.00     0.062 C 
HETATM   26  C16 UNL     1       5.461  -5.145  28.165  1.00  0.00     0.121 C 
HETATM   27  C17 UNL     1       4.111  -5.388  27.516  1.00  0.00     0.062 C 
HETATM   28  C18 UNL     1       3.833  -4.522  26.357  1.00  0.00     0.275 C 
BRANCH  26  29
HETATM   29  O1  UNL     1       5.679  -5.985  29.222  1.00  0.00    -0.395 OA
ATOM     30  H1  UNL     1       4.907  -6.505  29.409  1.00  0.00     0.210 HD
ENDBRANCH  26  29
ENDBRANCH   8  23
TORSDOF 6
ENDMDL
MODEL 2
REMARK VINA RESULT: -6.837629637      2.950      6.548
REMARK  6 active torsions:
REMARK  status: ('A' for Active; 'I' for Inactive)
REMARK    1  A    between atoms: C2_2  and  C3_3 
REMARK    2  A    between atoms: C7_10  and  C8_11 
REMARK    3  A    between atoms: C8_11  and  N3_12 
REMARK    4  A    between atoms: N3_12  and  C9_15 
REMARK    5  A    between atoms: C13_22  and  N5_23 
REMARK    6  A    between atoms: C16_26  and  O1_27 
ROOT
HETATM    1  C9  UNL     1       4.153  -3.036  21.193  1.00  0.00     0.222 C 
HETATM    2  C10 UNL     1       4.600  -4.473  20.863  1.00  0.00     0.062 C 
HETATM    3  C11 UNL     1       5.027  -4.533  19.404  1.00  0.00     0.234 C 
HETATM    4  N4  UNL     1       3.834  -4.408  18.629  1.00  0.00    -0.073 N 
ATOM      5  H41 UNL     1       3.452  -5.325  18.398  1.00  0.00     0.277 HD
ATOM      6  H42 UNL     1       4.044  -4.074  17.688  1.00  0.00     0.277 HD
HETATM    7  C12 UNL     1       2.814  -3.559  19.273  1.00  0.00     0.270 C 
HETATM    8  C13 UNL     1       3.533  -2.456  20.055  1.00  0.00     0.278 C 
ENDROOT
BRANCH   1   9
HETATM    9  N3  UNL     1       5.332  -2.427  21.844  1.00  0.00    -0.065 N 
ATOM     10  H32 UNL     1       5.183  -1.492  22.223  1.00  0.00     0.278 HD
ATOM     11  H31 UNL     1       6.084  -2.154  21.211  1.00  0.00     0.278 HD
BRANCH   9  12
HETATM   12  C8  UNL     1       5.692  -3.450  22.832  1.00  0.00     0.275 C 
BRANCH  12  13
HETATM   13  C7  UNL     1       6.095  -3.034  24.177  1.00  0.00     0.015 A 
HETATM   14  C3  UNL     1       5.741  -3.828  25.277  1.00  0.00     0.035 A 
HETATM   15  N1  UNL     1       6.341  -3.246  26.378  1.00  0.00    -0.302 N 
HETATM   16  N2  UNL     1       7.000  -2.208  25.958  1.00  0.00    -0.300 N 
ATOM     17  H1  UNL     1       6.277  -3.570  27.342  1.00  0.00     0.186 HD
HETATM   18  C4  UNL     1       7.839  -1.420  26.837  1.00  0.00     0.177 C 
HETATM   19  C5  UNL     1       6.897  -2.006  24.598  1.00  0.00     0.034 A 
HETATM   20  C6  UNL     1       7.457  -0.827  23.949  1.00  0.00     0.070 C 
BRANCH  14  21
HETATM   21  C2  UNL     1       4.865  -4.994  25.281  1.00  0.00     0.055 C 
HETATM   22  C1  UNL     1       3.775  -4.728  26.295  1.00  0.00     0.011 C 
ENDBRANCH  14  21
ENDBRANCH  12  13
ENDBRANCH   9  12
ENDBRANCH   1   9
BRANCH   8  23
HETATM   23  N5  UNL     1       2.681  -1.314  20.331  1.00  0.00     0.097 N 
HETATM   24  C14 UNL     1       3.110  -0.099  19.794  1.00  0.00     0.275 C 
HETATM   25  C15 UNL     1       3.847   0.884  20.661  1.00  0.00     0.062 C 
HETATM   26  C16 UNL     1       2.875   1.164  21.817  1.00  0.00     0.121 C 
HETATM   27  C17 UNL     1       2.822  -0.168  22.541  1.00  0.00     0.062 C 
HETATM   28  C18 UNL     1       2.340  -1.287  21.712  1.00  0.00     0.275 C 
BRANCH  26  29
HETATM   29  O1  UNL     1       3.346   2.165  22.622  1.00  0.00    -0.395 OA
ATOM     30  H1  UNL     1       2.873   2.192  23.444  1.00  0.00     0.210 HD
ENDBRANCH  26  29
ENDBRANCH   8  23
TORSDOF 6
ENDMDL
MODEL 3
REMARK VINA RESULT: -6.796783633      2.834      7.452
REMARK  6 active torsions:
REMARK  status: ('A' for Active; 'I' for Inactive)
REMARK    1  A    between atoms: C2_2  and  C3_3 
REMARK    2  A    between atoms: C7_10  and  C8_11 
REMARK    3  A    between atoms: C8_11  and  N3_12 
REMARK    4  A    between atoms: N3_12  and  C9_15 
REMARK    5  A    between atoms: C13_22  and  N5_23 
REMARK    6  A    between atoms: C16_26  and  O1_27 
ROOT
HETATM    1  C9  UNL     1       3.457  -0.851  21.490  1.00  0.00     0.222 C 
HETATM    2  C10 UNL     1       4.119   0.262  22.325  1.00  0.00     0.062 C 
HETATM    3  C11 UNL     1       3.030   1.142  22.922  1.00  0.00     0.234 C 
HETATM    4  N4  UNL     1       2.467   1.879  21.837  1.00  0.00    -0.073 N 
ATOM      5  H41 UNL     1       2.929   2.782  21.731  1.00  0.00     0.277 HD
ATOM      6  H42 UNL     1       1.525   2.200  22.064  1.00  0.00     0.277 HD
HETATM    7  C12 UNL     1       2.475   1.131  20.565  1.00  0.00     0.270 C 
HETATM    8  C13 UNL     1       2.275  -0.353  20.882  1.00  0.00     0.278 C 
ENDROOT
BRANCH   1   9
HETATM    9  N3  UNL     1       3.447  -2.024  22.390  1.00  0.00    -0.065 N 
ATOM     10  H32 UNL     1       2.853  -2.796  22.087  1.00  0.00     0.278 HD
ATOM     11  H31 UNL     1       2.971  -1.883  23.281  1.00  0.00     0.278 HD
BRANCH   9  12
HETATM   12  C8  UNL     1       4.876  -2.340  22.490  1.00  0.00     0.275 C 
BRANCH  12  13
HETATM   13  C7  UNL     1       5.388  -2.955  23.715  1.00  0.00     0.015 A 
HETATM   14  C3  UNL     1       6.395  -2.306  24.443  1.00  0.00     0.035 A 
HETATM   15  N1  UNL     1       6.592  -3.061  25.583  1.00  0.00    -0.302 N 
HETATM   16  N2  UNL     1       5.763  -4.061  25.535  1.00  0.00    -0.300 N 
ATOM     17  H1  UNL     1       7.264  -2.870  26.325  1.00  0.00     0.186 HD
HETATM   18  C4  UNL     1       5.624  -5.001  26.628  1.00  0.00     0.177 C 
HETATM   19  C5  UNL     1       4.978  -4.068  24.403  1.00  0.00     0.034 A 
HETATM   20  C6  UNL     1       4.075  -5.171  24.098  1.00  0.00     0.070 C 
BRANCH  14  21
HETATM   21  C2  UNL     1       7.136  -1.111  24.053  1.00  0.00     0.055 C 
HETATM   22  C1  UNL     1       7.952  -0.684  25.253  1.00  0.00     0.011 C 
ENDBRANCH  14  21
ENDBRANCH  12  13
ENDBRANCH   9  12
ENDBRANCH   1   9
BRANCH   8  23
HETATM   23  N5  UNL     1       1.802  -1.114  19.740  1.00  0.00     0.097 N 
HETATM   24  C14 UNL     1       0.839  -2.085  20.021  1.00  0.00     0.275 C 
HETATM   25  C15 UNL     1       1.248  -3.524  20.167  1.00  0.00     0.062 C 
HETATM   26  C16 UNL     1       1.919  -3.860  18.827  1.00  0.00     0.121 C 
HETATM   27  C17 UNL     1       3.170  -3.000  18.854  1.00  0.00     0.062 C 
HETATM   28  C18 UNL     1       2.906  -1.555  18.959  1.00  0.00     0.275 C 
BRANCH  26  29
HETATM   29  O1  UNL     1       2.216  -5.193  18.748  1.00  0.00    -0.395 OA
ATOM     30  H1  UNL     1       2.741  -5.469  19.489  1.00  0.00     0.210 HD
ENDBRANCH  26  29
ENDBRANCH   8  23
TORSDOF 6
ENDMDL
MODEL 4
REMARK VINA RESULT: -6.788449738      3.401      7.490
REMARK  6 active torsions:
REMARK  status: ('A' for Active; 'I' for Inactive)
REMARK    1  A    between atoms: C2_2  and  C3_3 
REMARK    2  A    between atoms: C7_10  and  C8_11 
REMARK    3  A    between atoms: C8_11  and  N3_12 
REMARK    4  A    between atoms: N3_12  and  C9_15 
REMARK    5  A    between atoms: C13_22  and  N5_23 
REMARK    6  A    between atoms: C16_26  and  O1_27 
ROOT
HETATM    1  C9  UNL     1       4.417  -3.037  21.338  1.00  0.00     0.222 C 
HETATM    2  C10 UNL     1       4.663  -4.441  20.752  1.00  0.00     0.062 C 
HETATM    3  C11 UNL     1       4.901  -4.314  19.254  1.00  0.00     0.234 C 
HETATM    4  N4  UNL     1       3.642  -3.967  18.674  1.00  0.00    -0.073 N 
ATOM      5  H41 UNL     1       3.138  -4.800  18.372  1.00  0.00     0.277 HD
ATOM      6  H42 UNL     1       3.771  -3.512  17.770  1.00  0.00     0.277 HD
HETATM    7  C12 UNL     1       2.806  -3.139  19.564  1.00  0.00     0.270 C 
HETATM    8  C13 UNL     1       3.730  -2.237  20.387  1.00  0.00     0.278 C 
ENDROOT
BRANCH   1   9
HETATM    9  N3  UNL     1       5.725  -2.642  21.901  1.00  0.00    -0.065 N 
ATOM     10  H32 UNL     1       6.269  -2.000  21.325  1.00  0.00     0.278 HD
ATOM     11  H31 UNL     1       6.432  -3.378  21.914  1.00  0.00     0.278 HD
BRANCH   9  12
HETATM   12  C8  UNL     1       5.341  -2.125  23.219  1.00  0.00     0.275 C 
BRANCH  12  13
HETATM   13  C7  UNL     1       5.726  -2.871  24.419  1.00  0.00     0.015 A 
HETATM   14  C3  UNL     1       6.678  -2.326  25.292  1.00  0.00     0.035 A 
HETATM   15  N1  UNL     1       6.754  -3.193  26.365  1.00  0.00    -0.302 N 
HETATM   16  N2  UNL     1       5.909  -4.155  26.148  1.00  0.00    -0.300 N 
ATOM     17  H1  UNL     1       7.361  -3.095  27.179  1.00  0.00     0.186 HD
HETATM   18  C4  UNL     1       5.650  -5.190  27.128  1.00  0.00     0.177 C 
HETATM   19  C5  UNL     1       5.229  -4.030  24.956  1.00  0.00     0.034 A 
HETATM   20  C6  UNL     1       4.331  -5.069  24.467  1.00  0.00     0.070 C 
BRANCH  14  21
HETATM   21  C2  UNL     1       7.480  -1.125  25.087  1.00  0.00     0.055 C 
HETATM   22  C1  UNL     1       8.065  -0.746  26.430  1.00  0.00     0.011 C 
ENDBRANCH  14  21
ENDBRANCH  12  13
ENDBRANCH   9  12
ENDBRANCH   1   9
BRANCH   8  23
HETATM   23  N5  UNL     1       3.045  -1.081  20.935  1.00  0.00     0.097 N 
HETATM   24  C14 UNL     1       1.658  -1.069  20.771  1.00  0.00     0.275 C 
HETATM   25  C15 UNL     1       1.044  -0.270  19.656  1.00  0.00     0.062 C 
HETATM   26  C16 UNL     1       1.529   1.165  19.913  1.00  0.00     0.121 C 
HETATM   27  C17 UNL     1       3.022   1.064  19.663  1.00  0.00     0.062 C 
HETATM   28  C18 UNL     1       3.718   0.111  20.545  1.00  0.00     0.275 C 
BRANCH  26  29
HETATM   29  O1  UNL     1       0.926   2.047  19.058  1.00  0.00    -0.395 OA
ATOM     30  H1  UNL     1       0.521   2.761  19.535  1.00  0.00     0.210 HD
ENDBRANCH  26  29
ENDBRANCH   8  23
TORSDOF 6
ENDMDL
MODEL 5
REMARK VINA RESULT: -6.786988332      3.553      7.805
REMARK  6 active torsions:
REMARK  status: ('A' for Active; 'I' for Inactive)
REMARK    1  A    between atoms: C2_2  and  C3_3 
REMARK    2  A    between atoms: C7_10  and  C8_11 
REMARK    3  A    between atoms: C8_11  and  N3_12 
REMARK    4  A    between atoms: N3_12  and  C9_15 
REMARK    5  A    between atoms: C13_22  and  N5_23 
REMARK    6  A    between atoms: C16_26  and  O1_27 
ROOT
HETATM    1  C9  UNL     1       4.847  -2.770  22.795  1.00  0.00     0.222 C 
HETATM    2  C10 UNL     1       5.783  -3.984  22.640  1.00  0.00     0.062 C 
HETATM    3  C11 UNL     1       6.828  -3.666  21.580  1.00  0.00     0.234 C 
HETATM    4  N4  UNL     1       6.141  -3.657  20.327  1.00  0.00    -0.073 N 
ATOM      5  H41 UNL     1       6.186  -4.573  19.881  1.00  0.00     0.277 HD
ATOM      6  H42 UNL     1       6.654  -3.110  19.635  1.00  0.00     0.277 HD
HETATM    7  C12 UNL     1       4.746  -3.192  20.437  1.00  0.00     0.270 C 
HETATM    8  C13 UNL     1       4.680  -2.131  21.539  1.00  0.00     0.278 C 
ENDROOT
BRANCH   1   9
HETATM    9  N3  UNL     1       5.368  -2.057  23.980  1.00  0.00    -0.065 N 
ATOM     10  H32 UNL     1       4.672  -1.826  24.688  1.00  0.00     0.278 HD
ATOM     11  H31 UNL     1       5.656  -1.092  23.813  1.00  0.00     0.278 HD
BRANCH   9  12
HETATM   12  C8  UNL     1       6.438  -2.957  24.427  1.00  0.00     0.275 C 
BRANCH  12  13
HETATM   13  C7  UNL     1       6.785  -3.003  25.848  1.00  0.00     0.015 A 
HETATM   14  C3  UNL     1       7.424  -1.902  26.436  1.00  0.00     0.035 A 
HETATM   15  N1  UNL     1       7.526  -2.193  27.783  1.00  0.00    -0.302 N 
HETATM   16  N2  UNL     1       6.980  -3.357  27.972  1.00  0.00    -0.300 N 
ATOM     17  H1  UNL     1       7.950  -1.602  28.498  1.00  0.00     0.186 HD
HETATM   18  C4  UNL     1       6.816  -3.927  29.293  1.00  0.00     0.177 C 
HETATM   19  C5  UNL     1       6.496  -3.929  26.816  1.00  0.00     0.034 A 
HETATM   20  C6  UNL     1       5.962  -5.286  26.792  1.00  0.00     0.070 C 
BRANCH  14  21
HETATM   21  C2  UNL     1       7.942  -0.717  25.762  1.00  0.00     0.055 C 
HETATM   22  C1  UNL     1       9.214  -0.319  26.476  1.00  0.00     0.011 C 
ENDBRANCH  14  21
ENDBRANCH  12  13
ENDBRANCH   9  12
ENDBRANCH   1   9
BRANCH   8  23
HETATM   23  N5  UNL     1       3.511  -1.279  21.431  1.00  0.00     0.097 N 
HETATM   24  C14 UNL     1       2.711  -1.493  20.306  1.00  0.00     0.275 C 
HETATM   25  C15 UNL     1       2.849  -0.595  19.108  1.00  0.00     0.062 C 
HETATM   26  C16 UNL     1       2.567   0.810  19.660  1.00  0.00     0.121 C 
HETATM   27  C17 UNL     1       3.749   1.053  20.580  1.00  0.00     0.062 C 
HETATM   28  C18 UNL     1       3.872   0.075  21.675  1.00  0.00     0.275 C 
BRANCH  26  29
HETATM   29  O1  UNL     1       2.507   1.731  18.650  1.00  0.00    -0.395 OA
ATOM     30  H1  UNL     1       3.331   1.776  18.181  1.00  0.00     0.210 HD
ENDBRANCH  26  29
ENDBRANCH   8  23
TORSDOF 6
ENDMDL
