MODEL 1
REMARK VINA RESULT: -7.672941898      0.000      0.000
REMARK  7 active torsions:
REMARK  status: ('A' for Active; 'I' for Inactive)
REMARK    1  A    between atoms: C6_6  and  N1_7 
REMARK       I    between atoms: N1_7  and  C7_9 
REMARK    2  A    between atoms: C7_9  and  C8_11 
REMARK    3  A    between atoms: C8_11  and  N2_12 
REMARK    4  A    between atoms: C10_14  and  C11_15 
REMARK    5  A    between atoms: C11_15  and  O2_16 
REMARK    6  A    between atoms: C11_15  and  N3_18 
REMARK    7  A    between atoms: C17_25  and  O4_26 
ROOT
HETATM    1  N2  UNL     1       4.488  -4.320  22.605  1.00  0.00    -0.329 N 
HETATM    2  C9  UNL     1       4.053  -4.602  23.839  1.00  0.00     0.105 A 
HETATM    3  C10 UNL     1       5.109  -4.637  24.720  1.00  0.00     0.009 A 
HETATM    4  C16 UNL     1       6.238  -4.368  24.008  1.00  0.00     0.069 A 
HETATM    5  C17 UNL     1       5.821  -4.177  22.705  1.00  0.00     0.142 A 
ENDROOT
BRANCH   1   6
HETATM    6  C8  UNL     1       3.716  -4.185  21.375  1.00  0.00     0.233 C 
BRANCH   6   7
HETATM    7  C7  UNL     1       2.811  -3.038  21.407  1.00  0.00     0.236 C 
HETATM    8  N1  UNL     1       3.326  -1.749  21.664  1.00  0.00    -0.355 N 
ATOM      9  H1  UNL     1       4.328  -1.650  21.824  1.00  0.00     0.162 HD
HETATM   10  O1  UNL     1       1.579  -3.163  21.209  1.00  0.00    -0.272 OA
BRANCH   8  11
HETATM   11  C6  UNL     1       2.497  -0.557  21.713  1.00  0.00     0.088 C 
HETATM   12  C2  UNL     1       2.764   0.339  20.527  1.00  0.00     0.004 C 
HETATM   13  C1  UNL     1       3.116  -0.429  19.286  1.00  0.00     0.012 C 
HETATM   14  C3  UNL     1       3.891   1.231  20.993  1.00  0.00     0.006 C 
HETATM   15  C4  UNL     1       3.480   1.547  22.406  1.00  0.00     0.002 C 
HETATM   16  C5  UNL     1       2.816   0.302  22.908  1.00  0.00     0.025 C 
ENDBRANCH   8  11
ENDBRANCH   6   7
ENDBRANCH   1   6
BRANCH   5  17
HETATM   17  O4  UNL     1       6.667  -3.875  21.640  1.00  0.00    -0.346 OA
ATOM     18  H4  UNL     1       7.336  -4.458  21.299  1.00  0.00     0.219 HD
ENDBRANCH   5  17
BRANCH   3  19
HETATM   19  C11 UNL     1       4.981  -4.926  26.165  1.00  0.00     0.252 C 
BRANCH  19  20
HETATM   20  O2  UNL     1       4.098  -3.984  26.740  1.00  0.00    -0.373 OA
ATOM     21  H2  UNL     1       4.351  -3.841  27.644  1.00  0.00     0.212 HD
ENDBRANCH  19  20
BRANCH  19  22
HETATM   22  N3  UNL     1       6.162  -4.941  26.907  1.00  0.00    -0.380 N 
HETATM   23  C12 UNL     1       6.691  -3.748  27.436  1.00  0.00     0.146 C 
HETATM   24  C13 UNL     1       7.330  -4.120  28.787  1.00  0.00     0.187 C 
HETATM   25  O3  UNL     1       8.264  -5.141  28.605  1.00  0.00    -0.388 OA
HETATM   26  C14 UNL     1       7.737  -6.288  28.067  1.00  0.00     0.187 C 
HETATM   27  C15 UNL     1       7.112  -5.965  26.701  1.00  0.00     0.146 C 
ENDBRANCH  19  22
ENDBRANCH   3  19
TORSDOF 7
ENDMDL
MODEL 2
REMARK VINA RESULT: -7.666000820      1.869      2.445
REMARK  7 active torsions:
REMARK  status: ('A' for Active; 'I' for Inactive)
REMARK    1  A    between atoms: C6_6  and  N1_7 
REMARK       I    between atoms: N1_7  and  C7_9 
REMARK    2  A    between atoms: C7_9  and  C8_11 
REMARK    3  A    between atoms: C8_11  and  N2_12 
REMARK    4  A    between atoms: C10_14  and  C11_15 
REMARK    5  A    between atoms: C11_15  and  O2_16 
REMARK    6  A    between atoms: C11_15  and  N3_18 
REMARK    7  A    between atoms: C17_25  and  O4_26 
ROOT
HETATM    1  N2  UNL     1       6.367  -2.642  23.572  1.00  0.00    -0.329 N 
HETATM    2  C9  UNL     1       6.480  -3.414  24.658  1.00  0.00     0.105 A 
HETATM    3  C10 UNL     1       6.738  -4.715  24.292  1.00  0.00     0.009 A 
HETATM    4  C16 UNL     1       6.787  -4.750  22.932  1.00  0.00     0.069 A 
HETATM    5  C17 UNL     1       6.554  -3.453  22.517  1.00  0.00     0.142 A 
ENDROOT
BRANCH   1   6
HETATM    6  C8  UNL     1       6.099  -1.210  23.496  1.00  0.00     0.233 C 
BRANCH   6   7
HETATM    7  C7  UNL     1       4.703  -0.919  23.179  1.00  0.00     0.236 C 
HETATM    8  N1  UNL     1       4.317  -0.725  21.836  1.00  0.00    -0.355 N 
ATOM      9  H1  UNL     1       5.030  -0.795  21.111  1.00  0.00     0.162 HD
HETATM   10  O1  UNL     1       3.827  -0.835  24.073  1.00  0.00    -0.272 OA
BRANCH   8  11
HETATM   11  C6  UNL     1       2.951  -0.433  21.435  1.00  0.00     0.088 C 
HETATM   12  C2  UNL     1       2.652  -1.003  20.069  1.00  0.00     0.004 C 
HETATM   13  C1  UNL     1       3.384  -2.286  19.802  1.00  0.00     0.012 C 
HETATM   14  C3  UNL     1       3.056   0.101  19.119  1.00  0.00     0.006 C 
HETATM   15  C4  UNL     1       2.537   1.327  19.821  1.00  0.00     0.002 C 
HETATM   16  C5  UNL     1       2.715   1.047  21.281  1.00  0.00     0.025 C 
ENDBRANCH   8  11
ENDBRANCH   6   7
ENDBRANCH   1   6
BRANCH   5  17
HETATM   17  O4  UNL     1       6.519  -3.044  21.185  1.00  0.00    -0.346 OA
ATOM     18  H4  UNL     1       5.728  -2.806  20.714  1.00  0.00     0.219 HD
ENDBRANCH   5  17
BRANCH   3  19
HETATM   19  C11 UNL     1       6.916  -5.831  25.246  1.00  0.00     0.252 C 
BRANCH  19  20
HETATM   20  O2  UNL     1       6.149  -6.933  24.804  1.00  0.00    -0.373 OA
ATOM     21  H2  UNL     1       5.231  -6.692  24.816  1.00  0.00     0.212 HD
ENDBRANCH  19  20
BRANCH  19  22
HETATM   22  N3  UNL     1       6.597  -5.572  26.579  1.00  0.00    -0.380 N 
HETATM   23  C12 UNL     1       7.454  -5.989  27.615  1.00  0.00     0.146 C 
HETATM   24  C13 UNL     1       7.371  -4.908  28.708  1.00  0.00     0.187 C 
HETATM   25  O3  UNL     1       6.042  -4.722  29.091  1.00  0.00    -0.388 OA
HETATM   26  C14 UNL     1       5.215  -4.338  28.065  1.00  0.00     0.187 C 
HETATM   27  C15 UNL     1       5.248  -5.407  26.962  1.00  0.00     0.146 C 
ENDBRANCH  19  22
ENDBRANCH   3  19
TORSDOF 7
ENDMDL
MODEL 3
REMARK VINA RESULT: -7.663943286      1.588      2.127
REMARK  7 active torsions:
REMARK  status: ('A' for Active; 'I' for Inactive)
REMARK    1  A    between atoms: C6_6  and  N1_7 
REMARK       I    between atoms: N1_7  and  C7_9 
REMARK    2  A    between atoms: C7_9  and  C8_11 
REMARK    3  A    between atoms: C8_11  and  N2_12 
REMARK    4  A    between atoms: C10_14  and  C11_15 
REMARK    5  A    between atoms: C11_15  and  O2_16 
REMARK    6  A    between atoms: C11_15  and  N3_18 
REMARK    7  A    between atoms: C17_25  and  O4_26 
ROOT
HETATM    1  N2  UNL     1       5.492  -4.118  21.200  1.00  0.00    -0.329 N 
HETATM    2  C9  UNL     1       5.053  -4.813  22.255  1.00  0.00     0.105 A 
HETATM    3  C10 UNL     1       6.091  -5.076  23.118  1.00  0.00     0.009 A 
HETATM    4  C16 UNL     1       7.213  -4.524  22.580  1.00  0.00     0.069 A 
HETATM    5  C17 UNL     1       6.810  -3.939  21.396  1.00  0.00     0.142 A 
ENDROOT
BRANCH   1   6
HETATM    6  C8  UNL     1       4.737  -3.629  20.052  1.00  0.00     0.233 C 
BRANCH   6   7
HETATM    7  C7  UNL     1       3.580  -2.827  20.444  1.00  0.00     0.236 C 
HETATM    8  N1  UNL     1       3.772  -1.522  20.946  1.00  0.00    -0.355 N 
ATOM      9  H1  UNL     1       4.725  -1.168  21.024  1.00  0.00     0.162 HD
HETATM   10  O1  UNL     1       2.409  -3.265  20.346  1.00  0.00    -0.272 OA
BRANCH   8  11
HETATM   11  C6  UNL     1       2.679  -0.659  21.358  1.00  0.00     0.088 C 
HETATM   12  C2  UNL     1       2.795   0.706  20.723  1.00  0.00     0.004 C 
HETATM   13  C1  UNL     1       3.400   0.658  19.349  1.00  0.00     0.012 C 
HETATM   14  C3  UNL     1       3.642   1.489  21.699  1.00  0.00     0.006 C 
HETATM   15  C4  UNL     1       3.079   1.054  23.025  1.00  0.00     0.002 C 
HETATM   16  C5  UNL     1       2.706  -0.384  22.838  1.00  0.00     0.025 C 
ENDBRANCH   8  11
ENDBRANCH   6   7
ENDBRANCH   1   6
BRANCH   5  17
HETATM   17  O4  UNL     1       7.655  -3.257  20.522  1.00  0.00    -0.346 OA
ATOM     18  H4  UNL     1       8.446  -3.620  20.141  1.00  0.00     0.219 HD
ENDBRANCH   5  17
BRANCH   3  19
HETATM   19  C11 UNL     1       5.955  -5.830  24.383  1.00  0.00     0.252 C 
BRANCH  19  20
HETATM   20  O2  UNL     1       5.141  -6.962  24.152  1.00  0.00    -0.373 OA
ATOM     21  H2  UNL     1       5.615  -7.740  24.421  1.00  0.00     0.212 HD
ENDBRANCH  19  20
BRANCH  19  22
HETATM   22  N3  UNL     1       5.446  -5.131  25.478  1.00  0.00    -0.380 N 
HETATM   23  C12 UNL     1       4.056  -5.000  25.660  1.00  0.00     0.146 C 
HETATM   24  C13 UNL     1       3.815  -5.033  27.181  1.00  0.00     0.187 C 
HETATM   25  O3  UNL     1       4.580  -4.048  27.804  1.00  0.00    -0.388 OA
HETATM   26  C14 UNL     1       5.931  -4.177  27.597  1.00  0.00     0.187 C 
HETATM   27  C15 UNL     1       6.218  -4.120  26.089  1.00  0.00     0.146 C 
ENDBRANCH  19  22
ENDBRANCH   3  19
TORSDOF 7
ENDMDL
MODEL 4
REMARK VINA RESULT: -7.385159652      1.424      1.777
REMARK  7 active torsions:
REMARK  status: ('A' for Active; 'I' for Inactive)
REMARK    1  A    between atoms: C6_6  and  N1_7 
REMARK       I    between atoms: N1_7  and  C7_9 
REMARK    2  A    between atoms: C7_9  and  C8_11 
REMARK    3  A    between atoms: C8_11  and  N2_12 
REMARK    4  A    between atoms: C10_14  and  C11_15 
REMARK    5  A    between atoms: C11_15  and  O2_16 
REMARK    6  A    between atoms: C11_15  and  N3_18 
REMARK    7  A    between atoms: C17_25  and  O4_26 
ROOT
HETATM    1  N2  UNL     1       3.961  -4.422  21.911  1.00  0.00    -0.329 N 
HETATM    2  C9  UNL     1       4.242  -3.721  23.015  1.00  0.00     0.105 A 
HETATM    3  C10 UNL     1       5.230  -4.348  23.739  1.00  0.00     0.009 A 
HETATM    4  C16 UNL     1       5.572  -5.478  23.061  1.00  0.00     0.069 A 
HETATM    5  C17 UNL     1       4.771  -5.494  21.936  1.00  0.00     0.142 A 
ENDROOT
BRANCH   1   6
HETATM    6  C8  UNL     1       2.987  -4.125  20.867  1.00  0.00     0.233 C 
BRANCH   6   7
HETATM    7  C7  UNL     1       2.263  -2.881  21.116  1.00  0.00     0.236 C 
HETATM    8  N1  UNL     1       2.972  -1.664  21.206  1.00  0.00    -0.355 N 
ATOM      9  H1  UNL     1       3.985  -1.685  21.094  1.00  0.00     0.162 HD
HETATM   10  O1  UNL     1       1.016  -2.859  21.252  1.00  0.00    -0.272 OA
BRANCH   8  11
HETATM   11  C6  UNL     1       2.330  -0.384  21.451  1.00  0.00     0.088 C 
HETATM   12  C2  UNL     1       2.766   0.645  20.436  1.00  0.00     0.004 C 
HETATM   13  C1  UNL     1       3.040   0.050  19.085  1.00  0.00     0.012 C 
HETATM   14  C3  UNL     1       3.998   1.264  21.055  1.00  0.00     0.006 C 
HETATM   15  C4  UNL     1       3.593   1.399  22.498  1.00  0.00     0.002 C 
HETATM   16  C5  UNL     1       2.735   0.204  22.777  1.00  0.00     0.025 C 
ENDBRANCH   8  11
ENDBRANCH   6   7
ENDBRANCH   1   6
BRANCH   5  17
HETATM   17  O4  UNL     1       4.799  -6.489  20.960  1.00  0.00    -0.346 OA
ATOM     18  H4  UNL     1       4.374  -6.426  20.112  1.00  0.00     0.219 HD
ENDBRANCH   5  17
BRANCH   3  19
HETATM   19  C11 UNL     1       5.776  -3.844  25.018  1.00  0.00     0.252 C 
BRANCH  19  20
HETATM   20  O2  UNL     1       7.131  -3.491  24.826  1.00  0.00    -0.373 OA
ATOM     21  H2  UNL     1       7.562  -4.187  24.344  1.00  0.00     0.212 HD
ENDBRANCH  19  20
BRANCH  19  22
HETATM   22  N3  UNL     1       5.689  -4.698  26.117  1.00  0.00    -0.380 N 
HETATM   23  C12 UNL     1       6.677  -5.675  26.345  1.00  0.00     0.146 C 
HETATM   24  C13 UNL     1       6.828  -5.788  27.873  1.00  0.00     0.187 C 
HETATM   25  O3  UNL     1       5.590  -6.066  28.453  1.00  0.00    -0.388 OA
HETATM   26  C14 UNL     1       4.632  -5.117  28.202  1.00  0.00     0.187 C 
HETATM   27  C15 UNL     1       4.430  -4.992  26.684  1.00  0.00     0.146 C 
ENDBRANCH  19  22
ENDBRANCH   3  19
TORSDOF 7
ENDMDL
MODEL 5
REMARK VINA RESULT: -7.318074869      1.718      2.334
REMARK  7 active torsions:
REMARK  status: ('A' for Active; 'I' for Inactive)
REMARK    1  A    between atoms: C6_6  and  N1_7 
REMARK       I    between atoms: N1_7  and  C7_9 
REMARK    2  A    between atoms: C7_9  and  C8_11 
REMARK    3  A    between atoms: C8_11  and  N2_12 
REMARK    4  A    between atoms: C10_14  and  C11_15 
REMARK    5  A    between atoms: C11_15  and  O2_16 
REMARK    6  A    between atoms: C11_15  and  N3_18 
REMARK    7  A    between atoms: C17_25  and  O4_26 
ROOT
HETATM    1  N2  UNL     1       4.541  -4.787  21.309  1.00  0.00    -0.329 N 
HETATM    2  C9  UNL     1       5.264  -4.511  22.400  1.00  0.00     0.105 A 
HETATM    3  C10 UNL     1       5.457  -5.653  23.144  1.00  0.00     0.009 A 
HETATM    4  C16 UNL     1       4.833  -6.671  22.491  1.00  0.00     0.069 A 
HETATM    5  C17 UNL     1       4.276  -6.104  21.362  1.00  0.00     0.142 A 
ENDROOT
BRANCH   1   6
HETATM    6  C8  UNL     1       4.105  -3.881  20.252  1.00  0.00     0.233 C 
BRANCH   6   7
HETATM    7  C7  UNL     1       3.113  -2.915  20.717  1.00  0.00     0.236 C 
HETATM    8  N1  UNL     1       3.473  -1.558  20.863  1.00  0.00    -0.355 N 
ATOM      9  H1  UNL     1       4.428  -1.283  20.638  1.00  0.00     0.162 HD
HETATM   10  O1  UNL     1       1.938  -3.257  20.993  1.00  0.00    -0.272 OA
BRANCH   8  11
HETATM   11  C6  UNL     1       2.548  -0.534  21.319  1.00  0.00     0.088 C 
HETATM   12  C2  UNL     1       2.823   0.786  20.641  1.00  0.00     0.004 C 
HETATM   13  C1  UNL     1       3.321   0.624  19.234  1.00  0.00     0.012 C 
HETATM   14  C3  UNL     1       3.839   1.452  21.540  1.00  0.00     0.006 C 
HETATM   15  C4  UNL     1       3.307   1.129  22.911  1.00  0.00     0.002 C 
HETATM   16  C5  UNL     1       2.714  -0.240  22.787  1.00  0.00     0.025 C 
ENDBRANCH   8  11
ENDBRANCH   6   7
ENDBRANCH   1   6
BRANCH   5  17
HETATM   17  O4  UNL     1       3.541  -6.803  20.406  1.00  0.00    -0.346 OA
ATOM     18  H4  UNL     1       3.102  -7.631  20.561  1.00  0.00     0.219 HD
ENDBRANCH   5  17
BRANCH   3  19
HETATM   19  C11 UNL     1       6.211  -5.703  24.416  1.00  0.00     0.252 C 
BRANCH  19  20
HETATM   20  O2  UNL     1       6.413  -7.055  24.772  1.00  0.00    -0.373 OA
ATOM     21  H2  UNL     1       5.882  -7.603  24.205  1.00  0.00     0.212 HD
ENDBRANCH  19  20
BRANCH  19  22
HETATM   22  N3  UNL     1       5.649  -5.034  25.503  1.00  0.00    -0.380 N 
HETATM   23  C12 UNL     1       4.253  -4.991  25.674  1.00  0.00     0.146 C 
HETATM   24  C13 UNL     1       4.001  -5.035  27.193  1.00  0.00     0.187 C 
HETATM   25  O3  UNL     1       4.696  -4.000  27.819  1.00  0.00    -0.388 OA
HETATM   26  C14 UNL     1       6.054  -4.043  27.624  1.00  0.00     0.187 C 
HETATM   27  C15 UNL     1       6.350  -3.973  26.118  1.00  0.00     0.146 C 
ENDBRANCH  19  22
ENDBRANCH   3  19
TORSDOF 7
ENDMDL
