MODEL 1
REMARK VINA RESULT: -6.908046099      0.000      0.000
REMARK  8 active torsions:
REMARK  status: ('A' for Active; 'I' for Inactive)
REMARK    1  A    between atoms: C3_3  and  N1_4 
REMARK    2  A    between atoms: N1_4  and  C4_6 
REMARK    3  A    between atoms: C4_6  and  C5_10 
REMARK       I    between atoms: N3_15  and  C10_16 
REMARK       I    between atoms: C10_16  and  N4_18 
REMARK    4  A    between atoms: C12_20  and  O2_21 
REMARK    5  A    between atoms: C14_24  and  C15_25 
REMARK       I    between atoms: C15_25  and  N5_27 
REMARK    6  A    between atoms: N5_27  and  C16_29 
REMARK    7  A    between atoms: C16_29  and  C17_30 
REMARK    8  A    between atoms: C17_30  and  O4_31 
ROOT
HETATM    1  C1  UNL     1      67.635   0.733 101.310  1.00  0.00     0.103 C 
HETATM    2  C2  UNL     1      67.974  -0.302 101.877  1.00  0.00    -0.143 C 
HETATM    3  C3  UNL     1      68.364  -1.561 102.527  1.00  0.00     0.140 C 
ENDROOT
BRANCH   3   4
HETATM    4  N1  UNL     1      69.330  -1.347 103.528  1.00  0.00    -0.348 N 
ATOM      5  H1  UNL     1      69.084  -0.717 104.291  1.00  0.00     0.167 HD
BRANCH   4   6
HETATM    6  C4  UNL     1      70.609  -1.933 103.560  1.00  0.00     0.098 C 
HETATM    7  N2  UNL     1      71.497  -1.470 102.717  1.00  0.00    -0.387 N 
ATOM      8  H22 UNL     1      71.238  -0.706 102.093  1.00  0.00     0.157 HD
ATOM      9  H21 UNL     1      72.424  -1.895 102.740  1.00  0.00     0.157 HD
BRANCH   6  10
HETATM   10  C5  UNL     1      70.991  -3.060 104.479  1.00  0.00     0.156 C 
HETATM   11  C6  UNL     1      71.184  -2.697 105.884  1.00  0.00     0.033 C 
HETATM   12  C7  UNL     1      70.587  -3.544 106.943  1.00  0.00     0.004 C 
HETATM   13  C8  UNL     1      69.824  -4.743 106.480  1.00  0.00     0.020 C 
HETATM   14  C9  UNL     1      69.010  -4.233 105.259  1.00  0.00     0.128 C 
HETATM   15  N3  UNL     1      69.975  -4.111 104.224  1.00  0.00    -0.322 N 
HETATM   16  C10 UNL     1      70.119  -4.824 103.057  1.00  0.00     0.325 C 
HETATM   17  O1  UNL     1      71.167  -4.542 102.346  1.00  0.00    -0.247 OA
HETATM   18  N4  UNL     1      69.279  -5.822 102.523  1.00  0.00    -0.297 N 
HETATM   19  C11 UNL     1      68.053  -6.294 103.030  1.00  0.00     0.101 C 
HETATM   20  C14 UNL     1      69.637  -6.526 101.309  1.00  0.00     0.188 C 
HETATM   21  C12 UNL     1      67.545  -7.318 102.012  1.00  0.00     0.159 C 
HETATM   22  C13 UNL     1      68.861  -7.809 101.384  1.00  0.00     0.072 C 
BRANCH  21  23
HETATM   23  O2  UNL     1      66.891  -8.329 102.678  1.00  0.00    -0.390 OA
ATOM     24  H2  UNL     1      65.954  -8.197 102.602  1.00  0.00     0.210 HD
ENDBRANCH  21  23
BRANCH  20  25
HETATM   25  C15 UNL     1      69.392  -5.744 100.075  1.00  0.00     0.241 C 
HETATM   26  O3  UNL     1      69.166  -6.377  99.038  1.00  0.00    -0.271 OA
HETATM   27  N5  UNL     1      69.423  -4.349 100.116  1.00  0.00    -0.357 N 
ATOM     28  H5  UNL     1      69.628  -3.909 101.013  1.00  0.00     0.162 HD
BRANCH  27  29
HETATM   29  C16 UNL     1      69.191  -3.500  99.004  1.00  0.00     0.148 C 
BRANCH  29  30
HETATM   30  C17 UNL     1      68.004  -2.623  99.049  1.00  0.00     0.183 C 
BRANCH  30  31
HETATM   31  O4  UNL     1      67.041  -2.751  98.100  1.00  0.00    -0.399 OA
ATOM     32  H4  UNL     1      66.217  -3.168  98.323  1.00  0.00     0.209 HD
ENDBRANCH  30  31
ENDBRANCH  29  30
ENDBRANCH  27  29
ENDBRANCH  20  25
ENDBRANCH   6  10
ENDBRANCH   4   6
ENDBRANCH   3   4
TORSDOF 8
ENDMDL
MODEL 2
REMARK VINA RESULT: -6.871559694      2.950      5.308
REMARK  8 active torsions:
REMARK  status: ('A' for Active; 'I' for Inactive)
REMARK    1  A    between atoms: C3_3  and  N1_4 
REMARK    2  A    between atoms: N1_4  and  C4_6 
REMARK    3  A    between atoms: C4_6  and  C5_10 
REMARK       I    between atoms: N3_15  and  C10_16 
REMARK       I    between atoms: C10_16  and  N4_18 
REMARK    4  A    between atoms: C12_20  and  O2_21 
REMARK    5  A    between atoms: C14_24  and  C15_25 
REMARK       I    between atoms: C15_25  and  N5_27 
REMARK    6  A    between atoms: N5_27  and  C16_29 
REMARK    7  A    between atoms: C16_29  and  C17_30 
REMARK    8  A    between atoms: C17_30  and  O4_31 
ROOT
HETATM    1  C1  UNL     1      63.603   0.893  96.620  1.00  0.00     0.103 C 
HETATM    2  C2  UNL     1      63.816  -0.226  97.077  1.00  0.00    -0.143 C 
HETATM    3  C3  UNL     1      64.048  -1.581  97.596  1.00  0.00     0.140 C 
ENDROOT
BRANCH   3   4
HETATM    4  N1  UNL     1      65.196  -1.633  98.409  1.00  0.00    -0.348 N 
ATOM      5  H1  UNL     1      65.057  -1.628  99.419  1.00  0.00     0.167 HD
BRANCH   4   6
HETATM    6  C4  UNL     1      66.521  -1.690  97.939  1.00  0.00     0.098 C 
HETATM    7  N2  UNL     1      66.747  -2.429  96.884  1.00  0.00    -0.387 N 
ATOM      8  H22 UNL     1      65.966  -2.914  96.440  1.00  0.00     0.157 HD
ATOM      9  H21 UNL     1      67.708  -2.471  96.544  1.00  0.00     0.157 HD
BRANCH   6  10
HETATM   10  C5  UNL     1      67.672  -0.977  98.593  1.00  0.00     0.156 C 
HETATM   11  C6  UNL     1      67.486   0.456  98.822  1.00  0.00     0.033 C 
HETATM   12  C7  UNL     1      67.858   1.039 100.133  1.00  0.00     0.004 C 
HETATM   13  C8  UNL     1      68.422   0.092 101.141  1.00  0.00     0.020 C 
HETATM   14  C9  UNL     1      67.539  -1.179 101.012  1.00  0.00     0.128 C 
HETATM   15  N3  UNL     1      67.974  -1.784  99.802  1.00  0.00    -0.322 N 
HETATM   16  C10 UNL     1      68.640  -2.967  99.590  1.00  0.00     0.325 C 
HETATM   17  O1  UNL     1      68.990  -3.210  98.365  1.00  0.00    -0.247 OA
HETATM   18  N4  UNL     1      68.995  -3.960 100.526  1.00  0.00    -0.297 N 
HETATM   19  C11 UNL     1      68.701  -4.006 101.903  1.00  0.00     0.101 C 
HETATM   20  C14 UNL     1      69.774  -5.114 100.130  1.00  0.00     0.188 C 
HETATM   21  C12 UNL     1      69.262  -5.337 102.407  1.00  0.00     0.159 C 
HETATM   22  C13 UNL     1      70.403  -5.592 101.406  1.00  0.00     0.072 C 
BRANCH  21  23
HETATM   23  O2  UNL     1      69.737  -5.172 103.688  1.00  0.00    -0.390 OA
ATOM     24  H2  UNL     1      70.635  -5.478 103.729  1.00  0.00     0.210 HD
ENDBRANCH  21  23
BRANCH  20  25
HETATM   25  C15 UNL     1      68.984  -6.150  99.423  1.00  0.00     0.241 C 
HETATM   26  O3  UNL     1      68.365  -6.963 100.116  1.00  0.00    -0.271 OA
HETATM   27  N5  UNL     1      68.962  -6.176  98.027  1.00  0.00    -0.357 N 
ATOM     28  H5  UNL     1      69.510  -5.471  97.534  1.00  0.00     0.162 HD
BRANCH  27  29
HETATM   29  C16 UNL     1      68.233  -7.108  97.245  1.00  0.00     0.148 C 
BRANCH  29  30
HETATM   30  C17 UNL     1      67.013  -6.627  96.567  1.00  0.00     0.183 C 
BRANCH  30  31
HETATM   31  O4  UNL     1      66.499  -5.414  96.894  1.00  0.00    -0.399 OA
ATOM     32  H4  UNL     1      65.787  -5.053  96.381  1.00  0.00     0.209 HD
ENDBRANCH  30  31
ENDBRANCH  29  30
ENDBRANCH  27  29
ENDBRANCH  20  25
ENDBRANCH   6  10
ENDBRANCH   4   6
ENDBRANCH   3   4
TORSDOF 8
ENDMDL
MODEL 3
REMARK VINA RESULT: -6.630530218      2.536      5.322
REMARK  8 active torsions:
REMARK  status: ('A' for Active; 'I' for Inactive)
REMARK    1  A    between atoms: C3_3  and  N1_4 
REMARK    2  A    between atoms: N1_4  and  C4_6 
REMARK    3  A    between atoms: C4_6  and  C5_10 
REMARK       I    between atoms: N3_15  and  C10_16 
REMARK       I    between atoms: C10_16  and  N4_18 
REMARK    4  A    between atoms: C12_20  and  O2_21 
REMARK    5  A    between atoms: C14_24  and  C15_25 
REMARK       I    between atoms: C15_25  and  N5_27 
REMARK    6  A    between atoms: N5_27  and  C16_29 
REMARK    7  A    between atoms: C16_29  and  C17_30 
REMARK    8  A    between atoms: C17_30  and  O4_31 
ROOT
HETATM    1  C1  UNL     1      74.475   0.661 102.196  1.00  0.00     0.103 C 
HETATM    2  C2  UNL     1      73.782  -0.048 102.918  1.00  0.00    -0.143 C 
HETATM    3  C3  UNL     1      72.969  -0.883 103.814  1.00  0.00     0.140 C 
ENDROOT
BRANCH   3   4
HETATM    4  N1  UNL     1      71.830  -1.386 103.158  1.00  0.00    -0.348 N 
ATOM      5  H1  UNL     1      71.904  -1.562 102.156  1.00  0.00     0.167 HD
BRANCH   4   6
HETATM    6  C4  UNL     1      70.596  -1.665 103.773  1.00  0.00     0.098 C 
HETATM    7  N2  UNL     1      70.622  -1.985 105.042  1.00  0.00    -0.387 N 
ATOM      8  H22 UNL     1      71.518  -2.002 105.531  1.00  0.00     0.157 HD
ATOM      9  H21 UNL     1      69.728  -2.188 105.488  1.00  0.00     0.157 HD
BRANCH   6  10
HETATM   10  C5  UNL     1      69.276  -1.640 103.053  1.00  0.00     0.156 C 
HETATM   11  C6  UNL     1      69.201  -0.752 101.893  1.00  0.00     0.033 C 
HETATM   12  C7  UNL     1      68.589  -1.244 100.637  1.00  0.00     0.004 C 
HETATM   13  C8  UNL     1      68.071  -2.645 100.658  1.00  0.00     0.020 C 
HETATM   14  C9  UNL     1      69.156  -3.445 101.429  1.00  0.00     0.128 C 
HETATM   15  N3  UNL     1      68.969  -3.068 102.786  1.00  0.00    -0.322 N 
HETATM   16  C10 UNL     1      68.532  -3.805 103.860  1.00  0.00     0.325 C 
HETATM   17  O1  UNL     1      68.371  -3.152 104.969  1.00  0.00    -0.247 OA
HETATM   18  N4  UNL     1      68.234  -5.182 103.923  1.00  0.00    -0.297 N 
HETATM   19  C11 UNL     1      68.368  -6.151 102.910  1.00  0.00     0.101 C 
HETATM   20  C14 UNL     1      67.704  -5.776 105.133  1.00  0.00     0.188 C 
HETATM   21  C12 UNL     1      67.975  -7.484 103.550  1.00  0.00     0.159 C 
HETATM   22  C13 UNL     1      67.014  -7.023 104.661  1.00  0.00     0.072 C 
BRANCH  21  23
HETATM   23  O2  UNL     1      67.332  -8.263 102.615  1.00  0.00    -0.390 OA
ATOM     24  H2  UNL     1      67.958  -8.862 102.225  1.00  0.00     0.210 HD
ENDBRANCH  21  23
BRANCH  20  25
HETATM   25  C15 UNL     1      68.727  -6.011 106.178  1.00  0.00     0.241 C 
HETATM   26  O3  UNL     1      68.533  -6.945 106.962  1.00  0.00    -0.271 OA
HETATM   27  N5  UNL     1      69.854  -5.190 106.245  1.00  0.00    -0.357 N 
ATOM     28  H5  UNL     1      69.929  -4.434 105.564  1.00  0.00     0.162 HD
BRANCH  27  29
HETATM   29  C16 UNL     1      70.902  -5.328 107.191  1.00  0.00     0.148 C 
BRANCH  29  30
HETATM   30  C17 UNL     1      71.106  -4.226 108.153  1.00  0.00     0.183 C 
BRANCH  30  31
HETATM   31  O4  UNL     1      70.727  -2.966 107.817  1.00  0.00    -0.399 OA
ATOM     32  H4  UNL     1      69.942  -2.596 108.202  1.00  0.00     0.209 HD
ENDBRANCH  30  31
ENDBRANCH  29  30
ENDBRANCH  27  29
ENDBRANCH  20  25
ENDBRANCH   6  10
ENDBRANCH   4   6
ENDBRANCH   3   4
TORSDOF 8
ENDMDL
MODEL 4
REMARK VINA RESULT: -6.493615778      2.868      5.574
REMARK  8 active torsions:
REMARK  status: ('A' for Active; 'I' for Inactive)
REMARK    1  A    between atoms: C3_3  and  N1_4 
REMARK    2  A    between atoms: N1_4  and  C4_6 
REMARK    3  A    between atoms: C4_6  and  C5_10 
REMARK       I    between atoms: N3_15  and  C10_16 
REMARK       I    between atoms: C10_16  and  N4_18 
REMARK    4  A    between atoms: C12_20  and  O2_21 
REMARK    5  A    between atoms: C14_24  and  C15_25 
REMARK       I    between atoms: C15_25  and  N5_27 
REMARK    6  A    between atoms: N5_27  and  C16_29 
REMARK    7  A    between atoms: C16_29  and  C17_30 
REMARK    8  A    between atoms: C17_30  and  O4_31 
ROOT
HETATM    1  C1  UNL     1      63.782  -3.981  95.114  1.00  0.00     0.103 C 
HETATM    2  C2  UNL     1      64.724  -3.273  95.457  1.00  0.00    -0.143 C 
HETATM    3  C3  UNL     1      65.841  -2.399  95.840  1.00  0.00     0.140 C 
ENDROOT
BRANCH   3   4
HETATM    4  N1  UNL     1      66.329  -2.716  97.122  1.00  0.00    -0.348 N 
ATOM      5  H1  UNL     1      66.712  -3.651  97.260  1.00  0.00     0.167 HD
BRANCH   4   6
HETATM    6  C4  UNL     1      66.329  -1.847  98.228  1.00  0.00     0.098 C 
HETATM    7  N2  UNL     1      65.188  -1.664  98.841  1.00  0.00    -0.387 N 
ATOM      8  H22 UNL     1      64.361  -2.161  98.510  1.00  0.00     0.157 HD
ATOM      9  H21 UNL     1      65.188  -1.033  99.643  1.00  0.00     0.157 HD
BRANCH   6  10
HETATM   10  C5  UNL     1      67.548  -1.113  98.716  1.00  0.00     0.156 C 
HETATM   11  C6  UNL     1      67.395   0.332  98.886  1.00  0.00     0.033 C 
HETATM   12  C7  UNL     1      67.908   0.978 100.116  1.00  0.00     0.004 C 
HETATM   13  C8  UNL     1      68.572   0.080 101.108  1.00  0.00     0.020 C 
HETATM   14  C9  UNL     1      67.673  -1.187 101.142  1.00  0.00     0.128 C 
HETATM   15  N3  UNL     1      67.972  -1.859  99.927  1.00  0.00    -0.322 N 
HETATM   16  C10 UNL     1      68.606  -3.059  99.710  1.00  0.00     0.325 C 
HETATM   17  O1  UNL     1      68.822  -3.371  98.470  1.00  0.00    -0.247 OA
HETATM   18  N4  UNL     1      69.053  -4.005 100.655  1.00  0.00    -0.297 N 
HETATM   19  C11 UNL     1      68.909  -3.974 102.056  1.00  0.00     0.101 C 
HETATM   20  C14 UNL     1      69.779  -5.187 100.241  1.00  0.00     0.188 C 
HETATM   21  C12 UNL     1      69.512  -5.284 102.568  1.00  0.00     0.159 C 
HETATM   22  C13 UNL     1      70.539  -5.604 101.467  1.00  0.00     0.072 C 
BRANCH  21  23
HETATM   23  O2  UNL     1      70.123  -5.056 103.780  1.00  0.00    -0.390 OA
ATOM     24  H2  UNL     1      70.988  -4.695 103.631  1.00  0.00     0.210 HD
ENDBRANCH  21  23
BRANCH  20  25
HETATM   25  C15 UNL     1      68.912  -6.250  99.679  1.00  0.00     0.241 C 
HETATM   26  O3  UNL     1      68.173  -6.852 100.463  1.00  0.00    -0.271 OA
HETATM   27  N5  UNL     1      68.956  -6.533  98.312  1.00  0.00    -0.357 N 
ATOM     28  H5  UNL     1      69.604  -5.993  97.739  1.00  0.00     0.162 HD
BRANCH  27  29
HETATM   29  C16 UNL     1      68.165  -7.515  97.663  1.00  0.00     0.148 C 
BRANCH  29  30
HETATM   30  C17 UNL     1      67.083  -7.045  96.775  1.00  0.00     0.183 C 
BRANCH  30  31
HETATM   31  O4  UNL     1      66.480  -5.855  97.026  1.00  0.00    -0.399 OA
ATOM     32  H4  UNL     1      66.740  -5.085  96.534  1.00  0.00     0.209 HD
ENDBRANCH  30  31
ENDBRANCH  29  30
ENDBRANCH  27  29
ENDBRANCH  20  25
ENDBRANCH   6  10
ENDBRANCH   4   6
ENDBRANCH   3   4
TORSDOF 8
ENDMDL
MODEL 5
REMARK VINA RESULT: -6.402947024      1.814      2.671
REMARK  8 active torsions:
REMARK  status: ('A' for Active; 'I' for Inactive)
REMARK    1  A    between atoms: C3_3  and  N1_4 
REMARK    2  A    between atoms: N1_4  and  C4_6 
REMARK    3  A    between atoms: C4_6  and  C5_10 
REMARK       I    between atoms: N3_15  and  C10_16 
REMARK       I    between atoms: C10_16  and  N4_18 
REMARK    4  A    between atoms: C12_20  and  O2_21 
REMARK    5  A    between atoms: C14_24  and  C15_25 
REMARK       I    between atoms: C15_25  and  N5_27 
REMARK    6  A    between atoms: N5_27  and  C16_29 
REMARK    7  A    between atoms: C16_29  and  C17_30 
REMARK    8  A    between atoms: C17_30  and  O4_31 
ROOT
HETATM    1  C1  UNL     1      74.675  -0.028 104.702  1.00  0.00     0.103 C 
HETATM    2  C2  UNL     1      73.572  -0.507 104.457  1.00  0.00    -0.143 C 
HETATM    3  C3  UNL     1      72.259  -1.077 104.125  1.00  0.00     0.140 C 
ENDROOT
BRANCH   3   4
HETATM    4  N1  UNL     1      71.688  -1.736 105.230  1.00  0.00    -0.348 N 
ATOM      5  H1  UNL     1      71.975  -1.428 106.159  1.00  0.00     0.167 HD
BRANCH   4   6
HETATM    6  C4  UNL     1      70.752  -2.783 105.156  1.00  0.00     0.098 C 
HETATM    7  N2  UNL     1      69.604  -2.517 104.589  1.00  0.00    -0.387 N 
ATOM      8  H22 UNL     1      69.440  -1.583 104.214  1.00  0.00     0.157 HD
ATOM      9  H21 UNL     1      68.925  -3.277 104.536  1.00  0.00     0.157 HD
BRANCH   6  10
HETATM   10  C5  UNL     1      70.993  -4.161 105.710  1.00  0.00     0.156 C 
HETATM   11  C6  UNL     1      71.114  -4.250 107.165  1.00  0.00     0.033 C 
HETATM   12  C7  UNL     1      70.390  -5.319 107.892  1.00  0.00     0.004 C 
HETATM   13  C8  UNL     1      69.580  -6.256 107.056  1.00  0.00     0.020 C 
HETATM   14  C9  UNL     1      68.888  -5.339 106.011  1.00  0.00     0.128 C 
HETATM   15  N3  UNL     1      69.927  -4.998 105.104  1.00  0.00    -0.322 N 
HETATM   16  C10 UNL     1      70.101  -5.341 103.784  1.00  0.00     0.325 C 
HETATM   17  O1  UNL     1      71.211  -4.952 103.239  1.00  0.00    -0.247 OA
HETATM   18  N4  UNL     1      69.233  -6.060 102.938  1.00  0.00    -0.297 N 
HETATM   19  C11 UNL     1      67.945  -6.554 103.224  1.00  0.00     0.101 C 
HETATM   20  C14 UNL     1      69.623  -6.400 101.585  1.00  0.00     0.188 C 
HETATM   21  C12 UNL     1      67.439  -7.182 101.924  1.00  0.00     0.159 C 
HETATM   22  C13 UNL     1      68.758  -7.576 101.235  1.00  0.00     0.072 C 
BRANCH  21  23
HETATM   23  O2  UNL     1      66.673  -8.286 102.223  1.00  0.00    -0.390 OA
ATOM     24  H2  UNL     1      65.946  -8.021 102.773  1.00  0.00     0.210 HD
ENDBRANCH  21  23
BRANCH  20  25
HETATM   25  C15 UNL     1      69.517  -5.269 100.634  1.00  0.00     0.241 C 
HETATM   26  O3  UNL     1      69.769  -5.500  99.447  1.00  0.00    -0.271 OA
HETATM   27  N5  UNL     1      69.144  -4.005 101.095  1.00  0.00    -0.357 N 
ATOM     28  H5  UNL     1      68.963  -3.901 102.093  1.00  0.00     0.162 HD
BRANCH  27  29
HETATM   29  C16 UNL     1      68.997  -2.855 100.277  1.00  0.00     0.148 C 
BRANCH  29  30
HETATM   30  C17 UNL     1      68.248  -1.710 100.833  1.00  0.00     0.183 C 
BRANCH  30  31
HETATM   31  O4  UNL     1      68.100  -1.598 102.178  1.00  0.00    -0.399 OA
ATOM     32  H4  UNL     1      68.551  -0.902 102.642  1.00  0.00     0.209 HD
ENDBRANCH  30  31
ENDBRANCH  29  30
ENDBRANCH  27  29
ENDBRANCH  20  25
ENDBRANCH   6  10
ENDBRANCH   4   6
ENDBRANCH   3   4
TORSDOF 8
ENDMDL
