MODEL 1
REMARK VINA RESULT: -5.142179757      0.000      0.000
REMARK  5 active torsions:
REMARK  status: ('A' for Active; 'I' for Inactive)
REMARK    1  A    between atoms: O1_2  and  C2_3 
REMARK    2  A    between atoms: C2_3  and  C3_5 
REMARK    3  A    between atoms: C8_13  and  C9_14 
REMARK       I    between atoms: N3_19  and  C13_20 
REMARK    4  A    between atoms: C13_20  and  O5_22 
REMARK    5  A    between atoms: O5_22  and  C14_23 
ROOT
HETATM    1  C3  UNL     1     -14.244   7.149  10.152  1.00  0.00     0.204 C 
HETATM    2  N1  UNL     1     -13.385   6.182  10.691  1.00  0.00    -0.380 N 
ATOM      3  H1  UNL     1     -12.789   6.573  11.420  1.00  0.00     0.160 HD
HETATM    4  C4  UNL     1     -13.155   4.948  10.508  1.00  0.00    -0.001 C 
HETATM    5  C5  UNL     1     -12.075   4.428  11.419  1.00  0.00     0.064 C 
HETATM    6  C6  UNL     1     -13.768   3.999   9.576  1.00  0.00     0.167 C 
HETATM    7  C7  UNL     1     -13.316   4.132   8.194  1.00  0.00     0.072 C 
HETATM    8  N2  UNL     1     -12.953   4.255   7.103  1.00  0.00    -0.196 NA
HETATM    9  C8  UNL     1     -15.287   3.968   9.694  1.00  0.00     0.170 C 
HETATM   10  N3  UNL     1     -15.758   5.317  10.052  1.00  0.00    -0.309 N 
HETATM   11  C13 UNL     1     -16.635   5.435  11.139  1.00  0.00     0.364 C 
HETATM   12  O4  UNL     1     -17.070   6.555  11.495  1.00  0.00    -0.238 OA
HETATM   13  C18 UNL     1     -15.346   6.495   9.330  1.00  0.00     0.118 C 
HETATM   14  C19 UNL     1     -16.487   7.455   9.092  1.00  0.00     0.035 C 
ENDROOT
BRANCH   9  15
HETATM   15  C9  UNL     1     -15.915   3.461   8.473  1.00  0.00     0.077 A 
HETATM   16  C10 UNL     1     -15.887   2.152   8.042  1.00  0.00     0.037 A 
HETATM   17  C11 UNL     1     -16.597   2.085   6.847  1.00  0.00     0.027 A 
HETATM   18  C12 UNL     1     -17.018   3.382   6.623  1.00  0.00     0.142 A 
HETATM   19  O3  UNL     1     -16.595   4.148   7.600  1.00  0.00    -0.325 OA
ENDBRANCH   9  15
BRANCH   1  20
HETATM   20  C2  UNL     1     -13.464   8.105   9.315  1.00  0.00     0.283 C 
HETATM   21  O2  UNL     1     -13.107   7.831   8.141  1.00  0.00    -0.263 OA
BRANCH  20  22
HETATM   22  O1  UNL     1     -13.119   9.325   9.836  1.00  0.00    -0.325 OA
HETATM   23  C1  UNL     1     -13.577   9.834  11.080  1.00  0.00     0.213 C 
ENDBRANCH  20  22
ENDBRANCH   1  20
BRANCH  11  24
HETATM   24  O5  UNL     1     -17.082   4.345  11.888  1.00  0.00    -0.294 OA
BRANCH  24  25
HETATM   25  C14 UNL     1     -16.502   4.004  13.126  1.00  0.00     0.061 C 
HETATM   26  C15 UNL     1     -16.078   2.554  13.183  1.00  0.00     0.046 C 
HETATM   27  C16 UNL     1     -15.351   4.858  13.535  1.00  0.00     0.046 C 
HETATM   28  C17 UNL     1     -17.598   4.164  14.182  1.00  0.00     0.046 C 
ENDBRANCH  24  25
ENDBRANCH  11  24
TORSDOF 5
ENDMDL
MODEL 2
REMARK VINA RESULT: -4.912609537      2.252      5.062
REMARK  5 active torsions:
REMARK  status: ('A' for Active; 'I' for Inactive)
REMARK    1  A    between atoms: O1_2  and  C2_3 
REMARK    2  A    between atoms: C2_3  and  C3_5 
REMARK    3  A    between atoms: C8_13  and  C9_14 
REMARK       I    between atoms: N3_19  and  C13_20 
REMARK    4  A    between atoms: C13_20  and  O5_22 
REMARK    5  A    between atoms: O5_22  and  C14_23 
ROOT
HETATM    1  C3  UNL     1     -15.227   2.053  10.082  1.00  0.00     0.204 C 
HETATM    2  N1  UNL     1     -15.779   2.240   8.808  1.00  0.00    -0.380 N 
ATOM      3  H1  UNL     1     -16.314   1.426   8.505  1.00  0.00     0.160 HD
HETATM    4  C4  UNL     1     -15.787   3.158   7.932  1.00  0.00    -0.001 C 
HETATM    5  C5  UNL     1     -16.581   2.775   6.711  1.00  0.00     0.064 C 
HETATM    6  C6  UNL     1     -15.160   4.482   7.942  1.00  0.00     0.167 C 
HETATM    7  C7  UNL     1     -13.721   4.471   7.698  1.00  0.00     0.072 C 
HETATM    8  N2  UNL     1     -12.580   4.444   7.510  1.00  0.00    -0.196 NA
HETATM    9  C8  UNL     1     -15.538   5.293   9.176  1.00  0.00     0.170 C 
HETATM   10  N3  UNL     1     -15.719   4.369  10.309  1.00  0.00    -0.309 N 
HETATM   11  C13 UNL     1     -16.899   4.478  11.057  1.00  0.00     0.364 C 
HETATM   12  O4  UNL     1     -17.114   3.719  12.032  1.00  0.00    -0.238 OA
HETATM   13  C18 UNL     1     -14.736   3.374  10.658  1.00  0.00     0.118 C 
HETATM   14  C19 UNL     1     -14.525   3.269  12.149  1.00  0.00     0.035 C 
ENDROOT
BRANCH   9  15
HETATM   15  C9  UNL     1     -14.553   6.339   9.459  1.00  0.00     0.077 A 
HETATM   16  C10 UNL     1     -14.526   7.590   8.882  1.00  0.00     0.037 A 
HETATM   17  C11 UNL     1     -13.441   8.279   9.415  1.00  0.00     0.027 A 
HETATM   18  C12 UNL     1     -12.867   7.385  10.299  1.00  0.00     0.142 A 
HETATM   19  O3  UNL     1     -13.552   6.267  10.289  1.00  0.00    -0.325 OA
ENDBRANCH   9  15
BRANCH   1  20
HETATM   20  C2  UNL     1     -14.110   1.067  10.006  1.00  0.00     0.283 C 
HETATM   21  O2  UNL     1     -14.174  -0.059  10.562  1.00  0.00    -0.263 OA
BRANCH  20  22
HETATM   22  O1  UNL     1     -12.974   1.391   9.312  1.00  0.00    -0.325 OA
HETATM   23  C1  UNL     1     -12.573   0.791   8.089  1.00  0.00     0.213 C 
ENDBRANCH  20  22
ENDBRANCH   1  20
BRANCH  11  24
HETATM   24  O5  UNL     1     -17.898   5.414  10.786  1.00  0.00    -0.294 OA
BRANCH  24  25
HETATM   25  C14 UNL     1     -18.011   6.615  11.514  1.00  0.00     0.061 C 
HETATM   26  C15 UNL     1     -19.253   6.651  12.376  1.00  0.00     0.046 C 
HETATM   27  C16 UNL     1     -16.830   6.949  12.359  1.00  0.00     0.046 C 
HETATM   28  C17 UNL     1     -18.179   7.737  10.486  1.00  0.00     0.046 C 
ENDBRANCH  24  25
ENDBRANCH  11  24
TORSDOF 5
ENDMDL
MODEL 3
REMARK VINA RESULT: -4.830583365      2.742      5.590
REMARK  5 active torsions:
REMARK  status: ('A' for Active; 'I' for Inactive)
REMARK    1  A    between atoms: O1_2  and  C2_3 
REMARK    2  A    between atoms: C2_3  and  C3_5 
REMARK    3  A    between atoms: C8_13  and  C9_14 
REMARK       I    between atoms: N3_19  and  C13_20 
REMARK    4  A    between atoms: C13_20  and  O5_22 
REMARK    5  A    between atoms: O5_22  and  C14_23 
ROOT
HETATM    1  C3  UNL     1     -13.621   5.430   8.246  1.00  0.00     0.204 C 
HETATM    2  N1  UNL     1     -14.798   4.830   7.781  1.00  0.00    -0.380 N 
ATOM      3  H1  UNL     1     -15.128   5.263   6.919  1.00  0.00     0.160 HD
HETATM    4  C4  UNL     1     -15.562   3.887   8.153  1.00  0.00    -0.001 C 
HETATM    5  C5  UNL     1     -16.723   3.689   7.215  1.00  0.00     0.064 C 
HETATM    6  C6  UNL     1     -15.474   3.002   9.317  1.00  0.00     0.167 C 
HETATM    7  C7  UNL     1     -15.874   3.619  10.578  1.00  0.00     0.072 C 
HETATM    8  N2  UNL     1     -16.187   4.126  11.569  1.00  0.00    -0.196 NA
HETATM    9  C8  UNL     1     -14.125   2.300   9.412  1.00  0.00     0.170 C 
HETATM   10  N3  UNL     1     -13.087   3.201   8.881  1.00  0.00    -0.309 N 
HETATM   11  C13 UNL     1     -12.207   2.687   7.919  1.00  0.00     0.364 C 
HETATM   12  O4  UNL     1     -11.304   3.404   7.427  1.00  0.00    -0.238 OA
HETATM   13  C18 UNL     1     -12.960   4.570   9.314  1.00  0.00     0.118 C 
HETATM   14  C19 UNL     1     -11.521   4.978   9.524  1.00  0.00     0.035 C 
ENDROOT
BRANCH   9  15
HETATM   15  C9  UNL     1     -13.837   1.860  10.779  1.00  0.00     0.077 A 
HETATM   16  C10 UNL     1     -14.249   0.670  11.340  1.00  0.00     0.037 A 
HETATM   17  C11 UNL     1     -13.774   0.632  12.647  1.00  0.00     0.027 A 
HETATM   18  C12 UNL     1     -13.091   1.824  12.800  1.00  0.00     0.142 A 
HETATM   19  O3  UNL     1     -13.157   2.506  11.682  1.00  0.00    -0.325 OA
ENDBRANCH   9  15
BRANCH   1  20
HETATM   20  C2  UNL     1     -13.926   6.789   8.781  1.00  0.00     0.283 C 
HETATM   21  O2  UNL     1     -13.481   7.835   8.244  1.00  0.00    -0.263 OA
BRANCH  20  22
HETATM   22  O1  UNL     1     -14.716   6.909   9.894  1.00  0.00    -0.325 OA
HETATM   23  C1  UNL     1     -16.016   7.482   9.908  1.00  0.00     0.213 C 
ENDBRANCH  20  22
ENDBRANCH   1  20
BRANCH  11  24
HETATM   24  O5  UNL     1     -12.263   1.374   7.449  1.00  0.00    -0.294 OA
BRANCH  24  25
HETATM   25  C14 UNL     1     -12.717   1.067   6.151  1.00  0.00     0.061 C 
HETATM   26  C15 UNL     1     -14.218   1.200   6.021  1.00  0.00     0.046 C 
HETATM   27  C16 UNL     1     -12.069   1.847   5.059  1.00  0.00     0.046 C 
HETATM   28  C17 UNL     1     -12.403  -0.413   5.916  1.00  0.00     0.046 C 
ENDBRANCH  24  25
ENDBRANCH  11  24
TORSDOF 5
ENDMDL
MODEL 4
REMARK VINA RESULT: -4.702718658      3.194      6.091
REMARK  5 active torsions:
REMARK  status: ('A' for Active; 'I' for Inactive)
REMARK    1  A    between atoms: O1_2  and  C2_3 
REMARK    2  A    between atoms: C2_3  and  C3_5 
REMARK    3  A    between atoms: C8_13  and  C9_14 
REMARK       I    between atoms: N3_19  and  C13_20 
REMARK    4  A    between atoms: C13_20  and  O5_22 
REMARK    5  A    between atoms: O5_22  and  C14_23 
ROOT
HETATM    1  C3  UNL     1     -14.155   2.284   6.199  1.00  0.00     0.204 C 
HETATM    2  N1  UNL     1     -12.804   2.649   6.260  1.00  0.00    -0.380 N 
ATOM      3  H1  UNL     1     -12.520   3.179   5.435  1.00  0.00     0.160 HD
HETATM    4  C4  UNL     1     -11.842   2.494   7.071  1.00  0.00    -0.001 C 
HETATM    5  C5  UNL     1     -10.571   3.135   6.580  1.00  0.00     0.064 C 
HETATM    6  C6  UNL     1     -11.797   1.809   8.365  1.00  0.00     0.167 C 
HETATM    7  C7  UNL     1     -11.757   0.352   8.277  1.00  0.00     0.072 C 
HETATM    8  N2  UNL     1     -11.734  -0.801   8.189  1.00  0.00    -0.196 NA
HETATM    9  C8  UNL     1     -12.871   2.308   9.324  1.00  0.00     0.170 C 
HETATM   10  N3  UNL     1     -14.060   2.686   8.542  1.00  0.00    -0.309 N 
HETATM   11  C13 UNL     1     -14.621   3.949   8.776  1.00  0.00     0.364 C 
HETATM   12  O4  UNL     1     -15.632   4.330   8.141  1.00  0.00    -0.238 OA
HETATM   13  C18 UNL     1     -14.648   1.809   7.559  1.00  0.00     0.118 C 
HETATM   14  C19 UNL     1     -16.157   1.806   7.618  1.00  0.00     0.035 C 
ENDROOT
BRANCH   9  15
HETATM   15  C9  UNL     1     -13.174   1.319  10.360  1.00  0.00     0.077 A 
HETATM   16  C10 UNL     1     -12.450   1.124  11.517  1.00  0.00     0.037 A 
HETATM   17  C11 UNL     1     -13.061   0.099  12.231  1.00  0.00     0.027 A 
HETATM   18  C12 UNL     1     -14.138  -0.272  11.448  1.00  0.00     0.142 A 
HETATM   19  O3  UNL     1     -14.161   0.470  10.367  1.00  0.00    -0.325 OA
ENDBRANCH   9  15
BRANCH   1  20
HETATM   20  C2  UNL     1     -14.343   1.218   5.173  1.00  0.00     0.283 C 
HETATM   21  O2  UNL     1     -15.118   1.362   4.193  1.00  0.00    -0.263 OA
BRANCH  20  22
HETATM   22  O1  UNL     1     -13.652   0.040   5.294  1.00  0.00    -0.325 OA
HETATM   23  C1  UNL     1     -13.753  -1.055   4.396  1.00  0.00     0.213 C 
ENDBRANCH  20  22
ENDBRANCH   1  20
BRANCH  11  24
HETATM   24  O5  UNL     1     -14.114   4.854   9.709  1.00  0.00    -0.294 OA
BRANCH  24  25
HETATM   25  C14 UNL     1     -13.461   6.040   9.318  1.00  0.00     0.061 C 
HETATM   26  C15 UNL     1     -12.675   5.868   8.038  1.00  0.00     0.046 C 
HETATM   27  C16 UNL     1     -14.350   7.229   9.180  1.00  0.00     0.046 C 
HETATM   28  C17 UNL     1     -12.431   6.353  10.406  1.00  0.00     0.046 C 
ENDBRANCH  24  25
ENDBRANCH  11  24
TORSDOF 5
ENDMDL
MODEL 5
REMARK VINA RESULT: -4.661160129      9.416     11.888
REMARK  5 active torsions:
REMARK  status: ('A' for Active; 'I' for Inactive)
REMARK    1  A    between atoms: O1_2  and  C2_3 
REMARK    2  A    between atoms: C2_3  and  C3_5 
REMARK    3  A    between atoms: C8_13  and  C9_14 
REMARK       I    between atoms: N3_19  and  C13_20 
REMARK    4  A    between atoms: C13_20  and  O5_22 
REMARK    5  A    between atoms: O5_22  and  C14_23 
ROOT
HETATM    1  C3  UNL     1     -13.653  -3.318   5.077  1.00  0.00     0.204 C 
HETATM    2  N1  UNL     1     -12.314  -3.321   5.488  1.00  0.00    -0.380 N 
ATOM      3  H1  UNL     1     -12.085  -2.489   6.033  1.00  0.00     0.160 HD
HETATM    4  C4  UNL     1     -11.312  -4.087   5.361  1.00  0.00    -0.001 C 
HETATM    5  C5  UNL     1     -10.087  -3.545   6.048  1.00  0.00     0.064 C 
HETATM    6  C6  UNL     1     -11.185  -5.372   4.668  1.00  0.00     0.167 C 
HETATM    7  C7  UNL     1     -11.101  -5.270   3.214  1.00  0.00     0.072 C 
HETATM    8  N2  UNL     1     -11.043  -5.172   2.064  1.00  0.00    -0.196 NA
HETATM    9  C8  UNL     1     -12.232  -6.382   5.124  1.00  0.00     0.170 C 
HETATM   10  N3  UNL     1     -13.467  -5.657   5.466  1.00  0.00    -0.309 N 
HETATM   11  C13 UNL     1     -14.060  -5.926   6.708  1.00  0.00     0.364 C 
HETATM   12  O4  UNL     1     -15.111  -5.340   7.059  1.00  0.00    -0.238 OA
HETATM   13  C18 UNL     1     -14.069  -4.695   4.577  1.00  0.00     0.118 C 
HETATM   14  C19 UNL     1     -15.572  -4.820   4.521  1.00  0.00     0.035 C 
ENDROOT
BRANCH   9  15
HETATM   15  C9  UNL     1     -12.454  -7.423   4.118  1.00  0.00     0.077 A 
HETATM   16  C10 UNL     1     -11.672  -8.544   3.940  1.00  0.00     0.037 A 
HETATM   17  C11 UNL     1     -12.215  -9.276   2.889  1.00  0.00     0.027 A 
HETATM   18  C12 UNL     1     -13.315  -8.540   2.489  1.00  0.00     0.142 A 
HETATM   19  O3  UNL     1     -13.412  -7.467   3.237  1.00  0.00    -0.325 OA
ENDBRANCH   9  15
BRANCH   1  20
HETATM   20  C2  UNL     1     -13.851  -2.292   4.012  1.00  0.00     0.283 C 
HETATM   21  O2  UNL     1     -13.511  -2.493   2.818  1.00  0.00    -0.263 OA
BRANCH  20  22
HETATM   22  O1  UNL     1     -14.419  -1.088   4.338  1.00  0.00    -0.325 OA
HETATM   23  C1  UNL     1     -13.695   0.082   4.691  1.00  0.00     0.213 C 
ENDBRANCH  20  22
ENDBRANCH   1  20
BRANCH  11  24
HETATM   24  O5  UNL     1     -13.542  -6.844   7.624  1.00  0.00    -0.294 OA
BRANCH  24  25
HETATM   25  C14 UNL     1     -12.665  -6.452   8.654  1.00  0.00     0.061 C 
HETATM   26  C15 UNL     1     -11.315  -7.125   8.548  1.00  0.00     0.046 C 
HETATM   27  C16 UNL     1     -12.460  -4.981   8.778  1.00  0.00     0.046 C 
HETATM   28  C17 UNL     1     -13.281  -6.947   9.965  1.00  0.00     0.046 C 
ENDBRANCH  24  25
ENDBRANCH  11  24
TORSDOF 5
ENDMDL
