MODEL 1
REMARK VINA RESULT: -7.415888586      0.000      0.000
REMARK  4 active torsions:
REMARK  status: ('A' for Active; 'I' for Inactive)
REMARK    1  A    between atoms: C2_2  and  O1_3 
REMARK    2  A    between atoms: O1_3  and  C3_4 
REMARK    3  A    between atoms: C3_4  and  C4_6 
REMARK       I    between atoms: N2_12  and  C8_13 
REMARK    4  A    between atoms: C8_13  and  O4_15 
ROOT
HETATM    1  C4  UNL     1     -14.026   4.477   7.907  1.00  0.00     0.109 C 
HETATM    2  C5  UNL     1     -13.378   3.317   7.200  1.00  0.00    -0.002 C 
HETATM    3  C6  UNL     1     -14.096   2.544   6.393  1.00  0.00    -0.024 C 
HETATM    4  C7  UNL     1     -15.482   2.872   6.241  1.00  0.00     0.033 C 
HETATM    5  N1  UNL     1     -16.332   2.526   5.317  1.00  0.00    -0.292 N 
ATOM      6  H1  UNL     1     -17.292   2.864   5.384  1.00  0.00     0.187 HD
HETATM    7  N2  UNL     1     -15.971   1.686   4.209  1.00  0.00    -0.180 N 
HETATM    8  C8  UNL     1     -16.502   2.060   2.968  1.00  0.00     0.387 C 
HETATM    9  O3  UNL     1     -16.058   1.684   1.886  1.00  0.00    -0.236 OA
HETATM   10  C10 UNL     1     -15.084   0.584   4.295  1.00  0.00     0.158 A 
HETATM   11  C11 UNL     1     -13.882   0.513   4.977  1.00  0.00     0.026 A 
HETATM   12  C12 UNL     1     -13.419  -0.739   4.724  1.00  0.00     0.033 A 
HETATM   13  C13 UNL     1     -12.198  -1.448   5.131  1.00  0.00     0.070 C 
HETATM   14  N3  UNL     1     -14.333  -1.364   3.924  1.00  0.00    -0.301 N 
ATOM     15  H3  UNL     1     -14.240  -2.320   3.579  1.00  0.00     0.187 HD
HETATM   16  N4  UNL     1     -15.356  -0.566   3.657  1.00  0.00    -0.279 N 
HETATM   17  C14 UNL     1     -16.534  -0.910   2.885  1.00  0.00     0.179 C 
HETATM   18  C15 UNL     1     -13.188   1.482   5.845  1.00  0.00     0.014 C 
HETATM   19  C16 UNL     1     -12.693   0.749   7.100  1.00  0.00     0.025 C 
HETATM   20  C17 UNL     1     -12.063   2.196   5.130  1.00  0.00     0.025 C 
HETATM   21  C18 UNL     1     -16.238   3.748   7.203  1.00  0.00     0.060 C 
HETATM   22  C19 UNL     1     -15.382   3.987   8.400  1.00  0.00     0.024 C 
ENDROOT
BRANCH   1  23
HETATM   23  C3  UNL     1     -13.179   4.960   8.999  1.00  0.00     0.266 C 
HETATM   24  O2  UNL     1     -12.354   4.160   9.518  1.00  0.00    -0.265 OA
BRANCH  23  25
HETATM   25  O1  UNL     1     -13.211   6.237   9.512  1.00  0.00    -0.321 OA
BRANCH  25  26
HETATM   26  C2  UNL     1     -13.617   7.380   8.793  1.00  0.00     0.174 C 
HETATM   27  C1  UNL     1     -15.008   7.832   9.129  1.00  0.00     0.034 C 
ENDBRANCH  25  26
ENDBRANCH  23  25
ENDBRANCH   1  23
BRANCH   8  28
HETATM   28  O4  UNL     1     -17.600   2.913   2.954  1.00  0.00    -0.307 OA
HETATM   29  C9  UNL     1     -18.337   3.199   1.788  1.00  0.00     0.215 C 
ENDBRANCH   8  28
TORSDOF 4
ENDMDL
MODEL 2
REMARK VINA RESULT: -7.315096759      0.911      1.361
REMARK  4 active torsions:
REMARK  status: ('A' for Active; 'I' for Inactive)
REMARK    1  A    between atoms: C2_2  and  O1_3 
REMARK    2  A    between atoms: O1_3  and  C3_4 
REMARK    3  A    between atoms: C3_4  and  C4_6 
REMARK       I    between atoms: N2_12  and  C8_13 
REMARK    4  A    between atoms: C8_13  and  O4_15 
ROOT
HETATM    1  C4  UNL     1     -14.032   4.430   7.881  1.00  0.00     0.109 C 
HETATM    2  C5  UNL     1     -13.404   3.274   7.149  1.00  0.00    -0.002 C 
HETATM    3  C6  UNL     1     -14.138   2.525   6.334  1.00  0.00    -0.024 C 
HETATM    4  C7  UNL     1     -15.521   2.872   6.198  1.00  0.00     0.033 C 
HETATM    5  N1  UNL     1     -16.382   2.554   5.275  1.00  0.00    -0.292 N 
ATOM      6  H1  UNL     1     -17.337   2.903   5.354  1.00  0.00     0.187 HD
HETATM    7  N2  UNL     1     -16.039   1.729   4.150  1.00  0.00    -0.180 N 
HETATM    8  C8  UNL     1     -16.574   2.132   2.919  1.00  0.00     0.387 C 
HETATM    9  O3  UNL     1     -16.144   1.769   1.827  1.00  0.00    -0.236 OA
HETATM   10  C10 UNL     1     -15.166   0.615   4.209  1.00  0.00     0.158 A 
HETATM   11  C11 UNL     1     -13.961   0.516   4.881  1.00  0.00     0.026 A 
HETATM   12  C12 UNL     1     -13.515  -0.736   4.603  1.00  0.00     0.033 A 
HETATM   13  C13 UNL     1     -12.300  -1.468   4.988  1.00  0.00     0.070 C 
HETATM   14  N3  UNL     1     -14.443  -1.336   3.799  1.00  0.00    -0.301 N 
ATOM     15  H3  UNL     1     -14.365  -2.286   3.436  1.00  0.00     0.187 HD
HETATM   16  N4  UNL     1     -15.457  -0.521   3.554  1.00  0.00    -0.279 N 
HETATM   17  C14 UNL     1     -16.645  -0.835   2.784  1.00  0.00     0.179 C 
HETATM   18  C15 UNL     1     -13.247   1.462   5.760  1.00  0.00     0.014 C 
HETATM   19  C16 UNL     1     -12.752   0.700   6.998  1.00  0.00     0.025 C 
HETATM   20  C17 UNL     1     -12.119   2.173   5.050  1.00  0.00     0.025 C 
HETATM   21  C18 UNL     1     -16.258   3.741   7.181  1.00  0.00     0.060 C 
HETATM   22  C19 UNL     1     -15.391   3.948   8.375  1.00  0.00     0.024 C 
ENDROOT
BRANCH   1  23
HETATM   23  C3  UNL     1     -13.172   4.883   8.975  1.00  0.00     0.266 C 
HETATM   24  O2  UNL     1     -13.414   4.469  10.141  1.00  0.00    -0.265 OA
BRANCH  23  25
HETATM   25  O1  UNL     1     -12.102   5.738   8.831  1.00  0.00    -0.321 OA
BRANCH  25  26
HETATM   26  C2  UNL     1     -10.750   5.347   8.891  1.00  0.00     0.174 C 
HETATM   27  C1  UNL     1     -10.156   5.042   7.546  1.00  0.00     0.034 C 
ENDBRANCH  25  26
ENDBRANCH  23  25
ENDBRANCH   1  23
BRANCH   8  28
HETATM   28  O4  UNL     1     -17.662   2.998   2.929  1.00  0.00    -0.307 OA
HETATM   29  C9  UNL     1     -18.435   3.275   1.784  1.00  0.00     0.215 C 
ENDBRANCH   8  28
TORSDOF 4
ENDMDL
MODEL 3
REMARK VINA RESULT: -7.081059798      3.103      6.965
REMARK  4 active torsions:
REMARK  status: ('A' for Active; 'I' for Inactive)
REMARK    1  A    between atoms: C2_2  and  O1_3 
REMARK    2  A    between atoms: O1_3  and  C3_4 
REMARK    3  A    between atoms: C3_4  and  C4_6 
REMARK       I    between atoms: N2_12  and  C8_13 
REMARK    4  A    between atoms: C8_13  and  O4_15 
ROOT
HETATM    1  C4  UNL     1     -16.428   1.994   5.316  1.00  0.00     0.109 C 
HETATM    2  C5  UNL     1     -15.276   2.371   6.208  1.00  0.00    -0.002 C 
HETATM    3  C6  UNL     1     -15.389   3.397   7.044  1.00  0.00    -0.024 C 
HETATM    4  C7  UNL     1     -16.636   4.101   7.045  1.00  0.00     0.033 C 
HETATM    5  N1  UNL     1     -17.150   4.902   7.934  1.00  0.00    -0.292 N 
ATOM      6  H1  UNL     1     -18.065   5.314   7.751  1.00  0.00     0.187 HD
HETATM    7  N2  UNL     1     -16.478   5.227   9.161  1.00  0.00    -0.180 N 
HETATM    8  C8  UNL     1     -17.290   5.274  10.302  1.00  0.00     0.387 C 
HETATM    9  O3  UNL     1     -16.868   5.207  11.453  1.00  0.00    -0.236 OA
HETATM   10  C10 UNL     1     -15.080   5.427   9.281  1.00  0.00     0.158 A 
HETATM   11  C11 UNL     1     -14.065   4.681   8.709  1.00  0.00     0.026 A 
HETATM   12  C12 UNL     1     -12.921   5.266   9.149  1.00  0.00     0.033 A 
HETATM   13  C13 UNL     1     -11.500   4.962   8.929  1.00  0.00     0.070 C 
HETATM   14  N3  UNL     1     -13.275   6.320   9.945  1.00  0.00    -0.301 N 
ATOM     15  H3  UNL     1     -12.612   6.940  10.410  1.00  0.00     0.187 HD
HETATM   16  N4  UNL     1     -14.592   6.428  10.030  1.00  0.00    -0.279 N 
HETATM   17  C14 UNL     1     -15.324   7.457  10.743  1.00  0.00     0.179 C 
HETATM   18  C15 UNL     1     -14.092   3.529   7.788  1.00  0.00     0.014 C 
HETATM   19  C16 UNL     1     -13.062   3.769   6.675  1.00  0.00     0.025 C 
HETATM   20  C17 UNL     1     -13.858   2.215   8.496  1.00  0.00     0.025 C 
HETATM   21  C18 UNL     1     -17.639   4.013   5.926  1.00  0.00     0.060 C 
HETATM   22  C19 UNL     1     -17.011   3.296   4.781  1.00  0.00     0.024 C 
ENDROOT
BRANCH   1  23
HETATM   23  C3  UNL     1     -15.986   1.101   4.244  1.00  0.00     0.266 C 
HETATM   24  O2  UNL     1     -16.857   0.606   3.478  1.00  0.00    -0.265 OA
BRANCH  23  25
HETATM   25  O1  UNL     1     -14.676   0.753   4.000  1.00  0.00    -0.321 OA
BRANCH  25  26
HETATM   26  C2  UNL     1     -14.083  -0.463   4.394  1.00  0.00     0.174 C 
HETATM   27  C1  UNL     1     -12.795  -0.283   5.143  1.00  0.00     0.034 C 
ENDBRANCH  25  26
ENDBRANCH  23  25
ENDBRANCH   1  23
BRANCH   8  28
HETATM   28  O4  UNL     1     -18.663   5.404  10.125  1.00  0.00    -0.307 OA
HETATM   29  C9  UNL     1     -19.424   6.424  10.730  1.00  0.00     0.215 C 
ENDBRANCH   8  28
TORSDOF 4
ENDMDL
MODEL 4
REMARK VINA RESULT: -6.871064539      3.369      7.136
REMARK  4 active torsions:
REMARK  status: ('A' for Active; 'I' for Inactive)
REMARK    1  A    between atoms: C2_2  and  O1_3 
REMARK    2  A    between atoms: O1_3  and  C3_4 
REMARK    3  A    between atoms: C3_4  and  C4_6 
REMARK       I    between atoms: N2_12  and  C8_13 
REMARK    4  A    between atoms: C8_13  and  O4_15 
ROOT
HETATM    1  C4  UNL     1     -16.439   2.180   5.642  1.00  0.00     0.109 C 
HETATM    2  C5  UNL     1     -15.256   2.584   6.481  1.00  0.00    -0.002 C 
HETATM    3  C6  UNL     1     -15.376   3.560   7.374  1.00  0.00    -0.024 C 
HETATM    4  C7  UNL     1     -16.659   4.186   7.487  1.00  0.00     0.033 C 
HETATM    5  N1  UNL     1     -17.161   4.911   8.445  1.00  0.00    -0.292 N 
ATOM      6  H1  UNL     1     -18.108   5.275   8.339  1.00  0.00     0.187 HD
HETATM    7  N2  UNL     1     -16.432   5.217   9.644  1.00  0.00    -0.180 N 
HETATM    8  C8  UNL     1     -17.172   5.160  10.833  1.00  0.00     0.387 C 
HETATM    9  O3  UNL     1     -16.674   5.064  11.952  1.00  0.00    -0.236 OA
HETATM   10  C10 UNL     1     -15.043   5.496   9.689  1.00  0.00     0.158 A 
HETATM   11  C11 UNL     1     -14.025   4.841   9.020  1.00  0.00     0.026 A 
HETATM   12  C12 UNL     1     -12.891   5.473   9.419  1.00  0.00     0.033 A 
HETATM   13  C13 UNL     1     -11.472   5.267   9.098  1.00  0.00     0.070 C 
HETATM   14  N3  UNL     1     -13.254   6.464  10.288  1.00  0.00    -0.301 N 
ATOM     15  H3  UNL     1     -12.600   7.100  10.744  1.00  0.00     0.187 HD
HETATM   16  N4  UNL     1     -14.567   6.488  10.458  1.00  0.00    -0.279 N 
HETATM   17  C14 UNL     1     -15.310   7.435  11.266  1.00  0.00     0.179 C 
HETATM   18  C15 UNL     1     -14.044   3.735   8.044  1.00  0.00     0.014 C 
HETATM   19  C16 UNL     1     -13.102   4.090   6.884  1.00  0.00     0.025 C 
HETATM   20  C17 UNL     1     -13.690   2.406   8.669  1.00  0.00     0.025 C 
HETATM   21  C18 UNL     1     -17.724   4.090   6.427  1.00  0.00     0.060 C 
HETATM   22  C19 UNL     1     -17.130   3.469   5.211  1.00  0.00     0.024 C 
ENDROOT
BRANCH   1  23
HETATM   23  C3  UNL     1     -16.015   1.368   4.501  1.00  0.00     0.266 C 
HETATM   24  O2  UNL     1     -14.862   0.857   4.523  1.00  0.00    -0.265 OA
BRANCH  23  25
HETATM   25  O1  UNL     1     -16.785   1.112   3.389  1.00  0.00    -0.321 OA
BRANCH  25  26
HETATM   26  C2  UNL     1     -16.650   1.771   2.151  1.00  0.00     0.174 C 
HETATM   27  C1  UNL     1     -17.851   2.590   1.777  1.00  0.00     0.034 C 
ENDBRANCH  25  26
ENDBRANCH  23  25
ENDBRANCH   1  23
BRANCH   8  28
HETATM   28  O4  UNL     1     -18.558   5.215  10.746  1.00  0.00    -0.307 OA
HETATM   29  C9  UNL     1     -19.299   6.385  11.003  1.00  0.00     0.215 C 
ENDBRANCH   8  28
TORSDOF 4
ENDMDL
MODEL 5
REMARK VINA RESULT: -6.800384522      3.390      7.254
REMARK  4 active torsions:
REMARK  status: ('A' for Active; 'I' for Inactive)
REMARK    1  A    between atoms: C2_2  and  O1_3 
REMARK    2  A    between atoms: O1_3  and  C3_4 
REMARK    3  A    between atoms: C3_4  and  C4_6 
REMARK       I    between atoms: N2_12  and  C8_13 
REMARK    4  A    between atoms: C8_13  and  O4_15 
ROOT
HETATM    1  C4  UNL     1     -15.832   2.224   6.213  1.00  0.00     0.109 C 
HETATM    2  C5  UNL     1     -14.802   2.913   7.066  1.00  0.00    -0.002 C 
HETATM    3  C6  UNL     1     -15.143   3.966   7.801  1.00  0.00    -0.024 C 
HETATM    4  C7  UNL     1     -16.508   4.392   7.734  1.00  0.00     0.033 C 
HETATM    5  N1  UNL     1     -17.195   5.147   8.543  1.00  0.00    -0.292 N 
ATOM      6  H1  UNL     1     -18.172   5.341   8.321  1.00  0.00     0.187 HD
HETATM    7  N2  UNL     1     -16.630   5.717   9.734  1.00  0.00    -0.180 N 
HETATM    8  C8  UNL     1     -17.458   5.699  10.865  1.00  0.00     0.387 C 
HETATM    9  O3  UNL     1     -17.054   5.829  12.018  1.00  0.00    -0.236 OA
HETATM   10  C10 UNL     1     -15.307   6.214   9.835  1.00  0.00     0.158 A 
HETATM   11  C11 UNL     1     -14.147   5.646   9.338  1.00  0.00     0.026 A 
HETATM   12  C12 UNL     1     -13.159   6.495   9.721  1.00  0.00     0.033 A 
HETATM   13  C13 UNL     1     -11.701   6.474   9.532  1.00  0.00     0.070 C 
HETATM   14  N3  UNL     1     -13.739   7.521  10.413  1.00  0.00    -0.301 N 
ATOM     15  H3  UNL     1     -13.229   8.305  10.818  1.00  0.00     0.187 HD
HETATM   16  N4  UNL     1     -15.052   7.360  10.487  1.00  0.00    -0.279 N 
HETATM   17  C14 UNL     1     -15.995   8.275  11.099  1.00  0.00     0.179 C 
HETATM   18  C15 UNL     1     -13.917   4.434   8.530  1.00  0.00     0.014 C 
HETATM   19  C16 UNL     1     -12.936   4.779   7.399  1.00  0.00     0.025 C 
HETATM   20  C17 UNL     1     -13.430   3.269   9.360  1.00  0.00     0.025 C 
HETATM   21  C18 UNL     1     -17.448   3.994   6.628  1.00  0.00     0.060 C 
HETATM   22  C19 UNL     1     -16.662   3.320   5.556  1.00  0.00     0.024 C 
ENDROOT
BRANCH   1  23
HETATM   23  C3  UNL     1     -15.193   1.347   5.230  1.00  0.00     0.266 C 
HETATM   24  O2  UNL     1     -15.590   1.395   4.034  1.00  0.00    -0.265 OA
BRANCH  23  25
HETATM   25  O1  UNL     1     -14.178   0.460   5.511  1.00  0.00    -0.321 OA
BRANCH  25  26
HETATM   26  C2  UNL     1     -12.914   0.466   4.887  1.00  0.00     0.174 C 
HETATM   27  C1  UNL     1     -12.110   1.699   5.181  1.00  0.00     0.034 C 
ENDBRANCH  25  26
ENDBRANCH  23  25
ENDBRANCH   1  23
BRANCH   8  28
HETATM   28  O4  UNL     1     -18.824   5.524  10.675  1.00  0.00    -0.307 OA
HETATM   29  C9  UNL     1     -19.759   6.569  10.806  1.00  0.00     0.215 C 
ENDBRANCH   8  28
TORSDOF 4
ENDMDL
