MODEL 1
REMARK VINA RESULT: -6.753750912      0.000      0.000
REMARK  4 active torsions:
REMARK  status: ('A' for Active; 'I' for Inactive)
REMARK    1  A    between atoms: C4_6  and  O1_7 
REMARK    2  A    between atoms: C5_9  and  N2_10 
REMARK    3  A    between atoms: N2_10  and  C6_12 
REMARK    4  A    between atoms: C6_12  and  C7_16 
ROOT
HETATM    1  N2  UNL     1      43.909  74.476  40.923  1.00  0.00    -0.341 N 
ATOM      2  H2  UNL     1      42.971  74.806  40.695  1.00  0.00     0.167 HD
ENDROOT
BRANCH   1   3
HETATM    3  C5  UNL     1      44.089  73.109  41.354  1.00  0.00     0.107 A 
HETATM    4  C4  UNL     1      44.116  72.104  40.418  1.00  0.00     0.169 A 
HETATM    5  N1  UNL     1      44.282  70.836  40.821  1.00  0.00    -0.345 N 
HETATM    6  C3  UNL     1      44.429  70.457  42.098  1.00  0.00     0.098 A 
ATOM      7  H1  UNL     1      44.298  70.109  40.106  1.00  0.00     0.167 HD
HETATM    8  C2  UNL     1      44.400  71.475  43.029  1.00  0.00    -0.022 A 
HETATM    9  C1  UNL     1      44.555  71.152  44.471  1.00  0.00     0.051 C 
HETATM   10  C13 UNL     1      44.233  72.794  42.679  1.00  0.00     0.072 A 
HETATM   11 CL1  UNL     1      44.199  74.071  43.883  1.00  0.00    -0.081 Cl
BRANCH   4  12
HETATM   12  O1  UNL     1      43.970  72.401  39.044  1.00  0.00    -0.344 OA
ATOM     13  H1  UNL     1      44.725  72.658  38.528  1.00  0.00     0.219 HD
ENDBRANCH   4  12
ENDBRANCH   1   3
BRANCH   1  14
HETATM   14  C6  UNL     1      45.006  75.373  40.807  1.00  0.00     0.079 C 
HETATM   15  N3  UNL     1      46.180  74.936  40.536  1.00  0.00    -0.389 N 
ATOM     16  H32 UNL     1      46.370  73.945  40.394  1.00  0.00     0.157 HD
ATOM     17  H31 UNL     1      46.967  75.580  40.454  1.00  0.00     0.157 HD
BRANCH  14  18
HETATM   18  C7  UNL     1      44.729  76.816  41.014  1.00  0.00     0.053 C 
HETATM   19  C8  UNL     1      43.374  76.953  41.630  1.00  0.00     0.012 C 
HETATM   20  C9  UNL     1      43.302  78.181  42.538  1.00  0.00     0.001 C 
HETATM   21  C10 UNL     1      44.199  77.915  43.709  1.00  0.00     0.000 C 
HETATM   22  C11 UNL     1      45.547  77.376  43.317  1.00  0.00     0.001 C 
HETATM   23  C12 UNL     1      45.795  77.495  41.831  1.00  0.00     0.012 C 
ENDBRANCH  14  18
ENDBRANCH   1  14
TORSDOF 4
ENDMDL
MODEL 2
REMARK VINA RESULT: -6.725223496      2.339      3.245
REMARK  4 active torsions:
REMARK  status: ('A' for Active; 'I' for Inactive)
REMARK    1  A    between atoms: C4_6  and  O1_7 
REMARK    2  A    between atoms: C5_9  and  N2_10 
REMARK    3  A    between atoms: N2_10  and  C6_12 
REMARK    4  A    between atoms: C6_12  and  C7_16 
ROOT
HETATM    1  N2  UNL     1      45.069  74.482  43.613  1.00  0.00    -0.341 N 
ATOM      2  H2  UNL     1      46.021  74.813  43.774  1.00  0.00     0.167 HD
ENDROOT
BRANCH   1   3
HETATM    3  C5  UNL     1      44.860  73.110  43.211  1.00  0.00     0.107 A 
HETATM    4  C4  UNL     1      44.873  72.119  44.161  1.00  0.00     0.169 A 
HETATM    5  N1  UNL     1      44.680  70.846  43.786  1.00  0.00    -0.345 N 
HETATM    6  C3  UNL     1      44.467  70.450  42.523  1.00  0.00     0.098 A 
ATOM      7  H1  UNL     1      44.695  70.129  44.511  1.00  0.00     0.167 HD
HETATM    8  C2  UNL     1      44.455  71.455  41.578  1.00  0.00    -0.022 A 
HETATM    9  C1  UNL     1      44.227  71.112  40.150  1.00  0.00     0.051 C 
HETATM   10  C13 UNL     1      44.648  72.777  41.899  1.00  0.00     0.072 A 
HETATM   11 CL1  UNL     1      44.630  74.037  40.677  1.00  0.00    -0.081 Cl
BRANCH   4  12
HETATM   12  O1  UNL     1      45.090  72.434  45.522  1.00  0.00    -0.344 OA
ATOM     13  H1  UNL     1      44.715  73.224  45.895  1.00  0.00     0.219 HD
ENDBRANCH   4  12
ENDBRANCH   1   3
BRANCH   1  14
HETATM   14  C6  UNL     1      43.985  75.382  43.789  1.00  0.00     0.079 C 
HETATM   15  N3  UNL     1      42.819  74.947  44.098  1.00  0.00    -0.389 N 
ATOM     16  H32 UNL     1      42.628  73.954  44.228  1.00  0.00     0.157 HD
ATOM     17  H31 UNL     1      42.040  75.594  44.223  1.00  0.00     0.157 HD
BRANCH  14  18
HETATM   18  C7  UNL     1      44.262  76.828  43.599  1.00  0.00     0.053 C 
HETATM   19  C8  UNL     1      45.627  76.972  43.006  1.00  0.00     0.012 C 
HETATM   20  C9  UNL     1      45.711  78.208  42.110  1.00  0.00     0.001 C 
HETATM   21  C10 UNL     1      44.834  77.951  40.922  1.00  0.00     0.000 C 
HETATM   22  C11 UNL     1      43.481  77.406  41.288  1.00  0.00     0.001 C 
HETATM   23  C12 UNL     1      43.208  77.512  42.771  1.00  0.00     0.012 C 
ENDBRANCH  14  18
ENDBRANCH   1  14
TORSDOF 4
ENDMDL
MODEL 3
REMARK VINA RESULT: -6.573532260      0.858      1.363
REMARK  4 active torsions:
REMARK  status: ('A' for Active; 'I' for Inactive)
REMARK    1  A    between atoms: C4_6  and  O1_7 
REMARK    2  A    between atoms: C5_9  and  N2_10 
REMARK    3  A    between atoms: N2_10  and  C6_12 
REMARK    4  A    between atoms: C6_12  and  C7_16 
ROOT
HETATM    1  N2  UNL     1      43.535  74.457  41.177  1.00  0.00    -0.341 N 
ATOM      2  H2  UNL     1      42.620  74.625  40.758  1.00  0.00     0.167 HD
ENDROOT
BRANCH   1   3
HETATM    3  C5  UNL     1      43.924  73.104  41.500  1.00  0.00     0.107 A 
HETATM    4  C4  UNL     1      44.191  72.218  40.485  1.00  0.00     0.169 A 
HETATM    5  N1  UNL     1      44.552  70.962  40.788  1.00  0.00    -0.345 N 
HETATM    6  C3  UNL     1      44.678  70.487  42.034  1.00  0.00     0.098 A 
ATOM      7  H1  UNL     1      44.743  70.325  40.016  1.00  0.00     0.167 HD
HETATM    8  C2  UNL     1      44.407  71.386  43.045  1.00  0.00    -0.022 A 
HETATM    9  C1  UNL     1      44.520  70.950  44.461  1.00  0.00     0.051 C 
HETATM   10  C13 UNL     1      44.033  72.686  42.800  1.00  0.00     0.072 A 
HETATM   11 CL1  UNL     1      43.693  73.811  44.104  1.00  0.00    -0.081 Cl
BRANCH   4  12
HETATM   12  O1  UNL     1      44.087  72.623  39.135  1.00  0.00    -0.344 OA
ATOM     13  H1  UNL     1      44.765  72.389  38.512  1.00  0.00     0.219 HD
ENDBRANCH   4  12
ENDBRANCH   1   3
BRANCH   1  14
HETATM   14  C6  UNL     1      44.393  75.561  41.428  1.00  0.00     0.079 C 
HETATM   15  N3  UNL     1      45.572  75.599  40.926  1.00  0.00    -0.389 N 
ATOM     16  H32 UNL     1      45.934  74.850  40.336  1.00  0.00     0.157 HD
ATOM     17  H31 UNL     1      46.188  76.392  41.107  1.00  0.00     0.157 HD
BRANCH  14  18
HETATM   18  C7  UNL     1      43.866  76.652  42.287  1.00  0.00     0.053 C 
HETATM   19  C8  UNL     1      44.959  77.100  43.203  1.00  0.00     0.012 C 
HETATM   20  C9  UNL     1      44.822  78.585  43.540  1.00  0.00     0.001 C 
HETATM   21  C10 UNL     1      45.083  79.348  42.277  1.00  0.00     0.000 C 
HETATM   22  C11 UNL     1      44.346  78.800  41.086  1.00  0.00     0.001 C 
HETATM   23  C12 UNL     1      43.295  77.790  41.486  1.00  0.00     0.012 C 
ENDBRANCH  14  18
ENDBRANCH   1  14
TORSDOF 4
ENDMDL
MODEL 4
REMARK VINA RESULT: -6.570562303      0.893      1.516
REMARK  4 active torsions:
REMARK  status: ('A' for Active; 'I' for Inactive)
REMARK    1  A    between atoms: C4_6  and  O1_7 
REMARK    2  A    between atoms: C5_9  and  N2_10 
REMARK    3  A    between atoms: N2_10  and  C6_12 
REMARK    4  A    between atoms: C6_12  and  C7_16 
ROOT
HETATM    1  N2  UNL     1      44.162  74.252  40.903  1.00  0.00    -0.341 N 
ATOM      2  H2  UNL     1      43.241  74.523  40.559  1.00  0.00     0.167 HD
ENDROOT
BRANCH   1   3
HETATM    3  C5  UNL     1      44.361  72.910  41.401  1.00  0.00     0.107 A 
HETATM    4  C4  UNL     1      44.652  71.899  40.517  1.00  0.00     0.169 A 
HETATM    5  N1  UNL     1      44.834  70.654  40.981  1.00  0.00    -0.345 N 
HETATM    6  C3  UNL     1      44.755  70.305  42.272  1.00  0.00     0.098 A 
ATOM      7  H1  UNL     1      45.049  69.922  40.305  1.00  0.00     0.167 HD
HETATM    8  C2  UNL     1      44.462  71.329  43.150  1.00  0.00    -0.022 A 
HETATM    9  C1  UNL     1      44.353  71.038  44.603  1.00  0.00     0.051 C 
HETATM   10  C13 UNL     1      44.264  72.625  42.737  1.00  0.00     0.072 A 
HETATM   11 CL1  UNL     1      43.892  73.909  43.873  1.00  0.00    -0.081 Cl
BRANCH   4  12
HETATM   12  O1  UNL     1      44.758  72.166  39.133  1.00  0.00    -0.344 OA
ATOM     13  H1  UNL     1      44.468  71.521  38.499  1.00  0.00     0.219 HD
ENDBRANCH   4  12
ENDBRANCH   1   3
BRANCH   1  14
HETATM   14  C6  UNL     1      45.217  75.203  40.881  1.00  0.00     0.079 C 
HETATM   15  N3  UNL     1      46.231  75.037  40.115  1.00  0.00    -0.389 N 
ATOM     16  H32 UNL     1      46.318  74.228  39.500  1.00  0.00     0.157 HD
ATOM     17  H31 UNL     1      46.988  75.720  40.100  1.00  0.00     0.157 HD
BRANCH  14  18
HETATM   18  C7  UNL     1      45.091  76.381  41.777  1.00  0.00     0.053 C 
HETATM   19  C8  UNL     1      45.871  77.509  41.185  1.00  0.00     0.012 C 
HETATM   20  C9  UNL     1      45.242  78.858  41.534  1.00  0.00     0.001 C 
HETATM   21  C10 UNL     1      43.925  78.927  40.822  1.00  0.00     0.000 C 
HETATM   22  C11 UNL     1      43.102  77.677  40.972  1.00  0.00     0.001 C 
HETATM   23  C12 UNL     1      43.656  76.756  42.034  1.00  0.00     0.012 C 
ENDBRANCH  14  18
ENDBRANCH   1  14
TORSDOF 4
ENDMDL
MODEL 5
REMARK VINA RESULT: -6.565463252      1.563      2.124
REMARK  4 active torsions:
REMARK  status: ('A' for Active; 'I' for Inactive)
REMARK    1  A    between atoms: C4_6  and  O1_7 
REMARK    2  A    between atoms: C5_9  and  N2_10 
REMARK    3  A    between atoms: N2_10  and  C6_12 
REMARK    4  A    between atoms: C6_12  and  C7_16 
ROOT
HETATM    1  N2  UNL     1      44.107  75.508  41.363  1.00  0.00    -0.341 N 
ATOM      2  H2  UNL     1      43.192  75.580  40.918  1.00  0.00     0.167 HD
ENDROOT
BRANCH   1   3
HETATM    3  C5  UNL     1      44.515  74.244  41.932  1.00  0.00     0.107 A 
HETATM    4  C4  UNL     1      45.289  73.388  41.187  1.00  0.00     0.169 A 
HETATM    5  N1  UNL     1      45.667  72.215  41.716  1.00  0.00    -0.345 N 
HETATM    6  C3  UNL     1      45.343  71.798  42.947  1.00  0.00     0.098 A 
ATOM      7  H1  UNL     1      46.240  71.597  41.142  1.00  0.00     0.167 HD
HETATM    8  C2  UNL     1      44.566  72.666  43.686  1.00  0.00    -0.022 A 
HETATM    9  C1  UNL     1      44.156  72.289  45.064  1.00  0.00     0.051 C 
HETATM   10  C13 UNL     1      44.146  73.881  43.200  1.00  0.00     0.072 A 
HETATM   11 CL1  UNL     1      43.157  74.968  44.159  1.00  0.00    -0.081 Cl
BRANCH   4  12
HETATM   12  O1  UNL     1      45.684  73.737  39.875  1.00  0.00    -0.344 OA
ATOM     13  H1  UNL     1      45.381  73.227  39.133  1.00  0.00     0.219 HD
ENDBRANCH   4  12
ENDBRANCH   1   3
BRANCH   1  14
HETATM   14  C6  UNL     1      44.946  76.653  41.408  1.00  0.00     0.079 C 
HETATM   15  N3  UNL     1      45.820  76.858  40.494  1.00  0.00    -0.389 N 
ATOM     16  H32 UNL     1      45.945  76.218  39.710  1.00  0.00     0.157 HD
ATOM     17  H31 UNL     1      46.424  77.680  40.527  1.00  0.00     0.157 HD
BRANCH  14  18
HETATM   18  C7  UNL     1      44.765  77.585  42.549  1.00  0.00     0.053 C 
HETATM   19  C8  UNL     1      45.861  78.600  42.508  1.00  0.00     0.012 C 
HETATM   20  C9  UNL     1      45.394  79.941  43.073  1.00  0.00     0.001 C 
HETATM   21  C10 UNL     1      44.371  80.486  42.123  1.00  0.00     0.000 C 
HETATM   22  C11 UNL     1      43.342  79.471  41.709  1.00  0.00     0.001 C 
HETATM   23  C12 UNL     1      43.402  78.223  42.560  1.00  0.00     0.012 C 
ENDBRANCH  14  18
ENDBRANCH   1  14
TORSDOF 4
ENDMDL
