MODEL 1
REMARK VINA RESULT: -7.588028172      0.000      0.000
REMARK  4 active torsions:
REMARK  status: ('A' for Active; 'I' for Inactive)
REMARK    1  A    between atoms: C2_2  and  N2_7 
REMARK    2  A    between atoms: N1_3  and  O1_5 
REMARK    3  A    between atoms: N2_7  and  C3_9 
REMARK    4  A    between atoms: C3_9  and  C10_16 
ROOT
HETATM    1  C3  UNL     1      44.190  76.811  42.087  1.00  0.00     0.049 C 
HETATM    2  C4  UNL     1      44.398  75.485  42.164  1.00  0.00    -0.052 C 
HETATM    3  C5  UNL     1      43.733  74.510  41.265  1.00  0.00     0.036 C 
HETATM    4  C6  UNL     1      42.927  73.506  42.030  1.00  0.00     0.004 C 
HETATM    5  C7  UNL     1      43.523  73.046  43.302  1.00  0.00     0.001 C 
HETATM    6  C8  UNL     1      44.869  73.527  43.653  1.00  0.00     0.004 C 
HETATM    7  C9  UNL     1      45.282  74.885  43.173  1.00  0.00     0.036 C 
ENDROOT
BRANCH   1   8
HETATM    8  N2  UNL     1      43.273  77.215  41.077  1.00  0.00    -0.344 N 
ATOM      9  H2  UNL     1      42.850  76.462  40.535  1.00  0.00     0.167 HD
BRANCH   8  10
HETATM   10  C2  UNL     1      42.875  78.508  40.730  1.00  0.00     0.098 C 
HETATM   11  C1  UNL     1      43.657  79.167  39.613  1.00  0.00     0.091 C 
HETATM   12  N1  UNL     1      41.918  79.192  41.241  1.00  0.00    -0.257 N 
ATOM     13  H1  UNL     1      41.354  78.802  41.996  1.00  0.00     0.195 HD
BRANCH  12  14
HETATM   14  O1  UNL     1      41.659  80.447  40.766  1.00  0.00    -0.288 OA
ATOM     15  H1  UNL     1      42.016  81.201  41.220  1.00  0.00     0.244 HD
ENDBRANCH  12  14
ENDBRANCH   8  10
ENDBRANCH   1   8
BRANCH   1  16
HETATM   16  C10 UNL     1      44.922  77.775  42.906  1.00  0.00     0.029 A 
HETATM   17  C11 UNL     1      46.102  78.341  42.398  1.00  0.00     0.017 A 
HETATM   18  C12 UNL     1      46.848  79.236  43.130  1.00  0.00     0.001 A 
HETATM   19  C13 UNL     1      46.479  79.625  44.394  1.00  0.00     0.003 A 
HETATM   20  C14 UNL     1      45.327  79.081  44.903  1.00  0.00     0.043 A 
HETATM   21  C15 UNL     1      44.556  78.167  44.172  1.00  0.00     0.128 A 
HETATM   22  F1  UNL     1      43.447  77.681  44.766  1.00  0.00    -0.205 F 
ENDBRANCH   1  16
TORSDOF 4
ENDMDL
MODEL 2
REMARK VINA RESULT: -7.587177982      2.584      4.094
REMARK  4 active torsions:
REMARK  status: ('A' for Active; 'I' for Inactive)
REMARK    1  A    between atoms: C2_2  and  N2_7 
REMARK    2  A    between atoms: N1_3  and  O1_5 
REMARK    3  A    between atoms: N2_7  and  C3_9 
REMARK    4  A    between atoms: C3_9  and  C10_16 
ROOT
HETATM    1  C3  UNL     1      44.842  76.809  42.500  1.00  0.00     0.049 C 
HETATM    2  C4  UNL     1      44.610  75.486  42.451  1.00  0.00    -0.052 C 
HETATM    3  C5  UNL     1      45.284  74.514  43.348  1.00  0.00     0.036 C 
HETATM    4  C6  UNL     1      46.051  73.485  42.578  1.00  0.00     0.004 C 
HETATM    5  C7  UNL     1      45.411  73.014  41.331  1.00  0.00     0.001 C 
HETATM    6  C8  UNL     1      44.064  73.512  41.010  1.00  0.00     0.004 C 
HETATM    7  C9  UNL     1      43.688  74.885  41.478  1.00  0.00     0.036 C 
ENDROOT
BRANCH   1   8
HETATM    8  N2  UNL     1      45.794  77.214  43.476  1.00  0.00    -0.344 N 
ATOM      9  H2  UNL     1      46.267  76.460  43.974  1.00  0.00     0.167 HD
BRANCH   8  10
HETATM   10  C2  UNL     1      46.167  78.509  43.843  1.00  0.00     0.098 C 
HETATM   11  C1  UNL     1      45.373  79.136  44.970  1.00  0.00     0.091 C 
HETATM   12  N1  UNL     1      47.111  79.219  43.343  1.00  0.00    -0.257 N 
ATOM     13  H1  UNL     1      47.682  78.852  42.582  1.00  0.00     0.195 HD
BRANCH  12  14
HETATM   14  O1  UNL     1      47.346  80.471  43.837  1.00  0.00    -0.288 OA
ATOM     15  H1  UNL     1      47.995  80.590  44.520  1.00  0.00     0.244 HD
ENDBRANCH  12  14
ENDBRANCH   8  10
ENDBRANCH   1   8
BRANCH   1  16
HETATM   16  C10 UNL     1      44.104  77.772  41.685  1.00  0.00     0.029 A 
HETATM   17  C11 UNL     1      42.911  78.316  42.189  1.00  0.00     0.017 A 
HETATM   18  C12 UNL     1      42.160  79.208  41.461  1.00  0.00     0.001 A 
HETATM   19  C13 UNL     1      42.533  79.616  40.205  1.00  0.00     0.003 A 
HETATM   20  C14 UNL     1      43.697  79.094  39.699  1.00  0.00     0.043 A 
HETATM   21  C15 UNL     1      44.474  78.183  40.426  1.00  0.00     0.128 A 
HETATM   22  F1  UNL     1      45.595  77.719  39.836  1.00  0.00    -0.205 F 
ENDBRANCH   1  16
TORSDOF 4
ENDMDL
MODEL 3
REMARK VINA RESULT: -7.546518903      2.326      3.781
REMARK  4 active torsions:
REMARK  status: ('A' for Active; 'I' for Inactive)
REMARK    1  A    between atoms: C2_2  and  N2_7 
REMARK    2  A    between atoms: N1_3  and  O1_5 
REMARK    3  A    between atoms: N2_7  and  C3_9 
REMARK    4  A    between atoms: C3_9  and  C10_16 
ROOT
HETATM    1  C3  UNL     1      44.916  76.809  42.479  1.00  0.00     0.049 C 
HETATM    2  C4  UNL     1      44.719  75.481  42.420  1.00  0.00    -0.052 C 
HETATM    3  C5  UNL     1      45.475  74.515  43.255  1.00  0.00     0.036 C 
HETATM    4  C6  UNL     1      46.221  73.521  42.420  1.00  0.00     0.004 C 
HETATM    5  C7  UNL     1      45.519  73.053  41.206  1.00  0.00     0.001 C 
HETATM    6  C8  UNL     1      44.142  73.516  40.978  1.00  0.00     0.004 C 
HETATM    7  C9  UNL     1      43.756  74.869  41.494  1.00  0.00     0.036 C 
ENDROOT
BRANCH   1   8
HETATM    8  N2  UNL     1      45.915  77.226  43.402  1.00  0.00    -0.344 N 
ATOM      9  H2  UNL     1      46.472  76.480  43.819  1.00  0.00     0.167 HD
BRANCH   8  10
HETATM   10  C2  UNL     1      46.233  78.522  43.813  1.00  0.00     0.098 C 
HETATM   11  C1  UNL     1      45.410  79.078  44.957  1.00  0.00     0.091 C 
HETATM   12  N1  UNL     1      47.149  79.286  43.341  1.00  0.00    -0.257 N 
ATOM     13  H1  UNL     1      47.737  78.968  42.571  1.00  0.00     0.195 HD
BRANCH  12  14
HETATM   14  O1  UNL     1      47.330  80.529  43.878  1.00  0.00    -0.288 OA
ATOM     15  H1  UNL     1      48.008  81.095  43.528  1.00  0.00     0.244 HD
ENDBRANCH  12  14
ENDBRANCH   8  10
ENDBRANCH   1   8
BRANCH   1  16
HETATM   16  C10 UNL     1      44.101  77.763  41.728  1.00  0.00     0.029 A 
HETATM   17  C11 UNL     1      44.515  78.145  40.442  1.00  0.00     0.017 A 
HETATM   18  C12 UNL     1      43.804  79.057  39.696  1.00  0.00     0.001 A 
HETATM   19  C13 UNL     1      42.654  79.641  40.166  1.00  0.00     0.003 A 
HETATM   20  C14 UNL     1      42.238  79.276  41.421  1.00  0.00     0.043 A 
HETATM   21  C15 UNL     1      42.950  78.351  42.195  1.00  0.00     0.128 A 
HETATM   22  F1  UNL     1      42.463  78.068  43.422  1.00  0.00    -0.205 F 
ENDBRANCH   1  16
TORSDOF 4
ENDMDL
MODEL 4
REMARK VINA RESULT: -7.539036421      1.103      1.542
REMARK  4 active torsions:
REMARK  status: ('A' for Active; 'I' for Inactive)
REMARK    1  A    between atoms: C2_2  and  N2_7 
REMARK    2  A    between atoms: N1_3  and  O1_5 
REMARK    3  A    between atoms: N2_7  and  C3_9 
REMARK    4  A    between atoms: C3_9  and  C10_16 
ROOT
HETATM    1  C3  UNL     1      44.129  76.822  42.127  1.00  0.00     0.049 C 
HETATM    2  C4  UNL     1      44.330  75.495  42.180  1.00  0.00    -0.052 C 
HETATM    3  C5  UNL     1      43.569  74.528  41.350  1.00  0.00     0.036 C 
HETATM    4  C6  UNL     1      42.834  73.530  42.190  1.00  0.00     0.004 C 
HETATM    5  C7  UNL     1      43.552  73.060  43.395  1.00  0.00     0.001 C 
HETATM    6  C8  UNL     1      44.930  73.527  43.608  1.00  0.00     0.004 C 
HETATM    7  C9  UNL     1      45.306  74.883  43.093  1.00  0.00     0.036 C 
ENDROOT
BRANCH   1   8
HETATM    8  N2  UNL     1      43.119  77.239  41.216  1.00  0.00    -0.344 N 
ATOM      9  H2  UNL     1      42.547  76.494  40.819  1.00  0.00     0.167 HD
BRANCH   8  10
HETATM   10  C2  UNL     1      42.807  78.533  40.795  1.00  0.00     0.098 C 
HETATM   11  C1  UNL     1      43.645  79.083  39.660  1.00  0.00     0.091 C 
HETATM   12  N1  UNL     1      41.887  79.301  41.252  1.00  0.00    -0.257 N 
ATOM     13  H1  UNL     1      41.289  78.987  42.016  1.00  0.00     0.195 HD
BRANCH  12  14
HETATM   14  O1  UNL     1      41.713  80.542  40.708  1.00  0.00    -0.288 OA
ATOM     15  H1  UNL     1      40.959  81.061  40.959  1.00  0.00     0.244 HD
ENDBRANCH  12  14
ENDBRANCH   8  10
ENDBRANCH   1   8
BRANCH   1  16
HETATM   16  C10 UNL     1      44.950  77.777  42.871  1.00  0.00     0.029 A 
HETATM   17  C11 UNL     1      44.541  78.166  44.157  1.00  0.00     0.017 A 
HETATM   18  C12 UNL     1      45.257  79.078  44.898  1.00  0.00     0.001 A 
HETATM   19  C13 UNL     1      46.407  79.655  44.422  1.00  0.00     0.003 A 
HETATM   20  C14 UNL     1      46.819  79.283  43.167  1.00  0.00     0.043 A 
HETATM   21  C15 UNL     1      46.102  78.357  42.399  1.00  0.00     0.128 A 
HETATM   22  F1  UNL     1      46.585  78.067  41.173  1.00  0.00    -0.205 F 
ENDBRANCH   1  16
TORSDOF 4
ENDMDL
MODEL 5
REMARK VINA RESULT: -6.710270842      2.963      5.345
REMARK  4 active torsions:
REMARK  status: ('A' for Active; 'I' for Inactive)
REMARK    1  A    between atoms: C2_2  and  N2_7 
REMARK    2  A    between atoms: N1_3  and  O1_5 
REMARK    3  A    between atoms: N2_7  and  C3_9 
REMARK    4  A    between atoms: C3_9  and  C10_16 
ROOT
HETATM    1  C3  UNL     1      44.056  74.904  42.212  1.00  0.00     0.049 C 
HETATM    2  C4  UNL     1      43.984  76.224  42.452  1.00  0.00    -0.052 C 
HETATM    3  C5  UNL     1      43.612  77.215  41.412  1.00  0.00     0.036 C 
HETATM    4  C6  UNL     1      44.687  78.237  41.207  1.00  0.00     0.004 C 
HETATM    5  C7  UNL     1      45.385  78.683  42.432  1.00  0.00     0.001 C 
HETATM    6  C8  UNL     1      44.911  78.170  43.727  1.00  0.00     0.004 C 
HETATM    7  C9  UNL     1      44.299  76.803  43.765  1.00  0.00     0.036 C 
ENDROOT
BRANCH   1   8
HETATM    8  N2  UNL     1      43.757  74.521  40.874  1.00  0.00    -0.344 N 
ATOM      9  H2  UNL     1      42.939  74.968  40.459  1.00  0.00     0.167 HD
BRANCH   8  10
HETATM   10  C2  UNL     1      44.434  73.616  40.056  1.00  0.00     0.098 C 
HETATM   11  C1  UNL     1      45.912  73.877  39.855  1.00  0.00     0.091 C 
HETATM   12  N1  UNL     1      43.949  72.584  39.467  1.00  0.00    -0.257 N 
ATOM     13  H1  UNL     1      42.961  72.354  39.565  1.00  0.00     0.195 HD
BRANCH  12  14
HETATM   14  O1  UNL     1      44.768  71.795  38.709  1.00  0.00    -0.288 OA
ATOM     15  H1  UNL     1      44.872  71.983  37.784  1.00  0.00     0.244 HD
ENDBRANCH  12  14
ENDBRANCH   8  10
ENDBRANCH   1   8
BRANCH   1  16
HETATM   16  C10 UNL     1      44.324  73.923  43.262  1.00  0.00     0.029 A 
HETATM   17  C11 UNL     1      45.553  73.244  43.259  1.00  0.00     0.017 A 
HETATM   18  C12 UNL     1      45.855  72.293  44.206  1.00  0.00     0.001 A 
HETATM   19  C13 UNL     1      44.974  71.956  45.203  1.00  0.00     0.003 A 
HETATM   20  C14 UNL     1      43.770  72.612  45.218  1.00  0.00     0.043 A 
HETATM   21  C15 UNL     1      43.445  73.582  44.262  1.00  0.00     0.128 A 
HETATM   22  F1  UNL     1      42.230  74.162  44.357  1.00  0.00    -0.205 F 
ENDBRANCH   1  16
TORSDOF 4
ENDMDL
