MODEL 1
REMARK VINA RESULT: -7.287119498      0.000      0.000
REMARK  2 active torsions:
REMARK  status: ('A' for Active; 'I' for Inactive)
REMARK    1  A    between atoms: C5_11  and  N3_12 
REMARK    2  A    between atoms: N3_12  and  N4_14 
ROOT
HETATM    1  N3  UNL     1      43.291  75.867  42.024  1.00  0.00    -0.297 N 
ATOM      2  H3  UNL     1      42.301  76.003  42.233  1.00  0.00     0.187 HD
ENDROOT
BRANCH   1   3
HETATM    3  C5  UNL     1      44.195  76.849  42.444  1.00  0.00     0.091 A 
HETATM    4  C1  UNL     1      44.007  77.481  43.649  1.00  0.00     0.128 A 
HETATM    5  N1  UNL     1      42.981  77.166  44.403  1.00  0.00    -0.384 N 
HETATM    6  N2  UNL     1      44.898  78.419  44.018  1.00  0.00    -0.332 N 
ATOM      7  H12 UNL     1      42.842  77.635  45.297  1.00  0.00     0.157 HD
ATOM      8  H11 UNL     1      42.306  76.454  44.124  1.00  0.00     0.157 HD
HETATM    9  C2  UNL     1      45.952  78.757  43.265  1.00  0.00     0.105 A 
ATOM     10  H2  UNL     1      44.765  78.893  44.910  1.00  0.00     0.168 HD
HETATM   11 CL1  UNL     1      47.066  79.993  43.827  1.00  0.00    -0.065 Cl
HETATM   12  C3  UNL     1      46.176  78.145  42.051  1.00  0.00     0.045 A 
HETATM   13  C4  UNL     1      45.272  77.176  41.648  1.00  0.00     0.038 A 
ENDBRANCH   1   3
BRANCH   1  14
HETATM   14  N4  UNL     1      43.667  74.708  41.332  1.00  0.00    -0.308 N 
HETATM   15  C6  UNL     1      43.451  73.579  41.887  1.00  0.00     0.004 C 
HETATM   16  C7  UNL     1      42.823  73.684  43.200  1.00  0.00     0.054 C 
HETATM   17  C13 UNL     1      43.905  72.465  41.027  1.00  0.00     0.054 C 
HETATM   18  C8  UNL     1      43.872  73.698  44.295  1.00  0.00     0.006 C 
HETATM   19  C9  UNL     1      44.085  72.335  44.854  1.00  0.00     0.000 C 
HETATM   20  C10 UNL     1      45.164  71.540  44.236  1.00  0.00     0.000 C 
HETATM   21  C11 UNL     1      45.523  71.891  42.837  1.00  0.00     0.000 C 
HETATM   22  C12 UNL     1      44.470  71.335  41.879  1.00  0.00     0.006 C 
ATOM     23  H4  UNL     1      44.102  74.765  40.411  1.00  0.00     0.186 HD
ENDBRANCH   1  14
TORSDOF 2
ENDMDL
MODEL 2
REMARK VINA RESULT: -7.270105039      2.356      3.478
REMARK  2 active torsions:
REMARK  status: ('A' for Active; 'I' for Inactive)
REMARK    1  A    between atoms: C5_11  and  N3_12 
REMARK    2  A    between atoms: N3_12  and  N4_14 
ROOT
HETATM    1  N3  UNL     1      45.739  75.877  42.569  1.00  0.00    -0.297 N 
ATOM      2  H3  UNL     1      46.732  75.991  42.367  1.00  0.00     0.187 HD
ENDROOT
BRANCH   1   3
HETATM    3  C5  UNL     1      44.859  76.876  42.140  1.00  0.00     0.091 A 
HETATM    4  C1  UNL     1      45.060  77.490  40.928  1.00  0.00     0.128 A 
HETATM    5  N1  UNL     1      46.075  77.141  40.175  1.00  0.00    -0.384 N 
HETATM    6  N2  UNL     1      44.192  78.446  40.552  1.00  0.00    -0.332 N 
ATOM      7  H12 UNL     1      46.224  77.597  39.276  1.00  0.00     0.157 HD
ATOM      8  H11 UNL     1      46.733  76.415  40.461  1.00  0.00     0.157 HD
HETATM    9  C2  UNL     1      43.149  78.820  41.303  1.00  0.00     0.105 A 
ATOM     10  H2  UNL     1      44.335  78.907  39.653  1.00  0.00     0.168 HD
HETATM   11 CL1  UNL     1      42.065  80.078  40.730  1.00  0.00    -0.065 Cl
HETATM   12  C3  UNL     1      42.913  78.227  42.524  1.00  0.00     0.045 A 
HETATM   13  C4  UNL     1      43.793  77.240  42.935  1.00  0.00     0.038 A 
ENDBRANCH   1   3
BRANCH   1  14
HETATM   14  N4  UNL     1      45.333  74.728  43.261  1.00  0.00    -0.308 N 
HETATM   15  C6  UNL     1      45.545  73.593  42.719  1.00  0.00     0.004 C 
HETATM   16  C7  UNL     1      46.201  73.679  41.418  1.00  0.00     0.054 C 
HETATM   17  C13 UNL     1      45.059  72.490  43.577  1.00  0.00     0.054 C 
HETATM   18  C8  UNL     1      45.174  73.700  40.302  1.00  0.00     0.006 C 
HETATM   19  C9  UNL     1      44.953  72.336  39.749  1.00  0.00     0.000 C 
HETATM   20  C10 UNL     1      43.851  71.559  40.350  1.00  0.00     0.000 C 
HETATM   21  C11 UNL     1      43.470  71.925  41.739  1.00  0.00     0.000 C 
HETATM   22  C12 UNL     1      44.495  71.363  42.722  1.00  0.00     0.006 C 
ATOM     23  H4  UNL     1      44.881  74.797  44.173  1.00  0.00     0.186 HD
ENDBRANCH   1  14
TORSDOF 2
ENDMDL
MODEL 3
REMARK VINA RESULT: -7.206104936      1.827      2.227
REMARK  2 active torsions:
REMARK  status: ('A' for Active; 'I' for Inactive)
REMARK    1  A    between atoms: C5_11  and  N3_12 
REMARK    2  A    between atoms: N3_12  and  N4_14 
ROOT
HETATM    1  N3  UNL     1      44.735  77.094  41.318  1.00  0.00    -0.297 N 
ATOM      2  H3  UNL     1      43.927  77.172  40.700  1.00  0.00     0.187 HD
ENDROOT
BRANCH   1   3
HETATM    3  C5  UNL     1      45.003  78.155  42.190  1.00  0.00     0.091 A 
HETATM    4  C1  UNL     1      44.497  79.404  41.923  1.00  0.00     0.128 A 
HETATM    5  N1  UNL     1      43.766  79.601  40.853  1.00  0.00    -0.384 N 
HETATM    6  N2  UNL     1      44.777  80.398  42.786  1.00  0.00    -0.332 N 
ATOM      7  H12 UNL     1      43.391  80.529  40.655  1.00  0.00     0.157 HD
ATOM      8  H11 UNL     1      43.553  78.848  40.199  1.00  0.00     0.157 HD
HETATM    9  C2  UNL     1      45.521  80.221  43.884  1.00  0.00     0.105 A 
ATOM     10  H2  UNL     1      44.406  81.328  42.594  1.00  0.00     0.168 HD
HETATM   11 CL1  UNL     1      45.835  81.577  44.956  1.00  0.00    -0.065 Cl
HETATM   12  C3  UNL     1      46.045  78.983  44.187  1.00  0.00     0.045 A 
HETATM   13  C4  UNL     1      45.772  77.943  43.314  1.00  0.00     0.038 A 
ENDBRANCH   1   3
BRANCH   1  14
HETATM   14  N4  UNL     1      45.513  75.931  41.247  1.00  0.00    -0.308 N 
HETATM   15  C6  UNL     1      44.941  74.811  41.461  1.00  0.00     0.004 C 
HETATM   16  C7  UNL     1      43.517  74.928  41.757  1.00  0.00     0.054 C 
HETATM   17  C13 UNL     1      45.900  73.690  41.347  1.00  0.00     0.054 C 
HETATM   18  C8  UNL     1      43.286  75.007  43.253  1.00  0.00     0.006 C 
HETATM   19  C9  UNL     1      42.973  73.667  43.821  1.00  0.00     0.000 C 
HETATM   20  C10 UNL     1      44.119  72.893  44.336  1.00  0.00     0.000 C 
HETATM   21  C11 UNL     1      45.447  73.220  43.755  1.00  0.00     0.000 C 
HETATM   22  C12 UNL     1      45.568  72.604  42.362  1.00  0.00     0.006 C 
ATOM     23  H4  UNL     1      46.509  75.979  41.030  1.00  0.00     0.186 HD
ENDBRANCH   1  14
TORSDOF 2
ENDMDL
MODEL 4
REMARK VINA RESULT: -7.202137410      2.636      3.449
REMARK  2 active torsions:
REMARK  status: ('A' for Active; 'I' for Inactive)
REMARK    1  A    between atoms: C5_11  and  N3_12 
REMARK    2  A    between atoms: N3_12  and  N4_14 
ROOT
HETATM    1  N3  UNL     1      44.465  77.483  42.833  1.00  0.00    -0.297 N 
ATOM      2  H3  UNL     1      45.453  77.427  43.081  1.00  0.00     0.187 HD
ENDROOT
BRANCH   1   3
HETATM    3  C5  UNL     1      44.046  78.549  42.030  1.00  0.00     0.091 A 
HETATM    4  C1  UNL     1      44.495  79.821  42.291  1.00  0.00     0.128 A 
HETATM    5  N1  UNL     1      45.314  80.035  43.292  1.00  0.00    -0.384 N 
HETATM    6  N2  UNL     1      44.070  80.818  41.495  1.00  0.00    -0.332 N 
ATOM      7  H12 UNL     1      45.647  80.979  43.486  1.00  0.00     0.157 HD
ATOM      8  H11 UNL     1      45.637  79.278  43.896  1.00  0.00     0.157 HD
HETATM    9  C2  UNL     1      43.234  80.624  40.467  1.00  0.00     0.105 A 
ATOM     10  H2  UNL     1      44.398  81.765  41.683  1.00  0.00     0.168 HD
HETATM   11 CL1  UNL     1      42.732  81.987  39.479  1.00  0.00    -0.065 Cl
HETATM   12  C3  UNL     1      42.763  79.364  40.172  1.00  0.00     0.045 A 
HETATM   13  C4  UNL     1      43.185  78.319  40.977  1.00  0.00     0.038 A 
ENDBRANCH   1   3
BRANCH   1  14
HETATM   14  N4  UNL     1      43.604  76.489  43.317  1.00  0.00    -0.308 N 
HETATM   15  C6  UNL     1      44.048  75.296  43.400  1.00  0.00     0.004 C 
HETATM   16  C7  UNL     1      45.433  75.157  42.961  1.00  0.00     0.054 C 
HETATM   17  C13 UNL     1      43.017  74.376  43.927  1.00  0.00     0.054 C 
HETATM   18  C8  UNL     1      45.493  74.773  41.495  1.00  0.00     0.006 C 
HETATM   19  C9  UNL     1      45.622  73.299  41.330  1.00  0.00     0.000 C 
HETATM   20  C10 UNL     1      44.361  72.548  41.171  1.00  0.00     0.000 C 
HETATM   21  C11 UNL     1      43.143  73.181  41.741  1.00  0.00     0.000 C 
HETATM   22  C12 UNL     1      43.134  73.011  43.259  1.00  0.00     0.006 C 
ATOM     23  H4  UNL     1      42.648  76.713  43.595  1.00  0.00     0.186 HD
ENDBRANCH   1  14
TORSDOF 2
ENDMDL
MODEL 5
REMARK VINA RESULT: -7.114593149      1.769      1.905
REMARK  2 active torsions:
REMARK  status: ('A' for Active; 'I' for Inactive)
REMARK    1  A    between atoms: C5_11  and  N3_12 
REMARK    2  A    between atoms: N3_12  and  N4_14 
ROOT
HETATM    1  N3  UNL     1      43.682  76.161  42.568  1.00  0.00    -0.297 N 
ATOM      2  H3  UNL     1      43.568  75.992  43.568  1.00  0.00     0.187 HD
ENDROOT
BRANCH   1   3
HETATM    3  C5  UNL     1      43.710  77.487  42.123  1.00  0.00     0.091 A 
HETATM    4  C1  UNL     1      44.315  78.453  42.888  1.00  0.00     0.128 A 
HETATM    5  N1  UNL     1      44.865  78.134  44.035  1.00  0.00    -0.384 N 
HETATM    6  N2  UNL     1      44.321  79.716  42.425  1.00  0.00    -0.332 N 
ATOM      7  H12 UNL     1      45.314  78.851  44.603  1.00  0.00     0.157 HD
ATOM      8  H11 UNL     1      44.861  77.176  44.386  1.00  0.00     0.157 HD
HETATM    9  C2  UNL     1      43.766  80.066  41.258  1.00  0.00     0.105 A 
ATOM     10  H2  UNL     1      44.768  80.439  42.988  1.00  0.00     0.168 HD
HETATM   11 CL1  UNL     1      43.821  81.741  40.731  1.00  0.00    -0.065 Cl
HETATM   12  C3  UNL     1      43.150  79.126  40.461  1.00  0.00     0.045 A 
HETATM   13  C4  UNL     1      43.131  77.818  40.916  1.00  0.00     0.038 A 
ENDBRANCH   1   3
BRANCH   1  14
HETATM   14  N4  UNL     1      43.803  75.053  41.720  1.00  0.00    -0.308 N 
HETATM   15  C6  UNL     1      43.464  73.908  42.172  1.00  0.00     0.004 C 
HETATM   16  C7  UNL     1      42.988  73.943  43.551  1.00  0.00     0.054 C 
HETATM   17  C13 UNL     1      43.652  72.853  41.153  1.00  0.00     0.054 C 
HETATM   18  C8  UNL     1      44.125  73.669  44.516  1.00  0.00     0.006 C 
HETATM   19  C9  UNL     1      44.172  72.231  44.899  1.00  0.00     0.000 C 
HETATM   20  C10 UNL     1      45.048  71.368  44.083  1.00  0.00     0.000 C 
HETATM   21  C11 UNL     1      45.323  71.831  42.698  1.00  0.00     0.000 C 
HETATM   22  C12 UNL     1      44.110  71.557  41.811  1.00  0.00     0.006 C 
ATOM     23  H4  UNL     1      44.152  75.157  40.767  1.00  0.00     0.186 HD
ENDBRANCH   1  14
TORSDOF 2
ENDMDL
