MODEL 1
REMARK VINA RESULT: -7.178346396      0.000      0.000
REMARK  4 active torsions:
REMARK  status: ('A' for Active; 'I' for Inactive)
REMARK    1  A    between atoms: C8_8  and  N1_9 
REMARK    2  A    between atoms: C11_13  and  C12_14 
REMARK    3  A    between atoms: C12_14  and  N2_15 
REMARK    4  A    between atoms: C12_14  and  O1_19 
ROOT
HETATM    1  N1  UNL     1      44.727  74.646  42.519  1.00  0.00    -0.359 N 
HETATM    2  C9  UNL     1      44.705  73.719  41.543  1.00  0.00     0.115 A 
HETATM    3  C10 UNL     1      44.592  72.476  42.131  1.00  0.00     0.061 A 
HETATM    4 CL1  UNL     1      44.520  70.943  41.315  1.00  0.00    -0.082 Cl
HETATM    5  C11 UNL     1      44.543  72.658  43.491  1.00  0.00     0.036 A 
HETATM    6  C13 UNL     1      44.629  74.014  43.702  1.00  0.00     0.104 A 
ENDROOT
BRANCH   1   7
HETATM    7  C8  UNL     1      44.839  76.070  42.254  1.00  0.00     0.089 C 
HETATM    8  C7  UNL     1      44.936  76.783  43.560  1.00  0.00     0.026 C 
HETATM    9  C6  UNL     1      45.778  78.014  43.376  1.00  0.00     0.002 C 
HETATM   10  C5  UNL     1      45.063  79.160  42.756  1.00  0.00     0.001 C 
HETATM   11  C4  UNL     1      43.681  78.845  42.268  1.00  0.00     0.009 C 
HETATM   12  C2  UNL     1      43.650  77.936  41.077  1.00  0.00    -0.046 C 
HETATM   13  C1  UNL     1      42.323  78.208  40.354  1.00  0.00     0.015 C 
HETATM   14  C3  UNL     1      44.728  78.264  40.061  1.00  0.00     0.015 C 
HETATM   15  C14 UNL     1      43.639  76.474  41.436  1.00  0.00     0.034 C 
ENDBRANCH   1   7
BRANCH   5  16
HETATM   16  C12 UNL     1      44.423  71.642  44.552  1.00  0.00     0.353 C 
BRANCH  16  17
HETATM   17  N2  UNL     1      45.585  70.785  44.632  1.00  0.00    -0.049 N 
ATOM     18  H23 UNL     1      45.313  69.803  44.686  1.00  0.00     0.277 HD
ATOM     19  H22 UNL     1      46.089  70.767  43.745  1.00  0.00     0.277 HD
ATOM     20  H21 UNL     1      46.206  71.037  45.401  1.00  0.00     0.277 HD
ENDBRANCH  16  17
BRANCH  16  21
HETATM   21  O1  UNL     1      44.253  72.224  45.800  1.00  0.00    -0.366 OA
ATOM     22  H1  UNL     1      45.084  72.350  46.243  1.00  0.00     0.212 HD
ENDBRANCH  16  21
ENDBRANCH   5  16
TORSDOF 4
ENDMDL
MODEL 2
REMARK VINA RESULT: -7.178176993      2.260      3.411
REMARK  4 active torsions:
REMARK  status: ('A' for Active; 'I' for Inactive)
REMARK    1  A    between atoms: C8_8  and  N1_9 
REMARK    2  A    between atoms: C11_13  and  C12_14 
REMARK    3  A    between atoms: C12_14  and  N2_15 
REMARK    4  A    between atoms: C12_14  and  O1_19 
ROOT
HETATM    1  N1  UNL     1      44.316  74.653  42.066  1.00  0.00    -0.359 N 
HETATM    2  C9  UNL     1      44.381  73.730  43.044  1.00  0.00     0.115 A 
HETATM    3  C10 UNL     1      44.490  72.486  42.457  1.00  0.00     0.061 A 
HETATM    4 CL1  UNL     1      44.606  70.957  43.275  1.00  0.00    -0.082 Cl
HETATM    5  C11 UNL     1      44.491  72.663  41.094  1.00  0.00     0.036 A 
HETATM    6  C13 UNL     1      44.382  74.017  40.883  1.00  0.00     0.104 A 
ENDROOT
BRANCH   1   7
HETATM    7  C8  UNL     1      44.196  76.076  42.330  1.00  0.00     0.089 C 
HETATM    8  C7  UNL     1      44.092  76.787  41.023  1.00  0.00     0.026 C 
HETATM    9  C6  UNL     1      43.244  78.014  41.207  1.00  0.00     0.002 C 
HETATM   10  C5  UNL     1      43.952  79.164  41.825  1.00  0.00     0.001 C 
HETATM   11  C4  UNL     1      45.337  78.858  42.312  1.00  0.00     0.009 C 
HETATM   12  C2  UNL     1      45.375  77.950  43.504  1.00  0.00    -0.046 C 
HETATM   13  C1  UNL     1      46.701  78.231  44.225  1.00  0.00     0.015 C 
HETATM   14  C3  UNL     1      44.296  78.272  44.521  1.00  0.00     0.015 C 
HETATM   15  C14 UNL     1      45.394  76.488  43.146  1.00  0.00     0.034 C 
ENDBRANCH   1   7
BRANCH   5  16
HETATM   16  C12 UNL     1      44.587  71.645  40.034  1.00  0.00     0.353 C 
BRANCH  16  17
HETATM   17  N2  UNL     1      43.415  70.800  39.969  1.00  0.00    -0.049 N 
ATOM     18  H23 UNL     1      43.670  69.833  39.768  1.00  0.00     0.277 HD
ATOM     19  H22 UNL     1      43.002  70.673  40.893  1.00  0.00     0.277 HD
ATOM     20  H21 UNL     1      42.722  71.143  39.302  1.00  0.00     0.277 HD
ENDBRANCH  16  17
BRANCH  16  21
HETATM   21  O1  UNL     1      44.750  72.223  38.784  1.00  0.00    -0.366 OA
ATOM     22  H1  UNL     1      44.414  71.664  38.093  1.00  0.00     0.212 HD
ENDBRANCH  16  21
ENDBRANCH   5  16
TORSDOF 4
ENDMDL
MODEL 3
REMARK VINA RESULT: -7.003372574      0.749      2.305
REMARK  4 active torsions:
REMARK  status: ('A' for Active; 'I' for Inactive)
REMARK    1  A    between atoms: C8_8  and  N1_9 
REMARK    2  A    between atoms: C11_13  and  C12_14 
REMARK    3  A    between atoms: C12_14  and  N2_15 
REMARK    4  A    between atoms: C12_14  and  O1_19 
ROOT
HETATM    1  N1  UNL     1      44.249  74.764  42.894  1.00  0.00    -0.359 N 
HETATM    2  C9  UNL     1      44.202  73.970  41.807  1.00  0.00     0.115 A 
HETATM    3  C10 UNL     1      44.229  72.657  42.230  1.00  0.00     0.061 A 
HETATM    4 CL1  UNL     1      44.189  71.240  41.224  1.00  0.00    -0.082 Cl
HETATM    5  C11 UNL     1      44.293  72.659  43.602  1.00  0.00     0.036 A 
HETATM    6  C13 UNL     1      44.304  73.979  43.985  1.00  0.00     0.104 A 
ENDROOT
BRANCH   1   7
HETATM    7  C8  UNL     1      44.237  76.214  42.814  1.00  0.00     0.089 C 
HETATM    8  C7  UNL     1      44.117  76.603  41.380  1.00  0.00     0.026 C 
HETATM    9  C6  UNL     1      43.363  77.900  41.293  1.00  0.00     0.002 C 
HETATM   10  C5  UNL     1      44.176  79.106  41.596  1.00  0.00     0.001 C 
HETATM   11  C4  UNL     1      45.560  78.817  42.098  1.00  0.00     0.009 C 
HETATM   12  C2  UNL     1      45.596  78.215  43.470  1.00  0.00    -0.046 C 
HETATM   13  C1  UNL     1      46.971  78.555  44.061  1.00  0.00     0.015 C 
HETATM   14  C3  UNL     1      44.592  78.850  44.414  1.00  0.00     0.015 C 
HETATM   15  C14 UNL     1      45.499  76.713  43.470  1.00  0.00     0.034 C 
ENDBRANCH   1   7
BRANCH   5  16
HETATM   16  C12 UNL     1      44.343  71.510  44.522  1.00  0.00     0.353 C 
BRANCH  16  17
HETATM   17  N2  UNL     1      45.552  70.730  44.372  1.00  0.00    -0.049 N 
ATOM     18  H23 UNL     1      45.890  70.760  43.410  1.00  0.00     0.277 HD
ATOM     19  H22 UNL     1      46.339  71.182  44.837  1.00  0.00     0.277 HD
ATOM     20  H21 UNL     1      45.439  69.768  44.692  1.00  0.00     0.277 HD
ENDBRANCH  16  17
BRANCH  16  21
HETATM   21  O1  UNL     1      44.274  71.914  45.848  1.00  0.00    -0.366 OA
ATOM     22  H1  UNL     1      43.765  71.307  46.372  1.00  0.00     0.212 HD
ENDBRANCH  16  21
ENDBRANCH   5  16
TORSDOF 4
ENDMDL
MODEL 4
REMARK VINA RESULT: -7.002320153      2.168      2.447
REMARK  4 active torsions:
REMARK  status: ('A' for Active; 'I' for Inactive)
REMARK    1  A    between atoms: C8_8  and  N1_9 
REMARK    2  A    between atoms: C11_13  and  C12_14 
REMARK    3  A    between atoms: C12_14  and  N2_15 
REMARK    4  A    between atoms: C12_14  and  O1_19 
ROOT
HETATM    1  N1  UNL     1      45.028  75.103  41.766  1.00  0.00    -0.359 N 
HETATM    2  C9  UNL     1      45.186  74.460  42.938  1.00  0.00     0.115 A 
HETATM    3  C10 UNL     1      45.207  73.104  42.687  1.00  0.00     0.061 A 
HETATM    4 CL1  UNL     1      45.387  71.832  43.859  1.00  0.00    -0.082 Cl
HETATM    5  C11 UNL     1      45.058  72.925  41.333  1.00  0.00     0.036 A 
HETATM    6  C13 UNL     1      44.950  74.183  40.789  1.00  0.00     0.104 A 
ENDROOT
BRANCH   1   7
HETATM    7  C8  UNL     1      44.964  76.551  41.661  1.00  0.00     0.089 C 
HETATM    8  C7  UNL     1      45.324  77.132  42.986  1.00  0.00     0.026 C 
HETATM    9  C6  UNL     1      45.998  78.457  42.763  1.00  0.00     0.002 C 
HETATM   10  C5  UNL     1      45.069  79.580  42.476  1.00  0.00     0.001 C 
HETATM   11  C4  UNL     1      43.637  79.174  42.291  1.00  0.00     0.009 C 
HETATM   12  C2  UNL     1      43.384  78.393  41.037  1.00  0.00    -0.046 C 
HETATM   13  C1  UNL     1      41.903  78.599  40.686  1.00  0.00     0.015 C 
HETATM   14  C3  UNL     1      44.152  78.933  39.845  1.00  0.00     0.015 C 
HETATM   15  C14 UNL     1      43.573  76.909  41.205  1.00  0.00     0.034 C 
ENDBRANCH   1   7
BRANCH   5  16
HETATM   16  C12 UNL     1      45.017  71.665  40.570  1.00  0.00     0.353 C 
BRANCH  16  17
HETATM   17  N2  UNL     1      43.853  70.866  40.882  1.00  0.00    -0.049 N 
ATOM     18  H23 UNL     1      42.999  71.321  40.560  1.00  0.00     0.277 HD
ATOM     19  H22 UNL     1      43.820  70.026  40.304  1.00  0.00     0.277 HD
ATOM     20  H21 UNL     1      43.794  70.632  41.873  1.00  0.00     0.277 HD
ENDBRANCH  16  17
BRANCH  16  21
HETATM   21  O1  UNL     1      45.005  71.897  39.202  1.00  0.00    -0.366 OA
ATOM     22  H1  UNL     1      44.210  72.340  38.930  1.00  0.00     0.212 HD
ENDBRANCH  16  21
ENDBRANCH   5  16
TORSDOF 4
ENDMDL
MODEL 5
REMARK VINA RESULT: -6.897479630      2.352      2.836
REMARK  4 active torsions:
REMARK  status: ('A' for Active; 'I' for Inactive)
REMARK    1  A    between atoms: C8_8  and  N1_9 
REMARK    2  A    between atoms: C11_13  and  C12_14 
REMARK    3  A    between atoms: C12_14  and  N2_15 
REMARK    4  A    between atoms: C12_14  and  O1_19 
ROOT
HETATM    1  N1  UNL     1      44.566  74.288  42.167  1.00  0.00    -0.359 N 
HETATM    2  C9  UNL     1      44.646  73.299  43.076  1.00  0.00     0.115 A 
HETATM    3  C10 UNL     1      44.654  72.094  42.404  1.00  0.00     0.061 A 
HETATM    4 CL1  UNL     1      44.744  70.509  43.113  1.00  0.00    -0.082 Cl
HETATM    5  C11 UNL     1      44.578  72.363  41.059  1.00  0.00     0.036 A 
HETATM    6  C13 UNL     1      44.525  73.732  40.943  1.00  0.00     0.104 A 
ENDROOT
BRANCH   1   7
HETATM    7  C8  UNL     1      44.535  75.694  42.529  1.00  0.00     0.089 C 
HETATM    8  C7  UNL     1      43.363  75.922  43.423  1.00  0.00     0.026 C 
HETATM    9  C6  UNL     1      43.695  77.031  44.381  1.00  0.00     0.002 C 
HETATM   10  C5  UNL     1      43.575  78.396  43.807  1.00  0.00     0.001 C 
HETATM   11  C4  UNL     1      43.308  78.432  42.331  1.00  0.00     0.009 C 
HETATM   12  C2  UNL     1      44.463  77.975  41.493  1.00  0.00    -0.046 C 
HETATM   13  C1  UNL     1      44.291  78.632  40.116  1.00  0.00     0.015 C 
HETATM   14  C3  UNL     1      45.798  78.481  42.008  1.00  0.00     0.015 C 
HETATM   15  C14 UNL     1      44.479  76.490  41.250  1.00  0.00     0.034 C 
ENDBRANCH   1   7
BRANCH   5  16
HETATM   16  C12 UNL     1      44.556  71.415  39.932  1.00  0.00     0.353 C 
BRANCH  16  17
HETATM   17  N2  UNL     1      43.315  70.677  39.852  1.00  0.00    -0.049 N 
ATOM     18  H23 UNL     1      42.756  70.983  39.056  1.00  0.00     0.277 HD
ATOM     19  H22 UNL     1      43.480  69.710  39.574  1.00  0.00     0.277 HD
ATOM     20  H21 UNL     1      42.777  70.722  40.718  1.00  0.00     0.277 HD
ENDBRANCH  16  17
BRANCH  16  21
HETATM   21  O1  UNL     1      44.729  72.063  38.717  1.00  0.00    -0.366 OA
ATOM     22  H1  UNL     1      45.255  72.848  38.812  1.00  0.00     0.212 HD
ENDBRANCH  16  21
ENDBRANCH   5  16
TORSDOF 4
ENDMDL
