MODEL 1
REMARK VINA RESULT: -6.990061681      0.000      0.000
REMARK  4 active torsions:
REMARK  status: ('A' for Active; 'I' for Inactive)
REMARK    1  A    between atoms: C1_4  and  N2_5 
REMARK    2  A    between atoms: C1_4  and  S1_15 
REMARK    3  A    between atoms: N2_5  and  C2_7 
REMARK    4  A    between atoms: S1_15  and  C8_16 
ROOT
HETATM    1  N1  UNL     1      43.437  75.732  43.505  1.00  0.00    -0.380 N 
ATOM      2  H11 UNL     1      42.752  76.477  43.376  1.00  0.00     0.158 HD
ATOM      3  H12 UNL     1      43.143  74.921  44.049  1.00  0.00     0.158 HD
HETATM    4  C1  UNL     1      44.594  75.858  42.987  1.00  0.00     0.138 C 
ENDROOT
BRANCH   4   5
HETATM    5  N2  UNL     1      45.544  74.823  43.166  1.00  0.00    -0.337 N 
ATOM      6  H2  UNL     1      46.487  75.075  43.460  1.00  0.00     0.168 HD
BRANCH   5   7
HETATM    7  C2  UNL     1      45.244  73.453  42.956  1.00  0.00     0.037 A 
HETATM    8  C3  UNL     1      45.039  72.573  43.995  1.00  0.00     0.031 A 
HETATM    9  C4  UNL     1      44.750  71.245  43.782  1.00  0.00     0.032 A 
HETATM   10  C5  UNL     1      44.652  70.742  42.513  1.00  0.00     0.085 A 
HETATM   11  N3  UNL     1      44.350  69.356  42.279  1.00  0.00    -0.099 NA
HETATM   12  C6  UNL     1      44.854  71.610  41.457  1.00  0.00     0.142 A 
HETATM   13  F1  UNL     1      44.759  71.119  40.197  1.00  0.00    -0.204 F 
HETATM   14  C7  UNL     1      45.145  72.940  41.668  1.00  0.00     0.073 A 
ENDBRANCH   5   7
ENDBRANCH   4   5
BRANCH   4  15
HETATM   15  S1  UNL     1      45.107  77.274  42.036  1.00  0.00    -0.089 SA
BRANCH  15  16
HETATM   16  C8  UNL     1      43.790  78.487  41.864  1.00  0.00     0.055 C 
HETATM   17  C9  UNL     1      44.240  79.891  41.972  1.00  0.00     0.015 C 
HETATM   18  C10 UNL     1      43.712  80.830  40.942  1.00  0.00     0.001 C 
HETATM   19  C11 UNL     1      42.361  80.567  40.427  1.00  0.00     0.000 C 
HETATM   20  C12 UNL     1      41.809  79.200  40.703  1.00  0.00     0.001 C 
HETATM   21  C13 UNL     1      42.983  78.222  40.586  1.00  0.00     0.015 C 
ENDBRANCH  15  16
ENDBRANCH   4  15
TORSDOF 4
ENDMDL
MODEL 2
REMARK VINA RESULT: -6.970634013      2.219      3.227
REMARK  4 active torsions:
REMARK  status: ('A' for Active; 'I' for Inactive)
REMARK    1  A    between atoms: C1_4  and  N2_5 
REMARK    2  A    between atoms: C1_4  and  S1_15 
REMARK    3  A    between atoms: N2_5  and  C2_7 
REMARK    4  A    between atoms: S1_15  and  C8_16 
ROOT
HETATM    1  N1  UNL     1      45.521  75.995  40.973  1.00  0.00    -0.380 N 
ATOM      2  H11 UNL     1      46.208  76.741  41.089  1.00  0.00     0.158 HD
ATOM      3  H12 UNL     1      45.751  75.252  40.313  1.00  0.00     0.158 HD
HETATM    4  C1  UNL     1      44.442  76.038  41.648  1.00  0.00     0.138 C 
ENDROOT
BRANCH   4   5
HETATM    5  N2  UNL     1      43.489  75.002  41.486  1.00  0.00    -0.337 N 
ATOM      6  H2  UNL     1      42.538  75.254  41.217  1.00  0.00     0.168 HD
BRANCH   5   7
HETATM    7  C2  UNL     1      43.796  73.631  41.681  1.00  0.00     0.037 A 
HETATM    8  C3  UNL     1      44.089  72.783  40.636  1.00  0.00     0.031 A 
HETATM    9  C4  UNL     1      44.385  71.455  40.834  1.00  0.00     0.032 A 
HETATM   10  C5  UNL     1      44.401  70.918  42.093  1.00  0.00     0.085 A 
HETATM   11  N3  UNL     1      44.709  69.531  42.312  1.00  0.00    -0.099 NA
HETATM   12  C6  UNL     1      44.110  71.754  43.155  1.00  0.00     0.142 A 
HETATM   13  F1  UNL     1      44.124  71.230  44.405  1.00  0.00    -0.204 F 
HETATM   14  C7  UNL     1      43.813  73.085  42.959  1.00  0.00     0.073 A 
ENDBRANCH   5   7
ENDBRANCH   4   5
BRANCH   4  15
HETATM   15  S1  UNL     1      44.042  77.336  42.800  1.00  0.00    -0.089 SA
BRANCH  15  16
HETATM   16  C8  UNL     1      45.338  78.578  42.898  1.00  0.00     0.055 C 
HETATM   17  C9  UNL     1      44.847  79.972  42.874  1.00  0.00     0.015 C 
HETATM   18  C10 UNL     1      45.440  80.893  43.885  1.00  0.00     0.001 C 
HETATM   19  C11 UNL     1      46.835  80.650  44.275  1.00  0.00     0.000 C 
HETATM   20  C12 UNL     1      47.395  79.308  43.908  1.00  0.00     0.001 C 
HETATM   21  C13 UNL     1      46.259  78.296  44.093  1.00  0.00     0.015 C 
ENDBRANCH  15  16
ENDBRANCH   4  15
TORSDOF 4
ENDMDL
MODEL 3
REMARK VINA RESULT: -6.902350746      1.551      2.020
REMARK  4 active torsions:
REMARK  status: ('A' for Active; 'I' for Inactive)
REMARK    1  A    between atoms: C1_4  and  N2_5 
REMARK    2  A    between atoms: C1_4  and  S1_15 
REMARK    3  A    between atoms: N2_5  and  C2_7 
REMARK    4  A    between atoms: S1_15  and  C8_16 
ROOT
HETATM    1  N1  UNL     1      45.522  75.853  40.905  1.00  0.00    -0.380 N 
ATOM      2  H11 UNL     1      46.196  76.604  41.058  1.00  0.00     0.158 HD
ATOM      3  H12 UNL     1      45.749  75.165  40.187  1.00  0.00     0.158 HD
HETATM    4  C1  UNL     1      44.460  75.823  41.608  1.00  0.00     0.138 C 
ENDROOT
BRANCH   4   5
HETATM    5  N2  UNL     1      43.525  74.781  41.396  1.00  0.00    -0.337 N 
ATOM      6  H2  UNL     1      42.590  75.025  41.070  1.00  0.00     0.168 HD
BRANCH   5   7
HETATM    7  C2  UNL     1      43.829  73.413  41.615  1.00  0.00     0.037 A 
HETATM    8  C3  UNL     1      44.101  72.540  40.583  1.00  0.00     0.031 A 
HETATM    9  C4  UNL     1      44.393  71.215  40.805  1.00  0.00     0.032 A 
HETATM   10  C5  UNL     1      44.427  70.705  42.075  1.00  0.00     0.085 A 
HETATM   11  N3  UNL     1      44.731  69.322  42.318  1.00  0.00    -0.099 NA
HETATM   12  C6  UNL     1      44.157  71.565  43.123  1.00  0.00     0.142 A 
HETATM   13  F1  UNL     1      44.188  71.068  44.383  1.00  0.00    -0.204 F 
HETATM   14  C7  UNL     1      43.863  72.893  42.904  1.00  0.00     0.073 A 
ENDBRANCH   5   7
ENDBRANCH   4   5
BRANCH   4  15
HETATM   15  S1  UNL     1      44.064  77.025  42.861  1.00  0.00    -0.089 SA
BRANCH  15  16
HETATM   16  C8  UNL     1      43.209  78.454  42.183  1.00  0.00     0.055 C 
HETATM   17  C9  UNL     1      43.941  79.729  42.335  1.00  0.00     0.015 C 
HETATM   18  C10 UNL     1      44.001  80.598  41.126  1.00  0.00     0.001 C 
HETATM   19  C11 UNL     1      42.849  80.559  40.215  1.00  0.00     0.000 C 
HETATM   20  C12 UNL     1      41.916  79.398  40.389  1.00  0.00     0.001 C 
HETATM   21  C13 UNL     1      42.786  78.184  40.732  1.00  0.00     0.015 C 
ENDBRANCH  15  16
ENDBRANCH   4  15
TORSDOF 4
ENDMDL
MODEL 4
REMARK VINA RESULT: -6.891660140      2.938      7.232
REMARK  4 active torsions:
REMARK  status: ('A' for Active; 'I' for Inactive)
REMARK    1  A    between atoms: C1_4  and  N2_5 
REMARK    2  A    between atoms: C1_4  and  S1_15 
REMARK    3  A    between atoms: N2_5  and  C2_7 
REMARK    4  A    between atoms: S1_15  and  C8_16 
ROOT
HETATM    1  N1  UNL     1      46.245  74.275  40.418  1.00  0.00    -0.380 N 
ATOM      2  H11 UNL     1      46.090  73.358  39.998  1.00  0.00     0.158 HD
ATOM      3  H12 UNL     1      47.158  74.706  40.270  1.00  0.00     0.158 HD
HETATM    4  C1  UNL     1      45.305  74.816  41.086  1.00  0.00     0.138 C 
ENDROOT
BRANCH   4   5
HETATM    5  N2  UNL     1      45.520  76.090  41.668  1.00  0.00    -0.337 N 
ATOM      6  H2  UNL     1      46.342  76.222  42.256  1.00  0.00     0.168 HD
BRANCH   5   7
HETATM    7  C2  UNL     1      44.644  77.188  41.472  1.00  0.00     0.037 A 
HETATM    8  C3  UNL     1      43.749  77.602  42.433  1.00  0.00     0.031 A 
HETATM    9  C4  UNL     1      42.903  78.667  42.234  1.00  0.00     0.032 A 
HETATM   10  C5  UNL     1      42.919  79.368  41.057  1.00  0.00     0.085 A 
HETATM   11  N3  UNL     1      42.039  80.483  40.838  1.00  0.00    -0.099 NA
HETATM   12  C6  UNL     1      43.810  78.967  40.080  1.00  0.00     0.142 A 
HETATM   13  F1  UNL     1      43.832  79.654  38.913  1.00  0.00    -0.204 F 
HETATM   14  C7  UNL     1      44.658  77.899  40.277  1.00  0.00     0.073 A 
ENDBRANCH   5   7
ENDBRANCH   4   5
BRANCH   4  15
HETATM   15  S1  UNL     1      43.710  74.066  41.343  1.00  0.00    -0.089 SA
BRANCH  15  16
HETATM   16  C8  UNL     1      43.700  72.972  42.770  1.00  0.00     0.055 C 
HETATM   17  C9  UNL     1      44.000  71.559  42.454  1.00  0.00     0.015 C 
HETATM   18  C10 UNL     1      44.978  70.881  43.352  1.00  0.00     0.001 C 
HETATM   19  C11 UNL     1      45.000  71.303  44.759  1.00  0.00     0.000 C 
HETATM   20  C12 UNL     1      44.316  72.601  45.065  1.00  0.00     0.001 C 
HETATM   21  C13 UNL     1      44.598  73.533  43.881  1.00  0.00     0.015 C 
ENDBRANCH  15  16
ENDBRANCH   4  15
TORSDOF 4
ENDMDL
MODEL 5
REMARK VINA RESULT: -6.884254548      3.744      7.781
REMARK  4 active torsions:
REMARK  status: ('A' for Active; 'I' for Inactive)
REMARK    1  A    between atoms: C1_4  and  N2_5 
REMARK    2  A    between atoms: C1_4  and  S1_15 
REMARK    3  A    between atoms: N2_5  and  C2_7 
REMARK    4  A    between atoms: S1_15  and  C8_16 
ROOT
HETATM    1  N1  UNL     1      45.741  77.437  40.524  1.00  0.00    -0.380 N 
ATOM      2  H11 UNL     1      46.049  76.482  40.338  1.00  0.00     0.158 HD
ATOM      3  H12 UNL     1      45.918  78.131  39.798  1.00  0.00     0.158 HD
HETATM    4  C1  UNL     1      45.164  77.697  41.629  1.00  0.00     0.138 C 
ENDROOT
BRANCH   4   5
HETATM    5  N2  UNL     1      44.737  79.022  41.886  1.00  0.00    -0.337 N 
ATOM      6  H2  UNL     1      45.293  79.599  42.517  1.00  0.00     0.168 HD
BRANCH   5   7
HETATM    7  C2  UNL     1      43.571  79.585  41.307  1.00  0.00     0.037 A 
HETATM    8  C3  UNL     1      42.327  79.007  41.436  1.00  0.00     0.031 A 
HETATM    9  C4  UNL     1      41.202  79.559  40.870  1.00  0.00     0.032 A 
HETATM   10  C5  UNL     1      41.275  80.720  40.149  1.00  0.00     0.085 A 
HETATM   11  N3  UNL     1      40.106  81.306  39.553  1.00  0.00    -0.099 NA
HETATM   12  C6  UNL     1      42.515  81.315  40.008  1.00  0.00     0.142 A 
HETATM   13  F1  UNL     1      42.596  82.465  39.294  1.00  0.00    -0.204 F 
HETATM   14  C7  UNL     1      43.644  80.764  40.573  1.00  0.00     0.073 A 
ENDBRANCH   5   7
ENDBRANCH   4   5
BRANCH   4  15
HETATM   15  S1  UNL     1      44.855  76.485  42.897  1.00  0.00    -0.089 SA
BRANCH  15  16
HETATM   16  C8  UNL     1      44.572  74.846  42.212  1.00  0.00     0.055 C 
HETATM   17  C9  UNL     1      45.754  73.959  42.253  1.00  0.00     0.015 C 
HETATM   18  C10 UNL     1      45.513  72.570  42.738  1.00  0.00     0.001 C 
HETATM   19  C11 UNL     1      44.203  71.975  42.443  1.00  0.00     0.000 C 
HETATM   20  C12 UNL     1      43.128  72.933  42.024  1.00  0.00     0.001 C 
HETATM   21  C13 UNL     1      43.331  74.208  42.850  1.00  0.00     0.015 C 
ENDBRANCH  15  16
ENDBRANCH   4  15
TORSDOF 4
ENDMDL
