MODEL 1
REMARK VINA RESULT: -6.446251015      0.000      0.000
REMARK  3 active torsions:
REMARK  status: ('A' for Active; 'I' for Inactive)
REMARK    1  A    between atoms: C6_8  and  C7_9 
REMARK    2  A    between atoms: C12_14  and  N2_15 
REMARK    3  A    between atoms: N2_15  and  C13_17 
ROOT
HETATM    1  C7  UNL     1     -21.772  -1.184 -25.135  1.00  0.00     0.043 C 
HETATM    2  C8  UNL     1     -23.222  -1.132 -24.560  1.00  0.00     0.011 C 
HETATM    3  C9  UNL     1     -23.269  -1.642 -23.130  1.00  0.00     0.001 C 
HETATM    4  C10 UNL     1     -22.210  -2.660 -22.852  1.00  0.00     0.002 C 
HETATM    5  C11 UNL     1     -20.845  -2.054 -23.142  1.00  0.00     0.025 C 
HETATM    6  C12 UNL     1     -21.018  -0.739 -23.903  1.00  0.00     0.085 C 
ENDROOT
BRANCH   1   7
HETATM    7  C6  UNL     1     -21.700  -0.385 -26.318  1.00  0.00    -0.028 A 
HETATM    8  C1  UNL     1     -20.830  -0.876 -27.329  1.00  0.00     0.056 A 
HETATM    9  N1  UNL     1     -20.309  -2.206 -27.238  1.00  0.00    -0.102 NA
HETATM   10  C2  UNL     1     -20.546  -0.132 -28.422  1.00  0.00     0.069 A 
HETATM   11  C3  UNL     1     -21.094   1.149 -28.609  1.00  0.00     0.118 A 
HETATM   12  F1  UNL     1     -20.747   1.859 -29.733  1.00  0.00    -0.206 F 
HETATM   13  C4  UNL     1     -21.940   1.642 -27.646  1.00  0.00     0.043 A 
HETATM   14  C5  UNL     1     -22.227   0.866 -26.519  1.00  0.00     0.012 A 
ENDBRANCH   1   7
BRANCH   6  15
HETATM   15  N2  UNL     1     -19.872   0.015 -23.884  1.00  0.00    -0.412 N 
ATOM     16  H2  UNL     1     -19.027  -0.266 -24.382  1.00  0.00     0.154 HD
BRANCH  15  17
HETATM   17  C13 UNL     1     -19.943   1.245 -23.102  1.00  0.00     0.077 C 
HETATM   18  C14 UNL     1     -20.519   2.455 -23.702  1.00  0.00     0.024 C 
HETATM   19  C15 UNL     1     -21.961   2.441 -23.133  1.00  0.00     0.002 C 
HETATM   20  C16 UNL     1     -21.640   2.182 -21.664  1.00  0.00     0.002 C 
HETATM   21  C17 UNL     1     -20.529   1.161 -21.736  1.00  0.00     0.024 C 
ENDBRANCH  15  17
ENDBRANCH   6  15
TORSDOF 3
ENDMDL
MODEL 2
REMARK VINA RESULT: -6.437678244      1.981      3.755
REMARK  3 active torsions:
REMARK  status: ('A' for Active; 'I' for Inactive)
REMARK    1  A    between atoms: C6_8  and  C7_9 
REMARK    2  A    between atoms: C12_14  and  N2_15 
REMARK    3  A    between atoms: N2_15  and  C13_17 
ROOT
HETATM    1  C7  UNL     1     -21.439   1.216 -25.128  1.00  0.00     0.043 C 
HETATM    2  C8  UNL     1     -19.989   1.154 -24.553  1.00  0.00     0.011 C 
HETATM    3  C9  UNL     1     -19.942   1.640 -23.115  1.00  0.00     0.001 C 
HETATM    4  C10 UNL     1     -21.000   2.653 -22.820  1.00  0.00     0.002 C 
HETATM    5  C11 UNL     1     -22.366   2.052 -23.121  1.00  0.00     0.025 C 
HETATM    6  C12 UNL     1     -22.193   0.750 -23.903  1.00  0.00     0.085 C 
ENDROOT
BRANCH   1   7
HETATM    7  C6  UNL     1     -21.511   0.438 -26.325  1.00  0.00    -0.028 A 
HETATM    8  C1  UNL     1     -22.387   0.941 -27.323  1.00  0.00     0.056 A 
HETATM    9  N1  UNL     1     -22.916   2.267 -27.207  1.00  0.00    -0.102 NA
HETATM   10  C2  UNL     1     -22.672   0.215 -28.427  1.00  0.00     0.069 A 
HETATM   11  C3  UNL     1     -22.117  -1.060 -28.639  1.00  0.00     0.118 A 
HETATM   12  F1  UNL     1     -22.465  -1.753 -29.774  1.00  0.00    -0.206 F 
HETATM   13  C4  UNL     1     -21.265  -1.565 -27.688  1.00  0.00     0.043 A 
HETATM   14  C5  UNL     1     -20.978  -0.807 -26.548  1.00  0.00     0.012 A 
ENDBRANCH   1   7
BRANCH   6  15
HETATM   15  N2  UNL     1     -23.339  -0.003 -23.897  1.00  0.00    -0.412 N 
ATOM     16  H2  UNL     1     -24.186   0.289 -24.386  1.00  0.00     0.154 HD
BRANCH  15  17
HETATM   17  C13 UNL     1     -23.266  -1.251 -23.144  1.00  0.00     0.077 C 
HETATM   18  C14 UNL     1     -22.647  -2.433 -23.756  1.00  0.00     0.024 C 
HETATM   19  C15 UNL     1     -21.223  -2.405 -23.143  1.00  0.00     0.002 C 
HETATM   20  C16 UNL     1     -21.593  -2.189 -21.678  1.00  0.00     0.002 C 
HETATM   21  C17 UNL     1     -22.723  -1.189 -21.759  1.00  0.00     0.024 C 
ENDBRANCH  15  17
ENDBRANCH   6  15
TORSDOF 3
ENDMDL
MODEL 3
REMARK VINA RESULT: -6.112201226      3.086      6.258
REMARK  3 active torsions:
REMARK  status: ('A' for Active; 'I' for Inactive)
REMARK    1  A    between atoms: C6_8  and  C7_9 
REMARK    2  A    between atoms: C12_14  and  N2_15 
REMARK    3  A    between atoms: N2_15  and  C13_17 
ROOT
HETATM    1  C7  UNL     1     -20.932   0.539 -27.606  1.00  0.00     0.043 C 
HETATM    2  C8  UNL     1     -20.171   1.899 -27.694  1.00  0.00     0.011 C 
HETATM    3  C9  UNL     1     -19.962   2.323 -29.137  1.00  0.00     0.001 C 
HETATM    4  C10 UNL     1     -19.862   1.156 -30.067  1.00  0.00     0.002 C 
HETATM    5  C11 UNL     1     -21.125   0.315 -29.951  1.00  0.00     0.025 C 
HETATM    6  C12 UNL     1     -21.925   0.756 -28.724  1.00  0.00     0.085 C 
ENDROOT
BRANCH   1   7
HETATM    7  C6  UNL     1     -21.418   0.350 -26.274  1.00  0.00    -0.028 A 
HETATM    8  C1  UNL     1     -21.264  -0.962 -25.753  1.00  0.00     0.056 A 
HETATM    9  N1  UNL     1     -20.434  -1.909 -26.435  1.00  0.00    -0.102 NA
HETATM   10  C2  UNL     1     -21.829  -1.313 -24.576  1.00  0.00     0.069 A 
HETATM   11  C3  UNL     1     -22.587  -0.402 -23.817  1.00  0.00     0.118 A 
HETATM   12  F1  UNL     1     -23.150  -0.830 -22.640  1.00  0.00    -0.206 F 
HETATM   13  C4  UNL     1     -22.745   0.874 -24.301  1.00  0.00     0.043 A 
HETATM   14  C5  UNL     1     -22.158   1.226 -25.520  1.00  0.00     0.012 A 
ENDBRANCH   1   7
BRANCH   6  15
HETATM   15  N2  UNL     1     -23.215   0.290 -28.763  1.00  0.00    -0.412 N 
ATOM     16  H2  UNL     1     -23.985   0.781 -28.309  1.00  0.00     0.154 HD
BRANCH  15  17
HETATM   17  C13 UNL     1     -23.410  -0.956 -29.497  1.00  0.00     0.077 C 
HETATM   18  C14 UNL     1     -23.197  -2.240 -28.819  1.00  0.00     0.024 C 
HETATM   19  C15 UNL     1     -24.646  -2.655 -28.454  1.00  0.00     0.002 C 
HETATM   20  C16 UNL     1     -25.317  -2.403 -29.801  1.00  0.00     0.002 C 
HETATM   21  C17 UNL     1     -24.678  -1.115 -30.262  1.00  0.00     0.024 C 
ENDBRANCH  15  17
ENDBRANCH   6  15
TORSDOF 3
ENDMDL
MODEL 4
REMARK VINA RESULT: -6.105049601      2.780      5.575
REMARK  3 active torsions:
REMARK  status: ('A' for Active; 'I' for Inactive)
REMARK    1  A    between atoms: C6_8  and  C7_9 
REMARK    2  A    between atoms: C12_14  and  N2_15 
REMARK    3  A    between atoms: N2_15  and  C13_17 
ROOT
HETATM    1  C7  UNL     1     -22.270  -0.538 -27.591  1.00  0.00     0.043 C 
HETATM    2  C8  UNL     1     -23.033  -1.897 -27.676  1.00  0.00     0.011 C 
HETATM    3  C9  UNL     1     -23.248  -2.321 -29.119  1.00  0.00     0.001 C 
HETATM    4  C10 UNL     1     -23.348  -1.155 -30.048  1.00  0.00     0.002 C 
HETATM    5  C11 UNL     1     -22.083  -0.316 -29.936  1.00  0.00     0.025 C 
HETATM    6  C12 UNL     1     -21.281  -0.757 -28.712  1.00  0.00     0.085 C 
ENDROOT
BRANCH   1   7
HETATM    7  C6  UNL     1     -21.780  -0.350 -26.260  1.00  0.00    -0.028 A 
HETATM    8  C1  UNL     1     -21.929   0.963 -25.740  1.00  0.00     0.056 A 
HETATM    9  N1  UNL     1     -22.757   1.912 -26.420  1.00  0.00    -0.102 NA
HETATM   10  C2  UNL     1     -21.359   1.313 -24.565  1.00  0.00     0.069 A 
HETATM   11  C3  UNL     1     -20.602   0.400 -23.808  1.00  0.00     0.118 A 
HETATM   12  F1  UNL     1     -20.034   0.827 -22.632  1.00  0.00    -0.206 F 
HETATM   13  C4  UNL     1     -20.449  -0.876 -24.290  1.00  0.00     0.043 A 
HETATM   14  C5  UNL     1     -21.040  -1.228 -25.508  1.00  0.00     0.012 A 
ENDBRANCH   1   7
BRANCH   6  15
HETATM   15  N2  UNL     1     -19.991  -0.294 -28.755  1.00  0.00    -0.412 N 
ATOM     16  H2  UNL     1     -19.220  -0.784 -28.299  1.00  0.00     0.154 HD
BRANCH  15  17
HETATM   17  C13 UNL     1     -19.795   0.948 -29.496  1.00  0.00     0.077 C 
HETATM   18  C14 UNL     1     -20.014   2.236 -28.826  1.00  0.00     0.024 C 
HETATM   19  C15 UNL     1     -18.569   2.657 -28.456  1.00  0.00     0.002 C 
HETATM   20  C16 UNL     1     -17.889   2.398 -29.797  1.00  0.00     0.002 C 
HETATM   21  C17 UNL     1     -18.522   1.105 -30.254  1.00  0.00     0.024 C 
ENDBRANCH  15  17
ENDBRANCH   6  15
TORSDOF 3
ENDMDL
MODEL 5
REMARK VINA RESULT: -6.086260318      2.945      6.096
REMARK  3 active torsions:
REMARK  status: ('A' for Active; 'I' for Inactive)
REMARK    1  A    between atoms: C6_8  and  C7_9 
REMARK    2  A    between atoms: C12_14  and  N2_15 
REMARK    3  A    between atoms: N2_15  and  C13_17 
ROOT
HETATM    1  C7  UNL     1     -21.301  -0.048 -26.353  1.00  0.00     0.043 C 
HETATM    2  C8  UNL     1     -22.074   1.283 -26.616  1.00  0.00     0.011 C 
HETATM    3  C9  UNL     1     -21.992   1.692 -28.076  1.00  0.00     0.001 C 
HETATM    4  C10 UNL     1     -20.734   1.219 -28.732  1.00  0.00     0.002 C 
HETATM    5  C11 UNL     1     -20.645  -0.296 -28.610  1.00  0.00     0.025 C 
HETATM    6  C12 UNL     1     -21.689  -0.793 -27.610  1.00  0.00     0.085 C 
ENDROOT
BRANCH   1   7
HETATM    7  C6  UNL     1     -21.688  -0.580 -25.084  1.00  0.00    -0.028 A 
HETATM    8  C1  UNL     1     -20.964  -1.728 -24.663  1.00  0.00     0.056 A 
HETATM    9  N1  UNL     1     -19.771  -2.113 -25.353  1.00  0.00    -0.102 NA
HETATM   10  C2  UNL     1     -21.342  -2.423 -23.566  1.00  0.00     0.069 A 
HETATM   11  C3  UNL     1     -22.457  -2.045 -22.797  1.00  0.00     0.118 A 
HETATM   12  F1  UNL     1     -22.797  -2.808 -21.706  1.00  0.00    -0.206 F 
HETATM   13  C4  UNL     1     -23.169  -0.936 -23.184  1.00  0.00     0.043 A 
HETATM   14  C5  UNL     1     -22.771  -0.225 -24.320  1.00  0.00     0.012 A 
ENDBRANCH   1   7
BRANCH   6  15
HETATM   15  N2  UNL     1     -21.894  -2.145 -27.718  1.00  0.00    -0.412 N 
ATOM     16  H2  UNL     1     -21.285  -2.826 -27.264  1.00  0.00     0.154 HD
BRANCH  15  17
HETATM   17  C13 UNL     1     -23.043  -2.542 -28.526  1.00  0.00     0.077 C 
HETATM   18  C14 UNL     1     -24.320  -1.834 -28.371  1.00  0.00     0.024 C 
HETATM   19  C15 UNL     1     -24.285  -0.845 -29.564  1.00  0.00     0.002 C 
HETATM   20  C16 UNL     1     -23.875  -1.812 -30.671  1.00  0.00     0.002 C 
HETATM   21  C17 UNL     1     -22.839  -2.679 -29.994  1.00  0.00     0.024 C 
ENDBRANCH  15  17
ENDBRANCH   6  15
TORSDOF 3
ENDMDL
