MODEL 1
REMARK VINA RESULT: -6.047672302      0.000      0.000
REMARK  3 active torsions:
REMARK  status: ('A' for Active; 'I' for Inactive)
REMARK    1  A    between atoms: C1_2  and  C2_3 
REMARK    2  A    between atoms: C1_2  and  C8_9 
REMARK    3  A    between atoms: C2_3  and  C3_4 
ROOT
HETATM    1  C8  UNL     1     -21.756   0.402 -25.984  1.00  0.00    -0.028 A 
HETATM    2  C9  UNL     1     -20.735  -0.116 -25.176  1.00  0.00     0.012 A 
HETATM    3  C10 UNL     1     -20.503   0.419 -23.928  1.00  0.00     0.038 A 
HETATM    4  C11 UNL     1     -21.256   1.458 -23.447  1.00  0.00     0.079 A 
HETATM    5 BR1  UNL     1     -20.928   2.202 -21.699  1.00  0.00    -0.031 Br
HETATM    6  N1  UNL     1     -22.230   1.943 -24.234  1.00  0.00    -0.360 N 
ATOM      7  H1  UNL     1     -22.798   2.718 -23.891  1.00  0.00     0.166 HD
HETATM    8  C12 UNL     1     -22.485   1.446 -25.457  1.00  0.00     0.097 A 
ENDROOT
BRANCH   1   9
HETATM    9  C1  UNL     1     -22.007  -0.138 -27.351  1.00  0.00     0.093 C 
HETATM   10  S1  UNL     1     -20.831  -1.573 -27.542  1.00  0.00    -0.087 SA
BRANCH   9  11
HETATM   11  C2  UNL     1     -21.796   0.811 -28.466  1.00  0.00     0.025 C 
BRANCH  11  12
HETATM   12  C3  UNL     1     -20.452   0.894 -29.059  1.00  0.00    -0.013 C 
HETATM   13  C4  UNL     1     -19.618   1.968 -28.302  1.00  0.00     0.005 C 
HETATM   14  C5  UNL     1     -18.468   2.229 -29.205  1.00  0.00     0.000 C 
HETATM   15  C6  UNL     1     -18.740   1.525 -30.506  1.00  0.00     0.000 C 
HETATM   16  C7  UNL     1     -20.284   1.379 -30.453  1.00  0.00     0.005 C 
ENDBRANCH  11  12
ENDBRANCH   9  11
ENDBRANCH   1   9
TORSDOF 3
ENDMDL
MODEL 2
REMARK VINA RESULT: -6.040944543      2.851      4.014
REMARK  3 active torsions:
REMARK  status: ('A' for Active; 'I' for Inactive)
REMARK    1  A    between atoms: C1_2  and  C2_3 
REMARK    2  A    between atoms: C1_2  and  C8_9 
REMARK    3  A    between atoms: C2_3  and  C3_4 
ROOT
HETATM    1  C8  UNL     1     -21.454  -0.429 -25.991  1.00  0.00    -0.028 A 
HETATM    2  C9  UNL     1     -22.486   0.079 -25.191  1.00  0.00     0.012 A 
HETATM    3  C10 UNL     1     -22.704  -0.440 -23.933  1.00  0.00     0.038 A 
HETATM    4  C11 UNL     1     -21.927  -1.454 -23.436  1.00  0.00     0.079 A 
HETATM    5 BR1  UNL     1     -22.235  -2.175 -21.675  1.00  0.00    -0.031 Br
HETATM    6  N1  UNL     1     -20.943  -1.930 -24.217  1.00  0.00    -0.360 N 
ATOM      7  H1  UNL     1     -20.357  -2.685 -23.862  1.00  0.00     0.166 HD
HETATM    8  C12 UNL     1     -20.701  -1.448 -25.449  1.00  0.00     0.097 A 
ENDROOT
BRANCH   1   9
HETATM    9  C1  UNL     1     -21.218   0.094 -27.367  1.00  0.00     0.093 C 
HETATM   10  S1  UNL     1     -22.388   1.532 -27.560  1.00  0.00    -0.087 SA
BRANCH   9  11
HETATM   11  C2  UNL     1     -21.448  -0.868 -28.469  1.00  0.00     0.025 C 
BRANCH  11  12
HETATM   12  C3  UNL     1     -22.792  -0.930 -29.063  1.00  0.00    -0.013 C 
HETATM   13  C4  UNL     1     -23.650  -1.974 -28.292  1.00  0.00     0.005 C 
HETATM   14  C5  UNL     1     -24.805  -2.224 -29.193  1.00  0.00     0.000 C 
HETATM   15  C6  UNL     1     -24.515  -1.545 -30.504  1.00  0.00     0.000 C 
HETATM   16  C7  UNL     1     -22.969  -1.432 -30.450  1.00  0.00     0.005 C 
ENDBRANCH  11  12
ENDBRANCH   9  11
ENDBRANCH   1   9
TORSDOF 3
ENDMDL
MODEL 3
REMARK VINA RESULT: -5.997352481      0.766      1.243
REMARK  3 active torsions:
REMARK  status: ('A' for Active; 'I' for Inactive)
REMARK    1  A    between atoms: C1_2  and  C2_3 
REMARK    2  A    between atoms: C1_2  and  C8_9 
REMARK    3  A    between atoms: C2_3  and  C3_4 
ROOT
HETATM    1  C8  UNL     1     -21.841   0.317 -25.994  1.00  0.00    -0.028 A 
HETATM    2  C9  UNL     1     -22.479   1.465 -25.506  1.00  0.00     0.012 A 
HETATM    3  C10 UNL     1     -22.338   1.823 -24.182  1.00  0.00     0.038 A 
HETATM    4  C11 UNL     1     -21.578   1.079 -23.319  1.00  0.00     0.079 A 
HETATM    5 BR1  UNL     1     -21.383   1.585 -21.469  1.00  0.00    -0.031 Br
HETATM    6  N1  UNL     1     -20.974  -0.019 -23.804  1.00  0.00    -0.360 N 
ATOM      7  H1  UNL     1     -20.406  -0.585 -23.174  1.00  0.00     0.166 HD
HETATM    8  C12 UNL     1     -21.089  -0.399 -25.088  1.00  0.00     0.097 A 
ENDROOT
BRANCH   1   9
HETATM    9  C1  UNL     1     -22.002  -0.109 -27.413  1.00  0.00     0.093 C 
HETATM   10  S1  UNL     1     -20.810  -1.524 -27.646  1.00  0.00    -0.087 SA
BRANCH   9  11
HETATM   11  C2  UNL     1     -21.725   0.929 -28.432  1.00  0.00     0.025 C 
BRANCH  11  12
HETATM   12  C3  UNL     1     -20.385   0.963 -29.036  1.00  0.00    -0.013 C 
HETATM   13  C4  UNL     1     -19.514   2.023 -28.301  1.00  0.00     0.005 C 
HETATM   14  C5  UNL     1     -18.364   2.238 -29.216  1.00  0.00     0.000 C 
HETATM   15  C6  UNL     1     -18.667   1.525 -30.505  1.00  0.00     0.000 C 
HETATM   16  C7  UNL     1     -20.214   1.425 -30.438  1.00  0.00     0.005 C 
ENDBRANCH  11  12
ENDBRANCH   9  11
ENDBRANCH   1   9
TORSDOF 3
ENDMDL
MODEL 4
REMARK VINA RESULT: -5.914415127      1.398      1.631
REMARK  3 active torsions:
REMARK  status: ('A' for Active; 'I' for Inactive)
REMARK    1  A    between atoms: C1_2  and  C2_3 
REMARK    2  A    between atoms: C1_2  and  C8_9 
REMARK    3  A    between atoms: C2_3  and  C3_4 
ROOT
HETATM    1  C8  UNL     1     -21.366   0.227 -25.830  1.00  0.00    -0.028 A 
HETATM    2  C9  UNL     1     -20.525   0.922 -24.951  1.00  0.00     0.012 A 
HETATM    3  C10 UNL     1     -20.608   0.697 -23.594  1.00  0.00     0.038 A 
HETATM    4  C11 UNL     1     -21.500  -0.202 -23.073  1.00  0.00     0.079 A 
HETATM    5 BR1  UNL     1     -21.610  -0.514 -21.174  1.00  0.00    -0.031 Br
HETATM    6  N1  UNL     1     -22.299  -0.860 -23.930  1.00  0.00    -0.360 N 
ATOM      7  H1  UNL     1     -22.970  -1.532 -23.558  1.00  0.00     0.166 HD
HETATM    8  C12 UNL     1     -22.247  -0.666 -25.259  1.00  0.00     0.097 A 
ENDROOT
BRANCH   1   9
HETATM    9  C1  UNL     1     -21.319   0.474 -27.300  1.00  0.00     0.093 C 
HETATM   10  S1  UNL     1     -21.138  -1.209 -28.081  1.00  0.00    -0.087 SA
BRANCH   9  11
HETATM   11  C2  UNL     1     -20.218   1.346 -27.769  1.00  0.00     0.025 C 
BRANCH  11  12
HETATM   12  C3  UNL     1     -19.914   1.360 -29.208  1.00  0.00    -0.013 C 
HETATM   13  C4  UNL     1     -18.373   1.291 -29.411  1.00  0.00     0.005 C 
HETATM   14  C5  UNL     1     -18.180   1.697 -30.827  1.00  0.00     0.000 C 
HETATM   15  C6  UNL     1     -19.502   2.194 -31.343  1.00  0.00     0.000 C 
HETATM   16  C7  UNL     1     -20.222   2.566 -30.020  1.00  0.00     0.005 C 
ENDBRANCH  11  12
ENDBRANCH   9  11
ENDBRANCH   1   9
TORSDOF 3
ENDMDL
MODEL 5
REMARK VINA RESULT: -5.873948036      1.928      2.241
REMARK  3 active torsions:
REMARK  status: ('A' for Active; 'I' for Inactive)
REMARK    1  A    between atoms: C1_2  and  C2_3 
REMARK    2  A    between atoms: C1_2  and  C8_9 
REMARK    3  A    between atoms: C2_3  and  C3_4 
ROOT
HETATM    1  C8  UNL     1     -21.686   0.005 -26.017  1.00  0.00    -0.028 A 
HETATM    2  C9  UNL     1     -22.517   0.557 -25.033  1.00  0.00     0.012 A 
HETATM    3  C10 UNL     1     -22.606  -0.034 -23.791  1.00  0.00     0.038 A 
HETATM    4  C11 UNL     1     -21.891  -1.163 -23.487  1.00  0.00     0.079 A 
HETATM    5 BR1  UNL     1     -22.018  -1.985 -21.748  1.00  0.00    -0.031 Br
HETATM    6  N1  UNL     1     -21.099  -1.679 -24.441  1.00  0.00    -0.360 N 
ATOM      7  H1  UNL     1     -20.562  -2.520 -24.231  1.00  0.00     0.166 HD
HETATM    8  C12 UNL     1     -20.988  -1.130 -25.663  1.00  0.00     0.097 A 
ENDROOT
BRANCH   1   9
HETATM    9  C1  UNL     1     -21.596   0.607 -27.377  1.00  0.00     0.093 C 
HETATM   10  S1  UNL     1     -22.136  -0.736 -28.552  1.00  0.00    -0.087 SA
BRANCH   9  11
HETATM   11  C2  UNL     1     -20.256   1.090 -27.779  1.00  0.00     0.025 C 
BRANCH  11  12
HETATM   12  C3  UNL     1     -19.990   1.278 -29.213  1.00  0.00    -0.013 C 
HETATM   13  C4  UNL     1     -18.458   1.180 -29.472  1.00  0.00     0.005 C 
HETATM   14  C5  UNL     1     -18.287   1.756 -30.830  1.00  0.00     0.000 C 
HETATM   15  C6  UNL     1     -19.602   2.364 -31.237  1.00  0.00     0.000 C 
HETATM   16  C7  UNL     1     -20.270   2.589 -29.855  1.00  0.00     0.005 C 
ENDBRANCH  11  12
ENDBRANCH   9  11
ENDBRANCH   1   9
TORSDOF 3
ENDMDL
