MODEL 1
REMARK VINA RESULT: -7.163881467      0.000      0.000
REMARK  4 active torsions:
REMARK  status: ('A' for Active; 'I' for Inactive)
REMARK    1  A    between atoms: C1_4  and  N2_5 
REMARK    2  A    between atoms: C1_4  and  C11_16 
REMARK    3  A    between atoms: N2_5  and  C2_7 
REMARK    4  A    between atoms: C2_7  and  C3_8 
ROOT
HETATM    1  N2  UNL     1     -20.937   1.133 -27.614  1.00  0.00    -0.354 N 
ATOM      2  H2  UNL     1     -20.175   1.706 -27.253  1.00  0.00     0.166 HD
ENDROOT
BRANCH   1   3
HETATM    3  C1  UNL     1     -20.853   0.785 -28.974  1.00  0.00     0.115 C 
HETATM    4  N1  UNL     1     -21.754   0.021 -29.458  1.00  0.00    -0.384 N 
ATOM      5  H12 UNL     1     -22.498  -0.308 -28.843  1.00  0.00     0.157 HD
ATOM      6  H11 UNL     1     -21.693  -0.232 -30.444  1.00  0.00     0.157 HD
BRANCH   3   7
HETATM    7  C11 UNL     1     -19.773   1.263 -29.867  1.00  0.00     0.050 A 
HETATM    8  C12 UNL     1     -18.424   1.204 -29.657  1.00  0.00     0.025 A 
HETATM    9  C13 UNL     1     -17.625   1.701 -30.605  1.00  0.00     0.033 A 
HETATM   10  C14 UNL     1     -18.219   2.235 -31.718  1.00  0.00     0.075 A 
HETATM   11 CL1  UNL     1     -17.466   2.962 -33.127  1.00  0.00    -0.076 Cl
HETATM   12  S1  UNL     1     -19.876   2.018 -31.395  1.00  0.00    -0.074 SA
ENDBRANCH   3   7
ENDBRANCH   1   3
BRANCH   1  13
HETATM   13  C2  UNL     1     -21.939   0.792 -26.688  1.00  0.00     0.072 C 
BRANCH  13  14
HETATM   14  C3  UNL     1     -21.578   0.139 -25.445  1.00  0.00    -0.007 C 
HETATM   15  C4  UNL     1     -20.498   0.975 -24.742  1.00  0.00     0.020 C 
HETATM   16  C5  UNL     1     -19.989   0.017 -23.683  1.00  0.00    -0.009 C 
HETATM   17  C6  UNL     1     -21.000   0.020 -22.527  1.00  0.00     0.010 C 
HETATM   18  C9  UNL     1     -20.533  -1.329 -24.045  1.00  0.00    -0.005 C 
HETATM   19  C7  UNL     1     -21.825  -0.944 -23.396  1.00  0.00    -0.009 C 
HETATM   20  C8  UNL     1     -22.623  -0.136 -24.432  1.00  0.00     0.020 C 
HETATM   21  C10 UNL     1     -20.862  -1.181 -25.537  1.00  0.00     0.020 C 
ENDBRANCH  13  14
ENDBRANCH   1  13
TORSDOF 4
ENDMDL
MODEL 2
REMARK VINA RESULT: -7.110371728      3.721      4.714
REMARK  4 active torsions:
REMARK  status: ('A' for Active; 'I' for Inactive)
REMARK    1  A    between atoms: C1_4  and  N2_5 
REMARK    2  A    between atoms: C1_4  and  C11_16 
REMARK    3  A    between atoms: N2_5  and  C2_7 
REMARK    4  A    between atoms: C2_7  and  C3_8 
ROOT
HETATM    1  N2  UNL     1     -22.394  -0.881 -27.614  1.00  0.00    -0.354 N 
ATOM      2  H2  UNL     1     -23.264  -1.234 -27.216  1.00  0.00     0.166 HD
ENDROOT
BRANCH   1   3
HETATM    3  C1  UNL     1     -22.384  -0.705 -29.009  1.00  0.00     0.115 C 
HETATM    4  N1  UNL     1     -21.404  -0.075 -29.531  1.00  0.00    -0.384 N 
ATOM      5  H12 UNL     1     -20.667   0.276 -28.919  1.00  0.00     0.157 HD
ATOM      6  H11 UNL     1     -21.396   0.052 -30.542  1.00  0.00     0.157 HD
BRANCH   3   7
HETATM    7  C11 UNL     1     -23.453  -1.215 -29.897  1.00  0.00     0.050 A 
HETATM    8  C12 UNL     1     -24.802  -1.204 -29.677  1.00  0.00     0.025 A 
HETATM    9  C13 UNL     1     -25.590  -1.723 -30.623  1.00  0.00     0.033 A 
HETATM   10  C14 UNL     1     -24.985  -2.229 -31.743  1.00  0.00     0.075 A 
HETATM   11 CL1  UNL     1     -25.723  -2.974 -33.152  1.00  0.00    -0.076 Cl
HETATM   12  S1  UNL     1     -23.335  -1.957 -31.430  1.00  0.00    -0.074 SA
ENDBRANCH   3   7
ENDBRANCH   1   3
BRANCH   1  13
HETATM   13  C2  UNL     1     -21.357  -0.631 -26.697  1.00  0.00     0.072 C 
BRANCH  13  14
HETATM   14  C3  UNL     1     -21.657  -0.004 -25.425  1.00  0.00    -0.007 C 
HETATM   15  C4  UNL     1     -22.676  -0.874 -24.672  1.00  0.00     0.020 C 
HETATM   16  C5  UNL     1     -23.141   0.058 -23.570  1.00  0.00    -0.009 C 
HETATM   17  C6  UNL     1     -22.062   0.061 -22.476  1.00  0.00     0.010 C 
HETATM   18  C9  UNL     1     -22.648   1.420 -23.942  1.00  0.00    -0.005 C 
HETATM   19  C7  UNL     1     -21.312   1.054 -23.377  1.00  0.00    -0.009 C 
HETATM   20  C8  UNL     1     -20.559   0.279 -24.471  1.00  0.00     0.020 C 
HETATM   21  C10 UNL     1     -22.405   1.300 -25.454  1.00  0.00     0.020 C 
ENDBRANCH  13  14
ENDBRANCH   1  13
TORSDOF 4
ENDMDL
MODEL 3
REMARK VINA RESULT: -7.108450216      0.463      1.380
REMARK  4 active torsions:
REMARK  status: ('A' for Active; 'I' for Inactive)
REMARK    1  A    between atoms: C1_4  and  N2_5 
REMARK    2  A    between atoms: C1_4  and  C11_16 
REMARK    3  A    between atoms: N2_5  and  C2_7 
REMARK    4  A    between atoms: C2_7  and  C3_8 
ROOT
HETATM    1  N2  UNL     1     -20.889   1.031 -27.473  1.00  0.00    -0.354 N 
ATOM      2  H2  UNL     1     -20.111   1.592 -27.126  1.00  0.00     0.166 HD
ENDROOT
BRANCH   1   3
HETATM    3  C1  UNL     1     -20.874   0.746 -28.851  1.00  0.00     0.115 C 
HETATM    4  N1  UNL     1     -21.834   0.058 -29.335  1.00  0.00    -0.384 N 
ATOM      5  H12 UNL     1     -22.574  -0.258 -28.708  1.00  0.00     0.157 HD
ATOM      6  H11 UNL     1     -21.824  -0.148 -30.333  1.00  0.00     0.157 HD
BRANCH   3   7
HETATM    7  C11 UNL     1     -19.801   1.206 -29.761  1.00  0.00     0.050 A 
HETATM    8  C12 UNL     1     -18.450   1.065 -29.604  1.00  0.00     0.025 A 
HETATM    9  C13 UNL     1     -17.658   1.561 -30.558  1.00  0.00     0.033 A 
HETATM   10  C14 UNL     1     -18.261   2.176 -31.624  1.00  0.00     0.075 A 
HETATM   11 CL1  UNL     1     -17.517   2.926 -33.027  1.00  0.00    -0.076 Cl
HETATM   12  S1  UNL     1     -19.915   2.034 -31.249  1.00  0.00    -0.074 SA
ENDBRANCH   3   7
ENDBRANCH   1   3
BRANCH   1  13
HETATM   13  C2  UNL     1     -21.840   0.641 -26.514  1.00  0.00     0.072 C 
BRANCH  13  14
HETATM   14  C3  UNL     1     -21.420  -0.116 -25.351  1.00  0.00    -0.007 C 
HETATM   15  C4  UNL     1     -22.650  -0.401 -24.474  1.00  0.00     0.020 C 
HETATM   16  C5  UNL     1     -22.018  -0.864 -23.176  1.00  0.00    -0.009 C 
HETATM   17  C6  UNL     1     -21.587  -2.327 -23.363  1.00  0.00     0.010 C 
HETATM   18  C9  UNL     1     -20.567  -0.512 -23.271  1.00  0.00    -0.005 C 
HETATM   19  C7  UNL     1     -20.354  -1.753 -24.079  1.00  0.00    -0.009 C 
HETATM   20  C8  UNL     1     -20.724  -1.411 -25.532  1.00  0.00     0.020 C 
HETATM   21  C10 UNL     1     -20.545   0.583 -24.346  1.00  0.00     0.020 C 
ENDBRANCH  13  14
ENDBRANCH   1  13
TORSDOF 4
ENDMDL
MODEL 4
REMARK VINA RESULT: -7.098856268      3.765      4.652
REMARK  4 active torsions:
REMARK  status: ('A' for Active; 'I' for Inactive)
REMARK    1  A    between atoms: C1_4  and  N2_5 
REMARK    2  A    between atoms: C1_4  and  C11_16 
REMARK    3  A    between atoms: N2_5  and  C2_7 
REMARK    4  A    between atoms: C2_7  and  C3_8 
ROOT
HETATM    1  N2  UNL     1     -22.420  -1.019 -27.562  1.00  0.00    -0.354 N 
ATOM      2  H2  UNL     1     -23.228  -1.527 -27.201  1.00  0.00     0.166 HD
ENDROOT
BRANCH   1   3
HETATM    3  C1  UNL     1     -22.412  -0.785 -28.949  1.00  0.00     0.115 C 
HETATM    4  N1  UNL     1     -21.440  -0.121 -29.443  1.00  0.00    -0.384 N 
ATOM      5  H12 UNL     1     -20.708   0.213 -28.816  1.00  0.00     0.157 HD
ATOM      6  H11 UNL     1     -21.434   0.049 -30.448  1.00  0.00     0.157 HD
BRANCH   3   7
HETATM    7  C11 UNL     1     -23.475  -1.270 -29.858  1.00  0.00     0.050 A 
HETATM    8  C12 UNL     1     -24.827  -1.238 -29.661  1.00  0.00     0.025 A 
HETATM    9  C13 UNL     1     -25.608  -1.737 -30.623  1.00  0.00     0.033 A 
HETATM   10  C14 UNL     1     -24.992  -2.245 -31.737  1.00  0.00     0.075 A 
HETATM   11 CL1  UNL     1     -25.719  -2.967 -33.163  1.00  0.00    -0.076 Cl
HETATM   12  S1  UNL     1     -23.343  -2.003 -31.395  1.00  0.00    -0.074 SA
ENDBRANCH   3   7
ENDBRANCH   1   3
BRANCH   1  13
HETATM   13  C2  UNL     1     -21.456  -0.644 -26.610  1.00  0.00     0.072 C 
BRANCH  13  14
HETATM   14  C3  UNL     1     -21.859   0.104 -25.435  1.00  0.00    -0.007 C 
HETATM   15  C4  UNL     1     -20.619   0.369 -24.567  1.00  0.00     0.020 C 
HETATM   16  C5  UNL     1     -21.234   0.824 -23.258  1.00  0.00    -0.009 C 
HETATM   17  C6  UNL     1     -21.653   2.292 -23.426  1.00  0.00     0.010 C 
HETATM   18  C9  UNL     1     -22.689   0.486 -23.343  1.00  0.00    -0.005 C 
HETATM   19  C7  UNL     1     -22.898   1.737 -24.136  1.00  0.00    -0.009 C 
HETATM   20  C8  UNL     1     -22.544   1.408 -25.596  1.00  0.00     0.020 C 
HETATM   21  C10 UNL     1     -22.731  -0.598 -24.430  1.00  0.00     0.020 C 
ENDBRANCH  13  14
ENDBRANCH   1  13
TORSDOF 4
ENDMDL
MODEL 5
REMARK VINA RESULT: -7.072026968      1.230      2.009
REMARK  4 active torsions:
REMARK  status: ('A' for Active; 'I' for Inactive)
REMARK    1  A    between atoms: C1_4  and  N2_5 
REMARK    2  A    between atoms: C1_4  and  C11_16 
REMARK    3  A    between atoms: N2_5  and  C2_7 
REMARK    4  A    between atoms: C2_7  and  C3_8 
ROOT
HETATM    1  N2  UNL     1     -20.706   0.840 -27.773  1.00  0.00    -0.354 N 
ATOM      2  H2  UNL     1     -20.315   1.710 -27.410  1.00  0.00     0.166 HD
ENDROOT
BRANCH   1   3
HETATM    3  C1  UNL     1     -20.774   0.734 -29.174  1.00  0.00     0.115 C 
HETATM    4  N1  UNL     1     -21.764   0.111 -29.684  1.00  0.00    -0.384 N 
ATOM      5  H12 UNL     1     -22.467  -0.285 -29.061  1.00  0.00     0.157 HD
ATOM      6  H11 UNL     1     -21.813   0.035 -30.700  1.00  0.00     0.157 HD
BRANCH   3   7
HETATM    7  C11 UNL     1     -19.753   1.309 -30.079  1.00  0.00     0.050 A 
HETATM    8  C12 UNL     1     -19.953   1.950 -31.270  1.00  0.00     0.025 A 
HETATM    9  C13 UNL     1     -18.876   2.391 -31.926  1.00  0.00     0.033 A 
HETATM   10  C14 UNL     1     -17.651   2.167 -31.355  1.00  0.00     0.075 A 
HETATM   11 CL1  UNL     1     -16.061   2.612 -31.952  1.00  0.00    -0.076 Cl
HETATM   12  S1  UNL     1     -18.054   1.348 -29.919  1.00  0.00    -0.074 SA
ENDBRANCH   3   7
ENDBRANCH   1   3
BRANCH   1  13
HETATM   13  C2  UNL     1     -21.110  -0.100 -26.808  1.00  0.00     0.072 C 
BRANCH  13  14
HETATM   14  C3  UNL     1     -21.588   0.355 -25.517  1.00  0.00    -0.007 C 
HETATM   15  C4  UNL     1     -22.487  -0.735 -24.910  1.00  0.00     0.020 C 
HETATM   16  C5  UNL     1     -23.169   0.006 -23.777  1.00  0.00    -0.009 C 
HETATM   17  C6  UNL     1     -22.174   0.091 -22.610  1.00  0.00     0.010 C 
HETATM   18  C9  UNL     1     -22.895   1.459 -24.006  1.00  0.00    -0.005 C 
HETATM   19  C7  UNL     1     -21.552   1.270 -23.373  1.00  0.00    -0.009 C 
HETATM   20  C8  UNL     1     -20.614   0.729 -24.465  1.00  0.00     0.020 C 
HETATM   21  C10 UNL     1     -22.545   1.515 -25.500  1.00  0.00     0.020 C 
ENDBRANCH  13  14
ENDBRANCH   1  13
TORSDOF 4
ENDMDL
