MODEL 1
REMARK VINA RESULT: -6.573374486      0.000      0.000
REMARK  5 active torsions:
REMARK  status: ('A' for Active; 'I' for Inactive)
REMARK    1  A    between atoms: C2_2  and  C3_3 
REMARK    2  A    between atoms: C3_3  and  C4_4 
REMARK    3  A    between atoms: C4_4  and  C5_5 
REMARK    4  A    between atoms: C11_12  and  O1_13 
REMARK    5  A    between atoms: C12_15  and  O2_16 
ROOT
HETATM    1  C5  UNL     1     -21.175   0.528 -23.630  1.00  0.00    -0.016 A 
HETATM    2  C6  UNL     1     -20.829  -0.396 -24.577  1.00  0.00    -0.045 A 
HETATM    3  C7  UNL     1     -19.961  -1.567 -24.390  1.00  0.00     0.049 C 
HETATM    4  C8  UNL     1     -21.310  -0.209 -25.884  1.00  0.00    -0.035 A 
HETATM    5  C9  UNL     1     -20.953  -1.191 -26.946  1.00  0.00     0.050 C 
HETATM    6  C10 UNL     1     -22.102   0.848 -26.248  1.00  0.00     0.053 A 
HETATM    7 BR1  UNL     1     -22.761   1.114 -28.011  1.00  0.00    -0.047 Br
HETATM    8  C11 UNL     1     -22.429   1.767 -25.250  1.00  0.00     0.117 A 
HETATM    9  C12 UNL     1     -21.985   1.629 -23.964  1.00  0.00     0.107 A 
ENDROOT
BRANCH   1  10
HETATM   10  C4  UNL     1     -20.784   0.428 -22.236  1.00  0.00     0.042 C 
BRANCH  10  11
HETATM   11  C3  UNL     1     -21.654  -0.291 -21.289  1.00  0.00     0.004 C 
BRANCH  11  12
HETATM   12  C2  UNL     1     -21.601  -1.761 -21.202  1.00  0.00    -0.004 C 
HETATM   13  C1  UNL     1     -22.752  -2.414 -21.993  1.00  0.00     0.005 C 
ENDBRANCH  11  12
ENDBRANCH  10  11
ENDBRANCH   1  10
BRANCH   9  14
HETATM   14  O2  UNL     1     -22.339   2.570 -23.013  1.00  0.00    -0.357 OA
ATOM     15  H2  UNL     1     -22.975   3.248 -23.208  1.00  0.00     0.217 HD
ENDBRANCH   9  14
BRANCH   8  16
HETATM   16  O1  UNL     1     -23.233   2.874 -25.542  1.00  0.00    -0.357 OA
ATOM     17  H1  UNL     1     -23.742   3.293 -24.857  1.00  0.00     0.218 HD
ENDBRANCH   8  16
TORSDOF 5
ENDMDL
MODEL 2
REMARK VINA RESULT: -6.510563372      2.442      3.484
REMARK  5 active torsions:
REMARK  status: ('A' for Active; 'I' for Inactive)
REMARK    1  A    between atoms: C2_2  and  C3_3 
REMARK    2  A    between atoms: C3_3  and  C4_4 
REMARK    3  A    between atoms: C4_4  and  C5_5 
REMARK    4  A    between atoms: C11_12  and  O1_13 
REMARK    5  A    between atoms: C12_15  and  O2_16 
ROOT
HETATM    1  C5  UNL     1     -22.016  -0.250 -24.258  1.00  0.00    -0.016 A 
HETATM    2  C6  UNL     1     -22.470   0.802 -25.006  1.00  0.00    -0.045 A 
HETATM    3  C7  UNL     1     -23.314   1.913 -24.543  1.00  0.00     0.049 C 
HETATM    4  C8  UNL     1     -22.140   0.827 -26.371  1.00  0.00    -0.035 A 
HETATM    5  C9  UNL     1     -22.619   1.953 -27.221  1.00  0.00     0.050 C 
HETATM    6  C10 UNL     1     -21.393  -0.146 -26.981  1.00  0.00     0.053 A 
HETATM    7 BR1  UNL     1     -20.939  -0.124 -28.827  1.00  0.00    -0.047 Br
HETATM    8  C11 UNL     1     -20.952  -1.200 -26.180  1.00  0.00     0.117 A 
HETATM    9  C12 UNL     1     -21.246  -1.269 -24.847  1.00  0.00     0.107 A 
ENDROOT
BRANCH   1  10
HETATM   10  C4  UNL     1     -22.245  -0.373 -22.829  1.00  0.00     0.042 C 
BRANCH  10  11
HETATM   11  C3  UNL     1     -21.269   0.202 -21.887  1.00  0.00     0.004 C 
BRANCH  11  12
HETATM   12  C2  UNL     1     -21.489   1.543 -21.317  1.00  0.00    -0.004 C 
HETATM   13  C1  UNL     1     -20.705   2.620 -22.093  1.00  0.00     0.005 C 
ENDBRANCH  11  12
ENDBRANCH  10  11
ENDBRANCH   1  10
BRANCH   9  14
HETATM   14  O2  UNL     1     -20.783  -2.338 -24.098  1.00  0.00    -0.357 OA
ATOM     15  H2  UNL     1     -19.912  -2.329 -23.721  1.00  0.00     0.217 HD
ENDBRANCH   9  14
BRANCH   8  16
HETATM   16  O1  UNL     1     -20.184  -2.232 -26.728  1.00  0.00    -0.357 OA
ATOM     17  H1  UNL     1     -19.752  -2.863 -26.163  1.00  0.00     0.218 HD
ENDBRANCH   8  16
TORSDOF 5
ENDMDL
MODEL 3
REMARK VINA RESULT: -6.342925305      2.303      3.038
REMARK  5 active torsions:
REMARK  status: ('A' for Active; 'I' for Inactive)
REMARK    1  A    between atoms: C2_2  and  C3_3 
REMARK    2  A    between atoms: C3_3  and  C4_4 
REMARK    3  A    between atoms: C4_4  and  C5_5 
REMARK    4  A    between atoms: C11_12  and  O1_13 
REMARK    5  A    between atoms: C12_15  and  O2_16 
ROOT
HETATM    1  C5  UNL     1     -21.198   0.052 -24.468  1.00  0.00    -0.016 A 
HETATM    2  C6  UNL     1     -21.925   1.020 -25.106  1.00  0.00    -0.045 A 
HETATM    3  C7  UNL     1     -22.588   2.176 -24.485  1.00  0.00     0.049 C 
HETATM    4  C8  UNL     1     -22.102   0.901 -26.494  1.00  0.00    -0.035 A 
HETATM    5  C9  UNL     1     -22.891   1.931 -27.225  1.00  0.00     0.050 C 
HETATM    6  C10 UNL     1     -21.586  -0.133 -27.231  1.00  0.00     0.053 A 
HETATM    7 BR1  UNL     1     -21.818  -0.308 -29.110  1.00  0.00    -0.047 Br
HETATM    8  C11 UNL     1     -20.853  -1.099 -26.540  1.00  0.00     0.117 A 
HETATM    9  C12 UNL     1     -20.652  -1.026 -25.189  1.00  0.00     0.107 A 
ENDROOT
BRANCH   1  10
HETATM   10  C4  UNL     1     -20.901   0.081 -23.048  1.00  0.00     0.042 C 
BRANCH  10  11
HETATM   11  C3  UNL     1     -21.915  -0.382 -22.085  1.00  0.00     0.004 C 
BRANCH  11  12
HETATM   12  C2  UNL     1     -21.783  -1.702 -21.446  1.00  0.00    -0.004 C 
HETATM   13  C1  UNL     1     -22.391  -2.816 -22.322  1.00  0.00     0.005 C 
ENDBRANCH  11  12
ENDBRANCH  10  11
ENDBRANCH   1  10
BRANCH   9  14
HETATM   14  O2  UNL     1     -19.916  -2.010 -24.552  1.00  0.00    -0.357 OA
ATOM     15  H2  UNL     1     -19.570  -2.752 -25.035  1.00  0.00     0.217 HD
ENDBRANCH   9  14
BRANCH   8  16
HETATM   16  O1  UNL     1     -20.293  -2.185 -27.220  1.00  0.00    -0.357 OA
ATOM     17  H1  UNL     1     -19.845  -2.873 -26.741  1.00  0.00     0.218 HD
ENDBRANCH   8  16
TORSDOF 5
ENDMDL
MODEL 4
REMARK VINA RESULT: -6.340322155      1.411      2.146
REMARK  5 active torsions:
REMARK  status: ('A' for Active; 'I' for Inactive)
REMARK    1  A    between atoms: C2_2  and  C3_3 
REMARK    2  A    between atoms: C3_3  and  C4_4 
REMARK    3  A    between atoms: C4_4  and  C5_5 
REMARK    4  A    between atoms: C11_12  and  O1_13 
REMARK    5  A    between atoms: C12_15  and  O2_16 
ROOT
HETATM    1  C5  UNL     1     -22.014  -0.061 -24.438  1.00  0.00    -0.016 A 
HETATM    2  C6  UNL     1     -21.293  -1.030 -25.081  1.00  0.00    -0.045 A 
HETATM    3  C7  UNL     1     -20.638  -2.193 -24.466  1.00  0.00     0.049 C 
HETATM    4  C8  UNL     1     -21.114  -0.904 -26.468  1.00  0.00    -0.035 A 
HETATM    5  C9  UNL     1     -20.333  -1.937 -27.204  1.00  0.00     0.050 C 
HETATM    6  C10 UNL     1     -21.623   0.137 -27.199  1.00  0.00     0.053 A 
HETATM    7 BR1  UNL     1     -21.389   0.320 -29.077  1.00  0.00    -0.047 Br
HETATM    8  C11 UNL     1     -22.350   1.104 -26.503  1.00  0.00     0.117 A 
HETATM    9  C12 UNL     1     -22.552   1.025 -25.153  1.00  0.00     0.107 A 
ENDROOT
BRANCH   1  10
HETATM   10  C4  UNL     1     -22.312  -0.095 -23.018  1.00  0.00     0.042 C 
BRANCH  10  11
HETATM   11  C3  UNL     1     -21.305   0.379 -22.054  1.00  0.00     0.004 C 
BRANCH  11  12
HETATM   12  C2  UNL     1     -21.440   1.709 -21.434  1.00  0.00    -0.004 C 
HETATM   13  C1  UNL     1     -20.780   2.803 -22.297  1.00  0.00     0.005 C 
ENDBRANCH  11  12
ENDBRANCH  10  11
ENDBRANCH   1  10
BRANCH   9  14
HETATM   14  O2  UNL     1     -23.281   2.011 -24.512  1.00  0.00    -0.357 OA
ATOM     15  H2  UNL     1     -24.164   1.844 -24.203  1.00  0.00     0.217 HD
ENDBRANCH   9  14
BRANCH   8  16
HETATM   16  O1  UNL     1     -22.902   2.197 -27.178  1.00  0.00    -0.357 OA
ATOM     17  H1  UNL     1     -23.812   2.437 -27.042  1.00  0.00     0.218 HD
ENDBRANCH   8  16
TORSDOF 5
ENDMDL
MODEL 5
REMARK VINA RESULT: -6.216517497      3.189      5.493
REMARK  5 active torsions:
REMARK  status: ('A' for Active; 'I' for Inactive)
REMARK    1  A    between atoms: C2_2  and  C3_3 
REMARK    2  A    between atoms: C3_3  and  C4_4 
REMARK    3  A    between atoms: C4_4  and  C5_5 
REMARK    4  A    between atoms: C11_12  and  O1_13 
REMARK    5  A    between atoms: C12_15  and  O2_16 
ROOT
HETATM    1  C5  UNL     1     -21.439  -0.236 -27.243  1.00  0.00    -0.016 A 
HETATM    2  C6  UNL     1     -22.116   0.802 -26.663  1.00  0.00    -0.045 A 
HETATM    3  C7  UNL     1     -22.715   1.956 -27.349  1.00  0.00     0.049 C 
HETATM    4  C8  UNL     1     -22.232   0.810 -25.263  1.00  0.00    -0.035 A 
HETATM    5  C9  UNL     1     -22.958   1.925 -24.592  1.00  0.00     0.050 C 
HETATM    6  C10 UNL     1     -21.702  -0.165 -24.460  1.00  0.00     0.053 A 
HETATM    7 BR1  UNL     1     -21.852  -0.168 -22.565  1.00  0.00    -0.047 Br
HETATM    8  C11 UNL     1     -21.019  -1.204 -25.094  1.00  0.00     0.117 A 
HETATM    9  C12 UNL     1     -20.879  -1.256 -26.453  1.00  0.00     0.107 A 
ENDROOT
BRANCH   1  10
HETATM   10  C4  UNL     1     -21.287  -0.388 -28.678  1.00  0.00     0.042 C 
BRANCH  10  11
HETATM   11  C3  UNL     1     -22.456  -0.760 -29.495  1.00  0.00     0.004 C 
BRANCH  11  12
HETATM   12  C2  UNL     1     -23.433  -1.740 -28.990  1.00  0.00    -0.004 C 
HETATM   13  C1  UNL     1     -24.816  -1.542 -29.642  1.00  0.00     0.005 C 
ENDBRANCH  11  12
ENDBRANCH  10  11
ENDBRANCH   1  10
BRANCH   9  14
HETATM   14  O2  UNL     1     -20.192  -2.310 -27.030  1.00  0.00    -0.357 OA
ATOM     15  H2  UNL     1     -19.954  -2.294 -27.950  1.00  0.00     0.217 HD
ENDBRANCH   9  14
BRANCH   8  16
HETATM   16  O1  UNL     1     -20.449  -2.238 -24.344  1.00  0.00    -0.357 OA
ATOM     17  H1  UNL     1     -19.577  -2.142 -23.977  1.00  0.00     0.218 HD
ENDBRANCH   8  16
TORSDOF 5
ENDMDL
