MODEL 1
REMARK VINA RESULT: -7.892672701      0.000      0.000
REMARK  4 active torsions:
REMARK  status: ('A' for Active; 'I' for Inactive)
REMARK    1  A    between atoms: C2_2  and  C11_18 
REMARK    2  A    between atoms: N1_3  and  N2_5 
REMARK    3  A    between atoms: N2_5  and  C3_7 
REMARK    4  A    between atoms: C3_7  and  C4_11 
ROOT
HETATM    1  N2  UNL     1     -19.853  -2.139 -24.623  1.00  0.00    -0.289 N 
ATOM      2  H2  UNL     1     -18.879  -2.023 -24.343  1.00  0.00     0.188 HD
ENDROOT
BRANCH   1   3
HETATM    3  N1  UNL     1     -20.806  -2.217 -23.727  1.00  0.00    -0.303 N 
HETATM    4  C2  UNL     1     -21.548  -1.569 -23.007  1.00  0.00     0.035 C 
HETATM    5  C1  UNL     1     -22.527  -2.338 -22.107  1.00  0.00     0.070 C 
ATOM      6  H1  UNL     1     -21.005  -3.205 -23.570  1.00  0.00     0.186 HD
BRANCH   4   7
HETATM    7  C11 UNL     1     -21.572  -0.105 -22.939  1.00  0.00     0.026 A 
HETATM    8  C12 UNL     1     -20.694   0.591 -22.123  1.00  0.00     0.016 A 
HETATM    9  C13 UNL     1     -20.679   1.991 -22.024  1.00  0.00     0.001 A 
HETATM   10  C14 UNL     1     -21.555   2.753 -22.751  1.00  0.00     0.003 A 
HETATM   11  C15 UNL     1     -22.428   2.078 -23.561  1.00  0.00     0.043 A 
HETATM   12  C16 UNL     1     -22.448   0.678 -23.665  1.00  0.00     0.128 A 
HETATM   13  F1  UNL     1     -23.342   0.105 -24.489  1.00  0.00    -0.205 F 
ENDBRANCH   4   7
ENDBRANCH   1   3
BRANCH   1  14
HETATM   14  C3  UNL     1     -20.223  -2.223 -26.034  1.00  0.00     0.093 C 
HETATM   15  N3  UNL     1     -19.826  -3.254 -26.661  1.00  0.00    -0.388 N 
ATOM     16  H32 UNL     1     -19.279  -4.026 -26.281  1.00  0.00     0.157 HD
ATOM     17  H31 UNL     1     -20.085  -3.312 -27.646  1.00  0.00     0.157 HD
BRANCH  14  18
HETATM   18  C4  UNL     1     -21.008  -1.118 -26.579  1.00  0.00     0.054 C 
HETATM   19  C5  UNL     1     -21.404  -1.461 -28.012  1.00  0.00     0.013 C 
HETATM   20  C6  UNL     1     -22.503  -0.473 -28.405  1.00  0.00     0.005 C 
HETATM   21  C7  UNL     1     -21.984   0.920 -28.230  1.00  0.00    -0.019 C 
HETATM   22  C8  UNL     1     -22.876   1.723 -27.305  1.00  0.00     0.010 C 
HETATM   23  C9  UNL     1     -20.560   0.980 -27.756  1.00  0.00     0.005 C 
HETATM   24  C10 UNL     1     -20.320   0.215 -26.486  1.00  0.00     0.013 C 
ENDBRANCH  14  18
ENDBRANCH   1  14
TORSDOF 4
ENDMDL
MODEL 2
REMARK VINA RESULT: -7.882756821      2.493      3.992
REMARK  4 active torsions:
REMARK  status: ('A' for Active; 'I' for Inactive)
REMARK    1  A    between atoms: C2_2  and  C11_18 
REMARK    2  A    between atoms: N1_3  and  N2_5 
REMARK    3  A    between atoms: N2_5  and  C3_7 
REMARK    4  A    between atoms: C3_7  and  C4_11 
ROOT
HETATM    1  N2  UNL     1     -23.366   2.150 -24.653  1.00  0.00    -0.289 N 
ATOM      2  H2  UNL     1     -24.343   2.034 -24.381  1.00  0.00     0.188 HD
ENDROOT
BRANCH   1   3
HETATM    3  N1  UNL     1     -22.421   2.231 -23.750  1.00  0.00    -0.303 N 
HETATM    4  C2  UNL     1     -21.681   1.585 -23.026  1.00  0.00     0.035 C 
HETATM    5  C1  UNL     1     -20.712   2.357 -22.116  1.00  0.00     0.070 C 
ATOM      6  H1  UNL     1     -22.228   3.220 -23.588  1.00  0.00     0.186 HD
BRANCH   4   7
HETATM    7  C11 UNL     1     -21.648   0.121 -22.963  1.00  0.00     0.026 A 
HETATM    8  C12 UNL     1     -22.540  -0.584 -22.168  1.00  0.00     0.016 A 
HETATM    9  C13 UNL     1     -22.547  -1.984 -22.075  1.00  0.00     0.001 A 
HETATM   10  C14 UNL     1     -21.650  -2.738 -22.784  1.00  0.00     0.003 A 
HETATM   11  C15 UNL     1     -20.764  -2.055 -23.572  1.00  0.00     0.043 A 
HETATM   12  C16 UNL     1     -20.750  -0.654 -23.671  1.00  0.00     0.128 A 
HETATM   13  F1  UNL     1     -19.842  -0.072 -24.473  1.00  0.00    -0.205 F 
ENDBRANCH   4   7
ENDBRANCH   1   3
BRANCH   1  14
HETATM   14  C3  UNL     1     -22.985   2.231 -26.062  1.00  0.00     0.093 C 
HETATM   15  N3  UNL     1     -23.376   3.261 -26.694  1.00  0.00    -0.388 N 
ATOM     16  H32 UNL     1     -23.926   4.034 -26.319  1.00  0.00     0.157 HD
ATOM     17  H31 UNL     1     -23.110   3.317 -27.677  1.00  0.00     0.157 HD
BRANCH  14  18
HETATM   18  C4  UNL     1     -22.196   1.124 -26.597  1.00  0.00     0.054 C 
HETATM   19  C5  UNL     1     -21.789   1.464 -28.028  1.00  0.00     0.013 C 
HETATM   20  C6  UNL     1     -20.687   0.474 -28.411  1.00  0.00     0.005 C 
HETATM   21  C7  UNL     1     -21.208  -0.918 -28.237  1.00  0.00    -0.019 C 
HETATM   22  C8  UNL     1     -20.325  -1.719 -27.303  1.00  0.00     0.010 C 
HETATM   23  C9  UNL     1     -22.637  -0.976 -27.775  1.00  0.00     0.005 C 
HETATM   24  C10 UNL     1     -22.886  -0.208 -26.507  1.00  0.00     0.013 C 
ENDBRANCH  14  18
ENDBRANCH   1  14
TORSDOF 4
ENDMDL
MODEL 3
REMARK VINA RESULT: -7.621043971      1.106      1.468
REMARK  4 active torsions:
REMARK  status: ('A' for Active; 'I' for Inactive)
REMARK    1  A    between atoms: C2_2  and  C11_18 
REMARK    2  A    between atoms: N1_3  and  N2_5 
REMARK    3  A    between atoms: N2_5  and  C3_7 
REMARK    4  A    between atoms: C3_7  and  C4_11 
ROOT
HETATM    1  N2  UNL     1     -19.909  -2.092 -24.478  1.00  0.00    -0.289 N 
ATOM      2  H2  UNL     1     -18.969  -1.900 -24.130  1.00  0.00     0.188 HD
ENDROOT
BRANCH   1   3
HETATM    3  N1  UNL     1     -20.920  -2.213 -23.653  1.00  0.00    -0.303 N 
HETATM    4  C2  UNL     1     -21.688  -1.603 -22.928  1.00  0.00     0.035 C 
HETATM    5  C1  UNL     1     -22.747  -2.411 -22.161  1.00  0.00     0.070 C 
ATOM      6  H1  UNL     1     -21.158  -3.203 -23.596  1.00  0.00     0.186 HD
BRANCH   4   7
HETATM    7  C11 UNL     1     -21.675  -0.149 -22.736  1.00  0.00     0.026 A 
HETATM    8  C12 UNL     1     -22.024   0.714 -23.763  1.00  0.00     0.016 A 
HETATM    9  C13 UNL     1     -22.026   2.111 -23.627  1.00  0.00     0.001 A 
HETATM   10  C14 UNL     1     -21.674   2.700 -22.441  1.00  0.00     0.003 A 
HETATM   11  C15 UNL     1     -21.327   1.858 -21.419  1.00  0.00     0.043 A 
HETATM   12  C16 UNL     1     -21.323   0.459 -21.547  1.00  0.00     0.128 A 
HETATM   13  F1  UNL     1     -20.968  -0.285 -20.486  1.00  0.00    -0.205 F 
ENDBRANCH   4   7
ENDBRANCH   1   3
BRANCH   1  14
HETATM   14  C3  UNL     1     -20.163  -2.241 -25.909  1.00  0.00     0.093 C 
HETATM   15  N3  UNL     1     -19.667  -3.269 -26.467  1.00  0.00    -0.388 N 
ATOM     16  H32 UNL     1     -19.113  -3.998 -26.018  1.00  0.00     0.157 HD
ATOM     17  H31 UNL     1     -19.844  -3.372 -27.466  1.00  0.00     0.157 HD
BRANCH  14  18
HETATM   18  C4  UNL     1     -20.957  -1.196 -26.552  1.00  0.00     0.054 C 
HETATM   19  C5  UNL     1     -21.344  -1.669 -27.950  1.00  0.00     0.013 C 
HETATM   20  C6  UNL     1     -22.451  -0.731 -28.432  1.00  0.00     0.005 C 
HETATM   21  C7  UNL     1     -21.948   0.677 -28.380  1.00  0.00    -0.019 C 
HETATM   22  C8  UNL     1     -22.852   1.549 -27.532  1.00  0.00     0.010 C 
HETATM   23  C9  UNL     1     -20.526   0.794 -27.909  1.00  0.00     0.005 C 
HETATM   24  C10 UNL     1     -20.283   0.147 -26.575  1.00  0.00     0.013 C 
ENDBRANCH  14  18
ENDBRANCH   1  14
TORSDOF 4
ENDMDL
MODEL 4
REMARK VINA RESULT: -7.614136544      2.554      4.045
REMARK  4 active torsions:
REMARK  status: ('A' for Active; 'I' for Inactive)
REMARK    1  A    between atoms: C2_2  and  C11_18 
REMARK    2  A    between atoms: N1_3  and  N2_5 
REMARK    3  A    between atoms: N2_5  and  C3_7 
REMARK    4  A    between atoms: C3_7  and  C4_11 
ROOT
HETATM    1  N2  UNL     1     -23.299   2.094 -24.486  1.00  0.00    -0.289 N 
ATOM      2  H2  UNL     1     -24.239   1.899 -24.139  1.00  0.00     0.188 HD
ENDROOT
BRANCH   1   3
HETATM    3  N1  UNL     1     -22.289   2.216 -23.660  1.00  0.00    -0.303 N 
HETATM    4  C2  UNL     1     -21.522   1.607 -22.933  1.00  0.00     0.035 C 
HETATM    5  C1  UNL     1     -20.464   2.416 -22.166  1.00  0.00     0.070 C 
ATOM      6  H1  UNL     1     -22.051   3.206 -23.604  1.00  0.00     0.186 HD
BRANCH   4   7
HETATM    7  C11 UNL     1     -21.536   0.154 -22.738  1.00  0.00     0.026 A 
HETATM    8  C12 UNL     1     -21.193  -0.712 -23.765  1.00  0.00     0.016 A 
HETATM    9  C13 UNL     1     -21.192  -2.108 -23.627  1.00  0.00     0.001 A 
HETATM   10  C14 UNL     1     -21.538  -2.695 -22.438  1.00  0.00     0.003 A 
HETATM   11  C15 UNL     1     -21.879  -1.851 -21.416  1.00  0.00     0.043 A 
HETATM   12  C16 UNL     1     -21.882  -0.452 -21.546  1.00  0.00     0.128 A 
HETATM   13  F1  UNL     1     -22.232   0.294 -20.485  1.00  0.00    -0.205 F 
ENDBRANCH   4   7
ENDBRANCH   1   3
BRANCH   1  14
HETATM   14  C3  UNL     1     -23.044   2.245 -25.917  1.00  0.00     0.093 C 
HETATM   15  N3  UNL     1     -23.541   3.273 -26.473  1.00  0.00    -0.388 N 
ATOM     16  H32 UNL     1     -24.096   4.002 -26.023  1.00  0.00     0.157 HD
ATOM     17  H31 UNL     1     -23.363   3.378 -27.471  1.00  0.00     0.157 HD
BRANCH  14  18
HETATM   18  C4  UNL     1     -22.249   1.202 -26.560  1.00  0.00     0.054 C 
HETATM   19  C5  UNL     1     -21.853   1.681 -27.954  1.00  0.00     0.013 C 
HETATM   20  C6  UNL     1     -20.745   0.743 -28.434  1.00  0.00     0.005 C 
HETATM   21  C7  UNL     1     -21.252  -0.664 -28.392  1.00  0.00    -0.019 C 
HETATM   22  C8  UNL     1     -20.355  -1.543 -27.543  1.00  0.00     0.010 C 
HETATM   23  C9  UNL     1     -22.677  -0.781 -27.930  1.00  0.00     0.005 C 
HETATM   24  C10 UNL     1     -22.925  -0.140 -26.594  1.00  0.00     0.013 C 
ENDBRANCH  14  18
ENDBRANCH   1  14
TORSDOF 4
ENDMDL
MODEL 5
REMARK VINA RESULT: -6.944533963      1.829      4.981
REMARK  4 active torsions:
REMARK  status: ('A' for Active; 'I' for Inactive)
REMARK    1  A    between atoms: C2_2  and  C11_18 
REMARK    2  A    between atoms: N1_3  and  N2_5 
REMARK    3  A    between atoms: N2_5  and  C3_7 
REMARK    4  A    between atoms: C3_7  and  C4_11 
ROOT
HETATM    1  N2  UNL     1     -20.273  -2.086 -26.881  1.00  0.00    -0.289 N 
ATOM      2  H2  UNL     1     -19.451  -2.596 -27.207  1.00  0.00     0.188 HD
ENDROOT
BRANCH   1   3
HETATM    3  N1  UNL     1     -21.203  -1.701 -27.720  1.00  0.00    -0.303 N 
HETATM    4  C2  UNL     1     -21.531  -0.829 -28.508  1.00  0.00     0.035 C 
HETATM    5  C1  UNL     1     -22.872  -0.990 -29.241  1.00  0.00     0.070 C 
ATOM      6  H1  UNL     1     -21.940  -2.406 -27.712  1.00  0.00     0.186 HD
BRANCH   4   7
HETATM    7  C11 UNL     1     -20.734   0.365 -28.808  1.00  0.00     0.026 A 
HETATM    8  C12 UNL     1     -19.476   0.263 -29.382  1.00  0.00     0.016 A 
HETATM    9  C13 UNL     1     -18.677   1.376 -29.686  1.00  0.00     0.001 A 
HETATM   10  C14 UNL     1     -19.116   2.646 -29.424  1.00  0.00     0.003 A 
HETATM   11  C15 UNL     1     -20.357   2.761 -28.857  1.00  0.00     0.043 A 
HETATM   12  C16 UNL     1     -21.163   1.652 -28.550  1.00  0.00     0.128 A 
HETATM   13  F1  UNL     1     -22.368   1.864 -27.994  1.00  0.00    -0.205 F 
ENDBRANCH   4   7
ENDBRANCH   1   3
BRANCH   1  14
HETATM   14  C3  UNL     1     -20.443  -1.764 -25.466  1.00  0.00     0.093 C 
HETATM   15  N3  UNL     1     -19.939  -2.583 -24.637  1.00  0.00    -0.388 N 
ATOM     16  H32 UNL     1     -19.430  -3.439 -24.857  1.00  0.00     0.157 HD
ATOM     17  H31 UNL     1     -20.059  -2.358 -23.649  1.00  0.00     0.157 HD
BRANCH  14  18
HETATM   18  C4  UNL     1     -21.172  -0.538 -25.150  1.00  0.00     0.054 C 
HETATM   19  C5  UNL     1     -20.409   0.218 -24.066  1.00  0.00     0.013 C 
HETATM   20  C6  UNL     1     -20.993   1.631 -24.032  1.00  0.00     0.005 C 
HETATM   21  C7  UNL     1     -22.467   1.537 -23.790  1.00  0.00    -0.019 C 
HETATM   22  C8  UNL     1     -23.245   2.240 -24.884  1.00  0.00     0.010 C 
HETATM   23  C9  UNL     1     -22.965   0.130 -23.623  1.00  0.00     0.005 C 
HETATM   24  C10 UNL     1     -22.609  -0.770 -24.773  1.00  0.00     0.013 C 
ENDBRANCH  14  18
ENDBRANCH   1  14
TORSDOF 4
ENDMDL
