MODEL 1
REMARK VINA RESULT: -8.451623787      0.000      0.000
REMARK  3 active torsions:
REMARK  status: ('A' for Active; 'I' for Inactive)
REMARK    1  A    between atoms: N2_5  and  C4_6 
REMARK    2  A    between atoms: C7_11  and  N4_12 
REMARK    3  A    between atoms: C15_22  and  N5_23 
ROOT
HETATM    1  C4  UNL     1      -3.966 -14.115 -18.646  1.00  0.00     0.683 A 
HETATM    2  N3  UNL     1      -4.076 -14.042 -19.973  1.00  0.00    -0.174 N 
ATOM      3  H3  UNL     1      -4.047 -13.123 -20.415  1.00  0.00     0.186 HD
HETATM    4  C5  UNL     1      -4.222 -15.127 -20.751  1.00  0.00     0.154 A 
HETATM    5  C6  UNL     1      -4.257 -16.366 -20.102  1.00  0.00     0.159 A 
HETATM    6  C7  UNL     1      -4.147 -16.464 -18.734  1.00  0.00     0.158 A 
HETATM    7  N6  UNL     1      -4.003 -15.312 -18.053  1.00  0.00    -0.174 N 
ATOM      8  H6  UNL     1      -3.919 -15.355 -17.037  1.00  0.00     0.186 HD
HETATM    9  O1  UNL     1      -4.410 -17.466 -20.928  1.00  0.00    -0.332 OA
HETATM   10  C16 UNL     1      -4.728 -17.437 -22.286  1.00  0.00     0.076 C 
HETATM   11  C17 UNL     1      -3.568 -17.958 -23.146  1.00  0.00     0.048 C 
HETATM   12  C18 UNL     1      -5.904 -18.374 -22.592  1.00  0.00     0.048 C 
HETATM   13  C19 UNL     1      -5.101 -16.090 -22.820  1.00  0.00     0.159 C 
HETATM   14  N7  UNL     1      -4.338 -15.055 -22.147  1.00  0.00    -0.371 N 
ATOM     15  H7  UNL     1      -3.900 -14.298 -22.673  1.00  0.00     0.161 HD
ENDROOT
BRANCH   6  16
HETATM   16  N4  UNL     1      -4.190 -17.752 -18.148  1.00  0.00    -0.336 N 
HETATM   17  C8  UNL     1      -3.108 -18.587 -17.673  1.00  0.00     0.136 C 
HETATM   18  C9  UNL     1      -3.751 -19.663 -16.860  1.00  0.00    -0.015 C 
HETATM   19  C10 UNL     1      -3.107 -19.843 -15.505  1.00  0.00     0.017 C 
HETATM   20  C13 UNL     1      -3.761 -21.000 -17.532  1.00  0.00     0.090 C 
HETATM   21  C14 UNL     1      -5.191 -19.220 -16.673  1.00  0.00     0.065 C 
HETATM   22  C11 UNL     1      -2.975 -21.314 -15.268  1.00  0.00     0.080 C 
HETATM   23  C12 UNL     1      -3.115 -21.991 -16.613  1.00  0.00     0.244 C 
HETATM   24  F1  UNL     1      -1.883 -22.393 -17.090  1.00  0.00    -0.206 F 
HETATM   25  F2  UNL     1      -3.879 -23.135 -16.460  1.00  0.00    -0.206 F 
HETATM   26  C15 UNL     1      -5.461 -18.458 -17.933  1.00  0.00     0.286 C 
BRANCH  26  27
HETATM   27  N5  UNL     1      -5.661 -19.314 -19.069  1.00  0.00    -0.058 N 
ATOM     28  H53 UNL     1      -6.566 -19.180 -19.518  1.00  0.00     0.276 HD
ATOM     29  H52 UNL     1      -5.080 -19.061 -19.867  1.00  0.00     0.276 HD
ATOM     30  H51 UNL     1      -5.509 -20.271 -18.750  1.00  0.00     0.276 HD
ENDBRANCH  26  27
ENDBRANCH   6  16
BRANCH   1  31
HETATM   31  N2  UNL     1      -3.815 -12.950 -17.888  1.00  0.00    -0.210 N 
HETATM   32  C3  UNL     1      -4.126 -11.664 -18.459  1.00  0.00     0.185 C 
HETATM   33  C2  UNL     1      -4.061 -10.513 -17.551  1.00  0.00     0.079 C 
HETATM   34  N1  UNL     1      -4.030 -10.747 -16.168  1.00  0.00    -0.386 N 
HETATM   35  C1  UNL     1      -3.077  -9.974 -15.428  1.00  0.00     0.149 C 
HETATM   36  C21 UNL     1      -4.216 -12.078 -15.719  1.00  0.00     0.040 C 
HETATM   37  C20 UNL     1      -3.345 -13.016 -16.518  1.00  0.00     0.172 C 
HETATM   38  C22 UNL     1      -3.775 -12.166 -14.272  1.00  0.00     0.040 C 
HETATM   39  C23 UNL     1      -5.648 -12.555 -15.796  1.00  0.00     0.040 C 
ENDBRANCH   1  31
TORSDOF 3
ENDMDL
MODEL 2
REMARK VINA RESULT: -8.206090272      1.691      2.284
REMARK  3 active torsions:
REMARK  status: ('A' for Active; 'I' for Inactive)
REMARK    1  A    between atoms: N2_5  and  C4_6 
REMARK    2  A    between atoms: C7_11  and  N4_12 
REMARK    3  A    between atoms: C15_22  and  N5_23 
ROOT
HETATM    1  C4  UNL     1      -4.255 -14.833 -20.479  1.00  0.00     0.683 A 
HETATM    2  N3  UNL     1      -4.269 -15.370 -21.700  1.00  0.00    -0.174 N 
ATOM      3  H3  UNL     1      -4.281 -14.746 -22.507  1.00  0.00     0.186 HD
HETATM    4  C5  UNL     1      -4.268 -16.696 -21.911  1.00  0.00     0.154 A 
HETATM    5  C6  UNL     1      -4.252 -17.514 -20.776  1.00  0.00     0.159 A 
HETATM    6  C7  UNL     1      -4.238 -16.981 -19.507  1.00  0.00     0.158 A 
HETATM    7  N6  UNL     1      -4.241 -15.639 -19.413  1.00  0.00    -0.174 N 
ATOM      8  H6  UNL     1      -4.231 -15.216 -18.484  1.00  0.00     0.186 HD
HETATM    9  O1  UNL     1      -4.252 -18.876 -21.023  1.00  0.00    -0.332 OA
HETATM   10  C16 UNL     1      -4.467 -19.486 -22.259  1.00  0.00     0.076 C 
HETATM   11  C17 UNL     1      -3.207 -20.209 -22.756  1.00  0.00     0.048 C 
HETATM   12  C18 UNL     1      -5.537 -20.581 -22.149  1.00  0.00     0.048 C 
HETATM   13  C19 UNL     1      -4.906 -18.565 -23.353  1.00  0.00     0.159 C 
HETATM   14  N7  UNL     1      -4.283 -17.264 -23.194  1.00  0.00    -0.371 N 
ATOM     15  H7  UNL     1      -3.868 -16.778 -23.990  1.00  0.00     0.161 HD
ENDROOT
BRANCH   6  16
HETATM   16  N4  UNL     1      -4.222 -17.871 -18.406  1.00  0.00    -0.336 N 
HETATM   17  C8  UNL     1      -3.206 -18.072 -17.397  1.00  0.00     0.136 C 
HETATM   18  C9  UNL     1      -3.858 -18.870 -16.316  1.00  0.00    -0.015 C 
HETATM   19  C10 UNL     1      -3.643 -18.285 -14.939  1.00  0.00     0.017 C 
HETATM   20  C13 UNL     1      -3.412 -20.298 -16.269  1.00  0.00     0.090 C 
HETATM   21  C14 UNL     1      -5.341 -18.850 -16.640  1.00  0.00     0.065 C 
HETATM   22  C11 UNL     1      -3.321 -19.420 -14.019  1.00  0.00     0.080 C 
HETATM   23  C12 UNL     1      -2.911 -20.588 -14.888  1.00  0.00     0.244 C 
HETATM   24  F1  UNL     1      -1.541 -20.752 -14.873  1.00  0.00    -0.206 F 
HETATM   25  F2  UNL     1      -3.460 -21.747 -14.367  1.00  0.00    -0.206 F 
HETATM   26  C15 UNL     1      -5.344 -18.782 -18.135  1.00  0.00     0.286 C 
BRANCH  26  27
HETATM   27  N5  UNL     1      -5.021 -20.038 -18.751  1.00  0.00    -0.058 N 
ATOM     28  H53 UNL     1      -5.211 -20.054 -19.752  1.00  0.00     0.276 HD
ATOM     29  H52 UNL     1      -4.018 -20.210 -18.805  1.00  0.00     0.276 HD
ATOM     30  H51 UNL     1      -5.525 -20.760 -18.235  1.00  0.00     0.276 HD
ENDBRANCH  26  27
ENDBRANCH   6  16
BRANCH   1  31
HETATM   31  N2  UNL     1      -4.257 -13.444 -20.321  1.00  0.00    -0.210 N 
HETATM   32  C3  UNL     1      -5.260 -12.639 -20.971  1.00  0.00     0.185 C 
HETATM   33  C2  UNL     1      -5.261 -11.208 -20.645  1.00  0.00     0.079 C 
HETATM   34  N1  UNL     1      -4.540 -10.772 -19.522  1.00  0.00    -0.386 N 
HETATM   35  C1  UNL     1      -3.747  -9.595 -19.711  1.00  0.00     0.149 C 
HETATM   36  C21 UNL     1      -3.977 -11.759 -18.676  1.00  0.00     0.040 C 
HETATM   37  C20 UNL     1      -3.252 -12.793 -19.505  1.00  0.00     0.172 C 
HETATM   38  C22 UNL     1      -2.953 -11.096 -17.776  1.00  0.00     0.040 C 
HETATM   39  C23 UNL     1      -4.984 -12.458 -17.794  1.00  0.00     0.040 C 
ENDBRANCH   1  31
TORSDOF 3
ENDMDL
MODEL 3
REMARK VINA RESULT: -7.984986246      3.933      5.696
REMARK  3 active torsions:
REMARK  status: ('A' for Active; 'I' for Inactive)
REMARK    1  A    between atoms: N2_5  and  C4_6 
REMARK    2  A    between atoms: C7_11  and  N4_12 
REMARK    3  A    between atoms: C15_22  and  N5_23 
ROOT
HETATM    1  C4  UNL     1      -1.991 -15.993 -14.908  1.00  0.00     0.683 A 
HETATM    2  N3  UNL     1      -2.472 -14.751 -14.970  1.00  0.00    -0.174 N 
ATOM      3  H3  UNL     1      -2.033 -14.028 -14.400  1.00  0.00     0.186 HD
HETATM    4  C5  UNL     1      -3.512 -14.412 -15.751  1.00  0.00     0.154 A 
HETATM    5  C6  UNL     1      -4.084 -15.435 -16.514  1.00  0.00     0.159 A 
HETATM    6  C7  UNL     1      -3.604 -16.724 -16.465  1.00  0.00     0.158 A 
HETATM    7  N6  UNL     1      -2.559 -16.951 -15.648  1.00  0.00    -0.174 N 
ATOM      8  H6  UNL     1      -2.182 -17.897 -15.592  1.00  0.00     0.186 HD
HETATM    9  O1  UNL     1      -5.153 -15.058 -17.308  1.00  0.00    -0.332 OA
HETATM   10  C16 UNL     1      -5.819 -13.833 -17.262  1.00  0.00     0.076 C 
HETATM   11  C17 UNL     1      -5.611 -13.031 -18.554  1.00  0.00     0.048 C 
HETATM   12  C18 UNL     1      -7.337 -14.040 -17.160  1.00  0.00     0.048 C 
HETATM   13  C19 UNL     1      -5.430 -12.943 -16.124  1.00  0.00     0.159 C 
HETATM   14  N7  UNL     1      -4.021 -13.107 -15.818  1.00  0.00    -0.371 N 
ATOM     15  H7  UNL     1      -3.420 -12.298 -15.658  1.00  0.00     0.161 HD
ENDROOT
BRANCH   6  16
HETATM   16  N4  UNL     1      -4.234 -17.706 -17.266  1.00  0.00    -0.336 N 
HETATM   17  C8  UNL     1      -3.914 -18.149 -18.605  1.00  0.00     0.136 C 
HETATM   18  C9  UNL     1      -4.681 -19.415 -18.810  1.00  0.00    -0.015 C 
HETATM   19  C10 UNL     1      -3.828 -20.542 -19.346  1.00  0.00     0.017 C 
HETATM   20  C13 UNL     1      -5.854 -19.267 -19.727  1.00  0.00     0.090 C 
HETATM   21  C14 UNL     1      -5.203 -19.795 -17.435  1.00  0.00     0.065 C 
HETATM   22  C11 UNL     1      -4.618 -21.226 -20.416  1.00  0.00     0.080 C 
HETATM   23  C12 UNL     1      -5.720 -20.275 -20.826  1.00  0.00     0.244 C 
HETATM   24  F1  UNL     1      -5.422 -19.671 -22.031  1.00  0.00    -0.206 F 
HETATM   25  F2  UNL     1      -6.886 -20.997 -21.016  1.00  0.00    -0.206 F 
HETATM   26  C15 UNL     1      -5.400 -18.462 -16.784  1.00  0.00     0.286 C 
BRANCH  26  27
HETATM   27  N5  UNL     1      -6.568 -17.777 -17.260  1.00  0.00    -0.058 N 
ATOM     28  H53 UNL     1      -6.982 -17.158 -16.563  1.00  0.00     0.276 HD
ATOM     29  H52 UNL     1      -6.358 -17.064 -17.959  1.00  0.00     0.276 HD
ATOM     30  H51 UNL     1      -7.214 -18.491 -17.597  1.00  0.00     0.276 HD
ENDBRANCH  26  27
ENDBRANCH   6  16
BRANCH   1  31
HETATM   31  N2  UNL     1      -0.906 -16.287 -14.076  1.00  0.00    -0.210 N 
HETATM   32  C3  UNL     1       0.330 -15.557 -14.207  1.00  0.00     0.185 C 
HETATM   33  C2  UNL     1       1.367 -15.845 -13.209  1.00  0.00     0.079 C 
HETATM   34  N1  UNL     1       1.004 -16.531 -12.040  1.00  0.00    -0.386 N 
HETATM   35  C1  UNL     1       1.889 -17.582 -11.635  1.00  0.00     0.149 C 
HETATM   36  C21 UNL     1      -0.374 -16.774 -11.817  1.00  0.00     0.040 C 
HETATM   37  C20 UNL     1      -1.007 -17.326 -13.072  1.00  0.00     0.172 C 
HETATM   38  C22 UNL     1      -0.510 -17.826 -10.735  1.00  0.00     0.040 C 
HETATM   39  C23 UNL     1      -1.148 -15.554 -11.375  1.00  0.00     0.040 C 
ENDBRANCH   1  31
TORSDOF 3
ENDMDL
MODEL 4
REMARK VINA RESULT: -7.966755464      3.883      7.031
REMARK  3 active torsions:
REMARK  status: ('A' for Active; 'I' for Inactive)
REMARK    1  A    between atoms: N2_5  and  C4_6 
REMARK    2  A    between atoms: C7_11  and  N4_12 
REMARK    3  A    between atoms: C15_22  and  N5_23 
ROOT
HETATM    1  C4  UNL     1      -3.701 -19.469 -16.380  1.00  0.00     0.683 A 
HETATM    2  N3  UNL     1      -3.749 -20.536 -17.179  1.00  0.00    -0.174 N 
ATOM      3  H3  UNL     1      -3.613 -21.460 -16.769  1.00  0.00     0.186 HD
HETATM    4  C5  UNL     1      -3.968 -20.444 -18.502  1.00  0.00     0.154 A 
HETATM    5  C6  UNL     1      -4.148 -19.157 -19.021  1.00  0.00     0.159 A 
HETATM    6  C7  UNL     1      -4.101 -18.044 -18.214  1.00  0.00     0.158 A 
HETATM    7  N6  UNL     1      -3.876 -18.252 -16.904  1.00  0.00    -0.174 N 
ATOM      8  H6  UNL     1      -3.836 -17.444 -16.282  1.00  0.00     0.186 HD
HETATM    9  O1  UNL     1      -4.372 -19.092 -20.386  1.00  0.00    -0.332 OA
HETATM   10  C16 UNL     1      -4.234 -20.144 -21.292  1.00  0.00     0.076 C 
HETATM   11  C17 UNL     1      -5.585 -20.542 -21.900  1.00  0.00     0.048 C 
HETATM   12  C18 UNL     1      -3.366 -19.725 -22.486  1.00  0.00     0.048 C 
HETATM   13  C19 UNL     1      -3.620 -21.388 -20.730  1.00  0.00     0.159 C 
HETATM   14  N7  UNL     1      -4.020 -21.563 -19.346  1.00  0.00    -0.371 N 
ATOM     15  H7  UNL     1      -4.327 -22.471 -18.998  1.00  0.00     0.161 HD
ENDROOT
BRANCH   6  16
HETATM   16  N4  UNL     1      -4.293 -16.774 -18.811  1.00  0.00    -0.336 N 
HETATM   17  C8  UNL     1      -5.514 -16.027 -19.020  1.00  0.00     0.136 C 
HETATM   18  C9  UNL     1      -5.087 -14.640 -19.373  1.00  0.00    -0.015 C 
HETATM   19  C10 UNL     1      -5.797 -13.579 -18.564  1.00  0.00     0.017 C 
HETATM   20  C13 UNL     1      -5.277 -14.301 -20.818  1.00  0.00     0.090 C 
HETATM   21  C14 UNL     1      -3.600 -14.587 -19.069  1.00  0.00     0.065 C 
HETATM   22  C11 UNL     1      -6.180 -12.483 -19.507  1.00  0.00     0.080 C 
HETATM   23  C12 UNL     1      -6.110 -13.059 -20.903  1.00  0.00     0.244 C 
HETATM   24  F1  UNL     1      -7.374 -13.331 -21.386  1.00  0.00    -0.206 F 
HETATM   25  F2  UNL     1      -5.552 -12.114 -21.748  1.00  0.00    -0.206 F 
HETATM   26  C15 UNL     1      -3.165 -15.993 -19.339  1.00  0.00     0.286 C 
BRANCH  26  27
HETATM   27  N5  UNL     1      -3.073 -16.288 -20.741  1.00  0.00    -0.058 N 
ATOM     28  H53 UNL     1      -3.543 -17.154 -21.001  1.00  0.00     0.276 HD
ATOM     29  H52 UNL     1      -3.629 -15.659 -21.320  1.00  0.00     0.276 HD
ATOM     30  H51 UNL     1      -2.081 -16.282 -20.982  1.00  0.00     0.276 HD
ENDBRANCH  26  27
ENDBRANCH   6  16
BRANCH   1  31
HETATM   31  N2  UNL     1      -3.469 -19.627 -15.010  1.00  0.00    -0.210 N 
HETATM   32  C3  UNL     1      -2.686 -20.737 -14.527  1.00  0.00     0.185 C 
HETATM   33  C2  UNL     1      -2.388 -20.750 -13.090  1.00  0.00     0.079 C 
HETATM   34  N1  UNL     1      -2.581 -19.572 -12.352  1.00  0.00    -0.386 N 
HETATM   35  C1  UNL     1      -3.236 -19.731 -11.088  1.00  0.00     0.149 C 
HETATM   36  C21 UNL     1      -2.908 -18.392 -13.065  1.00  0.00     0.040 C 
HETATM   37  C20 UNL     1      -4.010 -18.680 -14.056  1.00  0.00     0.172 C 
HETATM   38  C22 UNL     1      -3.435 -17.365 -12.083  1.00  0.00     0.040 C 
HETATM   39  C23 UNL     1      -1.740 -17.775 -13.797  1.00  0.00     0.040 C 
ENDBRANCH   1  31
TORSDOF 3
ENDMDL
MODEL 5
REMARK VINA RESULT: -7.914192647      4.443      6.709
REMARK  3 active torsions:
REMARK  status: ('A' for Active; 'I' for Inactive)
REMARK    1  A    between atoms: N2_5  and  C4_6 
REMARK    2  A    between atoms: C7_11  and  N4_12 
REMARK    3  A    between atoms: C15_22  and  N5_23 
ROOT
HETATM    1  C4  UNL     1      -3.695 -18.605 -16.995  1.00  0.00     0.683 A 
HETATM    2  N3  UNL     1      -3.563 -19.764 -17.642  1.00  0.00    -0.174 N 
ATOM      3  H3  UNL     1      -2.876 -20.437 -17.302  1.00  0.00     0.186 HD
HETATM    4  C5  UNL     1      -4.296 -20.081 -18.723  1.00  0.00     0.154 A 
HETATM    5  C6  UNL     1      -5.224 -19.129 -19.155  1.00  0.00     0.159 A 
HETATM    6  C7  UNL     1      -5.377 -17.927 -18.503  1.00  0.00     0.158 A 
HETATM    7  N6  UNL     1      -4.591 -17.713 -17.431  1.00  0.00    -0.174 N 
ATOM      8  H6  UNL     1      -4.682 -16.831 -16.928  1.00  0.00     0.186 HD
HETATM    9  O1  UNL     1      -5.964 -19.482 -20.270  1.00  0.00    -0.332 OA
HETATM   10  C16 UNL     1      -5.731 -20.580 -21.097  1.00  0.00     0.076 C 
HETATM   11  C17 UNL     1      -6.871 -21.603 -21.008  1.00  0.00     0.048 C 
HETATM   12  C18 UNL     1      -5.689 -20.156 -22.571  1.00  0.00     0.048 C 
HETATM   13  C19 UNL     1      -4.457 -21.318 -20.826  1.00  0.00     0.159 C 
HETATM   14  N7  UNL     1      -4.159 -21.299 -19.406  1.00  0.00    -0.371 N 
ATOM     15  H7  UNL     1      -3.859 -22.144 -18.920  1.00  0.00     0.161 HD
ENDROOT
BRANCH   6  16
HETATM   16  N4  UNL     1      -6.337 -17.011 -18.998  1.00  0.00    -0.336 N 
HETATM   17  C8  UNL     1      -7.657 -16.697 -18.496  1.00  0.00     0.136 C 
HETATM   18  C9  UNL     1      -8.071 -15.444 -19.195  1.00  0.00    -0.015 C 
HETATM   19  C10 UNL     1      -8.589 -14.384 -18.250  1.00  0.00     0.017 C 
HETATM   20  C13 UNL     1      -9.117 -15.657 -20.244  1.00  0.00     0.090 C 
HETATM   21  C14 UNL     1      -6.816 -14.932 -19.879  1.00  0.00     0.065 C 
HETATM   22  C11 UNL     1      -9.809 -13.788 -18.877  1.00  0.00     0.080 C 
HETATM   23  C12 UNL     1     -10.274 -14.755 -19.942  1.00  0.00     0.244 C 
HETATM   24  F1  UNL     1     -11.371 -15.471 -19.508  1.00  0.00    -0.206 F 
HETATM   25  F2  UNL     1     -10.678 -14.035 -21.053  1.00  0.00    -0.206 F 
HETATM   26  C15 UNL     1      -6.080 -16.197 -20.194  1.00  0.00     0.286 C 
BRANCH  26  27
HETATM   27  N5  UNL     1      -6.643 -16.904 -21.310  1.00  0.00    -0.058 N 
ATOM     28  H53 UNL     1      -6.368 -16.515 -22.211  1.00  0.00     0.276 HD
ATOM     29  H52 UNL     1      -6.239 -17.832 -21.440  1.00  0.00     0.276 HD
ATOM     30  H51 UNL     1      -7.653 -16.922 -21.171  1.00  0.00     0.276 HD
ENDBRANCH  26  27
ENDBRANCH   6  16
BRANCH   1  31
HETATM   31  N2  UNL     1      -2.904 -18.330 -15.876  1.00  0.00    -0.210 N 
HETATM   32  C3  UNL     1      -2.310 -17.029 -15.706  1.00  0.00     0.185 C 
HETATM   33  C2  UNL     1      -1.604 -16.793 -14.441  1.00  0.00     0.079 C 
HETATM   34  N1  UNL     1      -1.818 -17.680 -13.375  1.00  0.00    -0.386 N 
HETATM   35  C1  UNL     1      -0.644 -18.098 -12.669  1.00  0.00     0.149 C 
HETATM   36  C21 UNL     1      -2.821 -18.669 -13.530  1.00  0.00     0.040 C 
HETATM   37  C20 UNL     1      -2.670 -19.347 -14.870  1.00  0.00     0.172 C 
HETATM   38  C22 UNL     1      -2.628 -19.724 -12.460  1.00  0.00     0.040 C 
HETATM   39  C23 UNL     1      -4.229 -18.137 -13.407  1.00  0.00     0.040 C 
ENDBRANCH   1  31
TORSDOF 3
ENDMDL
