MODEL 1
REMARK VINA RESULT: -7.012329965      0.000      0.000
REMARK  8 active torsions:
REMARK  status: ('A' for Active; 'I' for Inactive)
REMARK    1  A    between atoms: C2_2  and  C3_3 
REMARK    2  A    between atoms: C3_3  and  C6_6 
REMARK    3  A    between atoms: C6_6  and  C9_9 
REMARK    4  A    between atoms: C13_13  and  C14_14 
REMARK    5  A    between atoms: C14_14  and  O2_16 
REMARK    6  A    between atoms: C25_27  and  O3_28 
REMARK    7  A    between atoms: C26_30  and  O4_31 
REMARK    8  A    between atoms: C30_37  and  O6_38 
ROOT
HETATM    1  C9  UNL     1       2.810  38.113  24.397  1.00  0.00     0.059 C 
HETATM    2  C10 UNL     1       3.230  39.224  23.787  1.00  0.00    -0.040 C 
HETATM    3  C11 UNL     1       3.204  39.279  22.356  1.00  0.00     0.038 C 
HETATM    4  C12 UNL     1       3.348  40.775  21.975  1.00  0.00     0.020 C 
HETATM    5  C13 UNL     1       3.115  41.492  23.264  1.00  0.00     0.099 C 
HETATM    6  C16 UNL     1       3.795  40.570  24.201  1.00  0.00     0.002 C 
HETATM    7  C17 UNL     1       5.243  40.527  23.661  1.00  0.00     0.022 C 
HETATM    8  C18 UNL     1       3.769  40.899  25.632  1.00  0.00    -0.028 C 
HETATM    9  C19 UNL     1       4.143  42.410  25.672  1.00  0.00     0.016 C 
HETATM   10  C20 UNL     1       2.418  40.841  26.230  1.00  0.00     0.011 C 
HETATM   11  C21 UNL     1       2.381  40.447  27.693  1.00  0.00     0.016 C 
HETATM   12  C22 UNL     1       2.686  39.017  27.919  1.00  0.00     0.019 C 
HETATM   13  C23 UNL     1       3.267  38.936  29.343  1.00  0.00     0.018 C 
HETATM   14  C24 UNL     1       2.047  39.228  30.239  1.00  0.00     0.035 C 
HETATM   15  C25 UNL     1       1.021  38.373  29.597  1.00  0.00     0.147 C 
HETATM   16  C26 UNL     1       1.398  38.245  28.169  1.00  0.00     0.158 C 
HETATM   17  C27 UNL     1       3.513  38.278  26.953  1.00  0.00     0.170 C 
HETATM   18  O5  UNL     1       2.756  37.889  25.792  1.00  0.00    -0.344 OA
HETATM   19  C28 UNL     1       4.853  38.804  26.605  1.00  0.00    -0.029 C 
HETATM   20  C29 UNL     1       6.081  38.377  27.243  1.00  0.00     0.022 C 
HETATM   21  C30 UNL     1       6.371  36.870  27.156  1.00  0.00     0.164 C 
HETATM   22  C31 UNL     1       7.820  36.846  27.628  1.00  0.00     0.057 C 
HETATM   23  C32 UNL     1       7.916  38.088  28.358  1.00  0.00     0.066 C 
HETATM   24  C33 UNL     1       8.389  38.163  29.733  1.00  0.00     0.021 C 
HETATM   25  C34 UNL     1       7.933  39.605  30.044  1.00  0.00     0.017 C 
HETATM   26  C35 UNL     1       6.978  39.958  28.883  1.00  0.00     0.096 C 
HETATM   27  N1  UNL     1       6.537  38.646  28.507  1.00  0.00    -0.280 NA
HETATM   28  C36 UNL     1       4.843  40.296  26.481  1.00  0.00     0.048 C 
ENDROOT
BRANCH  21  29
HETATM   29  O6  UNL     1       5.720  36.164  28.178  1.00  0.00    -0.390 OA
ATOM     30  H6  UNL     1       4.963  35.695  27.847  1.00  0.00     0.210 HD
ENDBRANCH  21  29
BRANCH  16  31
HETATM   31  O4  UNL     1       0.385  38.702  27.329  1.00  0.00    -0.392 OA
ATOM     32  H4  UNL     1      -0.342  39.040  27.839  1.00  0.00     0.210 HD
ENDBRANCH  16  31
BRANCH   1  33
HETATM   33  C6  UNL     1       2.355  37.020  23.542  1.00  0.00     0.012 C 
HETATM   34  C7  UNL     1       2.988  37.101  22.137  1.00  0.00     0.023 C 
HETATM   35  C8  UNL     1       0.924  36.662  23.567  1.00  0.00     0.023 C 
BRANCH  33  36
HETATM   36  C3  UNL     1       3.016  35.687  23.996  1.00  0.00    -0.018 C 
HETATM   37  C4  UNL     1       2.281  35.076  25.152  1.00  0.00     0.020 C 
HETATM   38  C5  UNL     1       4.473  35.842  24.146  1.00  0.00     0.020 C 
BRANCH  36  39
HETATM   39  C2  UNL     1       2.782  34.676  22.879  1.00  0.00    -0.027 C 
HETATM   40  C1  UNL     1       3.115  33.406  22.972  1.00  0.00     0.007 C 
ENDBRANCH  36  39
ENDBRANCH  33  36
ENDBRANCH   1  33
BRANCH  15  41
HETATM   41  O3  UNL     1       1.038  37.120  30.233  1.00  0.00    -0.393 OA
ATOM     42  H3  UNL     1       1.372  36.481  29.615  1.00  0.00     0.210 HD
ENDBRANCH  15  41
BRANCH   5  43
HETATM   43  C14 UNL     1       1.743  41.870  23.364  1.00  0.00     0.263 C 
HETATM   44  O1  UNL     1       1.277  42.924  23.890  1.00  0.00    -0.265 OA
BRANCH  43  45
HETATM   45  O2  UNL     1       0.742  41.051  22.854  1.00  0.00    -0.326 OA
HETATM   46  C15 UNL     1      -0.239  40.420  23.640  1.00  0.00     0.213 C 
ENDBRANCH  43  45
ENDBRANCH   5  43
TORSDOF 8
ENDMDL
MODEL 2
REMARK VINA RESULT: -6.733590149      2.202      5.512
REMARK  8 active torsions:
REMARK  status: ('A' for Active; 'I' for Inactive)
REMARK    1  A    between atoms: C2_2  and  C3_3 
REMARK    2  A    between atoms: C3_3  and  C6_6 
REMARK    3  A    between atoms: C6_6  and  C9_9 
REMARK    4  A    between atoms: C13_13  and  C14_14 
REMARK    5  A    between atoms: C14_14  and  O2_16 
REMARK    6  A    between atoms: C25_27  and  O3_28 
REMARK    7  A    between atoms: C26_30  and  O4_31 
REMARK    8  A    between atoms: C30_37  and  O6_38 
ROOT
HETATM    1  C9  UNL     1       3.556  39.421  25.058  1.00  0.00     0.059 C 
HETATM    2  C10 UNL     1       2.585  38.523  24.869  1.00  0.00    -0.040 C 
HETATM    3  C11 UNL     1       1.805  38.592  23.669  1.00  0.00     0.038 C 
HETATM    4  C12 UNL     1       1.072  37.231  23.548  1.00  0.00     0.020 C 
HETATM    5  C13 UNL     1       1.768  36.364  24.546  1.00  0.00     0.099 C 
HETATM    6  C16 UNL     1       1.998  37.348  25.628  1.00  0.00     0.002 C 
HETATM    7  C17 UNL     1       0.569  37.828  25.974  1.00  0.00     0.022 C 
HETATM    8  C18 UNL     1       2.714  36.897  26.829  1.00  0.00    -0.028 C 
HETATM    9  C19 UNL     1       2.028  35.546  27.185  1.00  0.00     0.016 C 
HETATM   10  C20 UNL     1       4.125  36.535  26.576  1.00  0.00     0.011 C 
HETATM   11  C21 UNL     1       5.066  36.772  27.741  1.00  0.00     0.016 C 
HETATM   12  C22 UNL     1       5.341  38.205  27.986  1.00  0.00     0.019 C 
HETATM   13  C23 UNL     1       5.686  38.311  29.483  1.00  0.00     0.018 C 
HETATM   14  C24 UNL     1       7.061  37.622  29.577  1.00  0.00     0.035 C 
HETATM   15  C25 UNL     1       7.753  38.223  28.413  1.00  0.00     0.147 C 
HETATM   16  C26 UNL     1       6.706  38.575  27.424  1.00  0.00     0.158 C 
HETATM   17  C27 UNL     1       4.359  39.223  27.582  1.00  0.00     0.170 C 
HETATM   18  O5  UNL     1       4.426  39.496  26.170  1.00  0.00    -0.344 OA
HETATM   19  C28 UNL     1       2.966  39.111  28.072  1.00  0.00    -0.029 C 
HETATM   20  C29 UNL     1       2.464  39.795  29.245  1.00  0.00     0.022 C 
HETATM   21  C30 UNL     1       2.599  41.325  29.216  1.00  0.00     0.164 C 
HETATM   22  C31 UNL     1       1.721  41.697  30.405  1.00  0.00     0.057 C 
HETATM   23  C32 UNL     1       1.706  40.466  31.161  1.00  0.00     0.066 C 
HETATM   24  C33 UNL     1       2.067  40.399  32.569  1.00  0.00     0.021 C 
HETATM   25  C34 UNL     1       2.204  38.866  32.688  1.00  0.00     0.017 C 
HETATM   26  C35 UNL     1       2.223  38.374  31.225  1.00  0.00     0.096 C 
HETATM   27  N1  UNL     1       2.724  39.547  30.568  1.00  0.00    -0.280 NA
HETATM   28  C36 UNL     1       2.497  37.689  28.079  1.00  0.00     0.048 C 
ENDROOT
BRANCH  21  29
HETATM   29  O6  UNL     1       3.867  41.735  29.652  1.00  0.00    -0.390 OA
ATOM     30  H6  UNL     1       4.474  41.814  28.926  1.00  0.00     0.210 HD
ENDBRANCH  21  29
BRANCH  16  31
HETATM   31  O4  UNL     1       6.920  37.939  26.204  1.00  0.00    -0.392 OA
ATOM     32  H4  UNL     1       7.742  37.463  26.217  1.00  0.00     0.210 HD
ENDBRANCH  16  31
BRANCH   1  33
HETATM   33  C6  UNL     1       3.744  40.422  24.012  1.00  0.00     0.012 C 
HETATM   34  C7  UNL     1       3.803  41.848  24.599  1.00  0.00     0.023 C 
HETATM   35  C8  UNL     1       2.966  40.286  22.766  1.00  0.00     0.023 C 
BRANCH  33  36
HETATM   36  C3  UNL     1       5.203  40.353  23.475  1.00  0.00    -0.018 C 
HETATM   37  C4  UNL     1       5.622  38.939  23.206  1.00  0.00     0.020 C 
HETATM   38  C5  UNL     1       6.111  41.167  24.301  1.00  0.00     0.020 C 
BRANCH  36  39
HETATM   39  C2  UNL     1       5.188  40.969  22.080  1.00  0.00    -0.027 C 
HETATM   40  C1  UNL     1       6.239  40.988  21.287  1.00  0.00     0.007 C 
ENDBRANCH  36  39
ENDBRANCH  33  36
ENDBRANCH   1  33
BRANCH  15  41
HETATM   41  O3  UNL     1       8.431  39.371  28.853  1.00  0.00    -0.393 OA
ATOM     42  H3  UNL     1       8.498  39.329  29.800  1.00  0.00     0.210 HD
ENDBRANCH  15  41
BRANCH   5  43
HETATM   43  C14 UNL     1       2.803  35.623  23.903  1.00  0.00     0.263 C 
HETATM   44  O1  UNL     1       3.733  36.083  23.176  1.00  0.00    -0.265 OA
BRANCH  43  45
HETATM   45  O2  UNL     1       2.875  34.241  24.035  1.00  0.00    -0.326 OA
HETATM   46  C15 UNL     1       3.063  33.353  22.959  1.00  0.00     0.213 C 
ENDBRANCH  43  45
ENDBRANCH   5  43
TORSDOF 8
ENDMDL
MODEL 3
REMARK VINA RESULT: -6.654651884      2.343      6.582
REMARK  8 active torsions:
REMARK  status: ('A' for Active; 'I' for Inactive)
REMARK    1  A    between atoms: C2_2  and  C3_3 
REMARK    2  A    between atoms: C3_3  and  C6_6 
REMARK    3  A    between atoms: C6_6  and  C9_9 
REMARK    4  A    between atoms: C13_13  and  C14_14 
REMARK    5  A    between atoms: C14_14  and  O2_16 
REMARK    6  A    between atoms: C25_27  and  O3_28 
REMARK    7  A    between atoms: C26_30  and  O4_31 
REMARK    8  A    between atoms: C30_37  and  O6_38 
ROOT
HETATM    1  C9  UNL     1       3.370  38.225  25.281  1.00  0.00     0.059 C 
HETATM    2  C10 UNL     1       3.506  38.490  26.582  1.00  0.00    -0.040 C 
HETATM    3  C11 UNL     1       2.837  37.651  27.532  1.00  0.00     0.038 C 
HETATM    4  C12 UNL     1       3.494  37.941  28.907  1.00  0.00     0.020 C 
HETATM    5  C13 UNL     1       4.728  38.704  28.555  1.00  0.00     0.099 C 
HETATM    6  C16 UNL     1       4.216  39.525  27.435  1.00  0.00     0.002 C 
HETATM    7  C17 UNL     1       3.051  40.311  28.081  1.00  0.00     0.022 C 
HETATM    8  C18 UNL     1       5.155  40.427  26.755  1.00  0.00    -0.028 C 
HETATM    9  C19 UNL     1       5.896  41.141  27.924  1.00  0.00     0.016 C 
HETATM   10  C20 UNL     1       6.228  39.722  26.021  1.00  0.00     0.011 C 
HETATM   11  C21 UNL     1       6.738  40.439  24.788  1.00  0.00     0.016 C 
HETATM   12  C22 UNL     1       5.777  40.422  23.664  1.00  0.00     0.019 C 
HETATM   13  C23 UNL     1       6.094  41.675  22.827  1.00  0.00     0.018 C 
HETATM   14  C24 UNL     1       7.456  41.338  22.189  1.00  0.00     0.035 C 
HETATM   15  C25 UNL     1       7.213  39.948  21.736  1.00  0.00     0.147 C 
HETATM   16  C26 UNL     1       6.191  39.372  22.642  1.00  0.00     0.158 C 
HETATM   17  C27 UNL     1       4.335  40.297  23.929  1.00  0.00     0.170 C 
HETATM   18  O5  UNL     1       3.963  38.936  24.212  1.00  0.00    -0.344 OA
HETATM   19  C28 UNL     1       3.688  41.264  24.844  1.00  0.00    -0.029 C 
HETATM   20  C29 UNL     1       3.006  42.463  24.404  1.00  0.00     0.022 C 
HETATM   21  C30 UNL     1       1.848  42.233  23.421  1.00  0.00     0.164 C 
HETATM   22  C31 UNL     1       1.203  43.613  23.433  1.00  0.00     0.057 C 
HETATM   23  C32 UNL     1       2.288  44.444  23.899  1.00  0.00     0.066 C 
HETATM   24  C33 UNL     1       2.742  45.628  23.184  1.00  0.00     0.021 C 
HETATM   25  C34 UNL     1       4.071  45.845  23.938  1.00  0.00     0.017 C 
HETATM   26  C35 UNL     1       4.280  44.531  24.721  1.00  0.00     0.096 C 
HETATM   27  N1  UNL     1       3.536  43.622  23.897  1.00  0.00    -0.280 NA
HETATM   28  C36 UNL     1       4.562  41.584  26.016  1.00  0.00     0.048 C 
ENDROOT
BRANCH  21  29
HETATM   29  O6  UNL     1       2.310  42.139  22.100  1.00  0.00    -0.390 OA
ATOM     30  H6  UNL     1       2.956  42.808  21.910  1.00  0.00     0.210 HD
ENDBRANCH  21  29
BRANCH  16  31
HETATM   31  O4  UNL     1       6.661  38.228  23.282  1.00  0.00    -0.392 OA
ATOM     32  H4  UNL     1       6.918  37.573  22.645  1.00  0.00     0.210 HD
ENDBRANCH  16  31
BRANCH   1  33
HETATM   33  C6  UNL     1       2.530  37.085  24.922  1.00  0.00     0.012 C 
HETATM   34  C7  UNL     1       1.326  37.520  24.061  1.00  0.00     0.023 C 
HETATM   35  C8  UNL     1       2.231  36.083  25.962  1.00  0.00     0.023 C 
BRANCH  33  36
HETATM   36  C3  UNL     1       3.253  36.216  23.853  1.00  0.00    -0.018 C 
HETATM   37  C4  UNL     1       4.667  35.917  24.254  1.00  0.00     0.020 C 
HETATM   38  C5  UNL     1       3.050  36.761  22.500  1.00  0.00     0.020 C 
BRANCH  36  39
HETATM   39  C2  UNL     1       2.598  34.840  23.888  1.00  0.00    -0.027 C 
HETATM   40  C1  UNL     1       3.053  33.804  23.214  1.00  0.00     0.007 C 
ENDBRANCH  36  39
ENDBRANCH  33  36
ENDBRANCH   1  33
BRANCH  15  41
HETATM   41  O3  UNL     1       6.740  39.996  20.414  1.00  0.00    -0.393 OA
ATOM     42  H3  UNL     1       6.894  39.148  20.015  1.00  0.00     0.210 HD
ENDBRANCH  15  41
BRANCH   5  43
HETATM   43  C14 UNL     1       5.835  37.810  28.454  1.00  0.00     0.263 C 
HETATM   44  O1  UNL     1       5.905  36.757  27.754  1.00  0.00    -0.265 OA
BRANCH  43  45
HETATM   45  O2  UNL     1       7.005  38.045  29.167  1.00  0.00    -0.326 OA
HETATM   46  C15 UNL     1       7.796  37.034  29.742  1.00  0.00     0.213 C 
ENDBRANCH  43  45
ENDBRANCH   5  43
TORSDOF 8
ENDMDL
MODEL 4
REMARK VINA RESULT: -6.583122545      2.205      7.084
REMARK  8 active torsions:
REMARK  status: ('A' for Active; 'I' for Inactive)
REMARK    1  A    between atoms: C2_2  and  C3_3 
REMARK    2  A    between atoms: C3_3  and  C6_6 
REMARK    3  A    between atoms: C6_6  and  C9_9 
REMARK    4  A    between atoms: C13_13  and  C14_14 
REMARK    5  A    between atoms: C14_14  and  O2_16 
REMARK    6  A    between atoms: C25_27  and  O3_28 
REMARK    7  A    between atoms: C26_30  and  O4_31 
REMARK    8  A    between atoms: C30_37  and  O6_38 
ROOT
HETATM    1  C9  UNL     1       4.248  39.827  28.683  1.00  0.00     0.059 C 
HETATM    2  C10 UNL     1       5.480  39.522  28.269  1.00  0.00    -0.040 C 
HETATM    3  C11 UNL     1       6.600  40.130  28.926  1.00  0.00     0.038 C 
HETATM    4  C12 UNL     1       7.844  39.299  28.521  1.00  0.00     0.020 C 
HETATM    5  C13 UNL     1       7.264  38.066  27.910  1.00  0.00     0.099 C 
HETATM    6  C16 UNL     1       6.106  38.650  27.197  1.00  0.00     0.002 C 
HETATM    7  C17 UNL     1       6.763  39.676  26.245  1.00  0.00     0.022 C 
HETATM    8  C18 UNL     1       5.216  37.738  26.467  1.00  0.00    -0.028 C 
HETATM    9  C19 UNL     1       6.192  36.820  25.674  1.00  0.00     0.016 C 
HETATM   10  C20 UNL     1       4.471  36.808  27.343  1.00  0.00     0.011 C 
HETATM   11  C21 UNL     1       3.106  36.399  26.828  1.00  0.00     0.016 C 
HETATM   12  C22 UNL     1       2.103  37.484  26.908  1.00  0.00     0.019 C 
HETATM   13  C23 UNL     1       1.078  37.184  25.799  1.00  0.00     0.018 C 
HETATM   14  C24 UNL     1       0.348  35.932  26.322  1.00  0.00     0.035 C 
HETATM   15  C25 UNL     1       0.113  36.318  27.734  1.00  0.00     0.147 C 
HETATM   16  C26 UNL     1       1.192  37.263  28.107  1.00  0.00     0.158 C 
HETATM   17  C27 UNL     1       2.536  38.890  26.881  1.00  0.00     0.170 C 
HETATM   18  O5  UNL     1       3.036  39.317  28.161  1.00  0.00    -0.344 OA
HETATM   19  C28 UNL     1       3.378  39.360  25.758  1.00  0.00    -0.029 C 
HETATM   20  C29 UNL     1       2.858  40.007  24.572  1.00  0.00     0.022 C 
HETATM   21  C30 UNL     1       2.044  41.285  24.828  1.00  0.00     0.164 C 
HETATM   22  C31 UNL     1       1.941  41.830  23.409  1.00  0.00     0.057 C 
HETATM   23  C32 UNL     1       2.174  40.646  22.617  1.00  0.00     0.066 C 
HETATM   24  C33 UNL     1       1.262  40.201  21.573  1.00  0.00     0.021 C 
HETATM   25  C34 UNL     1       1.834  38.781  21.372  1.00  0.00     0.017 C 
HETATM   26  C35 UNL     1       2.758  38.570  22.591  1.00  0.00     0.096 C 
HETATM   27  N1  UNL     1       2.148  39.464  23.532  1.00  0.00    -0.280 NA
HETATM   28  C36 UNL     1       4.397  38.335  25.366  1.00  0.00     0.048 C 
ENDROOT
BRANCH  21  29
HETATM   29  O6  UNL     1       0.706  40.988  25.124  1.00  0.00    -0.390 OA
ATOM     30  H6  UNL     1       0.455  41.328  25.975  1.00  0.00     0.210 HD
ENDBRANCH  21  29
BRANCH  16  31
HETATM   31  O4  UNL     1       1.925  36.799  29.196  1.00  0.00    -0.392 OA
ATOM     32  H4  UNL     1       1.541  36.001  29.539  1.00  0.00     0.210 HD
ENDBRANCH  16  31
BRANCH   1  33
HETATM   33  C6  UNL     1       4.136  40.777  29.786  1.00  0.00     0.012 C 
HETATM   34  C7  UNL     1       3.092  41.872  29.485  1.00  0.00     0.023 C 
HETATM   35  C8  UNL     1       5.376  41.249  30.430  1.00  0.00     0.023 C 
BRANCH  33  36
HETATM   36  C3  UNL     1       3.402  40.107  30.983  1.00  0.00    -0.018 C 
HETATM   37  C4  UNL     1       3.734  38.648  31.085  1.00  0.00     0.020 C 
HETATM   38  C5  UNL     1       1.973  40.462  30.996  1.00  0.00     0.020 C 
BRANCH  36  39
HETATM   39  C2  UNL     1       4.020  40.680  32.254  1.00  0.00    -0.027 C 
HETATM   40  C1  UNL     1       3.745  40.227  33.460  1.00  0.00     0.007 C 
ENDBRANCH  36  39
ENDBRANCH  33  36
ENDBRANCH   1  33
BRANCH  15  41
HETATM   41  O3  UNL     1      -1.145  36.938  27.813  1.00  0.00    -0.393 OA
ATOM     42  H3  UNL     1      -1.803  36.303  27.555  1.00  0.00     0.210 HD
ENDBRANCH  15  41
BRANCH   5  43
HETATM   43  C14 UNL     1       7.165  37.041  28.897  1.00  0.00     0.263 C 
HETATM   44  O1  UNL     1       6.816  37.176  30.107  1.00  0.00    -0.265 OA
BRANCH  43  45
HETATM   45  O2  UNL     1       7.463  35.720  28.581  1.00  0.00    -0.326 OA
HETATM   46  C15 UNL     1       8.648  35.308  27.944  1.00  0.00     0.213 C 
ENDBRANCH  43  45
ENDBRANCH   5  43
TORSDOF 8
ENDMDL
MODEL 5
REMARK VINA RESULT: -6.562645540      2.319      5.784
REMARK  8 active torsions:
REMARK  status: ('A' for Active; 'I' for Inactive)
REMARK    1  A    between atoms: C2_2  and  C3_3 
REMARK    2  A    between atoms: C3_3  and  C6_6 
REMARK    3  A    between atoms: C6_6  and  C9_9 
REMARK    4  A    between atoms: C13_13  and  C14_14 
REMARK    5  A    between atoms: C14_14  and  O2_16 
REMARK    6  A    between atoms: C25_27  and  O3_28 
REMARK    7  A    between atoms: C26_30  and  O4_31 
REMARK    8  A    between atoms: C30_37  and  O6_38 
ROOT
HETATM    1  C9  UNL     1       4.171  39.244  24.159  1.00  0.00     0.059 C 
HETATM    2  C10 UNL     1       3.383  38.239  23.770  1.00  0.00    -0.040 C 
HETATM    3  C11 UNL     1       3.194  38.010  22.368  1.00  0.00     0.038 C 
HETATM    4  C12 UNL     1       2.595  36.587  22.237  1.00  0.00     0.020 C 
HETATM    5  C13 UNL     1       2.800  35.990  23.590  1.00  0.00     0.099 C 
HETATM    6  C16 UNL     1       2.535  37.173  24.438  1.00  0.00     0.002 C 
HETATM    7  C17 UNL     1       1.093  37.570  24.045  1.00  0.00     0.022 C 
HETATM    8  C18 UNL     1       2.667  37.022  25.893  1.00  0.00    -0.028 C 
HETATM    9  C19 UNL     1       1.904  35.700  26.201  1.00  0.00     0.016 C 
HETATM   10  C20 UNL     1       4.052  36.756  26.338  1.00  0.00     0.011 C 
HETATM   11  C21 UNL     1       4.398  37.292  27.713  1.00  0.00     0.016 C 
HETATM   12  C22 UNL     1       4.530  38.765  27.748  1.00  0.00     0.019 C 
HETATM   13  C23 UNL     1       4.197  39.178  29.193  1.00  0.00     0.018 C 
HETATM   14  C24 UNL     1       5.402  38.653  29.997  1.00  0.00     0.035 C 
HETATM   15  C25 UNL     1       6.523  39.092  29.134  1.00  0.00     0.147 C 
HETATM   16  C26 UNL     1       6.002  39.154  27.748  1.00  0.00     0.158 C 
HETATM   17  C27 UNL     1       3.810  39.593  26.767  1.00  0.00     0.170 C 
HETATM   18  O5  UNL     1       4.477  39.606  25.491  1.00  0.00    -0.344 OA
HETATM   19  C28 UNL     1       2.343  39.440  26.639  1.00  0.00    -0.029 C 
HETATM   20  C29 UNL     1       1.380  40.277  27.322  1.00  0.00     0.022 C 
HETATM   21  C30 UNL     1       1.503  41.782  27.036  1.00  0.00     0.164 C 
HETATM   22  C31 UNL     1       0.196  42.281  27.641  1.00  0.00     0.057 C 
HETATM   23  C32 UNL     1      -0.133  41.215  28.558  1.00  0.00     0.066 C 
HETATM   24  C33 UNL     1      -0.414  41.443  29.968  1.00  0.00     0.021 C 
HETATM   25  C34 UNL     1      -0.331  39.978  30.448  1.00  0.00     0.017 C 
HETATM   26  C35 UNL     1       0.321  39.229  29.266  1.00  0.00     0.096 C 
HETATM   27  N1  UNL     1       1.047  40.303  28.652  1.00  0.00    -0.280 NA
HETATM   28  C36 UNL     1       1.927  38.006  26.743  1.00  0.00     0.048 C 
ENDROOT
BRANCH  21  29
HETATM   29  O6  UNL     1       2.457  42.385  27.869  1.00  0.00    -0.390 OA
ATOM     30  H6  UNL     1       3.054  41.742  28.234  1.00  0.00     0.210 HD
ENDBRANCH  21  29
BRANCH  16  31
HETATM   31  O4  UNL     1       6.724  38.328  26.891  1.00  0.00    -0.392 OA
ATOM     32  H4  UNL     1       7.196  37.668  27.386  1.00  0.00     0.210 HD
ENDBRANCH  16  31
BRANCH   1  33
HETATM   33  C6  UNL     1       4.784  40.049  23.106  1.00  0.00     0.012 C 
HETATM   34  C7  UNL     1       4.543  41.556  23.334  1.00  0.00     0.023 C 
HETATM   35  C8  UNL     1       4.648  39.594  21.710  1.00  0.00     0.023 C 
BRANCH  33  36
HETATM   36  C3  UNL     1       6.330  40.053  23.281  1.00  0.00    -0.018 C 
HETATM   37  C4  UNL     1       6.863  38.667  23.487  1.00  0.00     0.020 C 
HETATM   38  C5  UNL     1       6.751  41.076  24.254  1.00  0.00     0.020 C 
BRANCH  36  39
HETATM   39  C2  UNL     1       6.925  40.442  21.932  1.00  0.00    -0.027 C 
HETATM   40  C1  UNL     1       8.178  40.814  21.773  1.00  0.00     0.007 C 
ENDBRANCH  36  39
ENDBRANCH  33  36
ENDBRANCH   1  33
BRANCH  15  41
HETATM   41  O3  UNL     1       6.938  40.362  29.570  1.00  0.00    -0.393 OA
ATOM     42  H3  UNL     1       7.884  40.353  29.645  1.00  0.00     0.210 HD
ENDBRANCH  15  41
BRANCH   5  43
HETATM   43  C14 UNL     1       4.016  35.245  23.610  1.00  0.00     0.263 C 
HETATM   44  O1  UNL     1       5.161  35.661  23.960  1.00  0.00    -0.265 OA
BRANCH  43  45
HETATM   45  O2  UNL     1       4.039  33.911  23.219  1.00  0.00    -0.326 OA
HETATM   46  C15 UNL     1       2.905  33.079  23.182  1.00  0.00     0.213 C 
ENDBRANCH  43  45
ENDBRANCH   5  43
TORSDOF 8
ENDMDL
