MODEL 1
REMARK VINA RESULT: -7.891875817      0.000      0.000
REMARK  8 active torsions:
REMARK  status: ('A' for Active; 'I' for Inactive)
REMARK    1  A    between atoms: C2_2  and  C3_3 
REMARK    2  A    between atoms: C6_8  and  O3_9 
REMARK    3  A    between atoms: O3_9  and  C7_10 
REMARK    4  A    between atoms: C7_10  and  C8_12 
REMARK    5  A    between atoms: C8_12  and  N1_13 
REMARK    6  A    between atoms: C14_20  and  C15_21 
REMARK    7  A    between atoms: C24_30  and  O6_31 
REMARK    8  A    between atoms: C31_39  and  O7_40 
ROOT
HETATM    1  C15 UNL     1       6.526  38.884  24.134  1.00  0.00    -0.008 C 
HETATM    2  C16 UNL     1       7.795  38.306  23.651  1.00  0.00     0.005 C 
HETATM    3  C17 UNL     1       8.517  39.405  22.851  1.00  0.00     0.006 C 
HETATM    4  C18 UNL     1       7.513  40.331  22.198  1.00  0.00     0.001 C 
HETATM    5  C19 UNL     1       8.226  41.089  21.132  1.00  0.00    -0.005 C 
HETATM    6  C20 UNL     1       7.267  41.552  20.089  1.00  0.00     0.006 C 
HETATM    7  C21 UNL     1       7.788  42.644  19.195  1.00  0.00     0.006 C 
HETATM    8  C22 UNL     1       9.297  42.587  19.283  1.00  0.00    -0.004 C 
HETATM    9  C23 UNL     1       9.859  43.345  18.141  1.00  0.00     0.037 C 
HETATM   10  C24 UNL     1      11.293  43.744  18.251  1.00  0.00     0.118 C 
HETATM   11  C25 UNL     1      11.744  44.038  19.652  1.00  0.00     0.032 C 
HETATM   12  C26 UNL     1      11.227  43.078  20.660  1.00  0.00     0.012 C 
HETATM   13  C27 UNL     1       9.690  43.062  20.650  1.00  0.00    -0.036 C 
HETATM   14  C28 UNL     1       9.268  44.483  20.791  1.00  0.00     0.016 C 
HETATM   15  C29 UNL     1       9.135  42.129  21.699  1.00  0.00     0.001 C 
HETATM   16  C30 UNL     1       8.653  42.809  22.941  1.00  0.00     0.038 C 
HETATM   17  C31 UNL     1       7.262  42.525  23.385  1.00  0.00     0.127 C 
HETATM   18  C32 UNL     1       6.759  41.147  23.191  1.00  0.00    -0.014 C 
HETATM   19  C33 UNL     1       5.265  41.191  22.843  1.00  0.00     0.018 C 
HETATM   20  C34 UNL     1       6.806  40.349  24.508  1.00  0.00     0.017 C 
ENDROOT
BRANCH   1  21
HETATM   21  C14 UNL     1       5.815  38.156  25.236  1.00  0.00     0.011 C 
HETATM   22  C2  UNL     1       4.617  37.370  24.832  1.00  0.00     0.049 C 
HETATM   23  C1  UNL     1       4.924  36.165  23.950  1.00  0.00     0.027 C 
HETATM   24  C4  UNL     1       3.829  36.903  26.064  1.00  0.00     0.023 C 
HETATM   25  C5  UNL     1       4.660  36.859  27.318  1.00  0.00     0.034 C 
HETATM   26  C6  UNL     1       6.014  36.361  26.940  1.00  0.00     0.132 C 
HETATM   27  C13 UNL     1       6.768  37.334  26.071  1.00  0.00     0.039 C 
BRANCH  22  28
HETATM   28  C3  UNL     1       3.633  38.174  24.055  1.00  0.00     0.181 C 
HETATM   29  O1  UNL     1       2.980  39.072  24.630  1.00  0.00    -0.647 OA
HETATM   30  O2  UNL     1       3.381  37.997  22.698  1.00  0.00    -0.647 OA
ENDBRANCH  22  28
BRANCH  26  31
HETATM   31  O3  UNL     1       6.784  35.924  28.041  1.00  0.00    -0.315 OA
BRANCH  31  32
HETATM   32  C7  UNL     1       7.709  36.740  28.700  1.00  0.00     0.287 C 
HETATM   33  O4  UNL     1       8.912  36.475  28.437  1.00  0.00    -0.263 OA
BRANCH  32  34
HETATM   34  C8  UNL     1       7.331  37.829  29.631  1.00  0.00     0.383 C 
BRANCH  34  35
HETATM   35  N1  UNL     1       7.751  39.130  29.215  1.00  0.00     0.102 N 
HETATM   36  C9  UNL     1       6.726  39.854  28.497  1.00  0.00     0.299 C 
HETATM   37  C10 UNL     1       5.543  40.173  29.397  1.00  0.00     0.198 C 
HETATM   38  O5  UNL     1       5.916  40.260  30.736  1.00  0.00    -0.388 OA
HETATM   39  C11 UNL     1       7.146  40.908  30.814  1.00  0.00     0.198 C 
HETATM   40  C12 UNL     1       8.202  39.956  30.307  1.00  0.00     0.299 C 
ENDBRANCH  34  35
ENDBRANCH  32  34
ENDBRANCH  31  32
ENDBRANCH  26  31
ENDBRANCH   1  21
BRANCH  17  41
HETATM   41  O7  UNL     1       6.353  43.505  22.901  1.00  0.00    -0.395 OA
ATOM     42  H7  UNL     1       5.721  43.126  22.300  1.00  0.00     0.210 HD
ENDBRANCH  17  41
BRANCH  10  43
HETATM   43  O6  UNL     1      12.127  42.821  17.604  1.00  0.00    -0.396 OA
ATOM     44  H6  UNL     1      12.982  42.784  18.016  1.00  0.00     0.210 HD
ENDBRANCH  10  43
TORSDOF 8
ENDMDL
MODEL 2
REMARK VINA RESULT: -7.431783231      3.975     10.912
REMARK  8 active torsions:
REMARK  status: ('A' for Active; 'I' for Inactive)
REMARK    1  A    between atoms: C2_2  and  C3_3 
REMARK    2  A    between atoms: C6_8  and  O3_9 
REMARK    3  A    between atoms: O3_9  and  C7_10 
REMARK    4  A    between atoms: C7_10  and  C8_12 
REMARK    5  A    between atoms: C8_12  and  N1_13 
REMARK    6  A    between atoms: C14_20  and  C15_21 
REMARK    7  A    between atoms: C24_30  and  O6_31 
REMARK    8  A    between atoms: C31_39  and  O7_40 
ROOT
HETATM    1  C15 UNL     1       6.760  40.215  21.103  1.00  0.00    -0.008 C 
HETATM    2  C16 UNL     1       5.481  40.008  20.398  1.00  0.00     0.005 C 
HETATM    3  C17 UNL     1       4.440  39.602  21.457  1.00  0.00     0.006 C 
HETATM    4  C18 UNL     1       5.104  38.850  22.590  1.00  0.00     0.001 C 
HETATM    5  C19 UNL     1       4.036  38.137  23.345  1.00  0.00    -0.005 C 
HETATM    6  C20 UNL     1       4.598  36.957  24.060  1.00  0.00     0.006 C 
HETATM    7  C21 UNL     1       3.723  36.406  25.154  1.00  0.00     0.006 C 
HETATM    8  C22 UNL     1       2.319  36.885  24.860  1.00  0.00    -0.004 C 
HETATM    9  C23 UNL     1       1.373  36.061  25.647  1.00  0.00     0.037 C 
HETATM   10  C24 UNL     1      -0.006  36.607  25.811  1.00  0.00     0.118 C 
HETATM   11  C25 UNL     1      -0.071  38.105  25.875  1.00  0.00     0.032 C 
HETATM   12  C26 UNL     1       0.818  38.785  24.899  1.00  0.00     0.012 C 
HETATM   13  C27 UNL     1       2.280  38.362  25.116  1.00  0.00    -0.036 C 
HETATM   14  C28 UNL     1       2.560  38.595  26.560  1.00  0.00     0.016 C 
HETATM   15  C29 UNL     1       3.213  39.075  24.167  1.00  0.00     0.001 C 
HETATM   16  C30 UNL     1       3.948  40.230  24.770  1.00  0.00     0.038 C 
HETATM   17  C31 UNL     1       5.430  40.238  24.652  1.00  0.00     0.127 C 
HETATM   18  C32 UNL     1       6.012  39.715  23.396  1.00  0.00    -0.014 C 
HETATM   19  C33 UNL     1       7.330  38.991  23.703  1.00  0.00     0.018 C 
HETATM   20  C34 UNL     1       6.433  40.864  22.459  1.00  0.00     0.017 C 
ENDROOT
BRANCH   1  21
HETATM   21  C14 UNL     1       7.834  40.967  20.373  1.00  0.00     0.011 C 
HETATM   22  C2  UNL     1       8.990  40.157  19.900  1.00  0.00     0.049 C 
HETATM   23  C1  UNL     1       8.649  39.158  18.799  1.00  0.00     0.027 C 
HETATM   24  C4  UNL     1      10.130  41.064  19.419  1.00  0.00     0.023 C 
HETATM   25  C5  UNL     1       9.671  42.445  19.034  1.00  0.00     0.034 C 
HETATM   26  C6  UNL     1       8.355  42.300  18.345  1.00  0.00     0.132 C 
HETATM   27  C13 UNL     1       7.264  41.827  19.271  1.00  0.00     0.039 C 
BRANCH  22  28
HETATM   28  C3  UNL     1       9.606  39.341  20.983  1.00  0.00     0.181 C 
HETATM   29  O1  UNL     1      10.348  39.893  21.824  1.00  0.00    -0.647 OA
HETATM   30  O2  UNL     1       9.410  37.972  21.133  1.00  0.00    -0.647 OA
ENDBRANCH  22  28
BRANCH  26  31
HETATM   31  O3  UNL     1       7.971  43.446  17.613  1.00  0.00    -0.315 OA
BRANCH  31  32
HETATM   32  C7  UNL     1       8.248  43.613  16.252  1.00  0.00     0.287 C 
HETATM   33  O4  UNL     1       8.170  42.554  15.575  1.00  0.00    -0.263 OA
BRANCH  32  34
HETATM   34  C8  UNL     1       8.603  44.913  15.636  1.00  0.00     0.383 C 
BRANCH  34  35
HETATM   35  N1  UNL     1       9.688  44.849  14.709  1.00  0.00     0.102 N 
HETATM   36  C9  UNL     1       9.273  45.033  13.336  1.00  0.00     0.299 C 
HETATM   37  C10 UNL     1       8.740  46.439  13.106  1.00  0.00     0.198 C 
HETATM   38  O5  UNL     1       9.292  47.357  13.997  1.00  0.00    -0.388 OA
HETATM   39  C11 UNL     1      10.641  47.057  14.165  1.00  0.00     0.198 C 
HETATM   40  C12 UNL     1      10.734  45.798  14.993  1.00  0.00     0.299 C 
ENDBRANCH  34  35
ENDBRANCH  32  34
ENDBRANCH  31  32
ENDBRANCH  26  31
ENDBRANCH   1  21
BRANCH  17  41
HETATM   41  O7  UNL     1       6.047  39.680  25.805  1.00  0.00    -0.395 OA
ATOM     42  H7  UNL     1       6.815  40.175  26.063  1.00  0.00     0.210 HD
ENDBRANCH  17  41
BRANCH  10  43
HETATM   43  O6  UNL     1      -0.879  36.077  24.849  1.00  0.00    -0.396 OA
ATOM     44  H6  UNL     1      -1.417  35.387  25.218  1.00  0.00     0.210 HD
ENDBRANCH  10  43
TORSDOF 8
ENDMDL
MODEL 3
REMARK VINA RESULT: -7.425458541      3.864     10.530
REMARK  8 active torsions:
REMARK  status: ('A' for Active; 'I' for Inactive)
REMARK    1  A    between atoms: C2_2  and  C3_3 
REMARK    2  A    between atoms: C6_8  and  O3_9 
REMARK    3  A    between atoms: O3_9  and  C7_10 
REMARK    4  A    between atoms: C7_10  and  C8_12 
REMARK    5  A    between atoms: C8_12  and  N1_13 
REMARK    6  A    between atoms: C14_20  and  C15_21 
REMARK    7  A    between atoms: C24_30  and  O6_31 
REMARK    8  A    between atoms: C31_39  and  O7_40 
ROOT
HETATM    1  C15 UNL     1       6.750  40.202  21.104  1.00  0.00    -0.008 C 
HETATM    2  C16 UNL     1       5.462  40.015  20.408  1.00  0.00     0.005 C 
HETATM    3  C17 UNL     1       4.429  39.597  21.470  1.00  0.00     0.006 C 
HETATM    4  C18 UNL     1       5.100  38.821  22.583  1.00  0.00     0.001 C 
HETATM    5  C19 UNL     1       4.034  38.102  23.336  1.00  0.00    -0.005 C 
HETATM    6  C20 UNL     1       4.595  36.906  24.024  1.00  0.00     0.006 C 
HETATM    7  C21 UNL     1       3.728  36.342  25.116  1.00  0.00     0.006 C 
HETATM    8  C22 UNL     1       2.324  36.834  24.845  1.00  0.00    -0.004 C 
HETATM    9  C23 UNL     1       1.379  36.002  25.626  1.00  0.00     0.037 C 
HETATM   10  C24 UNL     1       0.006  36.554  25.813  1.00  0.00     0.118 C 
HETATM   11  C25 UNL     1      -0.048  38.051  25.905  1.00  0.00     0.032 C 
HETATM   12  C26 UNL     1       0.836  38.742  24.932  1.00  0.00     0.012 C 
HETATM   13  C27 UNL     1       2.297  38.306  25.127  1.00  0.00    -0.036 C 
HETATM   14  C28 UNL     1       2.592  38.512  26.573  1.00  0.00     0.016 C 
HETATM   15  C29 UNL     1       3.225  39.030  24.182  1.00  0.00     0.001 C 
HETATM   16  C30 UNL     1       3.973  40.169  24.798  1.00  0.00     0.038 C 
HETATM   17  C31 UNL     1       5.454  40.171  24.666  1.00  0.00     0.127 C 
HETATM   18  C32 UNL     1       6.021  39.666  23.395  1.00  0.00    -0.014 C 
HETATM   19  C33 UNL     1       7.336  38.928  23.676  1.00  0.00     0.018 C 
HETATM   20  C34 UNL     1       6.440  40.828  22.474  1.00  0.00     0.017 C 
ENDROOT
BRANCH   1  21
HETATM   21  C14 UNL     1       7.821  40.959  20.377  1.00  0.00     0.011 C 
HETATM   22  C2  UNL     1       8.971  40.152  19.885  1.00  0.00     0.049 C 
HETATM   23  C1  UNL     1       8.620  39.169  18.774  1.00  0.00     0.027 C 
HETATM   24  C4  UNL     1      10.112  41.062  19.409  1.00  0.00     0.023 C 
HETATM   25  C5  UNL     1       9.654  42.449  19.046  1.00  0.00     0.034 C 
HETATM   26  C6  UNL     1       8.334  42.318  18.363  1.00  0.00     0.132 C 
HETATM   27  C13 UNL     1       7.248  41.837  19.290  1.00  0.00     0.039 C 
BRANCH  22  28
HETATM   28  C3  UNL     1       9.591  39.319  20.953  1.00  0.00     0.181 C 
HETATM   29  O1  UNL     1      10.330  39.860  21.805  1.00  0.00    -0.647 OA
HETATM   30  O2  UNL     1       9.403  37.947  21.078  1.00  0.00    -0.647 OA
ENDBRANCH  22  28
BRANCH  26  31
HETATM   31  O3  UNL     1       7.949  43.475  17.649  1.00  0.00    -0.315 OA
BRANCH  31  32
HETATM   32  C7  UNL     1       8.561  43.878  16.458  1.00  0.00     0.287 C 
HETATM   33  O4  UNL     1       8.311  43.135  15.471  1.00  0.00    -0.263 OA
BRANCH  32  34
HETATM   34  C8  UNL     1       9.431  45.071  16.340  1.00  0.00     0.383 C 
BRANCH  34  35
HETATM   35  N1  UNL     1      10.664  44.836  15.657  1.00  0.00     0.102 N 
HETATM   36  C9  UNL     1      11.266  46.045  15.142  1.00  0.00     0.299 C 
HETATM   37  C10 UNL     1      11.699  46.969  16.270  1.00  0.00     0.198 C 
HETATM   38  O5  UNL     1      11.981  46.266  17.439  1.00  0.00    -0.388 OA
HETATM   39  C11 UNL     1      12.646  45.091  17.101  1.00  0.00     0.198 C 
HETATM   40  C12 UNL     1      11.643  44.158  16.469  1.00  0.00     0.299 C 
ENDBRANCH  34  35
ENDBRANCH  32  34
ENDBRANCH  31  32
ENDBRANCH  26  31
ENDBRANCH   1  21
BRANCH  17  41
HETATM   41  O7  UNL     1       6.078  39.588  25.803  1.00  0.00    -0.395 OA
ATOM     42  H7  UNL     1       5.919  38.652  25.845  1.00  0.00     0.210 HD
ENDBRANCH  17  41
BRANCH  10  43
HETATM   43  O6  UNL     1      -0.880  36.046  24.851  1.00  0.00    -0.396 OA
ATOM     44  H6  UNL     1      -0.693  36.404  23.991  1.00  0.00     0.210 HD
ENDBRANCH  10  43
TORSDOF 8
ENDMDL
MODEL 4
REMARK VINA RESULT: -7.298461707      2.807      5.087
REMARK  8 active torsions:
REMARK  status: ('A' for Active; 'I' for Inactive)
REMARK    1  A    between atoms: C2_2  and  C3_3 
REMARK    2  A    between atoms: C6_8  and  O3_9 
REMARK    3  A    between atoms: O3_9  and  C7_10 
REMARK    4  A    between atoms: C7_10  and  C8_12 
REMARK    5  A    between atoms: C8_12  and  N1_13 
REMARK    6  A    between atoms: C14_20  and  C15_21 
REMARK    7  A    between atoms: C24_30  and  O6_31 
REMARK    8  A    between atoms: C31_39  and  O7_40 
ROOT
HETATM    1  C15 UNL     1       6.818  40.542  22.559  1.00  0.00    -0.008 C 
HETATM    2  C16 UNL     1       5.780  40.636  21.515  1.00  0.00     0.005 C 
HETATM    3  C17 UNL     1       6.426  41.314  20.293  1.00  0.00     0.006 C 
HETATM    4  C18 UNL     1       7.509  42.276  20.733  1.00  0.00     0.001 C 
HETATM    5  C19 UNL     1       7.797  43.185  19.588  1.00  0.00    -0.005 C 
HETATM    6  C20 UNL     1       8.370  44.472  20.072  1.00  0.00     0.006 C 
HETATM    7  C21 UNL     1       9.060  45.292  19.017  1.00  0.00     0.006 C 
HETATM    8  C22 UNL     1       8.522  44.817  17.686  1.00  0.00    -0.004 C 
HETATM    9  C23 UNL     1       8.847  45.836  16.661  1.00  0.00     0.037 C 
HETATM   10  C24 UNL     1       8.760  45.399  15.238  1.00  0.00     0.118 C 
HETATM   11  C25 UNL     1       9.118  43.958  15.014  1.00  0.00     0.032 C 
HETATM   12  C26 UNL     1       8.568  43.039  16.043  1.00  0.00     0.012 C 
HETATM   13  C27 UNL     1       9.061  43.440  17.443  1.00  0.00    -0.036 C 
HETATM   14  C28 UNL     1      10.545  43.529  17.340  1.00  0.00     0.016 C 
HETATM   15  C29 UNL     1       8.556  42.492  18.504  1.00  0.00     0.001 C 
HETATM   16  C30 UNL     1       9.556  41.475  18.955  1.00  0.00     0.038 C 
HETATM   17  C31 UNL     1       9.829  41.379  20.413  1.00  0.00     0.127 C 
HETATM   18  C32 UNL     1       8.684  41.580  21.330  1.00  0.00    -0.014 C 
HETATM   19  C33 UNL     1       9.162  42.300  22.598  1.00  0.00     0.018 C 
HETATM   20  C34 UNL     1       8.148  40.232  21.852  1.00  0.00     0.017 C 
ENDROOT
BRANCH   1  21
HETATM   21  C14 UNL     1       6.564  39.601  23.700  1.00  0.00     0.011 C 
HETATM   22  C2  UNL     1       5.794  40.159  24.846  1.00  0.00     0.049 C 
HETATM   23  C1  UNL     1       4.342  40.494  24.523  1.00  0.00     0.027 C 
HETATM   24  C4  UNL     1       5.835  39.203  26.046  1.00  0.00     0.023 C 
HETATM   25  C5  UNL     1       6.141  37.780  25.663  1.00  0.00     0.034 C 
HETATM   26  C6  UNL     1       5.430  37.500  24.381  1.00  0.00     0.132 C 
HETATM   27  C13 UNL     1       5.989  38.288  23.225  1.00  0.00     0.039 C 
BRANCH  22  28
HETATM   28  C3  UNL     1       6.374  41.426  25.370  1.00  0.00     0.181 C 
HETATM   29  O1  UNL     1       6.753  41.484  26.560  1.00  0.00    -0.647 OA
HETATM   30  O2  UNL     1       6.532  42.582  24.612  1.00  0.00    -0.647 OA
ENDBRANCH  22  28
BRANCH  26  31
HETATM   31  O3  UNL     1       5.322  36.123  24.083  1.00  0.00    -0.315 OA
BRANCH  31  32
HETATM   32  C7  UNL     1       4.096  35.457  23.980  1.00  0.00     0.287 C 
HETATM   33  O4  UNL     1       4.128  34.426  23.257  1.00  0.00    -0.263 OA
BRANCH  32  34
HETATM   34  C8  UNL     1       2.855  35.904  24.653  1.00  0.00     0.383 C 
BRANCH  34  35
HETATM   35  N1  UNL     1       1.730  36.044  23.783  1.00  0.00     0.102 N 
HETATM   36  C9  UNL     1       0.486  36.244  24.493  1.00  0.00     0.299 C 
HETATM   37  C10 UNL     1       0.482  37.571  25.235  1.00  0.00     0.198 C 
HETATM   38  O5  UNL     1       1.319  38.507  24.632  1.00  0.00    -0.388 OA
HETATM   39  C11 UNL     1       1.194  38.391  23.251  1.00  0.00     0.198 C 
HETATM   40  C12 UNL     1       1.881  37.114  22.830  1.00  0.00     0.299 C 
ENDBRANCH  34  35
ENDBRANCH  32  34
ENDBRANCH  31  32
ENDBRANCH  26  31
ENDBRANCH   1  21
BRANCH  17  41
HETATM   41  O7  UNL     1      10.958  42.159  20.783  1.00  0.00    -0.395 OA
ATOM     42  H7  UNL     1      11.354  41.840  21.586  1.00  0.00     0.210 HD
ENDBRANCH  17  41
BRANCH  10  43
HETATM   43  O6  UNL     1       7.517  45.732  14.680  1.00  0.00    -0.396 OA
ATOM     44  H6  UNL     1       7.050  46.352  15.228  1.00  0.00     0.210 HD
ENDBRANCH  10  43
TORSDOF 8
ENDMDL
MODEL 5
REMARK VINA RESULT: -7.195682765      2.807      5.379
REMARK  8 active torsions:
REMARK  status: ('A' for Active; 'I' for Inactive)
REMARK    1  A    between atoms: C2_2  and  C3_3 
REMARK    2  A    between atoms: C6_8  and  O3_9 
REMARK    3  A    between atoms: O3_9  and  C7_10 
REMARK    4  A    between atoms: C7_10  and  C8_12 
REMARK    5  A    between atoms: C8_12  and  N1_13 
REMARK    6  A    between atoms: C14_20  and  C15_21 
REMARK    7  A    between atoms: C24_30  and  O6_31 
REMARK    8  A    between atoms: C31_39  and  O7_40 
ROOT
HETATM    1  C15 UNL     1       7.216  41.716  21.809  1.00  0.00    -0.008 C 
HETATM    2  C16 UNL     1       6.558  41.209  20.590  1.00  0.00     0.005 C 
HETATM    3  C17 UNL     1       7.224  41.907  19.391  1.00  0.00     0.006 C 
HETATM    4  C18 UNL     1       7.703  43.288  19.782  1.00  0.00     0.001 C 
HETATM    5  C19 UNL     1       7.946  44.053  18.526  1.00  0.00    -0.005 C 
HETATM    6  C20 UNL     1       7.840  45.518  18.777  1.00  0.00     0.006 C 
HETATM    7  C21 UNL     1       8.447  46.386  17.708  1.00  0.00     0.006 C 
HETATM    8  C22 UNL     1       8.522  45.537  16.459  1.00  0.00    -0.004 C 
HETATM    9  C23 UNL     1       8.723  46.435  15.298  1.00  0.00     0.037 C 
HETATM   10  C24 UNL     1       9.211  45.796  14.041  1.00  0.00     0.118 C 
HETATM   11  C25 UNL     1      10.123  44.624  14.260  1.00  0.00     0.032 C 
HETATM   12  C26 UNL     1       9.686  43.723  15.356  1.00  0.00     0.012 C 
HETATM   13  C27 UNL     1       9.578  44.496  16.680  1.00  0.00    -0.036 C 
HETATM   14  C28 UNL     1      10.887  45.186  16.855  1.00  0.00     0.016 C 
HETATM   15  C29 UNL     1       9.180  43.593  17.823  1.00  0.00     0.001 C 
HETATM   16  C30 UNL     1      10.313  43.171  18.703  1.00  0.00     0.038 C 
HETATM   17  C31 UNL     1      10.178  43.416  20.163  1.00  0.00     0.127 C 
HETATM   18  C32 UNL     1       8.831  43.249  20.755  1.00  0.00    -0.014 C 
HETATM   19  C33 UNL     1       8.629  44.282  21.871  1.00  0.00     0.018 C 
HETATM   20  C34 UNL     1       8.708  41.894  21.480  1.00  0.00     0.017 C 
ENDROOT
BRANCH   1  21
HETATM   21  C14 UNL     1       7.016  40.936  23.075  1.00  0.00     0.011 C 
HETATM   22  C2  UNL     1       5.907  41.395  23.955  1.00  0.00     0.049 C 
HETATM   23  C1  UNL     1       4.514  41.198  23.366  1.00  0.00     0.027 C 
HETATM   24  C4  UNL     1       5.975  40.704  25.323  1.00  0.00     0.023 C 
HETATM   25  C5  UNL     1       6.742  39.409  25.298  1.00  0.00     0.034 C 
HETATM   26  C6  UNL     1       6.412  38.720  24.017  1.00  0.00     0.132 C 
HETATM   27  C13 UNL     1       6.944  39.451  22.811  1.00  0.00     0.039 C 
BRANCH  22  28
HETATM   28  C3  UNL     1       5.986  42.847  24.276  1.00  0.00     0.181 C 
HETATM   29  O1  UNL     1       6.792  43.242  25.148  1.00  0.00    -0.647 OA
HETATM   30  O2  UNL     1       5.211  43.825  23.661  1.00  0.00    -0.647 OA
ENDBRANCH  22  28
BRANCH  26  31
HETATM   31  O3  UNL     1       6.760  37.351  24.005  1.00  0.00    -0.315 OA
BRANCH  31  32
HETATM   32  C7  UNL     1       6.160  36.401  24.839  1.00  0.00     0.287 C 
HETATM   33  O4  UNL     1       6.956  35.840  25.638  1.00  0.00    -0.263 OA
BRANCH  32  34
HETATM   34  C8  UNL     1       4.718  36.068  24.805  1.00  0.00     0.383 C 
BRANCH  34  35
HETATM   35  N1  UNL     1       4.183  35.899  23.491  1.00  0.00     0.102 N 
HETATM   36  C9  UNL     1       3.518  34.628  23.307  1.00  0.00     0.299 C 
HETATM   37  C10 UNL     1       2.272  34.528  24.173  1.00  0.00     0.198 C 
HETATM   38  O5  UNL     1       1.730  35.780  24.452  1.00  0.00    -0.388 OA
HETATM   39  C11 UNL     1       1.816  36.567  23.306  1.00  0.00     0.198 C 
HETATM   40  C12 UNL     1       3.265  36.944  23.114  1.00  0.00     0.299 C 
ENDBRANCH  34  35
ENDBRANCH  32  34
ENDBRANCH  31  32
ENDBRANCH  26  31
ENDBRANCH   1  21
BRANCH  17  41
HETATM   41  O7  UNL     1      10.784  44.644  20.543  1.00  0.00    -0.395 OA
ATOM     42  H7  UNL     1      11.448  44.512  21.210  1.00  0.00     0.210 HD
ENDBRANCH  17  41
BRANCH  10  43
HETATM   43  O6  UNL     1       8.146  45.488  13.182  1.00  0.00    -0.396 OA
ATOM     44  H6  UNL     1       7.652  44.742  13.501  1.00  0.00     0.210 HD
ENDBRANCH  10  43
TORSDOF 8
ENDMDL
