MODEL 1
REMARK VINA RESULT: -8.660615596      0.000      0.000
REMARK  10 active torsions:
REMARK  status: ('A' for Active; 'I' for Inactive)
REMARK    1  A    between atoms: N1_1  and  C1_4 
REMARK    2  A    between atoms: C2_7  and  N3_8 
REMARK    3  A    between atoms: N3_8  and  C3_10 
REMARK    4  A    between atoms: C9_16  and  N4_17 
REMARK       I    between atoms: N4_17  and  C10_19 
REMARK    5  A    between atoms: C10_19  and  C11_21 
REMARK    6  A    between atoms: C13_23  and  C14_24 
REMARK    7  A    between atoms: C14_24  and  C15_25 
REMARK    8  A    between atoms: C15_25  and  O2_26 
REMARK    9  A    between atoms: C18_36  and  C19_37 
REMARK   10  A    between atoms: C20_38  and  C21_39 
ROOT
HETATM    1  C3  UNL     1      -9.139  17.147 -51.269  1.00  0.00     0.126 C 
HETATM    2  C4  UNL     1      -7.865  17.824 -50.817  1.00  0.00     0.011 C 
HETATM    3  C5  UNL     1      -7.005  16.788 -50.163  1.00  0.00     0.007 C 
HETATM    4  C6  UNL     1      -7.756  16.454 -48.866  1.00  0.00     0.007 C 
HETATM    5  C7  UNL     1      -8.980  17.340 -48.899  1.00  0.00     0.011 C 
HETATM    6  C8  UNL     1      -8.389  18.583 -49.586  1.00  0.00     0.013 C 
HETATM    7  C9  UNL     1      -9.891  16.833 -49.964  1.00  0.00     0.112 C 
ENDROOT
BRANCH   1   8
HETATM    8  N3  UNL     1      -9.907  18.006 -52.110  1.00  0.00    -0.219 N 
ATOM      9  H3  UNL     1     -10.850  18.273 -51.829  1.00  0.00     0.178 HD
BRANCH   8  10
HETATM   10  C2  UNL     1      -9.432  18.445 -53.206  1.00  0.00     0.681 A 
HETATM   11  N2  UNL     1      -8.939  19.695 -53.300  1.00  0.00    -0.176 N 
HETATM   12  C1  UNL     1      -8.426  20.191 -54.457  1.00  0.00     0.136 A 
ATOM     13  H2  UNL     1      -8.952  20.292 -52.473  1.00  0.00     0.186 HD
HETATM   14  C18 UNL     1      -8.397  19.408 -55.585  1.00  0.00     0.100 A 
HETATM   15  C17 UNL     1      -8.901  18.114 -55.504  1.00  0.00     0.141 A 
HETATM   16  N6  UNL     1      -9.388  17.703 -54.335  1.00  0.00    -0.180 N 
HETATM   17 CL1  UNL     1      -8.868  17.112 -56.934  1.00  0.00    -0.062 Cl
ATOM     18  H6  UNL     1      -9.756  16.753 -54.288  1.00  0.00     0.185 HD
BRANCH  12  19
HETATM   19  N1  UNL     1      -7.956  21.388 -54.539  1.00  0.00    -0.384 N 
ATOM     20  H12 UNL     1      -8.619  22.161 -54.576  1.00  0.00     0.157 HD
ATOM     21  H11 UNL     1      -6.954  21.575 -54.568  1.00  0.00     0.157 HD
ENDBRANCH  12  19
BRANCH  14  22
HETATM   22  C19 UNL     1      -7.866  19.885 -56.826  1.00  0.00    -0.059 C 
HETATM   23  C20 UNL     1      -7.403  20.272 -57.876  1.00  0.00    -0.096 C 
BRANCH  23  24
HETATM   24  C21 UNL     1      -6.830  20.757 -59.134  1.00  0.00     0.065 A 
HETATM   25  C22 UNL     1      -5.931  21.934 -59.159  1.00  0.00     0.018 A 
HETATM   26  C23 UNL     1      -5.355  20.574 -59.371  1.00  0.00     0.018 A 
ENDBRANCH  23  24
ENDBRANCH  14  22
ENDBRANCH   8  10
ENDBRANCH   1   8
BRANCH   7  27
HETATM   27  N4  UNL     1     -11.132  17.564 -49.908  1.00  0.00    -0.352 N 
HETATM   28  C10 UNL     1     -11.915  17.690 -48.736  1.00  0.00     0.248 C 
HETATM   29  O1  UNL     1     -11.507  17.136 -47.686  1.00  0.00    -0.271 OA
ATOM     30  H4  UNL     1     -11.465  18.015 -50.760  1.00  0.00     0.163 HD
BRANCH  28  31
HETATM   31  C11 UNL     1     -13.171  18.437 -48.702  1.00  0.00     0.277 C 
HETATM   32  C12 UNL     1     -14.392  17.578 -48.864  1.00  0.00     0.049 C 
HETATM   33  C13 UNL     1     -15.405  18.185 -47.926  1.00  0.00     0.016 C 
HETATM   34  C16 UNL     1     -14.615  19.027 -46.971  1.00  0.00     0.238 C 
HETATM   35  N5  UNL     1     -13.305  19.200 -47.504  1.00  0.00    -0.062 N 
ATOM     36  H52 UNL     1     -12.580  18.975 -46.822  1.00  0.00     0.278 HD
ATOM     37  H51 UNL     1     -13.074  20.183 -47.645  1.00  0.00     0.278 HD
BRANCH  33  38
HETATM   38  C14 UNL     1     -16.503  18.921 -48.629  1.00  0.00     0.032 C 
BRANCH  38  39
HETATM   39  C15 UNL     1     -17.310  18.045 -49.546  1.00  0.00     0.164 C 
BRANCH  39  40
HETATM   40  O2  UNL     1     -18.600  18.620 -49.612  1.00  0.00    -0.401 OA
ATOM     41  H2  UNL     1     -19.158  18.095 -49.050  1.00  0.00     0.209 HD
ENDBRANCH  39  40
ENDBRANCH  38  39
ENDBRANCH  33  38
ENDBRANCH  28  31
ENDBRANCH   7  27
TORSDOF 10
ENDMDL
MODEL 2
REMARK VINA RESULT: -8.293355014      1.031      1.515
REMARK  10 active torsions:
REMARK  status: ('A' for Active; 'I' for Inactive)
REMARK    1  A    between atoms: N1_1  and  C1_4 
REMARK    2  A    between atoms: C2_7  and  N3_8 
REMARK    3  A    between atoms: N3_8  and  C3_10 
REMARK    4  A    between atoms: C9_16  and  N4_17 
REMARK       I    between atoms: N4_17  and  C10_19 
REMARK    5  A    between atoms: C10_19  and  C11_21 
REMARK    6  A    between atoms: C13_23  and  C14_24 
REMARK    7  A    between atoms: C14_24  and  C15_25 
REMARK    8  A    between atoms: C15_25  and  O2_26 
REMARK    9  A    between atoms: C18_36  and  C19_37 
REMARK   10  A    between atoms: C20_38  and  C21_39 
ROOT
HETATM    1  C3  UNL     1      -9.313  16.992 -51.218  1.00  0.00     0.126 C 
HETATM    2  C4  UNL     1      -8.015  17.679 -50.860  1.00  0.00     0.011 C 
HETATM    3  C5  UNL     1      -7.150  16.680 -50.155  1.00  0.00     0.007 C 
HETATM    4  C6  UNL     1      -7.864  16.459 -48.814  1.00  0.00     0.007 C 
HETATM    5  C7  UNL     1      -9.075  17.361 -48.876  1.00  0.00     0.011 C 
HETATM    6  C8  UNL     1      -8.488  18.538 -49.675  1.00  0.00     0.013 C 
HETATM    7  C9  UNL     1     -10.028  16.791 -49.871  1.00  0.00     0.112 C 
ENDROOT
BRANCH   1   8
HETATM    8  N3  UNL     1     -10.095  17.798 -52.099  1.00  0.00    -0.219 N 
ATOM      9  H3  UNL     1     -11.045  18.056 -51.833  1.00  0.00     0.178 HD
BRANCH   8  10
HETATM   10  C2  UNL     1      -9.624  18.200 -53.210  1.00  0.00     0.681 A 
HETATM   11  N2  UNL     1      -9.570  17.383 -54.280  1.00  0.00    -0.176 N 
HETATM   12  C1  UNL     1      -9.071  17.785 -55.479  1.00  0.00     0.136 A 
ATOM     13  H2  UNL     1      -9.916  16.429 -54.186  1.00  0.00     0.186 HD
HETATM   14  C18 UNL     1      -8.600  19.065 -55.630  1.00  0.00     0.100 A 
HETATM   15  C17 UNL     1      -8.648  19.921 -54.535  1.00  0.00     0.141 A 
HETATM   16  N6  UNL     1      -9.150  19.453 -53.395  1.00  0.00    -0.180 N 
HETATM   17 CL1  UNL     1      -8.049  21.552 -54.721  1.00  0.00    -0.062 Cl
ATOM     18  H6  UNL     1      -9.179  20.088 -52.598  1.00  0.00     0.185 HD
BRANCH  12  19
HETATM   19  N1  UNL     1      -9.024  16.998 -56.497  1.00  0.00    -0.384 N 
ATOM     20  H12 UNL     1      -8.982  15.993 -56.326  1.00  0.00     0.157 HD
ATOM     21  H11 UNL     1      -9.027  17.350 -57.455  1.00  0.00     0.157 HD
ENDBRANCH  12  19
BRANCH  14  22
HETATM   22  C19 UNL     1      -8.065  19.534 -56.873  1.00  0.00    -0.059 C 
HETATM   23  C20 UNL     1      -7.600  19.913 -57.926  1.00  0.00    -0.096 C 
BRANCH  23  24
HETATM   24  C21 UNL     1      -7.022  20.387 -59.185  1.00  0.00     0.065 A 
HETATM   25  C22 UNL     1      -6.209  21.624 -59.234  1.00  0.00     0.018 A 
HETATM   26  C23 UNL     1      -5.531  20.302 -59.371  1.00  0.00     0.018 A 
ENDBRANCH  23  24
ENDBRANCH  14  22
ENDBRANCH   8  10
ENDBRANCH   1   8
BRANCH   7  27
HETATM   27  N4  UNL     1     -11.255  17.545 -49.831  1.00  0.00    -0.352 N 
HETATM   28  C10 UNL     1     -12.047  17.694 -48.669  1.00  0.00     0.248 C 
HETATM   29  O1  UNL     1     -11.660  17.139 -47.611  1.00  0.00    -0.271 OA
ATOM     30  H4  UNL     1     -11.570  17.997 -50.690  1.00  0.00     0.163 HD
BRANCH  28  31
HETATM   31  C11 UNL     1     -13.289  18.465 -48.652  1.00  0.00     0.277 C 
HETATM   32  C12 UNL     1     -14.520  17.636 -48.883  1.00  0.00     0.049 C 
HETATM   33  C13 UNL     1     -15.552  18.234 -47.960  1.00  0.00     0.016 C 
HETATM   34  C16 UNL     1     -14.779  19.029 -46.953  1.00  0.00     0.238 C 
HETATM   35  N5  UNL     1     -13.449  19.192 -47.435  1.00  0.00    -0.062 N 
ATOM     36  H52 UNL     1     -12.752  18.931 -46.737  1.00  0.00     0.278 HD
ATOM     37  H51 UNL     1     -13.194  20.174 -47.537  1.00  0.00     0.278 HD
BRANCH  33  38
HETATM   38  C14 UNL     1     -16.611  19.014 -48.676  1.00  0.00     0.032 C 
BRANCH  38  39
HETATM   39  C15 UNL     1     -17.243  18.254 -49.808  1.00  0.00     0.164 C 
BRANCH  39  40
HETATM   40  O2  UNL     1     -18.608  18.622 -49.823  1.00  0.00    -0.401 OA
ATOM     41  H2  UNL     1     -19.083  17.877 -50.171  1.00  0.00     0.209 HD
ENDBRANCH  39  40
ENDBRANCH  38  39
ENDBRANCH  33  38
ENDBRANCH  28  31
ENDBRANCH   7  27
TORSDOF 10
ENDMDL
MODEL 3
REMARK VINA RESULT: -7.994181050      4.476     10.019
REMARK  10 active torsions:
REMARK  status: ('A' for Active; 'I' for Inactive)
REMARK    1  A    between atoms: N1_1  and  C1_4 
REMARK    2  A    between atoms: C2_7  and  N3_8 
REMARK    3  A    between atoms: N3_8  and  C3_10 
REMARK    4  A    between atoms: C9_16  and  N4_17 
REMARK       I    between atoms: N4_17  and  C10_19 
REMARK    5  A    between atoms: C10_19  and  C11_21 
REMARK    6  A    between atoms: C13_23  and  C14_24 
REMARK    7  A    between atoms: C14_24  and  C15_25 
REMARK    8  A    between atoms: C15_25  and  O2_26 
REMARK    9  A    between atoms: C18_36  and  C19_37 
REMARK   10  A    between atoms: C20_38  and  C21_39 
ROOT
HETATM    1  C3  UNL     1     -16.131  18.865 -48.665  1.00  0.00     0.126 C 
HETATM    2  C4  UNL     1     -16.843  17.867 -47.781  1.00  0.00     0.011 C 
HETATM    3  C5  UNL     1     -17.010  18.491 -46.430  1.00  0.00     0.007 C 
HETATM    4  C6  UNL     1     -15.579  18.557 -45.878  1.00  0.00     0.007 C 
HETATM    5  C7  UNL     1     -14.724  17.956 -46.970  1.00  0.00     0.011 C 
HETATM    6  C8  UNL     1     -15.691  16.886 -47.505  1.00  0.00     0.013 C 
HETATM    7  C9  UNL     1     -14.695  18.910 -48.115  1.00  0.00     0.112 C 
ENDROOT
BRANCH   1   8
HETATM    8  N3  UNL     1     -16.146  18.446 -50.028  1.00  0.00    -0.219 N 
ATOM      9  H3  UNL     1     -15.265  18.254 -50.504  1.00  0.00     0.178 HD
BRANCH   8  10
HETATM   10  C2  UNL     1     -17.242  18.307 -50.659  1.00  0.00     0.681 A 
HETATM   11  N2  UNL     1     -18.024  19.368 -50.938  1.00  0.00    -0.176 N 
HETATM   12  C1  UNL     1     -19.200  19.249 -51.609  1.00  0.00     0.136 A 
ATOM     13  H2  UNL     1     -17.722  20.293 -50.635  1.00  0.00     0.186 HD
HETATM   14  C18 UNL     1     -19.628  18.014 -52.029  1.00  0.00     0.100 A 
HETATM   15  C17 UNL     1     -18.833  16.909 -51.748  1.00  0.00     0.141 A 
HETATM   16  N6  UNL     1     -17.695  17.106 -51.086  1.00  0.00    -0.180 N 
HETATM   17 CL1  UNL     1     -19.371  15.334 -52.278  1.00  0.00    -0.062 Cl
ATOM     18  H6  UNL     1     -17.120  16.289 -50.884  1.00  0.00     0.185 HD
BRANCH  12  19
HETATM   19  N1  UNL     1     -19.942  20.269 -51.873  1.00  0.00    -0.384 N 
ATOM     20  H12 UNL     1     -19.883  21.077 -51.254  1.00  0.00     0.157 HD
ATOM     21  H11 UNL     1     -20.575  20.285 -52.673  1.00  0.00     0.157 HD
ENDBRANCH  12  19
BRANCH  14  22
HETATM   22  C19 UNL     1     -20.859  17.839 -52.738  1.00  0.00    -0.059 C 
HETATM   23  C20 UNL     1     -21.905  17.713 -53.337  1.00  0.00    -0.096 C 
BRANCH  23  24
HETATM   24  C21 UNL     1     -23.180  17.553 -54.040  1.00  0.00     0.065 A 
HETATM   25  C22 UNL     1     -23.303  17.879 -55.480  1.00  0.00     0.018 A 
HETATM   26  C23 UNL     1     -23.310  16.449 -55.055  1.00  0.00     0.018 A 
ENDBRANCH  23  24
ENDBRANCH  14  22
ENDBRANCH   8  10
ENDBRANCH   1   8
BRANCH   7  27
HETATM   27  N4  UNL     1     -13.760  18.431 -49.102  1.00  0.00    -0.352 N 
HETATM   28  C10 UNL     1     -12.357  18.580 -48.990  1.00  0.00     0.248 C 
HETATM   29  O1  UNL     1     -11.900  19.161 -47.975  1.00  0.00    -0.271 OA
ATOM     30  H4  UNL     1     -14.130  17.959 -49.926  1.00  0.00     0.163 HD
BRANCH  28  31
HETATM   31  C11 UNL     1     -11.428  18.086 -50.005  1.00  0.00     0.277 C 
HETATM   32  C12 UNL     1     -10.318  19.044 -50.328  1.00  0.00     0.049 C 
HETATM   33  C13 UNL     1      -9.109  18.164 -50.524  1.00  0.00     0.016 C 
HETATM   34  C16 UNL     1      -9.452  16.858 -49.876  1.00  0.00     0.238 C 
HETATM   35  N5  UNL     1     -10.856  16.832 -49.637  1.00  0.00    -0.062 N 
ATOM     36  H52 UNL     1     -11.078  16.575 -48.675  1.00  0.00     0.278 HD
ATOM     37  H51 UNL     1     -11.312  16.048 -50.106  1.00  0.00     0.278 HD
BRANCH  33  38
HETATM   38  C14 UNL     1      -8.683  18.046 -51.955  1.00  0.00     0.032 C 
BRANCH  38  39
HETATM   39  C15 UNL     1      -9.406  18.996 -52.868  1.00  0.00     0.164 C 
BRANCH  39  40
HETATM   40  O2  UNL     1     -10.198  18.199 -53.727  1.00  0.00    -0.401 OA
ATOM     41  H2  UNL     1      -9.861  18.334 -54.605  1.00  0.00     0.209 HD
ENDBRANCH  39  40
ENDBRANCH  38  39
ENDBRANCH  33  38
ENDBRANCH  28  31
ENDBRANCH   7  27
TORSDOF 10
ENDMDL
MODEL 4
REMARK VINA RESULT: -7.963774139      4.557     10.118
REMARK  10 active torsions:
REMARK  status: ('A' for Active; 'I' for Inactive)
REMARK    1  A    between atoms: N1_1  and  C1_4 
REMARK    2  A    between atoms: C2_7  and  N3_8 
REMARK    3  A    between atoms: N3_8  and  C3_10 
REMARK    4  A    between atoms: C9_16  and  N4_17 
REMARK       I    between atoms: N4_17  and  C10_19 
REMARK    5  A    between atoms: C10_19  and  C11_21 
REMARK    6  A    between atoms: C13_23  and  C14_24 
REMARK    7  A    between atoms: C14_24  and  C15_25 
REMARK    8  A    between atoms: C15_25  and  O2_26 
REMARK    9  A    between atoms: C18_36  and  C19_37 
REMARK   10  A    between atoms: C20_38  and  C21_39 
ROOT
HETATM    1  C3  UNL     1     -16.019  19.149 -48.725  1.00  0.00     0.126 C 
HETATM    2  C4  UNL     1     -16.773  18.187 -47.835  1.00  0.00     0.011 C 
HETATM    3  C5  UNL     1     -16.920  18.829 -46.491  1.00  0.00     0.007 C 
HETATM    4  C6  UNL     1     -15.489  18.844 -45.933  1.00  0.00     0.007 C 
HETATM    5  C7  UNL     1     -14.654  18.201 -47.017  1.00  0.00     0.011 C 
HETATM    6  C8  UNL     1     -15.660  17.165 -47.546  1.00  0.00     0.013 C 
HETATM    7  C9  UNL     1     -14.584  19.143 -48.169  1.00  0.00     0.112 C 
ENDROOT
BRANCH   1   8
HETATM    8  N3  UNL     1     -16.044  18.718 -50.085  1.00  0.00    -0.219 N 
ATOM      9  H3  UNL     1     -15.167  18.603 -50.592  1.00  0.00     0.178 HD
BRANCH   8  10
HETATM   10  C2  UNL     1     -17.145  18.474 -50.673  1.00  0.00     0.681 A 
HETATM   11  N2  UNL     1     -17.428  17.243 -51.141  1.00  0.00    -0.176 N 
HETATM   12  C1  UNL     1     -18.596  16.955 -51.775  1.00  0.00     0.136 A 
ATOM     13  H2  UNL     1     -16.741  16.501 -51.016  1.00  0.00     0.186 HD
HETATM   14  C18 UNL     1     -19.538  17.937 -51.956  1.00  0.00     0.100 A 
HETATM   15  C17 UNL     1     -19.261  19.213 -51.479  1.00  0.00     0.141 A 
HETATM   16  N6  UNL     1     -18.095  19.417 -50.871  1.00  0.00    -0.180 N 
HETATM   17 CL1  UNL     1     -20.455  20.468 -51.706  1.00  0.00    -0.062 Cl
ATOM     18  H6  UNL     1     -17.903  20.357 -50.526  1.00  0.00     0.185 HD
BRANCH  12  19
HETATM   19  N1  UNL     1     -18.858  15.774 -52.218  1.00  0.00    -0.384 N 
ATOM     20  H12 UNL     1     -18.948  15.650 -53.226  1.00  0.00     0.157 HD
ATOM     21  H11 UNL     1     -18.977  14.975 -51.595  1.00  0.00     0.157 HD
ENDBRANCH  12  19
BRANCH  14  22
HETATM   22  C19 UNL     1     -20.782  17.681 -52.617  1.00  0.00    -0.059 C 
HETATM   23  C20 UNL     1     -21.844  17.482 -53.165  1.00  0.00    -0.096 C 
BRANCH  23  24
HETATM   24  C21 UNL     1     -23.132  17.222 -53.811  1.00  0.00     0.065 A 
HETATM   25  C22 UNL     1     -23.297  17.382 -55.275  1.00  0.00     0.018 A 
HETATM   26  C23 UNL     1     -23.265  16.009 -54.692  1.00  0.00     0.018 A 
ENDBRANCH  23  24
ENDBRANCH  14  22
ENDBRANCH   8  10
ENDBRANCH   1   8
BRANCH   7  27
HETATM   27  N4  UNL     1     -13.664  18.620 -49.148  1.00  0.00    -0.352 N 
HETATM   28  C10 UNL     1     -12.258  18.715 -49.032  1.00  0.00     0.248 C 
HETATM   29  O1  UNL     1     -11.782  19.287 -48.021  1.00  0.00    -0.271 OA
ATOM     30  H4  UNL     1     -14.050  18.154 -49.970  1.00  0.00     0.163 HD
BRANCH  28  31
HETATM   31  C11 UNL     1     -11.344  18.176 -50.038  1.00  0.00     0.277 C 
HETATM   32  C12 UNL     1     -10.266  19.135 -50.454  1.00  0.00     0.049 C 
HETATM   33  C13 UNL     1      -9.042  18.271 -50.627  1.00  0.00     0.016 C 
HETATM   34  C16 UNL     1      -9.337  17.003 -49.887  1.00  0.00     0.238 C 
HETATM   35  N5  UNL     1     -10.733  16.962 -49.607  1.00  0.00    -0.062 N 
ATOM     36  H52 UNL     1     -10.923  16.763 -48.624  1.00  0.00     0.278 HD
ATOM     37  H51 UNL     1     -11.183  16.140 -50.011  1.00  0.00     0.278 HD
BRANCH  33  38
HETATM   38  C14 UNL     1      -8.652  18.070 -52.058  1.00  0.00     0.032 C 
BRANCH  38  39
HETATM   39  C15 UNL     1      -9.415  18.949 -53.009  1.00  0.00     0.164 C 
BRANCH  39  40
HETATM   40  O2  UNL     1     -10.238  18.089 -53.774  1.00  0.00    -0.401 OA
ATOM     41  H2  UNL     1     -10.339  18.500 -54.624  1.00  0.00     0.209 HD
ENDBRANCH  39  40
ENDBRANCH  38  39
ENDBRANCH  33  38
ENDBRANCH  28  31
ENDBRANCH   7  27
TORSDOF 10
ENDMDL
MODEL 5
REMARK VINA RESULT: -7.875699686      4.623      9.566
REMARK  10 active torsions:
REMARK  status: ('A' for Active; 'I' for Inactive)
REMARK    1  A    between atoms: N1_1  and  C1_4 
REMARK    2  A    between atoms: C2_7  and  N3_8 
REMARK    3  A    between atoms: N3_8  and  C3_10 
REMARK    4  A    between atoms: C9_16  and  N4_17 
REMARK       I    between atoms: N4_17  and  C10_19 
REMARK    5  A    between atoms: C10_19  and  C11_21 
REMARK    6  A    between atoms: C13_23  and  C14_24 
REMARK    7  A    between atoms: C14_24  and  C15_25 
REMARK    8  A    between atoms: C15_25  and  O2_26 
REMARK    9  A    between atoms: C18_36  and  C19_37 
REMARK   10  A    between atoms: C20_38  and  C21_39 
ROOT
HETATM    1  C3  UNL     1      -3.454  18.601 -51.220  1.00  0.00     0.126 C 
HETATM    2  C4  UNL     1      -2.211  17.852 -50.796  1.00  0.00     0.011 C 
HETATM    3  C5  UNL     1      -1.355  18.796 -50.012  1.00  0.00     0.007 C 
HETATM    4  C6  UNL     1      -0.868  19.806 -51.061  1.00  0.00     0.007 C 
HETATM    5  C7  UNL     1      -1.493  19.339 -52.355  1.00  0.00     0.011 C 
HETATM    6  C8  UNL     1      -1.452  17.817 -52.134  1.00  0.00     0.013 C 
HETATM    7  C9  UNL     1      -2.959  19.597 -52.283  1.00  0.00     0.112 C 
ENDROOT
BRANCH   1   8
HETATM    8  N3  UNL     1      -4.428  17.712 -51.764  1.00  0.00    -0.219 N 
ATOM      9  H3  UNL     1      -4.177  17.109 -52.547  1.00  0.00     0.178 HD
BRANCH   8  10
HETATM   10  C2  UNL     1      -5.606  17.661 -51.288  1.00  0.00     0.681 A 
HETATM   11  N2  UNL     1      -5.835  17.204 -50.042  1.00  0.00    -0.176 N 
HETATM   12  C1  UNL     1      -7.083  17.138 -49.507  1.00  0.00     0.136 A 
ATOM     13  H2  UNL     1      -5.042  16.895 -49.479  1.00  0.00     0.186 HD
HETATM   14  C18 UNL     1      -8.167  17.548 -50.243  1.00  0.00     0.100 A 
HETATM   15  C17 UNL     1      -7.948  18.023 -51.532  1.00  0.00     0.141 A 
HETATM   16  N6  UNL     1      -6.697  18.055 -51.985  1.00  0.00    -0.180 N 
HETATM   17 CL1  UNL     1      -9.322  18.546 -52.475  1.00  0.00    -0.062 Cl
ATOM     18  H6  UNL     1      -6.548  18.404 -52.931  1.00  0.00     0.185 HD
BRANCH  12  19
HETATM   19  N1  UNL     1      -7.292  16.700 -48.314  1.00  0.00    -0.384 N 
ATOM     20  H12 UNL     1      -6.860  15.816 -48.045  1.00  0.00     0.157 HD
ATOM     21  H11 UNL     1      -7.871  17.208 -47.644  1.00  0.00     0.157 HD
ENDBRANCH  12  19
BRANCH  14  22
HETATM   22  C19 UNL     1      -9.499  17.497 -49.724  1.00  0.00    -0.059 C 
HETATM   23  C20 UNL     1     -10.628  17.477 -49.282  1.00  0.00    -0.096 C 
BRANCH  23  24
HETATM   24  C21 UNL     1     -11.982  17.447 -48.726  1.00  0.00     0.065 A 
HETATM   25  C22 UNL     1     -12.283  18.071 -47.416  1.00  0.00     0.018 A 
HETATM   26  C23 UNL     1     -12.765  18.731 -48.665  1.00  0.00     0.018 A 
ENDBRANCH  23  24
ENDBRANCH  14  22
ENDBRANCH   8  10
ENDBRANCH   1   8
BRANCH   7  27
HETATM   27  N4  UNL     1      -3.550  19.306 -53.564  1.00  0.00    -0.352 N 
HETATM   28  C10 UNL     1      -3.960  20.301 -54.483  1.00  0.00     0.248 C 
HETATM   29  O1  UNL     1      -3.799  21.505 -54.166  1.00  0.00    -0.271 OA
ATOM     30  H4  UNL     1      -3.681  18.328 -53.823  1.00  0.00     0.163 HD
BRANCH  28  31
HETATM   31  C11 UNL     1      -4.558  19.981 -55.778  1.00  0.00     0.277 C 
HETATM   32  C12 UNL     1      -5.970  20.470 -55.931  1.00  0.00     0.049 C 
HETATM   33  C13 UNL     1      -6.053  20.932 -57.364  1.00  0.00     0.016 C 
HETATM   34  C16 UNL     1      -4.636  21.120 -57.809  1.00  0.00     0.238 C 
HETATM   35  N5  UNL     1      -3.781  20.486 -56.863  1.00  0.00    -0.062 N 
ATOM     36  H52 UNL     1      -3.033  21.102 -56.546  1.00  0.00     0.278 HD
ATOM     37  H51 UNL     1      -3.202  19.762 -57.291  1.00  0.00     0.278 HD
BRANCH  33  38
HETATM   38  C14 UNL     1      -6.856  20.021 -58.239  1.00  0.00     0.032 C 
BRANCH  38  39
HETATM   39  C15 UNL     1      -8.283  19.874 -57.791  1.00  0.00     0.164 C 
BRANCH  39  40
HETATM   40  O2  UNL     1      -8.904  19.002 -58.714  1.00  0.00    -0.401 OA
ATOM     41  H2  UNL     1      -9.774  19.351 -58.871  1.00  0.00     0.209 HD
ENDBRANCH  39  40
ENDBRANCH  38  39
ENDBRANCH  33  38
ENDBRANCH  28  31
ENDBRANCH   7  27
TORSDOF 10
ENDMDL
