MODEL 1
REMARK VINA RESULT: -11.020320167      0.000      0.000
REMARK  6 active torsions:
REMARK  status: ('A' for Active; 'I' for Inactive)
REMARK    1  A    between atoms: C1_2  and  C2_4 
REMARK    2  A    between atoms: C8_10  and  N2_11 
REMARK       I    between atoms: N2_11  and  C9_13 
REMARK    3  A    between atoms: C9_13  and  C10_15 
REMARK    4  A    between atoms: C12_21  and  C13_22 
REMARK       I    between atoms: C13_22  and  N5_24 
REMARK    5  A    between atoms: N5_24  and  N6_25 
REMARK       I    between atoms: N6_25  and  C14_27 
REMARK    6  A    between atoms: C14_27  and  C15_29 
ROOT
HETATM    1  C10 UNL     1     -13.930  17.845 -47.704  1.00  0.00     0.135 A 
HETATM    2  N3  UNL     1     -14.115  18.701 -46.555  1.00  0.00    -0.346 N 
ATOM      3  H3  UNL     1     -13.383  19.097 -45.967  1.00  0.00     0.167 HD
HETATM    4  C11 UNL     1     -15.416  18.873 -46.413  1.00  0.00     0.181 A 
HETATM    5  N4  UNL     1     -16.058  18.180 -47.388  1.00  0.00    -0.345 N 
ATOM      6  H4  UNL     1     -17.064  18.119 -47.542  1.00  0.00     0.167 HD
HETATM    7  C12 UNL     1     -15.070  17.582 -48.118  1.00  0.00     0.151 A 
ENDROOT
BRANCH   1   8
HETATM    8  C9  UNL     1     -12.480  17.728 -48.019  1.00  0.00     0.274 C 
HETATM    9  N2  UNL     1     -12.190  17.939 -49.360  1.00  0.00    -0.328 N 
ATOM     10  H2  UNL     1     -12.986  17.913 -49.997  1.00  0.00     0.168 HD
HETATM   11  O2  UNL     1     -11.668  17.511 -47.153  1.00  0.00    -0.266 OA
BRANCH   9  12
HETATM   12  C8  UNL     1     -10.942  18.182 -49.949  1.00  0.00    -0.002 C 
HETATM   13  C6  UNL     1     -10.019  19.253 -50.067  1.00  0.00     0.033 C 
HETATM   14  C5  UNL     1      -9.905  19.434 -51.678  1.00  0.00     0.015 C 
HETATM   15  C7  UNL     1      -8.554  19.050 -49.749  1.00  0.00     0.029 C 
HETATM   16  C4  UNL     1      -9.592  18.120 -52.296  1.00  0.00    -0.012 C 
HETATM   17  C3  UNL     1      -8.121  17.826 -51.955  1.00  0.00     0.023 C 
HETATM   18  C20 UNL     1     -10.343  16.870 -51.892  1.00  0.00     0.015 C 
HETATM   19  C2  UNL     1      -8.079  17.794 -50.446  1.00  0.00     0.040 C 
HETATM   20  C21 UNL     1      -8.878  16.665 -49.895  1.00  0.00     0.029 C 
HETATM   21  C19 UNL     1     -10.267  16.856 -50.295  1.00  0.00     0.033 C 
BRANCH  19  22
HETATM   22  C1  UNL     1      -6.622  17.553 -50.141  1.00  0.00     0.239 C 
HETATM   23  N1  UNL     1      -6.283  16.900 -48.881  1.00  0.00    -0.061 NA
HETATM   24  O1  UNL     1      -5.738  17.928 -50.940  1.00  0.00    -0.276 OA
ENDBRANCH  19  22
ENDBRANCH   9  12
ENDBRANCH   1   8
BRANCH   7  25
HETATM   25  C13 UNL     1     -15.532  16.710 -49.394  1.00  0.00     0.364 C 
HETATM   26  O3  UNL     1     -14.539  16.034 -49.625  1.00  0.00    -0.247 OA
HETATM   27  N5  UNL     1     -16.726  17.021 -49.736  1.00  0.00    -0.277 NA
BRANCH  27  28
HETATM   28  N6  UNL     1     -18.023  17.301 -50.188  1.00  0.00    -0.194 N 
HETATM   29  C14 UNL     1     -18.263  17.038 -51.541  1.00  0.00     0.297 C 
HETATM   30  O4  UNL     1     -17.407  16.662 -52.350  1.00  0.00    -0.263 OA
ATOM     31  H6  UNL     1     -18.745  17.672 -49.570  1.00  0.00     0.205 HD
BRANCH  29  32
HETATM   32  C15 UNL     1     -19.589  17.142 -52.112  1.00  0.00     0.106 A 
HETATM   33  C16 UNL     1     -20.433  18.177 -52.484  1.00  0.00     0.079 A 
HETATM   34  C17 UNL     1     -21.721  17.640 -52.751  1.00  0.00     0.134 A 
HETATM   35  F1  UNL     1     -22.794  18.355 -53.112  1.00  0.00    -0.205 F 
HETATM   36  C18 UNL     1     -21.647  16.314 -52.551  1.00  0.00     0.130 A 
HETATM   37  N7  UNL     1     -20.406  15.998 -52.178  1.00  0.00    -0.358 N 
ATOM     38  H7  UNL     1     -20.090  15.051 -51.969  1.00  0.00     0.165 HD
ENDBRANCH  29  32
ENDBRANCH  27  28
ENDBRANCH   7  25
TORSDOF 6
ENDMDL
MODEL 2
REMARK VINA RESULT: -10.772318002      4.110      8.419
REMARK  6 active torsions:
REMARK  status: ('A' for Active; 'I' for Inactive)
REMARK    1  A    between atoms: C1_2  and  C2_4 
REMARK    2  A    between atoms: C8_10  and  N2_11 
REMARK       I    between atoms: N2_11  and  C9_13 
REMARK    3  A    between atoms: C9_13  and  C10_15 
REMARK    4  A    between atoms: C12_21  and  C13_22 
REMARK       I    between atoms: C13_22  and  N5_24 
REMARK    5  A    between atoms: N5_24  and  N6_25 
REMARK       I    between atoms: N6_25  and  C14_27 
REMARK    6  A    between atoms: C14_27  and  C15_29 
ROOT
HETATM    1  C10 UNL     1     -10.332  17.639 -49.213  1.00  0.00     0.135 A 
HETATM    2  N3  UNL     1      -9.333  16.864 -48.512  1.00  0.00    -0.346 N 
ATOM      3  H3  UNL     1      -9.421  16.459 -47.581  1.00  0.00     0.167 HD
HETATM    4  C11 UNL     1      -8.285  16.781 -49.310  1.00  0.00     0.181 A 
HETATM    5  N4  UNL     1      -8.556  17.454 -50.458  1.00  0.00    -0.345 N 
ATOM      6  H4  UNL     1      -7.944  17.568 -51.266  1.00  0.00     0.167 HD
HETATM    7  C12 UNL     1      -9.820  17.946 -50.301  1.00  0.00     0.151 A 
ENDROOT
BRANCH   1   8
HETATM    8  C9  UNL     1     -11.602  17.647 -48.436  1.00  0.00     0.274 C 
HETATM    9  N2  UNL     1     -12.721  17.910 -49.215  1.00  0.00    -0.328 N 
ATOM     10  H2  UNL     1     -12.538  18.290 -50.144  1.00  0.00     0.168 HD
HETATM   11  O2  UNL     1     -11.613  17.403 -47.254  1.00  0.00    -0.266 OA
BRANCH   9  12
HETATM   12  C8  UNL     1     -14.069  17.721 -48.886  1.00  0.00    -0.002 C 
HETATM   13  C6  UNL     1     -15.082  16.749 -49.093  1.00  0.00     0.033 C 
HETATM   14  C5  UNL     1     -16.231  17.608 -49.858  1.00  0.00     0.015 C 
HETATM   15  C7  UNL     1     -15.907  16.233 -47.935  1.00  0.00     0.029 C 
HETATM   16  C4  UNL     1     -16.533  18.831 -49.071  1.00  0.00    -0.012 C 
HETATM   17  C3  UNL     1     -17.325  18.361 -47.838  1.00  0.00     0.023 C 
HETATM   18  C20 UNL     1     -15.422  19.693 -48.514  1.00  0.00     0.015 C 
HETATM   19  C2  UNL     1     -16.392  17.413 -47.124  1.00  0.00     0.040 C 
HETATM   20  C21 UNL     1     -15.182  18.113 -46.611  1.00  0.00     0.029 C 
HETATM   21  C19 UNL     1     -14.462  18.666 -47.752  1.00  0.00     0.033 C 
BRANCH  19  22
HETATM   22  C1  UNL     1     -17.210  16.934 -45.951  1.00  0.00     0.239 C 
HETATM   23  N1  UNL     1     -17.391  15.496 -45.781  1.00  0.00    -0.061 NA
HETATM   24  O1  UNL     1     -17.734  17.755 -45.168  1.00  0.00    -0.276 OA
ENDBRANCH  19  22
ENDBRANCH   9  12
ENDBRANCH   1   8
BRANCH   7  25
HETATM   25  C13 UNL     1     -10.442  18.769 -51.541  1.00  0.00     0.364 C 
HETATM   26  O3  UNL     1     -10.998  19.706 -50.985  1.00  0.00    -0.247 OA
HETATM   27  N5  UNL     1     -10.175  18.178 -52.644  1.00  0.00    -0.277 NA
BRANCH  27  28
HETATM   28  N6  UNL     1      -9.939  17.598 -53.899  1.00  0.00    -0.194 N 
HETATM   29  C14 UNL     1     -10.568  16.370 -54.127  1.00  0.00     0.297 C 
HETATM   30  O4  UNL     1     -11.232  15.750 -53.289  1.00  0.00    -0.263 OA
ATOM     31  H6  UNL     1      -9.346  18.043 -54.600  1.00  0.00     0.205 HD
BRANCH  29  32
HETATM   32  C15 UNL     1     -10.532  15.726 -55.423  1.00  0.00     0.106 A 
HETATM   33  C16 UNL     1     -11.108  14.598 -55.989  1.00  0.00     0.079 A 
HETATM   34  C17 UNL     1     -10.482  14.348 -57.241  1.00  0.00     0.134 A 
HETATM   35  F1  UNL     1     -10.768  13.323 -58.054  1.00  0.00    -0.205 F 
HETATM   36  C18 UNL     1      -9.560  15.308 -57.422  1.00  0.00     0.130 A 
HETATM   37  N7  UNL     1      -9.573  16.129 -56.370  1.00  0.00    -0.358 N 
ATOM     38  H7  UNL     1      -8.966  16.943 -56.267  1.00  0.00     0.165 HD
ENDBRANCH  29  32
ENDBRANCH  27  28
ENDBRANCH   7  25
TORSDOF 6
ENDMDL
MODEL 3
REMARK VINA RESULT: -10.733441916      3.941      8.425
REMARK  6 active torsions:
REMARK  status: ('A' for Active; 'I' for Inactive)
REMARK    1  A    between atoms: C1_2  and  C2_4 
REMARK    2  A    between atoms: C8_10  and  N2_11 
REMARK       I    between atoms: N2_11  and  C9_13 
REMARK    3  A    between atoms: C9_13  and  C10_15 
REMARK    4  A    between atoms: C12_21  and  C13_22 
REMARK       I    between atoms: C13_22  and  N5_24 
REMARK    5  A    between atoms: N5_24  and  N6_25 
REMARK       I    between atoms: N6_25  and  C14_27 
REMARK    6  A    between atoms: C14_27  and  C15_29 
ROOT
HETATM    1  C10 UNL     1     -10.355  17.709 -49.171  1.00  0.00     0.135 A 
HETATM    2  N3  UNL     1      -9.446  16.847 -48.452  1.00  0.00    -0.346 N 
ATOM      3  H3  UNL     1      -9.581  16.466 -47.516  1.00  0.00     0.167 HD
HETATM    4  C11 UNL     1      -8.406  16.645 -49.240  1.00  0.00     0.181 A 
HETATM    5  N4  UNL     1      -8.598  17.326 -50.399  1.00  0.00    -0.345 N 
ATOM      6  H4  UNL     1      -7.972  17.366 -51.203  1.00  0.00     0.167 HD
HETATM    7  C12 UNL     1      -9.807  17.947 -50.259  1.00  0.00     0.151 A 
ENDROOT
BRANCH   1   8
HETATM    8  C9  UNL     1     -11.623  17.858 -48.405  1.00  0.00     0.274 C 
HETATM    9  N2  UNL     1     -12.637  18.465 -49.134  1.00  0.00    -0.328 N 
ATOM     10  H2  UNL     1     -12.349  18.938 -49.991  1.00  0.00     0.168 HD
HETATM   11  O2  UNL     1     -11.725  17.441 -47.278  1.00  0.00    -0.266 OA
BRANCH   9  12
HETATM   12  C8  UNL     1     -14.006  18.508 -48.842  1.00  0.00    -0.002 C 
HETATM   13  C6  UNL     1     -15.000  19.484 -48.571  1.00  0.00     0.033 C 
HETATM   14  C5  UNL     1     -15.529  19.037 -47.100  1.00  0.00     0.015 C 
HETATM   15  C7  UNL     1     -16.320  19.470 -49.310  1.00  0.00     0.029 C 
HETATM   16  C4  UNL     1     -15.898  17.599 -47.129  1.00  0.00    -0.012 C 
HETATM   17  C3  UNL     1     -17.212  17.510 -47.926  1.00  0.00     0.023 C 
HETATM   18  C20 UNL     1     -14.987  16.573 -47.768  1.00  0.00     0.015 C 
HETATM   19  C2  UNL     1     -16.869  18.061 -49.290  1.00  0.00     0.040 C 
HETATM   20  C21 UNL     1     -15.882  17.201 -49.999  1.00  0.00     0.029 C 
HETATM   21  C19 UNL     1     -14.656  17.175 -49.212  1.00  0.00     0.033 C 
BRANCH  19  22
HETATM   22  C1  UNL     1     -18.182  18.006 -50.029  1.00  0.00     0.239 C 
HETATM   23  N1  UNL     1     -18.400  16.906 -50.962  1.00  0.00    -0.061 NA
HETATM   24  O1  UNL     1     -19.041  18.898 -49.860  1.00  0.00    -0.276 OA
ENDBRANCH  19  22
ENDBRANCH   9  12
ENDBRANCH   1   8
BRANCH   7  25
HETATM   25  C13 UNL     1     -10.333  18.812 -51.515  1.00  0.00     0.364 C 
HETATM   26  O3  UNL     1     -10.834  19.787 -50.973  1.00  0.00    -0.247 OA
HETATM   27  N5  UNL     1     -10.079  18.202 -52.611  1.00  0.00    -0.277 NA
BRANCH  27  28
HETATM   28  N6  UNL     1      -9.850  17.605 -53.859  1.00  0.00    -0.194 N 
HETATM   29  C14 UNL     1     -10.540  16.411 -54.096  1.00  0.00     0.297 C 
HETATM   30  O4  UNL     1     -11.252  15.831 -53.269  1.00  0.00    -0.263 OA
ATOM     31  H6  UNL     1      -9.221  18.015 -54.550  1.00  0.00     0.205 HD
BRANCH  29  32
HETATM   32  C15 UNL     1     -10.515  15.761 -55.389  1.00  0.00     0.106 A 
HETATM   33  C16 UNL     1     -11.086  14.625 -55.942  1.00  0.00     0.079 A 
HETATM   34  C17 UNL     1     -10.473  14.375 -57.200  1.00  0.00     0.134 A 
HETATM   35  F1  UNL     1     -10.759  13.344 -58.004  1.00  0.00    -0.205 F 
HETATM   36  C18 UNL     1      -9.564  15.343 -57.398  1.00  0.00     0.130 A 
HETATM   37  N7  UNL     1      -9.571  16.169 -56.350  1.00  0.00    -0.358 N 
ATOM     38  H7  UNL     1      -8.971  16.989 -56.258  1.00  0.00     0.165 HD
ENDBRANCH  29  32
ENDBRANCH  27  28
ENDBRANCH   7  25
TORSDOF 6
ENDMDL
MODEL 4
REMARK VINA RESULT: -10.682833168      3.763      8.757
REMARK  6 active torsions:
REMARK  status: ('A' for Active; 'I' for Inactive)
REMARK    1  A    between atoms: C1_2  and  C2_4 
REMARK    2  A    between atoms: C8_10  and  N2_11 
REMARK       I    between atoms: N2_11  and  C9_13 
REMARK    3  A    between atoms: C9_13  and  C10_15 
REMARK    4  A    between atoms: C12_21  and  C13_22 
REMARK       I    between atoms: C13_22  and  N5_24 
REMARK    5  A    between atoms: N5_24  and  N6_25 
REMARK       I    between atoms: N6_25  and  C14_27 
REMARK    6  A    between atoms: C14_27  and  C15_29 
ROOT
HETATM    1  C10 UNL     1     -10.088  17.778 -48.599  1.00  0.00     0.135 A 
HETATM    2  N3  UNL     1      -9.514  16.498 -48.249  1.00  0.00    -0.346 N 
ATOM      3  H3  UNL     1      -9.900  15.817 -47.596  1.00  0.00     0.167 HD
HETATM    4  C11 UNL     1      -8.394  16.380 -48.938  1.00  0.00     0.181 A 
HETATM    5  N4  UNL     1      -8.224  17.498 -49.689  1.00  0.00    -0.345 N 
ATOM      6  H4  UNL     1      -7.455  17.702 -50.327  1.00  0.00     0.167 HD
HETATM    7  C12 UNL     1      -9.300  18.291 -49.409  1.00  0.00     0.151 A 
ENDROOT
BRANCH   1   8
HETATM    8  C9  UNL     1     -11.432  17.917 -47.976  1.00  0.00     0.274 C 
HETATM    9  N2  UNL     1     -12.368  18.507 -48.814  1.00  0.00    -0.328 N 
ATOM     10  H2  UNL     1     -11.995  18.979 -49.637  1.00  0.00     0.168 HD
HETATM   11  O2  UNL     1     -11.651  17.504 -46.863  1.00  0.00    -0.266 OA
BRANCH   9  12
HETATM   12  C8  UNL     1     -13.761  18.537 -48.671  1.00  0.00    -0.002 C 
HETATM   13  C6  UNL     1     -14.802  19.501 -48.643  1.00  0.00     0.033 C 
HETATM   14  C5  UNL     1     -15.473  19.241 -47.185  1.00  0.00     0.015 C 
HETATM   15  C7  UNL     1     -16.035  19.334 -49.503  1.00  0.00     0.029 C 
HETATM   16  C4  UNL     1     -15.801  17.799 -47.049  1.00  0.00    -0.012 C 
HETATM   17  C3  UNL     1     -17.020  17.550 -47.954  1.00  0.00     0.023 C 
HETATM   18  C20 UNL     1     -14.802  16.732 -47.440  1.00  0.00     0.015 C 
HETATM   19  C2  UNL     1     -16.549  17.920 -49.340  1.00  0.00     0.040 C 
HETATM   20  C21 UNL     1     -15.471  17.010 -49.817  1.00  0.00     0.029 C 
HETATM   21  C19 UNL     1     -14.335  17.142 -48.913  1.00  0.00     0.033 C 
BRANCH  19  22
HETATM   22  C1  UNL     1     -17.774  17.713 -50.194  1.00  0.00     0.239 C 
HETATM   23  N1  UNL     1     -18.745  18.799 -50.277  1.00  0.00    -0.061 NA
HETATM   24  O1  UNL     1     -17.955  16.629 -50.788  1.00  0.00    -0.276 OA
ENDBRANCH  19  22
ENDBRANCH   9  12
ENDBRANCH   1   8
BRANCH   7  25
HETATM   25  C13 UNL     1      -9.397  19.695 -50.199  1.00  0.00     0.364 C 
HETATM   26  O3  UNL     1      -9.666  20.484 -49.304  1.00  0.00    -0.247 OA
HETATM   27  N5  UNL     1      -9.192  19.515 -51.450  1.00  0.00    -0.277 NA
BRANCH  27  28
HETATM   28  N6  UNL     1      -8.988  19.415 -52.833  1.00  0.00    -0.194 N 
HETATM   29  C14 UNL     1      -9.204  18.148 -53.387  1.00  0.00     0.297 C 
HETATM   30  O4  UNL     1      -9.478  17.132 -52.740  1.00  0.00    -0.263 OA
ATOM     31  H6  UNL     1      -8.699  20.213 -53.399  1.00  0.00     0.205 HD
BRANCH  29  32
HETATM   32  C15 UNL     1      -9.172  17.929 -54.817  1.00  0.00     0.106 A 
HETATM   33  C16 UNL     1      -9.432  16.863 -55.666  1.00  0.00     0.079 A 
HETATM   34  C17 UNL     1      -8.971  17.196 -56.968  1.00  0.00     0.134 A 
HETATM   35  F1  UNL     1      -9.036  16.391 -58.037  1.00  0.00    -0.205 F 
HETATM   36  C18 UNL     1      -8.455  18.434 -56.902  1.00  0.00     0.130 A 
HETATM   37  N7  UNL     1      -8.564  18.885 -55.652  1.00  0.00    -0.358 N 
ATOM     38  H7  UNL     1      -8.247  19.803 -55.341  1.00  0.00     0.165 HD
ENDBRANCH  29  32
ENDBRANCH  27  28
ENDBRANCH   7  25
TORSDOF 6
ENDMDL
MODEL 5
REMARK VINA RESULT: -10.540147372      1.215      1.249
REMARK  6 active torsions:
REMARK  status: ('A' for Active; 'I' for Inactive)
REMARK    1  A    between atoms: C1_2  and  C2_4 
REMARK    2  A    between atoms: C8_10  and  N2_11 
REMARK       I    between atoms: N2_11  and  C9_13 
REMARK    3  A    between atoms: C9_13  and  C10_15 
REMARK    4  A    between atoms: C12_21  and  C13_22 
REMARK       I    between atoms: C13_22  and  N5_24 
REMARK    5  A    between atoms: N5_24  and  N6_25 
REMARK       I    between atoms: N6_25  and  C14_27 
REMARK    6  A    between atoms: C14_27  and  C15_29 
ROOT
HETATM    1  C10 UNL     1     -13.799  18.350 -47.352  1.00  0.00     0.135 A 
HETATM    2  N3  UNL     1     -13.887  18.164 -45.923  1.00  0.00    -0.346 N 
ATOM      3  H3  UNL     1     -13.173  17.760 -45.317  1.00  0.00     0.167 HD
HETATM    4  C11 UNL     1     -15.070  18.617 -45.550  1.00  0.00     0.181 A 
HETATM    5  N4  UNL     1     -15.729  19.068 -46.648  1.00  0.00    -0.345 N 
ATOM      6  H4  UNL     1     -16.663  19.477 -46.682  1.00  0.00     0.167 HD
HETATM    7  C12 UNL     1     -14.879  18.856 -47.695  1.00  0.00     0.151 A 
ENDROOT
BRANCH   1   8
HETATM    8  C9  UNL     1     -12.431  18.001 -47.824  1.00  0.00     0.274 C 
HETATM    9  N2  UNL     1     -12.184  18.394 -49.133  1.00  0.00    -0.328 N 
ATOM     10  H2  UNL     1     -13.003  18.650 -49.684  1.00  0.00     0.168 HD
HETATM   11  O2  UNL     1     -11.634  17.466 -47.092  1.00  0.00    -0.266 OA
BRANCH   9  12
HETATM   12  C8  UNL     1     -10.951  18.484 -49.792  1.00  0.00    -0.002 C 
HETATM   13  C6  UNL     1      -9.961  19.465 -50.056  1.00  0.00     0.033 C 
HETATM   14  C5  UNL     1      -9.911  19.475 -51.681  1.00  0.00     0.015 C 
HETATM   15  C7  UNL     1      -8.501  19.185 -49.777  1.00  0.00     0.029 C 
HETATM   16  C4  UNL     1      -9.721  18.087 -52.173  1.00  0.00    -0.012 C 
HETATM   17  C3  UNL     1      -8.260  17.719 -51.861  1.00  0.00     0.023 C 
HETATM   18  C20 UNL     1     -10.538  16.943 -51.613  1.00  0.00     0.015 C 
HETATM   19  C2  UNL     1      -8.149  17.835 -50.360  1.00  0.00     0.040 C 
HETATM   20  C21 UNL     1      -8.999  16.829 -49.665  1.00  0.00     0.029 C 
HETATM   21  C19 UNL     1     -10.388  17.083 -50.027  1.00  0.00     0.033 C 
BRANCH  19  22
HETATM   22  C1  UNL     1      -6.700  17.516 -50.089  1.00  0.00     0.239 C 
HETATM   23  N1  UNL     1      -6.367  16.832 -48.845  1.00  0.00    -0.061 NA
HETATM   24  O1  UNL     1      -5.815  17.857 -50.903  1.00  0.00    -0.276 OA
ENDBRANCH  19  22
ENDBRANCH   9  12
ENDBRANCH   1   8
BRANCH   7  25
HETATM   25  C13 UNL     1     -15.379  19.340 -49.151  1.00  0.00     0.364 C 
HETATM   26  O3  UNL     1     -14.564  20.207 -49.435  1.00  0.00    -0.247 OA
HETATM   27  N5  UNL     1     -16.430  18.697 -49.495  1.00  0.00    -0.277 NA
BRANCH  27  28
HETATM   28  N6  UNL     1     -17.586  18.049 -49.954  1.00  0.00    -0.194 N 
HETATM   29  C14 UNL     1     -18.096  18.511 -51.172  1.00  0.00     0.297 C 
HETATM   30  O4  UNL     1     -17.650  19.474 -51.805  1.00  0.00    -0.263 OA
ATOM     31  H6  UNL     1     -18.026  17.291 -49.433  1.00  0.00     0.205 HD
BRANCH  29  32
HETATM   32  C15 UNL     1     -19.196  17.844 -51.837  1.00  0.00     0.106 A 
HETATM   33  C16 UNL     1     -20.385  18.240 -52.431  1.00  0.00     0.079 A 
HETATM   34  C17 UNL     1     -21.172  17.085 -52.687  1.00  0.00     0.134 A 
HETATM   35  F1  UNL     1     -22.395  17.091 -53.230  1.00  0.00    -0.205 F 
HETATM   36  C18 UNL     1     -20.466  16.023 -52.264  1.00  0.00     0.130 A 
HETATM   37  N7  UNL     1     -19.303  16.443 -51.764  1.00  0.00    -0.358 N 
ATOM     38  H7  UNL     1     -18.585  15.829 -51.379  1.00  0.00     0.165 HD
ENDBRANCH  29  32
ENDBRANCH  27  28
ENDBRANCH   7  25
TORSDOF 6
ENDMDL
