MODEL 1
REMARK VINA RESULT: -8.272796907      0.000      0.000
REMARK  10 active torsions:
REMARK  status: ('A' for Active; 'I' for Inactive)
REMARK    1  A    between atoms: C1_2  and  C2_3 
REMARK       I    between atoms: C1_2  and  N3_24 
REMARK    2  A    between atoms: C2_3  and  N1_4 
REMARK    3  A    between atoms: N1_4  and  C3_6 
REMARK    4  A    between atoms: C3_6  and  N2_8 
REMARK    5  A    between atoms: N2_8  and  C4_10 
REMARK    6  A    between atoms: C4_10  and  O2_11 
REMARK    7  A    between atoms: C4_10  and  C5_13 
REMARK    8  A    between atoms: C11_19  and  O3_20 
REMARK    9  A    between atoms: N3_24  and  C14_26 
REMARK   10  A    between atoms: C17_29  and  C18_30 
ROOT
HETATM    1  C3  UNL     1     -11.154  17.848 -49.962  1.00  0.00     0.170 C 
HETATM    2  S1  UNL     1     -10.555  16.504 -50.717  1.00  0.00    -0.041 SA
ENDROOT
BRANCH   1   3
HETATM    3  N1  UNL     1     -10.642  19.146 -50.219  1.00  0.00    -0.358 N 
ATOM      4  H1  UNL     1     -11.183  19.948 -49.894  1.00  0.00     0.162 HD
BRANCH   3   5
HETATM    5  C2  UNL     1      -9.408  19.397 -50.907  1.00  0.00     0.224 C 
BRANCH   5   6
HETATM    6  C1  UNL     1      -9.520  19.738 -52.322  1.00  0.00     0.235 C 
HETATM    7  O1  UNL     1     -10.531  20.463 -52.640  1.00  0.00    -0.272 OA
HETATM    8  N3  UNL     1      -8.590  19.305 -53.269  1.00  0.00    -0.354 N 
ATOM      9  H3  UNL     1      -7.809  18.735 -52.945  1.00  0.00     0.163 HD
BRANCH   8  10
HETATM   10  C14 UNL     1      -8.664  19.614 -54.685  1.00  0.00     0.102 C 
HETATM   11  C15 UNL     1      -8.281  18.391 -55.508  1.00  0.00     0.028 C 
HETATM   12  C16 UNL     1      -8.655  18.679 -56.923  1.00  0.00     0.017 C 
HETATM   13  C17 UNL     1      -8.135  19.957 -57.486  1.00  0.00     0.088 C 
HETATM   14  C19 UNL     1      -7.996  21.087 -56.517  1.00  0.00     0.037 C 
HETATM   15  C20 UNL     1      -7.708  20.703 -55.107  1.00  0.00     0.106 C 
HETATM   16 CL1  UNL     1      -6.010  20.244 -54.851  1.00  0.00    -0.123 Cl
BRANCH  13  17
HETATM   17  C18 UNL     1      -6.918  19.729 -58.293  1.00  0.00     0.177 C 
HETATM   18  O4  UNL     1      -6.600  18.558 -58.585  1.00  0.00    -0.648 OA
HETATM   19  O5  UNL     1      -6.123  20.767 -58.733  1.00  0.00    -0.648 OA
ENDBRANCH  13  17
ENDBRANCH   8  10
ENDBRANCH   5   6
ENDBRANCH   3   5
ENDBRANCH   1   3
BRANCH   1  20
HETATM   20  N2  UNL     1     -12.223  17.680 -49.048  1.00  0.00    -0.340 N 
ATOM     21  H2  UNL     1     -12.307  16.800 -48.539  1.00  0.00     0.164 HD
BRANCH  20  22
HETATM   22  C4  UNL     1     -13.200  18.723 -48.818  1.00  0.00     0.231 C 
BRANCH  22  23
HETATM   23  O2  UNL     1     -12.768  19.717 -47.977  1.00  0.00    -0.376 OA
ATOM     24  H2  UNL     1     -13.319  20.491 -47.977  1.00  0.00     0.212 HD
ENDBRANCH  22  23
BRANCH  22  25
HETATM   25  C5  UNL     1     -14.494  18.177 -48.330  1.00  0.00     0.035 C 
HETATM   26  C6  UNL     1     -14.839  16.827 -48.971  1.00  0.00     0.021 C 
HETATM   27  C7  UNL     1     -16.362  16.852 -48.772  1.00  0.00    -0.010 C 
HETATM   28  C8  UNL     1     -16.734  16.928 -47.325  1.00  0.00     0.009 C 
HETATM   29  C12 UNL     1     -16.667  18.209 -49.412  1.00  0.00     0.043 C 
HETATM   30  C9  UNL     1     -16.040  18.032 -46.598  1.00  0.00    -0.010 C 
HETATM   31  C10 UNL     1     -16.314  19.365 -47.308  1.00  0.00     0.043 C 
HETATM   32  C13 UNL     1     -14.525  17.932 -46.839  1.00  0.00     0.021 C 
HETATM   33  C11 UNL     1     -15.644  19.070 -48.656  1.00  0.00     0.070 C 
BRANCH  33  34
HETATM   34  O3  UNL     1     -15.314  20.206 -49.340  1.00  0.00    -0.389 OA
ATOM     35  H3  UNL     1     -15.975  20.513 -49.949  1.00  0.00     0.210 HD
ENDBRANCH  33  34
ENDBRANCH  22  25
ENDBRANCH  20  22
ENDBRANCH   1  20
TORSDOF 10
ENDMDL
MODEL 2
REMARK VINA RESULT: -8.134205824      4.500      8.609
REMARK  10 active torsions:
REMARK  status: ('A' for Active; 'I' for Inactive)
REMARK    1  A    between atoms: C1_2  and  C2_3 
REMARK       I    between atoms: C1_2  and  N3_24 
REMARK    2  A    between atoms: C2_3  and  N1_4 
REMARK    3  A    between atoms: N1_4  and  C3_6 
REMARK    4  A    between atoms: C3_6  and  N2_8 
REMARK    5  A    between atoms: N2_8  and  C4_10 
REMARK    6  A    between atoms: C4_10  and  O2_11 
REMARK    7  A    between atoms: C4_10  and  C5_13 
REMARK    8  A    between atoms: C11_19  and  O3_20 
REMARK    9  A    between atoms: N3_24  and  C14_26 
REMARK   10  A    between atoms: C17_29  and  C18_30 
ROOT
HETATM    1  C3  UNL     1     -11.894  18.279 -46.929  1.00  0.00     0.170 C 
HETATM    2  S1  UNL     1     -11.698  19.902 -47.173  1.00  0.00    -0.041 SA
ENDROOT
BRANCH   1   3
HETATM    3  N1  UNL     1     -12.656  17.767 -45.848  1.00  0.00    -0.358 N 
ATOM      4  H1  UNL     1     -12.319  16.926 -45.379  1.00  0.00     0.162 HD
BRANCH   3   5
HETATM    5  C2  UNL     1     -13.873  18.362 -45.374  1.00  0.00     0.224 C 
BRANCH   5   6
HETATM    6  C1  UNL     1     -14.995  18.359 -46.309  1.00  0.00     0.235 C 
HETATM    7  O1  UNL     1     -15.885  19.263 -46.110  1.00  0.00    -0.272 OA
HETATM    8  N3  UNL     1     -15.095  17.437 -47.352  1.00  0.00    -0.354 N 
ATOM      9  H3  UNL     1     -14.349  16.749 -47.454  1.00  0.00     0.163 HD
BRANCH   8  10
HETATM   10  C14 UNL     1     -16.193  17.394 -48.300  1.00  0.00     0.102 C 
HETATM   11  C15 UNL     1     -15.720  16.804 -49.622  1.00  0.00     0.028 C 
HETATM   12  C16 UNL     1     -16.936  16.520 -50.437  1.00  0.00     0.017 C 
HETATM   13  C17 UNL     1     -17.887  17.654 -50.602  1.00  0.00     0.088 C 
HETATM   14  C19 UNL     1     -17.979  18.602 -49.449  1.00  0.00     0.037 C 
HETATM   15  C20 UNL     1     -16.740  18.759 -48.638  1.00  0.00     0.106 C 
HETATM   16 CL1  UNL     1     -15.528  19.796 -49.422  1.00  0.00    -0.123 Cl
BRANCH  13  17
HETATM   17  C18 UNL     1     -17.688  18.334 -51.900  1.00  0.00     0.177 C 
HETATM   18  O4  UNL     1     -18.150  19.483 -52.055  1.00  0.00    -0.648 OA
HETATM   19  O5  UNL     1     -17.010  17.740 -52.944  1.00  0.00    -0.648 OA
ENDBRANCH  13  17
ENDBRANCH   8  10
ENDBRANCH   5   6
ENDBRANCH   3   5
ENDBRANCH   1   3
BRANCH   1  20
HETATM   20  N2  UNL     1     -11.289  17.388 -47.850  1.00  0.00    -0.340 N 
ATOM     21  H2  UNL     1     -10.634  16.686 -47.504  1.00  0.00     0.164 HD
BRANCH  20  22
HETATM   22  C4  UNL     1     -11.577  17.447 -49.268  1.00  0.00     0.231 C 
BRANCH  22  23
HETATM   23  O2  UNL     1     -12.256  16.356 -49.746  1.00  0.00    -0.376 OA
ATOM     24  H2  UNL     1     -13.067  16.570 -50.192  1.00  0.00     0.212 HD
ENDBRANCH  22  23
BRANCH  22  25
HETATM   25  C5  UNL     1     -10.348  17.671 -50.076  1.00  0.00     0.035 C 
HETATM   26  C6  UNL     1      -9.071  17.610 -49.229  1.00  0.00     0.021 C 
HETATM   27  C7  UNL     1      -8.146  18.434 -50.138  1.00  0.00    -0.010 C 
HETATM   28  C8  UNL     1      -7.987  17.809 -51.487  1.00  0.00     0.009 C 
HETATM   29  C12 UNL     1      -9.013  19.686 -50.294  1.00  0.00     0.043 C 
HETATM   30  C9  UNL     1      -9.290  17.481 -52.138  1.00  0.00    -0.010 C 
HETATM   31  C10 UNL     1     -10.158  18.745 -52.215  1.00  0.00     0.043 C 
HETATM   32  C13 UNL     1     -10.151  16.650 -51.173  1.00  0.00     0.021 C 
HETATM   33  C11 UNL     1     -10.330  19.019 -50.715  1.00  0.00     0.070 C 
BRANCH  33  34
HETATM   34  O3  UNL     1     -11.419  19.799 -50.444  1.00  0.00    -0.389 OA
ATOM     35  H3  UNL     1     -11.280  20.463 -49.779  1.00  0.00     0.210 HD
ENDBRANCH  33  34
ENDBRANCH  22  25
ENDBRANCH  20  22
ENDBRANCH   1  20
TORSDOF 10
ENDMDL
MODEL 3
REMARK VINA RESULT: -8.088418096      2.845      3.476
REMARK  10 active torsions:
REMARK  status: ('A' for Active; 'I' for Inactive)
REMARK    1  A    between atoms: C1_2  and  C2_3 
REMARK       I    between atoms: C1_2  and  N3_24 
REMARK    2  A    between atoms: C2_3  and  N1_4 
REMARK    3  A    between atoms: N1_4  and  C3_6 
REMARK    4  A    between atoms: C3_6  and  N2_8 
REMARK    5  A    between atoms: N2_8  and  C4_10 
REMARK    6  A    between atoms: C4_10  and  O2_11 
REMARK    7  A    between atoms: C4_10  and  C5_13 
REMARK    8  A    between atoms: C11_19  and  O3_20 
REMARK    9  A    between atoms: N3_24  and  C14_26 
REMARK   10  A    between atoms: C17_29  and  C18_30 
ROOT
HETATM    1  C3  UNL     1     -11.363  18.457 -49.152  1.00  0.00     0.170 C 
HETATM    2  S1  UNL     1      -9.993  19.341 -49.426  1.00  0.00    -0.041 SA
ENDROOT
BRANCH   1   3
HETATM    3  N1  UNL     1     -11.384  17.043 -49.268  1.00  0.00    -0.358 N 
ATOM      4  H1  UNL     1     -11.052  16.492 -48.477  1.00  0.00     0.162 HD
BRANCH   3   5
HETATM    5  C2  UNL     1     -11.843  16.344 -50.434  1.00  0.00     0.224 C 
BRANCH   5   6
HETATM    6  C1  UNL     1     -10.871  16.184 -51.512  1.00  0.00     0.235 C 
HETATM    7  O1  UNL     1      -9.668  15.930 -51.141  1.00  0.00    -0.272 OA
HETATM    8  N3  UNL     1     -11.225  16.299 -52.857  1.00  0.00    -0.354 N 
ATOM      9  H3  UNL     1     -12.200  16.498 -53.079  1.00  0.00     0.163 HD
BRANCH   8  10
HETATM   10  C14 UNL     1     -10.293  16.154 -53.960  1.00  0.00     0.102 C 
HETATM   11  C15 UNL     1      -9.740  17.515 -54.360  1.00  0.00     0.028 C 
HETATM   12  C16 UNL     1      -8.592  17.271 -55.281  1.00  0.00     0.017 C 
HETATM   13  C17 UNL     1      -8.868  16.380 -56.442  1.00  0.00     0.088 C 
HETATM   14  C19 UNL     1      -9.868  15.293 -56.208  1.00  0.00     0.037 C 
HETATM   15  C20 UNL     1     -10.930  15.593 -55.208  1.00  0.00     0.106 C 
HETATM   16 CL1  UNL     1     -12.202  16.655 -55.850  1.00  0.00    -0.123 Cl
BRANCH  13  17
HETATM   17  C18 UNL     1      -9.139  17.166 -57.665  1.00  0.00     0.177 C 
HETATM   18  O4  UNL     1      -9.609  18.316 -57.549  1.00  0.00    -0.648 OA
HETATM   19  O5  UNL     1      -8.888  16.669 -58.927  1.00  0.00    -0.648 OA
ENDBRANCH  13  17
ENDBRANCH   8  10
ENDBRANCH   5   6
ENDBRANCH   3   5
ENDBRANCH   1   3
BRANCH   1  20
HETATM   20  N2  UNL     1     -12.539  19.150 -48.772  1.00  0.00    -0.340 N 
ATOM     21  H2  UNL     1     -12.865  19.927 -49.347  1.00  0.00     0.164 HD
BRANCH  20  22
HETATM   22  C4  UNL     1     -13.290  18.785 -47.589  1.00  0.00     0.231 C 
BRANCH  22  23
HETATM   23  O2  UNL     1     -12.705  17.798 -46.839  1.00  0.00    -0.376 OA
ATOM     24  H2  UNL     1     -13.206  16.991 -46.802  1.00  0.00     0.212 HD
ENDBRANCH  22  23
BRANCH  22  25
HETATM   25  C5  UNL     1     -14.692  18.409 -47.914  1.00  0.00     0.035 C 
HETATM   26  C6  UNL     1     -15.326  19.348 -48.947  1.00  0.00     0.021 C 
HETATM   27  C7  UNL     1     -16.805  19.107 -48.610  1.00  0.00    -0.010 C 
HETATM   28  C8  UNL     1     -17.194  17.675 -48.801  1.00  0.00     0.009 C 
HETATM   29  C12 UNL     1     -16.761  19.390 -47.106  1.00  0.00     0.043 C 
HETATM   30  C9  UNL     1     -16.282  16.722 -48.103  1.00  0.00    -0.010 C 
HETATM   31  C10 UNL     1     -16.210  17.079 -46.612  1.00  0.00     0.043 C 
HETATM   32  C13 UNL     1     -14.827  17.021 -48.498  1.00  0.00     0.021 C 
HETATM   33  C11 UNL     1     -15.587  18.477 -46.722  1.00  0.00     0.070 C 
BRANCH  33  34
HETATM   34  O3  UNL     1     -14.976  18.874 -45.566  1.00  0.00    -0.389 OA
ATOM     35  H3  UNL     1     -15.244  19.727 -45.244  1.00  0.00     0.210 HD
ENDBRANCH  33  34
ENDBRANCH  22  25
ENDBRANCH  20  22
ENDBRANCH   1  20
TORSDOF 10
ENDMDL
MODEL 4
REMARK VINA RESULT: -8.088034715      4.321      8.838
REMARK  10 active torsions:
REMARK  status: ('A' for Active; 'I' for Inactive)
REMARK    1  A    between atoms: C1_2  and  C2_3 
REMARK       I    between atoms: C1_2  and  N3_24 
REMARK    2  A    between atoms: C2_3  and  N1_4 
REMARK    3  A    between atoms: N1_4  and  C3_6 
REMARK    4  A    between atoms: C3_6  and  N2_8 
REMARK    5  A    between atoms: N2_8  and  C4_10 
REMARK    6  A    between atoms: C4_10  and  O2_11 
REMARK    7  A    between atoms: C4_10  and  C5_13 
REMARK    8  A    between atoms: C11_19  and  O3_20 
REMARK    9  A    between atoms: N3_24  and  C14_26 
REMARK   10  A    between atoms: C17_29  and  C18_30 
ROOT
HETATM    1  C3  UNL     1     -11.285  19.619 -47.300  1.00  0.00     0.170 C 
HETATM    2  S1  UNL     1     -11.641  21.221 -47.503  1.00  0.00    -0.041 SA
ENDROOT
BRANCH   1   3
HETATM    3  N1  UNL     1     -11.480  18.955 -46.063  1.00  0.00    -0.358 N 
ATOM      4  H1  UNL     1     -11.011  19.328 -45.238  1.00  0.00     0.162 HD
BRANCH   3   5
HETATM    5  C2  UNL     1     -12.300  17.787 -45.902  1.00  0.00     0.224 C 
BRANCH   5   6
HETATM    6  C1  UNL     1     -13.689  17.913 -46.335  1.00  0.00     0.235 C 
HETATM    7  O1  UNL     1     -14.470  18.529 -45.522  1.00  0.00    -0.272 OA
HETATM    8  N3  UNL     1     -14.141  17.399 -47.551  1.00  0.00    -0.354 N 
ATOM      9  H3  UNL     1     -13.464  16.925 -48.150  1.00  0.00     0.163 HD
BRANCH   8  10
HETATM   10  C14 UNL     1     -15.511  17.497 -48.019  1.00  0.00     0.102 C 
HETATM   11  C15 UNL     1     -15.621  16.946 -49.434  1.00  0.00     0.028 C 
HETATM   12  C16 UNL     1     -17.074  16.805 -49.739  1.00  0.00     0.017 C 
HETATM   13  C17 UNL     1     -17.907  18.019 -49.510  1.00  0.00     0.088 C 
HETATM   14  C19 UNL     1     -17.474  18.905 -48.387  1.00  0.00     0.037 C 
HETATM   15  C20 UNL     1     -16.013  18.918 -48.097  1.00  0.00     0.106 C 
HETATM   16 CL1  UNL     1     -15.088  19.897 -49.256  1.00  0.00    -0.123 Cl
BRANCH  13  17
HETATM   17  C18 UNL     1     -18.142  18.751 -50.773  1.00  0.00     0.177 C 
HETATM   18  O4  UNL     1     -19.159  19.468 -50.874  1.00  0.00    -0.648 OA
HETATM   19  O5  UNL     1     -17.275  18.668 -51.842  1.00  0.00    -0.648 OA
ENDBRANCH  13  17
ENDBRANCH   8  10
ENDBRANCH   5   6
ENDBRANCH   3   5
ENDBRANCH   1   3
BRANCH   1  20
HETATM   20  N2  UNL     1     -10.786  18.900 -48.415  1.00  0.00    -0.340 N 
ATOM     21  H2  UNL     1     -10.502  17.928 -48.293  1.00  0.00     0.164 HD
BRANCH  20  22
HETATM   22  C4  UNL     1     -10.669  19.509 -49.724  1.00  0.00     0.231 C 
BRANCH  22  23
HETATM   23  O2  UNL     1     -11.857  19.613 -50.400  1.00  0.00    -0.376 OA
ATOM     24  H2  UNL     1     -11.761  19.711 -51.340  1.00  0.00     0.212 HD
ENDBRANCH  22  23
BRANCH  22  25
HETATM   25  C5  UNL     1      -9.664  18.816 -50.573  1.00  0.00     0.035 C 
HETATM   26  C6  UNL     1      -9.514  19.467 -51.953  1.00  0.00     0.021 C 
HETATM   27  C7  UNL     1      -8.950  18.263 -52.723  1.00  0.00    -0.010 C 
HETATM   28  C8  UNL     1      -7.651  17.793 -52.150  1.00  0.00     0.009 C 
HETATM   29  C12 UNL     1     -10.024  17.228 -52.374  1.00  0.00     0.043 C 
HETATM   30  C9  UNL     1      -7.710  17.559 -50.677  1.00  0.00    -0.010 C 
HETATM   31  C10 UNL     1      -8.841  16.570 -50.360  1.00  0.00     0.043 C 
HETATM   32  C13 UNL     1      -8.273  18.808 -49.981  1.00  0.00     0.021 C 
HETATM   33  C11 UNL     1     -10.037  17.398 -50.847  1.00  0.00     0.070 C 
BRANCH  33  34
HETATM   34  O3  UNL     1     -11.218  16.996 -50.289  1.00  0.00    -0.389 OA
ATOM     35  H3  UNL     1     -11.131  16.408 -49.548  1.00  0.00     0.210 HD
ENDBRANCH  33  34
ENDBRANCH  22  25
ENDBRANCH  20  22
ENDBRANCH   1  20
TORSDOF 10
ENDMDL
MODEL 5
REMARK VINA RESULT: -7.999844552      2.350      3.165
REMARK  10 active torsions:
REMARK  status: ('A' for Active; 'I' for Inactive)
REMARK    1  A    between atoms: C1_2  and  C2_3 
REMARK       I    between atoms: C1_2  and  N3_24 
REMARK    2  A    between atoms: C2_3  and  N1_4 
REMARK    3  A    between atoms: N1_4  and  C3_6 
REMARK    4  A    between atoms: C3_6  and  N2_8 
REMARK    5  A    between atoms: N2_8  and  C4_10 
REMARK    6  A    between atoms: C4_10  and  O2_11 
REMARK    7  A    between atoms: C4_10  and  C5_13 
REMARK    8  A    between atoms: C11_19  and  O3_20 
REMARK    9  A    between atoms: N3_24  and  C14_26 
REMARK   10  A    between atoms: C17_29  and  C18_30 
ROOT
HETATM    1  C3  UNL     1     -11.763  19.853 -47.866  1.00  0.00     0.170 C 
HETATM    2  S1  UNL     1     -11.285  21.407 -47.563  1.00  0.00    -0.041 SA
ENDROOT
BRANCH   1   3
HETATM    3  N1  UNL     1     -10.855  18.764 -47.822  1.00  0.00    -0.358 N 
ATOM      4  H1  UNL     1     -10.265  18.664 -46.996  1.00  0.00     0.162 HD
BRANCH   3   5
HETATM    5  C2  UNL     1     -10.719  17.794 -48.871  1.00  0.00     0.224 C 
BRANCH   5   6
HETATM    6  C1  UNL     1      -9.735  18.101 -49.905  1.00  0.00     0.235 C 
HETATM    7  O1  UNL     1      -8.527  17.750 -49.644  1.00  0.00    -0.272 OA
HETATM    8  N3  UNL     1     -10.082  18.734 -51.100  1.00  0.00    -0.354 N 
ATOM      9  H3  UNL     1     -11.061  18.981 -51.243  1.00  0.00     0.163 HD
BRANCH   8  10
HETATM   10  C14 UNL     1      -9.138  19.063 -52.152  1.00  0.00     0.102 C 
HETATM   11  C15 UNL     1      -9.741  20.099 -53.091  1.00  0.00     0.028 C 
HETATM   12  C16 UNL     1      -8.637  20.602 -53.959  1.00  0.00     0.017 C 
HETATM   13  C17 UNL     1      -7.838  19.560 -54.663  1.00  0.00     0.088 C 
HETATM   14  C19 UNL     1      -7.671  18.264 -53.936  1.00  0.00     0.037 C 
HETATM   15  C20 UNL     1      -8.785  17.883 -53.024  1.00  0.00     0.106 C 
HETATM   16 CL1  UNL     1     -10.197  17.240 -53.892  1.00  0.00    -0.123 Cl
BRANCH  13  17
HETATM   17  C18 UNL     1      -8.294  19.390 -56.059  1.00  0.00     0.177 C 
HETATM   18  O4  UNL     1      -8.522  20.408 -56.746  1.00  0.00    -0.648 OA
HETATM   19  O5  UNL     1      -8.476  18.147 -56.626  1.00  0.00    -0.648 OA
ENDBRANCH  13  17
ENDBRANCH   8  10
ENDBRANCH   5   6
ENDBRANCH   3   5
ENDBRANCH   1   3
BRANCH   1  20
HETATM   20  N2  UNL     1     -13.130  19.621 -48.158  1.00  0.00    -0.340 N 
ATOM     21  H2  UNL     1     -13.516  19.969 -49.036  1.00  0.00     0.164 HD
BRANCH  20  22
HETATM   22  C4  UNL     1     -13.993  18.902 -47.244  1.00  0.00     0.231 C 
BRANCH  22  23
HETATM   23  O2  UNL     1     -13.345  17.959 -46.489  1.00  0.00    -0.376 OA
ATOM     24  H2  UNL     1     -13.119  17.169 -46.966  1.00  0.00     0.212 HD
ENDBRANCH  22  23
BRANCH  22  25
HETATM   25  C5  UNL     1     -15.150  18.282 -47.943  1.00  0.00     0.035 C 
HETATM   26  C6  UNL     1     -15.817  19.241 -48.936  1.00  0.00     0.021 C 
HETATM   27  C7  UNL     1     -17.207  18.590 -48.997  1.00  0.00    -0.010 C 
HETATM   28  C8  UNL     1     -17.142  17.181 -49.493  1.00  0.00     0.009 C 
HETATM   29  C12 UNL     1     -17.522  18.552 -47.499  1.00  0.00     0.043 C 
HETATM   30  C9  UNL     1     -16.147  16.346 -48.758  1.00  0.00    -0.010 C 
HETATM   31  C10 UNL     1     -16.454  16.386 -47.255  1.00  0.00     0.043 C 
HETATM   32  C13 UNL     1     -14.785  17.058 -48.750  1.00  0.00     0.021 C 
HETATM   33  C11 UNL     1     -16.233  17.883 -46.997  1.00  0.00     0.070 C 
BRANCH  33  34
HETATM   34  O3  UNL     1     -15.981  18.160 -45.683  1.00  0.00    -0.389 OA
ATOM     35  H3  UNL     1     -16.211  19.040 -45.409  1.00  0.00     0.210 HD
ENDBRANCH  33  34
ENDBRANCH  22  25
ENDBRANCH  20  22
ENDBRANCH   1  20
TORSDOF 10
ENDMDL
