MODEL 1
REMARK VINA RESULT: -10.107196511      0.000      0.000
REMARK  5 active torsions:
REMARK  status: ('A' for Active; 'I' for Inactive)
REMARK       I    between atoms: C1_4  and  N3_6 
REMARK    1  A    between atoms: C4_9  and  N4_10 
REMARK       I    between atoms: N4_10  and  C5_12 
REMARK    2  A    between atoms: C5_12  and  C6_14 
REMARK    3  A    between atoms: C8_16  and  C9_17 
REMARK    4  A    between atoms: C11_21  and  N5_22 
REMARK       I    between atoms: N5_22  and  C12_24 
REMARK    5  A    between atoms: C12_24  and  C13_26 
ROOT
HETATM    1  C6  UNL     1      -9.540  18.760 -51.220  1.00  0.00     0.073 A 
HETATM    2  C7  UNL     1      -8.502  17.942 -50.739  1.00  0.00     0.038 A 
HETATM    3  C8  UNL     1      -8.600  17.276 -49.553  1.00  0.00     0.044 A 
HETATM    4  C10 UNL     1      -9.770  17.417 -48.799  1.00  0.00     0.051 A 
HETATM    5  C11 UNL     1     -10.826  18.197 -49.203  1.00  0.00     0.075 A 
HETATM    6  C20 UNL     1     -10.640  18.847 -50.439  1.00  0.00     0.158 A 
HETATM    7  F1  UNL     1     -11.700  19.599 -50.836  1.00  0.00    -0.203 F 
ENDROOT
BRANCH   1   8
HETATM    8  C5  UNL     1      -9.334  19.456 -52.492  1.00  0.00     0.255 C 
HETATM    9  N4  UNL     1      -8.402  19.069 -53.450  1.00  0.00    -0.352 N 
ATOM     10  H4  UNL     1      -7.800  18.257 -53.311  1.00  0.00     0.163 HD
HETATM   11  O1  UNL     1     -10.088  20.478 -52.685  1.00  0.00    -0.268 OA
BRANCH   9  12
HETATM   12  C4  UNL     1      -8.325  19.891 -54.682  1.00  0.00     0.087 C 
HETATM   13  C3  UNL     1      -7.053  20.649 -54.646  1.00  0.00     0.045 C 
HETATM   14  C2  UNL     1      -6.411  20.916 -55.951  1.00  0.00     0.127 C 
HETATM   15  N3  UNL     1      -7.002  20.311 -57.092  1.00  0.00    -0.356 N 
HETATM   16  C1  UNL     1      -6.269  20.235 -58.309  1.00  0.00     0.183 C 
HETATM   17  C22 UNL     1      -8.338  19.748 -57.104  1.00  0.00     0.127 C 
HETATM   18  N1  UNL     1      -5.303  19.389 -58.398  1.00  0.00    -0.374 N 
HETATM   19  N2  UNL     1      -6.624  21.085 -59.371  1.00  0.00    -0.064 NA
ATOM     20  H12 UNL     1      -4.778  19.334 -59.270  1.00  0.00     0.158 HD
ATOM     21  H11 UNL     1      -5.045  18.772 -57.627  1.00  0.00     0.158 HD
HETATM   22  C21 UNL     1      -8.435  18.909 -55.823  1.00  0.00     0.045 C 
ENDBRANCH   9  12
ENDBRANCH   1   8
BRANCH   3  23
HETATM   23  C9  UNL     1      -7.539  16.432 -49.050  1.00  0.00     0.209 C 
HETATM   24  O2  UNL     1      -7.594  15.185 -49.056  1.00  0.00    -0.644 OA
HETATM   25  O3  UNL     1      -6.406  17.046 -48.536  1.00  0.00    -0.644 OA
ENDBRANCH   3  23
BRANCH   5  26
HETATM   26  N5  UNL     1     -12.022  18.375 -48.487  1.00  0.00    -0.324 N 
HETATM   27  C12 UNL     1     -13.190  17.645 -48.657  1.00  0.00     0.232 C 
HETATM   28  O4  UNL     1     -13.386  16.712 -49.466  1.00  0.00    -0.272 OA
ATOM     29  H5  UNL     1     -12.033  19.107 -47.777  1.00  0.00     0.169 HD
BRANCH  27  30
HETATM   30  C13 UNL     1     -14.370  18.001 -47.777  1.00  0.00     0.065 C 
HETATM   31  C14 UNL     1     -15.245  16.774 -47.659  1.00  0.00     0.023 C 
HETATM   32  C15 UNL     1     -16.384  17.058 -46.695  1.00  0.00     0.034 C 
HETATM   33  C16 UNL     1     -16.216  18.464 -46.180  1.00  0.00     0.186 C 
HETATM   34  C17 UNL     1     -16.276  19.428 -47.344  1.00  0.00     0.034 C 
HETATM   35  N6  UNL     1     -14.942  18.544 -45.484  1.00  0.00    -0.070 N 
HETATM   36  C18 UNL     1     -15.215  19.092 -48.394  1.00  0.00     0.023 C 
HETATM   37  C19 UNL     1     -13.867  18.485 -46.457  1.00  0.00     0.252 C 
ATOM     38  H62 UNL     1     -14.878  19.367 -44.885  1.00  0.00     0.277 HD
ATOM     39  H61 UNL     1     -14.850  17.832 -44.760  1.00  0.00     0.277 HD
ENDBRANCH  27  30
ENDBRANCH   5  26
TORSDOF 5
ENDMDL
MODEL 2
REMARK VINA RESULT: -9.897960678      0.506      1.036
REMARK  5 active torsions:
REMARK  status: ('A' for Active; 'I' for Inactive)
REMARK       I    between atoms: C1_4  and  N3_6 
REMARK    1  A    between atoms: C4_9  and  N4_10 
REMARK       I    between atoms: N4_10  and  C5_12 
REMARK    2  A    between atoms: C5_12  and  C6_14 
REMARK    3  A    between atoms: C8_16  and  C9_17 
REMARK    4  A    between atoms: C11_21  and  N5_22 
REMARK       I    between atoms: N5_22  and  C12_24 
REMARK    5  A    between atoms: C12_24  and  C13_26 
ROOT
HETATM    1  C6  UNL     1      -9.524  18.731 -51.245  1.00  0.00     0.073 A 
HETATM    2  C7  UNL     1      -8.478  17.905 -50.796  1.00  0.00     0.038 A 
HETATM    3  C8  UNL     1      -8.542  17.241 -49.608  1.00  0.00     0.044 A 
HETATM    4  C10 UNL     1      -9.686  17.391 -48.815  1.00  0.00     0.051 A 
HETATM    5  C11 UNL     1     -10.748  18.180 -49.186  1.00  0.00     0.075 A 
HETATM    6  C20 UNL     1     -10.597  18.827 -50.428  1.00  0.00     0.158 A 
HETATM    7  F1  UNL     1     -11.663  19.588 -50.790  1.00  0.00    -0.203 F 
ENDROOT
BRANCH   1   8
HETATM    8  C5  UNL     1      -9.355  19.424 -52.523  1.00  0.00     0.255 C 
HETATM    9  N4  UNL     1      -8.445  19.040 -53.503  1.00  0.00    -0.352 N 
ATOM     10  H4  UNL     1      -7.834  18.232 -53.377  1.00  0.00     0.163 HD
HETATM   11  O1  UNL     1     -10.119  20.441 -52.700  1.00  0.00    -0.268 OA
BRANCH   9  12
HETATM   12  C4  UNL     1      -8.403  19.858 -54.739  1.00  0.00     0.087 C 
HETATM   13  C3  UNL     1      -7.222  20.748 -54.659  1.00  0.00     0.045 C 
HETATM   14  C2  UNL     1      -6.557  21.075 -55.939  1.00  0.00     0.127 C 
HETATM   15  N3  UNL     1      -7.032  20.403 -57.096  1.00  0.00    -0.356 N 
HETATM   16  C1  UNL     1      -6.245  20.398 -58.281  1.00  0.00     0.183 C 
HETATM   17  C22 UNL     1      -8.300  19.702 -57.158  1.00  0.00     0.127 C 
HETATM   18  N1  UNL     1      -5.192  19.660 -58.322  1.00  0.00    -0.374 N 
HETATM   19  N2  UNL     1      -6.643  21.200 -59.366  1.00  0.00    -0.064 NA
ATOM     20  H12 UNL     1      -4.628  19.656 -59.172  1.00  0.00     0.158 HD
ATOM     21  H11 UNL     1      -4.903  19.078 -57.536  1.00  0.00     0.158 HD
HETATM   22  C21 UNL     1      -8.361  18.865 -55.874  1.00  0.00     0.045 C 
ENDBRANCH   9  12
ENDBRANCH   1   8
BRANCH   3  23
HETATM   23  C9  UNL     1      -7.472  16.389 -49.138  1.00  0.00     0.209 C 
HETATM   24  O2  UNL     1      -7.478  15.147 -49.267  1.00  0.00    -0.644 OA
HETATM   25  O3  UNL     1      -6.387  16.988 -48.516  1.00  0.00    -0.644 OA
ENDBRANCH   3  23
BRANCH   5  26
HETATM   26  N5  UNL     1     -11.918  18.368 -48.431  1.00  0.00    -0.324 N 
HETATM   27  C12 UNL     1     -13.124  17.708 -48.620  1.00  0.00     0.232 C 
HETATM   28  O4  UNL     1     -13.383  16.840 -49.482  1.00  0.00    -0.272 OA
ATOM     29  H5  UNL     1     -11.878  19.052 -47.675  1.00  0.00     0.169 HD
BRANCH  27  30
HETATM   30  C13 UNL     1     -14.267  18.062 -47.690  1.00  0.00     0.065 C 
HETATM   31  C14 UNL     1     -15.079  19.152 -48.350  1.00  0.00     0.023 C 
HETATM   32  C15 UNL     1     -16.298  19.459 -47.498  1.00  0.00     0.034 C 
HETATM   33  C16 UNL     1     -16.272  18.541 -46.303  1.00  0.00     0.186 C 
HETATM   34  C17 UNL     1     -15.011  18.799 -45.508  1.00  0.00     0.034 C 
HETATM   35  N6  UNL     1     -16.331  17.170 -46.783  1.00  0.00    -0.070 N 
HETATM   36  C18 UNL     1     -13.764  18.614 -46.376  1.00  0.00     0.023 C 
HETATM   37  C19 UNL     1     -15.066  16.833 -47.408  1.00  0.00     0.252 C 
ATOM     38  H62 UNL     1     -16.588  16.512 -46.047  1.00  0.00     0.277 HD
ATOM     39  H61 UNL     1     -17.125  17.010 -47.402  1.00  0.00     0.277 HD
ENDBRANCH  27  30
ENDBRANCH   5  26
TORSDOF 5
ENDMDL
MODEL 3
REMARK VINA RESULT: -8.716919717      1.674      9.903
REMARK  5 active torsions:
REMARK  status: ('A' for Active; 'I' for Inactive)
REMARK       I    between atoms: C1_4  and  N3_6 
REMARK    1  A    between atoms: C4_9  and  N4_10 
REMARK       I    between atoms: N4_10  and  C5_12 
REMARK    2  A    between atoms: C5_12  and  C6_14 
REMARK    3  A    between atoms: C8_16  and  C9_17 
REMARK    4  A    between atoms: C11_21  and  N5_22 
REMARK       I    between atoms: N5_22  and  C12_24 
REMARK    5  A    between atoms: C12_24  and  C13_26 
ROOT
HETATM    1  C6  UNL     1     -10.352  18.491 -49.900  1.00  0.00     0.073 A 
HETATM    2  C7  UNL     1      -9.488  17.590 -49.251  1.00  0.00     0.038 A 
HETATM    3  C8  UNL     1      -8.272  17.256 -49.770  1.00  0.00     0.044 A 
HETATM    4  C10 UNL     1      -7.880  17.829 -50.985  1.00  0.00     0.051 A 
HETATM    5  C11 UNL     1      -8.669  18.716 -51.676  1.00  0.00     0.075 A 
HETATM    6  C20 UNL     1      -9.906  19.005 -51.067  1.00  0.00     0.158 A 
HETATM    7  F1  UNL     1     -10.667  19.899 -51.753  1.00  0.00    -0.203 F 
ENDROOT
BRANCH   1   8
HETATM    8  C5  UNL     1     -11.648  18.769 -49.279  1.00  0.00     0.255 C 
HETATM    9  N4  UNL     1     -12.396  17.827 -48.579  1.00  0.00    -0.352 N 
ATOM     10  H4  UNL     1     -12.068  16.869 -48.458  1.00  0.00     0.163 HD
HETATM   11  O1  UNL     1     -12.074  19.973 -49.417  1.00  0.00    -0.268 OA
BRANCH   9  12
HETATM   12  C4  UNL     1     -13.690  18.280 -48.016  1.00  0.00     0.087 C 
HETATM   13  C3  UNL     1     -14.775  17.720 -48.855  1.00  0.00     0.045 C 
HETATM   14  C2  UNL     1     -16.039  17.390 -48.161  1.00  0.00     0.127 C 
HETATM   15  N3  UNL     1     -16.045  17.518 -46.747  1.00  0.00    -0.356 N 
HETATM   16  C1  UNL     1     -17.082  16.907 -45.989  1.00  0.00     0.183 C 
HETATM   17  C22 UNL     1     -15.039  18.248 -45.999  1.00  0.00     0.127 C 
HETATM   18  N1  UNL     1     -17.072  15.629 -45.843  1.00  0.00    -0.374 N 
HETATM   19  N2  UNL     1     -18.081  17.720 -45.426  1.00  0.00    -0.064 NA
ATOM     20  H12 UNL     1     -17.816  15.192 -45.299  1.00  0.00     0.158 HD
ATOM     21  H11 UNL     1     -16.347  15.039 -46.251  1.00  0.00     0.158 HD
HETATM   22  C21 UNL     1     -13.694  17.799 -46.586  1.00  0.00     0.045 C 
ENDBRANCH   9  12
ENDBRANCH   1   8
BRANCH   3  23
HETATM   23  C9  UNL     1      -7.377  16.331 -49.110  1.00  0.00     0.209 C 
HETATM   24  O2  UNL     1      -7.602  15.107 -49.018  1.00  0.00    -0.644 OA
HETATM   25  O3  UNL     1      -6.212  16.837 -48.554  1.00  0.00    -0.644 OA
ENDBRANCH   3  23
BRANCH   5  26
HETATM   26  N5  UNL     1      -8.327  19.320 -52.898  1.00  0.00    -0.324 N 
HETATM   27  C12 UNL     1      -8.190  18.672 -54.117  1.00  0.00     0.232 C 
HETATM   28  O4  UNL     1      -8.345  17.452 -54.345  1.00  0.00    -0.272 OA
ATOM     29  H5  UNL     1      -8.164  20.328 -52.888  1.00  0.00     0.169 HD
BRANCH  27  30
HETATM   30  C13 UNL     1      -7.813  19.515 -55.319  1.00  0.00     0.065 C 
HETATM   31  C14 UNL     1      -8.392  18.853 -56.548  1.00  0.00     0.023 C 
HETATM   32  C15 UNL     1      -8.127  19.726 -57.762  1.00  0.00     0.034 C 
HETATM   33  C16 UNL     1      -7.399  20.960 -57.296  1.00  0.00     0.186 C 
HETATM   34  C17 UNL     1      -6.087  20.551 -56.662  1.00  0.00     0.034 C 
HETATM   35  N6  UNL     1      -8.252  21.663 -56.353  1.00  0.00    -0.070 N 
HETATM   36  C18 UNL     1      -6.314  19.572 -55.508  1.00  0.00     0.023 C 
HETATM   37  C19 UNL     1      -8.315  20.906 -55.116  1.00  0.00     0.252 C 
ATOM     38  H62 UNL     1      -7.954  22.626 -56.202  1.00  0.00     0.277 HD
ATOM     39  H61 UNL     1      -9.177  21.857 -56.736  1.00  0.00     0.277 HD
ENDBRANCH  27  30
ENDBRANCH   5  26
TORSDOF 5
ENDMDL
MODEL 4
REMARK VINA RESULT: -7.897573360      2.854      4.222
REMARK  5 active torsions:
REMARK  status: ('A' for Active; 'I' for Inactive)
REMARK       I    between atoms: C1_4  and  N3_6 
REMARK    1  A    between atoms: C4_9  and  N4_10 
REMARK       I    between atoms: N4_10  and  C5_12 
REMARK    2  A    between atoms: C5_12  and  C6_14 
REMARK    3  A    between atoms: C8_16  and  C9_17 
REMARK    4  A    between atoms: C11_21  and  N5_22 
REMARK       I    between atoms: N5_22  and  C12_24 
REMARK    5  A    between atoms: C12_24  and  C13_26 
ROOT
HETATM    1  C6  UNL     1      -8.738  18.840 -54.465  1.00  0.00     0.073 A 
HETATM    2  C7  UNL     1      -9.161  17.699 -55.171  1.00  0.00     0.038 A 
HETATM    3  C8  UNL     1     -10.040  16.804 -54.636  1.00  0.00     0.044 A 
HETATM    4  C10 UNL     1     -10.530  17.034 -53.345  1.00  0.00     0.051 A 
HETATM    5  C11 UNL     1     -10.163  18.125 -52.594  1.00  0.00     0.075 A 
HETATM    6  C20 UNL     1      -9.254  18.996 -53.225  1.00  0.00     0.158 A 
HETATM    7  F1  UNL     1      -8.916  20.080 -52.478  1.00  0.00    -0.203 F 
ENDROOT
BRANCH   1   8
HETATM    8  C5  UNL     1      -7.772  19.730 -55.111  1.00  0.00     0.255 C 
HETATM    9  N4  UNL     1      -6.396  19.656 -54.922  1.00  0.00    -0.352 N 
ATOM     10  H4  UNL     1      -5.979  18.956 -54.309  1.00  0.00     0.163 HD
HETATM   11  O1  UNL     1      -8.281  20.615 -55.891  1.00  0.00    -0.268 OA
BRANCH   9  12
HETATM   12  C4  UNL     1      -5.564  20.641 -55.654  1.00  0.00     0.087 C 
HETATM   13  C3  UNL     1      -4.259  20.743 -54.961  1.00  0.00     0.045 C 
HETATM   14  C2  UNL     1      -3.082  21.022 -55.811  1.00  0.00     0.127 C 
HETATM   15  N3  UNL     1      -3.295  21.033 -57.215  1.00  0.00    -0.356 N 
HETATM   16  C1  UNL     1      -2.183  20.952 -58.098  1.00  0.00     0.183 C 
HETATM   17  C22 UNL     1      -4.605  21.123 -57.831  1.00  0.00     0.127 C 
HETATM   18  N1  UNL     1      -1.577  19.825 -58.230  1.00  0.00    -0.374 N 
HETATM   19  N2  UNL     1      -1.783  22.106 -58.795  1.00  0.00    -0.064 NA
ATOM     20  H12 UNL     1      -0.779  19.767 -58.862  1.00  0.00     0.158 HD
ATOM     21  H11 UNL     1      -1.867  18.988 -57.724  1.00  0.00     0.158 HD
HETATM   22  C21 UNL     1      -5.480  20.119 -57.068  1.00  0.00     0.045 C 
ENDBRANCH   9  12
ENDBRANCH   1   8
BRANCH   3  23
HETATM   23  C9  UNL     1     -10.481  15.629 -55.354  1.00  0.00     0.209 C 
HETATM   24  O2  UNL     1      -9.704  14.870 -55.970  1.00  0.00    -0.644 OA
HETATM   25  O3  UNL     1     -11.836  15.336 -55.355  1.00  0.00    -0.644 OA
ENDBRANCH   3  23
BRANCH   5  26
HETATM   26  N5  UNL     1     -10.621  18.403 -51.296  1.00  0.00    -0.324 N 
HETATM   27  C12 UNL     1     -10.951  17.464 -50.329  1.00  0.00     0.232 C 
HETATM   28  O4  UNL     1     -10.900  16.219 -50.437  1.00  0.00    -0.272 OA
ATOM     29  H5  UNL     1     -10.721  19.386 -51.040  1.00  0.00     0.169 HD
BRANCH  27  30
HETATM   30  C13 UNL     1     -11.428  17.981 -48.987  1.00  0.00     0.065 C 
HETATM   31  C14 UNL     1     -12.933  17.843 -48.947  1.00  0.00     0.023 C 
HETATM   32  C15 UNL     1     -13.440  18.250 -47.575  1.00  0.00     0.034 C 
HETATM   33  C16 UNL     1     -12.248  18.623 -46.732  1.00  0.00     0.186 C 
HETATM   34  C17 UNL     1     -11.529  19.786 -47.379  1.00  0.00     0.034 C 
HETATM   35  N6  UNL     1     -11.387  17.457 -46.620  1.00  0.00    -0.070 N 
HETATM   36  C18 UNL     1     -11.110  19.448 -48.812  1.00  0.00     0.023 C 
HETATM   37  C19 UNL     1     -10.746  17.218 -47.900  1.00  0.00     0.252 C 
ATOM     38  H62 UNL     1     -10.714  17.543 -45.859  1.00  0.00     0.277 HD
ATOM     39  H61 UNL     1     -11.887  16.637 -46.277  1.00  0.00     0.277 HD
ENDBRANCH  27  30
ENDBRANCH   5  26
TORSDOF 5
ENDMDL
MODEL 5
REMARK VINA RESULT: -7.766260944      1.657      9.836
REMARK  5 active torsions:
REMARK  status: ('A' for Active; 'I' for Inactive)
REMARK       I    between atoms: C1_4  and  N3_6 
REMARK    1  A    between atoms: C4_9  and  N4_10 
REMARK       I    between atoms: N4_10  and  C5_12 
REMARK    2  A    between atoms: C5_12  and  C6_14 
REMARK    3  A    between atoms: C8_16  and  C9_17 
REMARK    4  A    between atoms: C11_21  and  N5_22 
REMARK       I    between atoms: N5_22  and  C12_24 
REMARK    5  A    between atoms: C12_24  and  C13_26 
ROOT
HETATM    1  C6  UNL     1      -9.672  18.480 -50.613  1.00  0.00     0.073 A 
HETATM    2  C7  UNL     1      -8.596  18.044 -49.818  1.00  0.00     0.038 A 
HETATM    3  C8  UNL     1      -7.385  17.723 -50.357  1.00  0.00     0.044 A 
HETATM    4  C10 UNL     1      -7.216  17.833 -51.742  1.00  0.00     0.051 A 
HETATM    5  C11 UNL     1      -8.219  18.252 -52.582  1.00  0.00     0.075 A 
HETATM    6  C20 UNL     1      -9.434  18.563 -51.941  1.00  0.00     0.158 A 
HETATM    7  F1  UNL     1     -10.411  18.994 -52.782  1.00  0.00    -0.203 F 
ENDROOT
BRANCH   1   8
HETATM    8  C5  UNL     1     -10.942  18.778 -49.948  1.00  0.00     0.255 C 
HETATM    9  N4  UNL     1     -11.498  17.993 -48.943  1.00  0.00    -0.352 N 
ATOM     10  H4  UNL     1     -11.034  17.148 -48.607  1.00  0.00     0.163 HD
HETATM   11  O1  UNL     1     -11.537  19.841 -50.355  1.00  0.00    -0.268 OA
BRANCH   9  12
HETATM   12  C4  UNL     1     -12.795  18.441 -48.381  1.00  0.00     0.087 C 
HETATM   13  C3  UNL     1     -13.869  17.990 -49.295  1.00  0.00     0.045 C 
HETATM   14  C2  UNL     1     -15.164  17.646 -48.668  1.00  0.00     0.127 C 
HETATM   15  N3  UNL     1     -15.210  17.654 -47.249  1.00  0.00    -0.356 N 
HETATM   16  C1  UNL     1     -16.290  17.017 -46.575  1.00  0.00     0.183 C 
HETATM   17  C22 UNL     1     -14.206  18.284 -46.413  1.00  0.00     0.127 C 
HETATM   18  N1  UNL     1     -16.324  15.732 -46.539  1.00  0.00    -0.374 N 
HETATM   19  N2  UNL     1     -17.280  17.814 -45.974  1.00  0.00    -0.064 NA
ATOM     20  H12 UNL     1     -17.098  15.276 -46.056  1.00  0.00     0.158 HD
ATOM     21  H11 UNL     1     -15.606  15.154 -46.975  1.00  0.00     0.158 HD
HETATM   22  C21 UNL     1     -12.859  17.840 -46.998  1.00  0.00     0.045 C 
ENDBRANCH   9  12
ENDBRANCH   1   8
BRANCH   3  23
HETATM   23  C9  UNL     1      -6.273  17.274 -49.548  1.00  0.00     0.209 C 
HETATM   24  O2  UNL     1      -6.413  16.612 -48.499  1.00  0.00    -0.644 OA
HETATM   25  O3  UNL     1      -4.992  17.597 -49.966  1.00  0.00    -0.644 OA
ENDBRANCH   3  23
BRANCH   5  26
HETATM   26  N5  UNL     1      -8.106  18.379 -53.977  1.00  0.00    -0.324 N 
HETATM   27  C12 UNL     1      -7.909  19.563 -54.673  1.00  0.00     0.232 C 
HETATM   28  O4  UNL     1      -7.799  20.712 -54.193  1.00  0.00    -0.272 OA
ATOM     29  H5  UNL     1      -8.174  17.523 -54.528  1.00  0.00     0.169 HD
BRANCH  27  30
HETATM   30  C13 UNL     1      -7.814  19.478 -56.183  1.00  0.00     0.065 C 
HETATM   31  C14 UNL     1      -8.591  18.260 -56.627  1.00  0.00     0.023 C 
HETATM   32  C15 UNL     1      -8.611  18.200 -58.144  1.00  0.00     0.034 C 
HETATM   33  C16 UNL     1      -7.864  19.400 -58.666  1.00  0.00     0.186 C 
HETATM   34  C17 UNL     1      -6.436  19.349 -58.169  1.00  0.00     0.034 C 
HETATM   35  N6  UNL     1      -8.549  20.597 -58.205  1.00  0.00    -0.070 N 
HETATM   36  C18 UNL     1      -6.386  19.286 -56.640  1.00  0.00     0.023 C 
HETATM   37  C19 UNL     1      -8.332  20.745 -56.777  1.00  0.00     0.252 C 
ATOM     38  H62 UNL     1      -8.273  21.428 -58.727  1.00  0.00     0.277 HD
ATOM     39  H61 UNL     1      -9.539  20.596 -58.449  1.00  0.00     0.277 HD
ENDBRANCH  27  30
ENDBRANCH   5  26
TORSDOF 5
ENDMDL
