MODEL 1
REMARK VINA RESULT: -8.644326048      0.000      0.000
REMARK  8 active torsions:
REMARK  status: ('A' for Active; 'I' for Inactive)
REMARK    1  A    between atoms: C6_6  and  O1_7 
REMARK    2  A    between atoms: C6_6  and  C7_9 
REMARK    3  A    between atoms: C7_9  and  O2_10 
REMARK    4  A    between atoms: N1_12  and  O3_14 
REMARK    5  A    between atoms: C11_19  and  N2_20 
REMARK       I    between atoms: N2_20  and  C12_22 
REMARK    6  A    between atoms: C12_22  and  C13_24 
REMARK    7  A    between atoms: C13_24  and  C15_27 
REMARK       I    between atoms: C15_27  and  N3_29 
REMARK    8  A    between atoms: N3_29  and  C16_31 
REMARK       I    between atoms: N4_34  and  C19_35 
ROOT
HETATM    1  N2  UNL     1     -11.130  18.082 -49.354  1.00  0.00    -0.352 N 
ATOM      2  H2  UNL     1     -10.821  17.286 -48.795  1.00  0.00     0.163 HD
HETATM    3  C12 UNL     1     -12.041  19.010 -48.793  1.00  0.00     0.267 C 
HETATM    4  O4  UNL     1     -12.430  20.003 -49.480  1.00  0.00    -0.269 OA
ENDROOT
BRANCH   1   5
HETATM    5  C11 UNL     1     -10.628  18.238 -50.704  1.00  0.00     0.092 C 
HETATM    6  C2  UNL     1     -10.411  16.882 -51.266  1.00  0.00     0.005 C 
HETATM    7  C1  UNL     1     -10.000  15.827 -50.258  1.00  0.00     0.012 C 
HETATM    8  C3  UNL     1      -9.586  16.829 -52.526  1.00  0.00     0.014 C 
HETATM    9  C4  UNL     1     -10.004  17.959 -53.389  1.00  0.00     0.025 C 
HETATM   10  C5  UNL     1      -9.971  17.494 -54.839  1.00  0.00     0.013 C 
HETATM   11  C6  UNL     1      -9.181  19.213 -53.266  1.00  0.00     0.127 C 
HETATM   12  C8  UNL     1      -9.254  19.934 -51.994  1.00  0.00     0.053 C 
HETATM   13  C9  UNL     1      -9.509  19.209 -50.729  1.00  0.00     0.008 C 
HETATM   14  C10 UNL     1      -8.271  18.755 -49.989  1.00  0.00     0.012 C 
BRANCH  11  15
HETATM   15  O1  UNL     1      -9.746  20.067 -54.261  1.00  0.00    -0.381 OA
ATOM     16  H1  UNL     1      -9.769  20.912 -53.828  1.00  0.00     0.211 HD
ENDBRANCH  11  15
BRANCH  11  17
HETATM   17  C7  UNL     1      -7.791  19.027 -53.739  1.00  0.00     0.171 C 
HETATM   18  N1  UNL     1      -7.324  19.849 -54.603  1.00  0.00    -0.248 N 
ATOM     19  H1  UNL     1      -7.938  20.597 -54.926  1.00  0.00     0.196 HD
BRANCH  17  20
HETATM   20  O2  UNL     1      -6.975  18.009 -53.292  1.00  0.00    -0.346 OA
ATOM     21  H2  UNL     1      -6.218  17.703 -53.777  1.00  0.00     0.219 HD
ENDBRANCH  17  20
BRANCH  18  22
HETATM   22  O3  UNL     1      -6.055  19.794 -55.125  1.00  0.00    -0.288 OA
ATOM     23  H3  UNL     1      -5.828  20.026 -56.018  1.00  0.00     0.244 HD
ENDBRANCH  18  22
ENDBRANCH  11  17
ENDBRANCH   1   5
BRANCH   3  24
HETATM   24  C13 UNL     1     -12.578  18.884 -47.419  1.00  0.00     0.259 C 
HETATM   25  C14 UNL     1     -11.904  17.760 -46.660  1.00  0.00     0.073 C 
HETATM   26  F1  UNL     1     -12.383  20.030 -46.695  1.00  0.00    -0.222 F 
BRANCH  24  27
HETATM   27  C15 UNL     1     -14.051  18.668 -47.498  1.00  0.00     0.267 C 
HETATM   28  O5  UNL     1     -14.821  18.887 -46.531  1.00  0.00    -0.269 OA
HETATM   29  N3  UNL     1     -14.600  18.201 -48.706  1.00  0.00    -0.353 N 
ATOM     30  H3  UNL     1     -13.973  18.026 -49.491  1.00  0.00     0.163 HD
BRANCH  29  31
HETATM   31  C16 UNL     1     -16.027  17.956 -48.886  1.00  0.00     0.087 C 
HETATM   32  C17 UNL     1     -16.297  16.645 -49.548  1.00  0.00     0.045 C 
HETATM   33  C18 UNL     1     -16.919  16.785 -50.924  1.00  0.00     0.127 C 
HETATM   34  N4  UNL     1     -18.085  17.637 -50.873  1.00  0.00    -0.356 N 
HETATM   35  C19 UNL     1     -19.197  17.411 -51.693  1.00  0.00     0.183 C 
HETATM   36  C20 UNL     1     -18.089  18.747 -49.946  1.00  0.00     0.127 C 
HETATM   37  N5  UNL     1     -19.547  16.215 -52.027  1.00  0.00    -0.374 N 
HETATM   38  N6  UNL     1     -20.011  18.483 -52.210  1.00  0.00    -0.064 NA
ATOM     39  H52 UNL     1     -18.971  15.456 -51.662  1.00  0.00     0.158 HD
ATOM     40  H51 UNL     1     -20.356  16.050 -52.625  1.00  0.00     0.158 HD
HETATM   41  C21 UNL     1     -16.640  19.104 -49.683  1.00  0.00     0.045 C 
ENDBRANCH  29  31
ENDBRANCH  24  27
ENDBRANCH   3  24
TORSDOF 8
ENDMDL
MODEL 2
REMARK VINA RESULT: -7.876649470      3.072      9.106
REMARK  8 active torsions:
REMARK  status: ('A' for Active; 'I' for Inactive)
REMARK    1  A    between atoms: C6_6  and  O1_7 
REMARK    2  A    between atoms: C6_6  and  C7_9 
REMARK    3  A    between atoms: C7_9  and  O2_10 
REMARK    4  A    between atoms: N1_12  and  O3_14 
REMARK    5  A    between atoms: C11_19  and  N2_20 
REMARK       I    between atoms: N2_20  and  C12_22 
REMARK    6  A    between atoms: C12_22  and  C13_24 
REMARK    7  A    between atoms: C13_24  and  C15_27 
REMARK       I    between atoms: C15_27  and  N3_29 
REMARK    8  A    between atoms: N3_29  and  C16_31 
REMARK       I    between atoms: N4_34  and  C19_35 
ROOT
HETATM    1  N2  UNL     1     -12.081  18.606 -49.325  1.00  0.00    -0.352 N 
ATOM      2  H2  UNL     1     -11.731  19.559 -49.224  1.00  0.00     0.163 HD
HETATM    3  C12 UNL     1     -11.254  17.622 -49.919  1.00  0.00     0.267 C 
HETATM    4  O4  UNL     1     -11.680  16.435 -50.047  1.00  0.00    -0.269 OA
ENDROOT
BRANCH   1   5
HETATM    5  C11 UNL     1     -13.415  18.287 -48.856  1.00  0.00     0.092 C 
HETATM    6  C2  UNL     1     -14.258  19.494 -49.034  1.00  0.00     0.005 C 
HETATM    7  C1  UNL     1     -13.530  20.816 -48.879  1.00  0.00     0.012 C 
HETATM    8  C3  UNL     1     -15.578  19.474 -48.306  1.00  0.00     0.014 C 
HETATM    9  C4  UNL     1     -16.149  18.113 -48.441  1.00  0.00     0.025 C 
HETATM   10  C5  UNL     1     -17.659  18.239 -48.594  1.00  0.00     0.013 C 
HETATM   11  C6  UNL     1     -15.856  17.167 -47.307  1.00  0.00     0.127 C 
HETATM   12  C8  UNL     1     -14.463  16.751 -47.131  1.00  0.00     0.053 C 
HETATM   13  C9  UNL     1     -13.353  17.650 -47.519  1.00  0.00     0.008 C 
HETATM   14  C10 UNL     1     -12.845  18.554 -46.418  1.00  0.00     0.012 C 
BRANCH  11  15
HETATM   15  O1  UNL     1     -16.597  16.000 -47.663  1.00  0.00    -0.381 OA
ATOM     16  H1  UNL     1     -17.316  16.006 -47.043  1.00  0.00     0.211 HD
ENDBRANCH  11  15
BRANCH  11  17
HETATM   17  C7  UNL     1     -16.491  17.589 -46.039  1.00  0.00     0.171 C 
HETATM   18  N1  UNL     1     -17.285  16.775 -45.451  1.00  0.00    -0.248 N 
ATOM     19  H1  UNL     1     -17.443  15.867 -45.890  1.00  0.00     0.196 HD
BRANCH  17  20
HETATM   20  O2  UNL     1     -16.268  18.821 -45.460  1.00  0.00    -0.346 OA
ATOM     21  H2  UNL     1     -16.741  19.605 -45.713  1.00  0.00     0.219 HD
ENDBRANCH  17  20
BRANCH  18  22
HETATM   22  O3  UNL     1     -17.940  17.036 -44.272  1.00  0.00    -0.288 OA
ATOM     23  H3  UNL     1     -18.580  16.460 -43.872  1.00  0.00     0.244 HD
ENDBRANCH  18  22
ENDBRANCH  11  17
ENDBRANCH   1   5
BRANCH   3  24
HETATM   24  C13 UNL     1      -9.887  17.909 -50.412  1.00  0.00     0.259 C 
HETATM   25  C14 UNL     1      -9.119  18.785 -49.444  1.00  0.00     0.073 C 
HETATM   26  F1  UNL     1      -9.160  16.761 -50.579  1.00  0.00    -0.222 F 
BRANCH  24  27
HETATM   27  C15 UNL     1      -9.988  18.555 -51.752  1.00  0.00     0.267 C 
HETATM   28  O5  UNL     1     -10.567  19.655 -51.933  1.00  0.00    -0.269 OA
HETATM   29  N3  UNL     1      -9.410  17.908 -52.860  1.00  0.00    -0.353 N 
ATOM     30  H3  UNL     1      -8.938  17.016 -52.711  1.00  0.00     0.163 HD
BRANCH  29  31
HETATM   31  C16 UNL     1      -9.456  18.456 -54.211  1.00  0.00     0.087 C 
HETATM   32  C17 UNL     1      -9.935  17.454 -55.211  1.00  0.00     0.045 C 
HETATM   33  C18 UNL     1      -8.873  17.061 -56.220  1.00  0.00     0.127 C 
HETATM   34  N4  UNL     1      -8.294  18.234 -56.835  1.00  0.00    -0.356 N 
HETATM   35  C19 UNL     1      -7.880  18.234 -58.172  1.00  0.00     0.183 C 
HETATM   36  C20 UNL     1      -8.143  19.429 -56.035  1.00  0.00     0.127 C 
HETATM   37  N5  UNL     1      -8.505  17.540 -59.063  1.00  0.00    -0.374 N 
HETATM   38  N6  UNL     1      -6.749  18.999 -58.635  1.00  0.00    -0.064 NA
ATOM     39  H52 UNL     1      -9.305  16.999 -58.736  1.00  0.00     0.158 HD
ATOM     40  H51 UNL     1      -8.203  17.540 -60.037  1.00  0.00     0.158 HD
HETATM   41  C21 UNL     1      -8.075  18.984 -54.589  1.00  0.00     0.045 C 
ENDBRANCH  29  31
ENDBRANCH  24  27
ENDBRANCH   3  24
TORSDOF 8
ENDMDL
MODEL 3
REMARK VINA RESULT: -7.535690236      2.304      3.486
REMARK  8 active torsions:
REMARK  status: ('A' for Active; 'I' for Inactive)
REMARK    1  A    between atoms: C6_6  and  O1_7 
REMARK    2  A    between atoms: C6_6  and  C7_9 
REMARK    3  A    between atoms: C7_9  and  O2_10 
REMARK    4  A    between atoms: N1_12  and  O3_14 
REMARK    5  A    between atoms: C11_19  and  N2_20 
REMARK       I    between atoms: N2_20  and  C12_22 
REMARK    6  A    between atoms: C12_22  and  C13_24 
REMARK    7  A    between atoms: C13_24  and  C15_27 
REMARK       I    between atoms: C15_27  and  N3_29 
REMARK    8  A    between atoms: N3_29  and  C16_31 
REMARK       I    between atoms: N4_34  and  C19_35 
ROOT
HETATM    1  N2  UNL     1     -13.286  19.105 -48.845  1.00  0.00    -0.352 N 
ATOM      2  H2  UNL     1     -13.217  20.042 -48.448  1.00  0.00     0.163 HD
HETATM    3  C12 UNL     1     -14.545  18.459 -48.884  1.00  0.00     0.267 C 
HETATM    4  O4  UNL     1     -14.641  17.295 -49.377  1.00  0.00    -0.269 OA
ENDROOT
BRANCH   1   5
HETATM    5  C11 UNL     1     -12.092  18.462 -49.358  1.00  0.00     0.092 C 
HETATM    6  C2  UNL     1     -11.554  17.587 -48.289  1.00  0.00     0.005 C 
HETATM    7  C1  UNL     1     -11.785  18.083 -46.875  1.00  0.00     0.012 C 
HETATM    8  C3  UNL     1     -10.147  17.092 -48.505  1.00  0.00     0.014 C 
HETATM    9  C4  UNL     1     -10.009  16.730 -49.935  1.00  0.00     0.025 C 
HETATM   10  C5  UNL     1      -9.122  15.496 -50.035  1.00  0.00     0.013 C 
HETATM   11  C6  UNL     1      -9.444  17.801 -50.829  1.00  0.00     0.127 C 
HETATM   12  C8  UNL     1     -10.266  18.997 -51.035  1.00  0.00     0.053 C 
HETATM   13  C9  UNL     1     -11.194  19.464 -49.981  1.00  0.00     0.008 C 
HETATM   14  C10 UNL     1     -10.613  20.469 -49.013  1.00  0.00     0.012 C 
BRANCH  11  15
HETATM   15  O1  UNL     1      -9.342  17.145 -52.092  1.00  0.00    -0.381 OA
ATOM     16  H1  UNL     1      -9.439  17.859 -52.712  1.00  0.00     0.211 HD
ENDBRANCH  11  15
BRANCH  11  17
HETATM   17  C7  UNL     1      -8.036  18.125 -50.507  1.00  0.00     0.171 C 
HETATM   18  N1  UNL     1      -7.121  17.742 -51.316  1.00  0.00    -0.248 N 
ATOM     19  H1  UNL     1      -7.409  17.227 -52.149  1.00  0.00     0.196 HD
BRANCH  17  20
HETATM   20  O2  UNL     1      -7.665  18.819 -49.376  1.00  0.00    -0.346 OA
ATOM     21  H2  UNL     1      -7.483  19.752 -49.377  1.00  0.00     0.219 HD
ENDBRANCH  17  20
BRANCH  18  22
HETATM   22  O3  UNL     1      -5.778  17.973 -51.141  1.00  0.00    -0.288 OA
ATOM     23  H3  UNL     1      -5.230  18.456 -51.749  1.00  0.00     0.244 HD
ENDBRANCH  18  22
ENDBRANCH  11  17
ENDBRANCH   1   5
BRANCH   3  24
HETATM   24  C13 UNL     1     -15.787  19.082 -48.368  1.00  0.00     0.259 C 
HETATM   25  C14 UNL     1     -16.070  18.659 -46.942  1.00  0.00     0.073 C 
HETATM   26  F1  UNL     1     -15.704  20.448 -48.373  1.00  0.00    -0.222 F 
BRANCH  24  27
HETATM   27  C15 UNL     1     -16.916  18.714 -49.269  1.00  0.00     0.267 C 
HETATM   28  O5  UNL     1     -18.056  18.412 -48.839  1.00  0.00    -0.269 OA
HETATM   29  N3  UNL     1     -16.696  18.707 -50.659  1.00  0.00    -0.353 N 
ATOM     30  H3  UNL     1     -15.770  18.954 -51.007  1.00  0.00     0.163 HD
BRANCH  29  31
HETATM   31  C16 UNL     1     -17.734  18.360 -51.624  1.00  0.00     0.087 C 
HETATM   32  C17 UNL     1     -18.795  19.408 -51.715  1.00  0.00     0.045 C 
HETATM   33  C18 UNL     1     -20.150  18.934 -51.227  1.00  0.00     0.127 C 
HETATM   34  N4  UNL     1     -20.524  17.700 -51.880  1.00  0.00    -0.356 N 
HETATM   35  C19 UNL     1     -21.857  17.411 -52.196  1.00  0.00     0.183 C 
HETATM   36  C20 UNL     1     -19.485  16.749 -52.207  1.00  0.00     0.127 C 
HETATM   37  N5  UNL     1     -22.680  18.347 -52.530  1.00  0.00    -0.374 N 
HETATM   38  N6  UNL     1     -22.387  16.071 -52.171  1.00  0.00    -0.064 NA
ATOM     39  H52 UNL     1     -22.305  19.295 -52.547  1.00  0.00     0.158 HD
ATOM     40  H51 UNL     1     -23.652  18.136 -52.759  1.00  0.00     0.158 HD
HETATM   41  C21 UNL     1     -18.336  17.008 -51.253  1.00  0.00     0.045 C 
ENDBRANCH  29  31
ENDBRANCH  24  27
ENDBRANCH   3  24
TORSDOF 8
ENDMDL
MODEL 4
REMARK VINA RESULT: -7.313651922      2.968      8.873
REMARK  8 active torsions:
REMARK  status: ('A' for Active; 'I' for Inactive)
REMARK    1  A    between atoms: C6_6  and  O1_7 
REMARK    2  A    between atoms: C6_6  and  C7_9 
REMARK    3  A    between atoms: C7_9  and  O2_10 
REMARK    4  A    between atoms: N1_12  and  O3_14 
REMARK    5  A    between atoms: C11_19  and  N2_20 
REMARK       I    between atoms: N2_20  and  C12_22 
REMARK    6  A    between atoms: C12_22  and  C13_24 
REMARK    7  A    between atoms: C13_24  and  C15_27 
REMARK       I    between atoms: C15_27  and  N3_29 
REMARK    8  A    between atoms: N3_29  and  C16_31 
REMARK       I    between atoms: N4_34  and  C19_35 
ROOT
HETATM    1  N2  UNL     1     -11.407  18.483 -48.711  1.00  0.00    -0.352 N 
ATOM      2  H2  UNL     1     -10.959  18.864 -47.876  1.00  0.00     0.163 HD
HETATM    3  C12 UNL     1     -10.605  18.103 -49.815  1.00  0.00     0.267 C 
HETATM    4  O4  UNL     1     -11.152  17.627 -50.855  1.00  0.00    -0.269 OA
ENDROOT
BRANCH   1   5
HETATM    5  C11 UNL     1     -12.849  18.342 -48.740  1.00  0.00     0.092 C 
HETATM    6  C2  UNL     1     -13.430  19.684 -48.981  1.00  0.00     0.005 C 
HETATM    7  C1  UNL     1     -12.641  20.841 -48.399  1.00  0.00     0.012 C 
HETATM    8  C3  UNL     1     -14.909  19.806 -48.718  1.00  0.00     0.014 C 
HETATM    9  C4  UNL     1     -15.563  18.582 -49.238  1.00  0.00     0.025 C 
HETATM   10  C5  UNL     1     -16.909  18.973 -49.836  1.00  0.00     0.013 C 
HETATM   11  C6  UNL     1     -15.784  17.482 -48.234  1.00  0.00     0.127 C 
HETATM   12  C8  UNL     1     -14.591  16.823 -47.698  1.00  0.00     0.053 C 
HETATM   13  C9  UNL     1     -13.315  17.561 -47.570  1.00  0.00     0.008 C 
HETATM   14  C10 UNL     1     -13.098  18.242 -46.237  1.00  0.00     0.012 C 
BRANCH  11  15
HETATM   15  O1  UNL     1     -16.499  16.501 -48.985  1.00  0.00    -0.381 OA
ATOM     16  H1  UNL     1     -16.947  16.002 -48.312  1.00  0.00     0.211 HD
ENDBRANCH  11  15
BRANCH  11  17
HETATM   17  C7  UNL     1     -16.750  17.862 -47.179  1.00  0.00     0.171 C 
HETATM   18  N1  UNL     1     -16.776  17.177 -46.099  1.00  0.00    -0.248 N 
ATOM     19  H1  UNL     1     -16.125  16.395 -46.017  1.00  0.00     0.196 HD
BRANCH  17  20
HETATM   20  O2  UNL     1     -17.624  18.921 -47.307  1.00  0.00    -0.346 OA
ATOM     21  H2  UNL     1     -18.563  18.834 -47.190  1.00  0.00     0.219 HD
ENDBRANCH  17  20
BRANCH  18  22
HETATM   22  O3  UNL     1     -17.619  17.418 -45.041  1.00  0.00    -0.288 OA
ATOM     23  H3  UNL     1     -17.580  16.968 -44.206  1.00  0.00     0.244 HD
ENDBRANCH  18  22
ENDBRANCH  11  17
ENDBRANCH   1   5
BRANCH   3  24
HETATM   24  C13 UNL     1      -9.130  18.234 -49.823  1.00  0.00     0.259 C 
HETATM   25  C14 UNL     1      -8.697  19.665 -49.584  1.00  0.00     0.073 C 
HETATM   26  F1  UNL     1      -8.552  17.471 -48.845  1.00  0.00    -0.222 F 
BRANCH  24  27
HETATM   27  C15 UNL     1      -8.613  17.729 -51.127  1.00  0.00     0.267 C 
HETATM   28  O5  UNL     1      -8.127  16.579 -51.264  1.00  0.00    -0.269 OA
HETATM   29  N3  UNL     1      -8.672  18.575 -52.250  1.00  0.00    -0.353 N 
ATOM     30  H3  UNL     1      -9.068  19.508 -52.137  1.00  0.00     0.163 HD
BRANCH  29  31
HETATM   31  C16 UNL     1      -8.191  18.177 -53.569  1.00  0.00     0.087 C 
HETATM   32  C17 UNL     1      -7.319  19.218 -54.191  1.00  0.00     0.045 C 
HETATM   33  C18 UNL     1      -7.923  19.842 -55.434  1.00  0.00     0.127 C 
HETATM   34  N4  UNL     1      -8.331  18.820 -56.371  1.00  0.00    -0.356 N 
HETATM   35  C19 UNL     1      -8.244  19.015 -57.754  1.00  0.00     0.183 C 
HETATM   36  C20 UNL     1      -8.841  17.570 -55.851  1.00  0.00     0.127 C 
HETATM   37  N5  UNL     1      -7.296  19.723 -58.269  1.00  0.00    -0.374 N 
HETATM   38  N6  UNL     1      -9.191  18.444 -58.679  1.00  0.00    -0.064 NA
ATOM     39  H52 UNL     1      -6.627  20.127 -57.614  1.00  0.00     0.158 HD
ATOM     40  H51 UNL     1      -7.234  19.866 -59.277  1.00  0.00     0.158 HD
HETATM   41  C21 UNL     1      -9.383  17.859 -54.466  1.00  0.00     0.045 C 
ENDBRANCH  29  31
ENDBRANCH  24  27
ENDBRANCH   3  24
TORSDOF 8
ENDMDL
MODEL 5
REMARK VINA RESULT: -7.142754718      2.414      3.669
REMARK  8 active torsions:
REMARK  status: ('A' for Active; 'I' for Inactive)
REMARK    1  A    between atoms: C6_6  and  O1_7 
REMARK    2  A    between atoms: C6_6  and  C7_9 
REMARK    3  A    between atoms: C7_9  and  O2_10 
REMARK    4  A    between atoms: N1_12  and  O3_14 
REMARK    5  A    between atoms: C11_19  and  N2_20 
REMARK       I    between atoms: N2_20  and  C12_22 
REMARK    6  A    between atoms: C12_22  and  C13_24 
REMARK    7  A    between atoms: C13_24  and  C15_27 
REMARK       I    between atoms: C15_27  and  N3_29 
REMARK    8  A    between atoms: N3_29  and  C16_31 
REMARK       I    between atoms: N4_34  and  C19_35 
ROOT
HETATM    1  N2  UNL     1     -13.841  18.209 -48.622  1.00  0.00    -0.352 N 
ATOM      2  H2  UNL     1     -14.094  17.332 -48.165  1.00  0.00     0.163 HD
HETATM    3  C12 UNL     1     -14.776  19.273 -48.643  1.00  0.00     0.267 C 
HETATM    4  O4  UNL     1     -14.471  20.367 -49.206  1.00  0.00    -0.269 OA
ENDROOT
BRANCH   1   5
HETATM    5  C11 UNL     1     -12.535  18.340 -49.235  1.00  0.00     0.092 C 
HETATM    6  C2  UNL     1     -12.365  17.212 -50.183  1.00  0.00     0.005 C 
HETATM    7  C1  UNL     1     -13.058  15.924 -49.782  1.00  0.00     0.012 C 
HETATM    8  C3  UNL     1     -10.957  16.982 -50.670  1.00  0.00     0.014 C 
HETATM    9  C4  UNL     1     -10.349  18.307 -50.936  1.00  0.00     0.025 C 
HETATM   10  C5  UNL     1      -9.458  18.188 -52.165  1.00  0.00     0.013 C 
HETATM   11  C6  UNL     1      -9.539  18.891 -49.810  1.00  0.00     0.127 C 
HETATM   12  C8  UNL     1     -10.266  19.279 -48.599  1.00  0.00     0.053 C 
HETATM   13  C9  UNL     1     -11.499  18.563 -48.199  1.00  0.00     0.008 C 
HETATM   14  C10 UNL     1     -11.287  17.394 -47.264  1.00  0.00     0.012 C 
BRANCH  11  15
HETATM   15  O1  UNL     1      -9.014  20.090 -50.380  1.00  0.00    -0.381 OA
ATOM     16  H1  UNL     1      -8.444  20.420 -49.695  1.00  0.00     0.211 HD
ENDBRANCH  11  15
BRANCH  11  17
HETATM   17  C7  UNL     1      -8.322  18.102 -49.516  1.00  0.00     0.171 C 
HETATM   18  N1  UNL     1      -8.444  17.015 -48.850  1.00  0.00    -0.248 N 
ATOM     19  H1  UNL     1      -9.381  16.745 -48.551  1.00  0.00     0.196 HD
BRANCH  17  20
HETATM   20  O2  UNL     1      -7.062  18.482 -49.927  1.00  0.00    -0.346 OA
ATOM     21  H2  UNL     1      -6.449  17.884 -50.338  1.00  0.00     0.219 HD
ENDBRANCH  17  20
BRANCH  18  22
HETATM   22  O3  UNL     1      -7.402  16.188 -48.509  1.00  0.00    -0.288 OA
ATOM     23  H3  UNL     1      -6.955  16.200 -47.670  1.00  0.00     0.244 HD
ENDBRANCH  18  22
ENDBRANCH  11  17
ENDBRANCH   1   5
BRANCH   3  24
HETATM   24  C13 UNL     1     -16.120  19.178 -48.029  1.00  0.00     0.259 C 
HETATM   25  C14 UNL     1     -16.134  18.205 -46.869  1.00  0.00     0.073 C 
HETATM   26  F1  UNL     1     -16.539  20.387 -47.544  1.00  0.00    -0.222 F 
BRANCH  24  27
HETATM   27  C15 UNL     1     -17.097  18.772 -49.080  1.00  0.00     0.267 C 
HETATM   28  O5  UNL     1     -18.303  18.525 -48.826  1.00  0.00    -0.269 OA
HETATM   29  N3  UNL     1     -16.652  18.660 -50.410  1.00  0.00    -0.353 N 
ATOM     30  H3  UNL     1     -15.673  18.862 -50.614  1.00  0.00     0.163 HD
BRANCH  29  31
HETATM   31  C16 UNL     1     -17.527  18.268 -51.509  1.00  0.00     0.087 C 
HETATM   32  C17 UNL     1     -18.569  19.300 -51.798  1.00  0.00     0.045 C 
HETATM   33  C18 UNL     1     -19.979  18.825 -51.506  1.00  0.00     0.127 C 
HETATM   34  N4  UNL     1     -20.241  17.566 -52.164  1.00  0.00    -0.356 N 
HETATM   35  C19 UNL     1     -21.507  17.250 -52.669  1.00  0.00     0.183 C 
HETATM   36  C20 UNL     1     -19.157  16.617 -52.295  1.00  0.00     0.127 C 
HETATM   37  N5  UNL     1     -22.277  18.164 -53.158  1.00  0.00    -0.374 N 
HETATM   38  N6  UNL     1     -22.026  15.904 -52.679  1.00  0.00    -0.064 NA
ATOM     39  H52 UNL     1     -21.909  19.115 -53.151  1.00  0.00     0.158 HD
ATOM     40  H51 UNL     1     -23.200  17.933 -53.526  1.00  0.00     0.158 HD
HETATM   41  C21 UNL     1     -18.170  16.922 -51.187  1.00  0.00     0.045 C 
ENDBRANCH  29  31
ENDBRANCH  24  27
ENDBRANCH   3  24
TORSDOF 8
ENDMDL
