MODEL 1
REMARK VINA RESULT: -7.998420936      0.000      0.000
REMARK  4 active torsions:
REMARK  status: ('A' for Active; 'I' for Inactive)
REMARK    1  A    between atoms: C2_2  and  C4_16 
REMARK    2  A    between atoms: N1_3  and  N2_5 
REMARK       I    between atoms: N2_5  and  C3_7 
REMARK       I    between atoms: C3_7  and  N4_11 
REMARK    3  A    between atoms: N4_11  and  N5_13 
REMARK    4  A    between atoms: C8_21  and  N6_22 
ROOT
HETATM    1  C1  UNL     1      15.034  12.367  56.711  1.00  0.00     0.071 C 
HETATM    2  C2  UNL     1      14.924  10.946  56.389  1.00  0.00     0.042 C 
HETATM    3  N1  UNL     1      15.987  10.223  56.730  1.00  0.00    -0.290 N 
ATOM      4  H1  UNL     1      15.990   9.221  56.540  1.00  0.00     0.187 HD
ENDROOT
BRANCH   3   5
HETATM    5  N2  UNL     1      17.085  10.800  57.335  1.00  0.00    -0.131 N 
HETATM    6  C3  UNL     1      18.400  10.660  56.798  1.00  0.00     0.709 C 
HETATM    7  N3  UNL     1      19.330  11.434  57.185  1.00  0.00    -0.232 N 
HETATM    8  N4  UNL     1      18.677   9.664  55.835  1.00  0.00    -0.071 N 
ATOM      9  H32 UNL     1      19.131  12.153  57.881  1.00  0.00     0.174 HD
ATOM     10  H31 UNL     1      20.270  11.333  56.802  1.00  0.00     0.174 HD
ATOM     11  H4  UNL     1      17.944   9.010  55.559  1.00  0.00     0.212 HD
ATOM     12  H2  UNL     1      16.954  11.342  58.190  1.00  0.00     0.205 HD
BRANCH   8  13
HETATM   13  N5  UNL     1      19.943   9.565  55.256  1.00  0.00    -0.024 N 
HETATM   14  O1  UNL     1      20.780   8.752  55.709  1.00  0.00    -0.516 OA
HETATM   15  O2  UNL     1      20.338  10.330  54.187  1.00  0.00    -0.516 OA
ENDBRANCH   8  13
ENDBRANCH   3   5
BRANCH   2  16
HETATM   16  C4  UNL     1      13.787  10.245  55.804  1.00  0.00     0.062 A 
HETATM   17  S1  UNL     1      12.157  10.849  55.965  1.00  0.00    -0.091 SA
HETATM   18  C5  UNL     1      11.339   9.710  55.022  1.00  0.00    -0.018 A 
HETATM   19  C6  UNL     1       9.863   9.608  54.706  1.00  0.00     0.056 C 
HETATM   20  C7  UNL     1      12.340   8.889  54.604  1.00  0.00     0.051 A 
HETATM   21  C8  UNL     1      13.614   9.172  55.017  1.00  0.00     0.122 A 
BRANCH  21  22
HETATM   22  N6  UNL     1      14.696   8.295  54.579  1.00  0.00    -0.114 N 
HETATM   23  O3  UNL     1      15.858   8.405  54.921  1.00  0.00    -0.532 OA
HETATM   24  O4  UNL     1      14.386   7.194  53.771  1.00  0.00    -0.532 OA
ENDBRANCH  21  22
ENDBRANCH   2  16
TORSDOF 4
ENDMDL
MODEL 2
REMARK VINA RESULT: -7.800242258      0.994      1.087
REMARK  4 active torsions:
REMARK  status: ('A' for Active; 'I' for Inactive)
REMARK    1  A    between atoms: C2_2  and  C4_16 
REMARK    2  A    between atoms: N1_3  and  N2_5 
REMARK       I    between atoms: N2_5  and  C3_7 
REMARK       I    between atoms: C3_7  and  N4_11 
REMARK    3  A    between atoms: N4_11  and  N5_13 
REMARK    4  A    between atoms: C8_21  and  N6_22 
ROOT
HETATM    1  C1  UNL     1      14.677  11.966  56.737  1.00  0.00     0.071 C 
HETATM    2  C2  UNL     1      14.595  10.684  56.040  1.00  0.00     0.042 C 
HETATM    3  N1  UNL     1      15.759  10.053  55.915  1.00  0.00    -0.290 N 
ATOM      4  H1  UNL     1      15.788   9.150  55.441  1.00  0.00     0.187 HD
ENDROOT
BRANCH   3   5
HETATM    5  N2  UNL     1      16.927  10.593  56.414  1.00  0.00    -0.131 N 
HETATM    6  C3  UNL     1      18.179   9.917  56.296  1.00  0.00     0.709 C 
HETATM    7  N3  UNL     1      19.263  10.551  56.481  1.00  0.00    -0.232 N 
HETATM    8  N4  UNL     1      18.221   8.541  55.975  1.00  0.00    -0.071 N 
ATOM      9  H32 UNL     1      19.233  11.545  56.713  1.00  0.00     0.174 HD
ATOM     10  H31 UNL     1      20.158  10.068  56.397  1.00  0.00     0.174 HD
ATOM     11  H4  UNL     1      17.350   8.019  55.875  1.00  0.00     0.212 HD
ATOM     12  H2  UNL     1      16.896  11.501  56.879  1.00  0.00     0.205 HD
BRANCH   8  13
HETATM   13  N5  UNL     1      19.442   7.890  55.792  1.00  0.00    -0.024 N 
HETATM   14  O1  UNL     1      19.664   6.798  56.363  1.00  0.00    -0.516 OA
HETATM   15  O2  UNL     1      20.444   8.390  54.998  1.00  0.00    -0.516 OA
ENDBRANCH   8  13
ENDBRANCH   3   5
BRANCH   2  16
HETATM   16  C4  UNL     1      13.403  10.015  55.533  1.00  0.00     0.062 A 
HETATM   17  S1  UNL     1      11.814  10.718  55.705  1.00  0.00    -0.091 SA
HETATM   18  C5  UNL     1      10.906   9.573  54.856  1.00  0.00    -0.018 A 
HETATM   19  C6  UNL     1       9.417   9.536  54.591  1.00  0.00     0.056 C 
HETATM   20  C7  UNL     1      11.845   8.674  54.460  1.00  0.00     0.051 A 
HETATM   21  C8  UNL     1      13.146   8.908  54.818  1.00  0.00     0.122 A 
BRANCH  21  22
HETATM   22  N6  UNL     1      14.164   7.949  54.402  1.00  0.00    -0.114 N 
HETATM   23  O3  UNL     1      15.211   7.752  54.987  1.00  0.00    -0.532 OA
HETATM   24  O4  UNL     1      13.904   7.127  53.298  1.00  0.00    -0.532 OA
ENDBRANCH  21  22
ENDBRANCH   2  16
TORSDOF 4
ENDMDL
MODEL 3
REMARK VINA RESULT: -7.619915546      2.818      3.580
REMARK  4 active torsions:
REMARK  status: ('A' for Active; 'I' for Inactive)
REMARK    1  A    between atoms: C2_2  and  C4_16 
REMARK    2  A    between atoms: N1_3  and  N2_5 
REMARK       I    between atoms: N2_5  and  C3_7 
REMARK       I    between atoms: C3_7  and  N4_11 
REMARK    3  A    between atoms: N4_11  and  N5_13 
REMARK    4  A    between atoms: C8_21  and  N6_22 
ROOT
HETATM    1  C1  UNL     1      17.886  10.682  58.189  1.00  0.00     0.071 C 
HETATM    2  C2  UNL     1      17.413  10.394  56.836  1.00  0.00     0.042 C 
HETATM    3  N1  UNL     1      18.365  10.007  55.993  1.00  0.00    -0.290 N 
ATOM      4  H1  UNL     1      18.117   9.786  55.028  1.00  0.00     0.187 HD
ENDROOT
BRANCH   3   5
HETATM    5  N2  UNL     1      19.681   9.897  56.395  1.00  0.00    -0.131 N 
HETATM    6  C3  UNL     1      20.596   9.018  55.742  1.00  0.00     0.709 C 
HETATM    7  N3  UNL     1      21.846   9.155  55.922  1.00  0.00    -0.232 N 
HETATM    8  N4  UNL     1      20.122   7.993  54.893  1.00  0.00    -0.071 N 
ATOM      9  H32 UNL     1      22.189   9.895  56.535  1.00  0.00     0.174 HD
ATOM     10  H31 UNL     1      22.500   8.527  55.455  1.00  0.00     0.174 HD
ATOM     11  H4  UNL     1      19.117   7.850  54.786  1.00  0.00     0.212 HD
ATOM     12  H2  UNL     1      20.008  10.460  57.181  1.00  0.00     0.205 HD
BRANCH   8  13
HETATM   13  N5  UNL     1      21.013   7.174  54.199  1.00  0.00    -0.024 N 
HETATM   14  O1  UNL     1      20.804   5.942  54.119  1.00  0.00    -0.516 OA
HETATM   15  O2  UNL     1      22.139   7.653  53.578  1.00  0.00    -0.516 OA
ENDBRANCH   8  13
ENDBRANCH   3   5
BRANCH   2  16
HETATM   16  C4  UNL     1      16.041  10.429  56.341  1.00  0.00     0.062 A 
HETATM   17  S1  UNL     1      15.299   9.034  55.600  1.00  0.00    -0.091 SA
HETATM   18  C5  UNL     1      13.742   9.643  55.349  1.00  0.00    -0.018 A 
HETATM   19  C6  UNL     1      12.536   8.968  54.733  1.00  0.00     0.056 C 
HETATM   20  C7  UNL     1      13.828  10.907  55.842  1.00  0.00     0.051 A 
HETATM   21  C8  UNL     1      15.031  11.312  56.355  1.00  0.00     0.122 A 
BRANCH  21  22
HETATM   22  N6  UNL     1      15.138  12.669  56.883  1.00  0.00    -0.114 N 
HETATM   23  O3  UNL     1      15.217  12.949  58.064  1.00  0.00    -0.532 OA
HETATM   24  O4  UNL     1      15.239  13.737  55.982  1.00  0.00    -0.532 OA
ENDBRANCH  21  22
ENDBRANCH   2  16
TORSDOF 4
ENDMDL
MODEL 4
REMARK VINA RESULT: -7.493497587      3.186      6.491
REMARK  4 active torsions:
REMARK  status: ('A' for Active; 'I' for Inactive)
REMARK    1  A    between atoms: C2_2  and  C4_16 
REMARK    2  A    between atoms: N1_3  and  N2_5 
REMARK       I    between atoms: N2_5  and  C3_7 
REMARK       I    between atoms: C3_7  and  N4_11 
REMARK    3  A    between atoms: N4_11  and  N5_13 
REMARK    4  A    between atoms: C8_21  and  N6_22 
ROOT
HETATM    1  C1  UNL     1      17.451  10.945  57.820  1.00  0.00     0.071 C 
HETATM    2  C2  UNL     1      17.497  10.235  56.543  1.00  0.00     0.042 C 
HETATM    3  N1  UNL     1      16.359  10.269  55.856  1.00  0.00    -0.290 N 
ATOM      4  H1  UNL     1      16.307   9.797  54.953  1.00  0.00     0.187 HD
ENDROOT
BRANCH   3   5
HETATM    5  N2  UNL     1      15.247  10.930  56.339  1.00  0.00    -0.131 N 
HETATM    6  C3  UNL     1      13.923  10.530  55.986  1.00  0.00     0.709 C 
HETATM    7  N3  UNL     1      12.932  10.944  56.665  1.00  0.00    -0.232 N 
HETATM    8  N4  UNL     1      13.704   9.675  54.882  1.00  0.00    -0.071 N 
ATOM      9  H32 UNL     1      13.090  11.561  57.462  1.00  0.00     0.174 HD
ATOM     10  H31 UNL     1      11.986  10.659  56.412  1.00  0.00     0.174 HD
ATOM     11  H4  UNL     1      14.493   9.382  54.306  1.00  0.00     0.212 HD
ATOM     12  H2  UNL     1      15.375  11.725  56.965  1.00  0.00     0.205 HD
BRANCH   8  13
HETATM   13  N5  UNL     1      12.419   9.227  54.573  1.00  0.00    -0.024 N 
HETATM   14  O1  UNL     1      12.206   8.008  54.386  1.00  0.00    -0.516 OA
HETATM   15  O2  UNL     1      11.342  10.070  54.458  1.00  0.00    -0.516 OA
ENDBRANCH   8  13
ENDBRANCH   3   5
BRANCH   2  16
HETATM   16  C4  UNL     1      18.637   9.561  55.933  1.00  0.00     0.062 A 
HETATM   17  S1  UNL     1      20.058  10.441  55.427  1.00  0.00    -0.091 SA
HETATM   18  C5  UNL     1      21.025   9.149  54.923  1.00  0.00    -0.018 A 
HETATM   19  C6  UNL     1      22.426   9.166  54.353  1.00  0.00     0.056 C 
HETATM   20  C7  UNL     1      20.232   8.069  55.155  1.00  0.00     0.051 A 
HETATM   21  C8  UNL     1      18.987   8.291  55.680  1.00  0.00     0.122 A 
BRANCH  21  22
HETATM   22  N6  UNL     1      18.125   7.140  55.930  1.00  0.00    -0.114 N 
HETATM   23  O3  UNL     1      16.910   7.161  55.885  1.00  0.00    -0.532 OA
HETATM   24  O4  UNL     1      18.717   5.891  56.162  1.00  0.00    -0.532 OA
ENDBRANCH  21  22
ENDBRANCH   2  16
TORSDOF 4
ENDMDL
MODEL 5
REMARK VINA RESULT: -7.226535916      2.831      3.393
REMARK  4 active torsions:
REMARK  status: ('A' for Active; 'I' for Inactive)
REMARK    1  A    between atoms: C2_2  and  C4_16 
REMARK    2  A    between atoms: N1_3  and  N2_5 
REMARK       I    between atoms: N2_5  and  C3_7 
REMARK       I    between atoms: C3_7  and  N4_11 
REMARK    3  A    between atoms: N4_11  and  N5_13 
REMARK    4  A    between atoms: C8_21  and  N6_22 
ROOT
HETATM    1  C1  UNL     1      17.656  10.771  58.160  1.00  0.00     0.071 C 
HETATM    2  C2  UNL     1      17.321  10.063  56.926  1.00  0.00     0.042 C 
HETATM    3  N1  UNL     1      18.331   9.381  56.394  1.00  0.00    -0.290 N 
ATOM      4  H1  UNL     1      18.181   8.858  55.532  1.00  0.00     0.187 HD
ENDROOT
BRANCH   3   5
HETATM    5  N2  UNL     1      19.579   9.367  56.985  1.00  0.00    -0.131 N 
HETATM    6  C3  UNL     1      20.743   8.946  56.274  1.00  0.00     0.709 C 
HETATM    7  N3  UNL     1      21.898   9.225  56.725  1.00  0.00    -0.232 N 
HETATM    8  N4  UNL     1      20.621   8.220  55.068  1.00  0.00    -0.071 N 
ATOM      9  H32 UNL     1      21.986   9.749  57.596  1.00  0.00     0.174 HD
ATOM     10  H31 UNL     1      22.730   8.924  56.217  1.00  0.00     0.174 HD
ATOM     11  H4  UNL     1      19.696   7.953  54.731  1.00  0.00     0.212 HD
ATOM     12  H2  UNL     1      19.672   9.664  57.957  1.00  0.00     0.205 HD
BRANCH   8  13
HETATM   13  N5  UNL     1      21.754   7.865  54.334  1.00  0.00    -0.024 N 
HETATM   14  O1  UNL     1      21.995   6.660  54.093  1.00  0.00    -0.516 OA
HETATM   15  O2  UNL     1      22.646   8.786  53.844  1.00  0.00    -0.516 OA
ENDBRANCH   8  13
ENDBRANCH   3   5
BRANCH   2  16
HETATM   16  C4  UNL     1      16.024   9.978  56.265  1.00  0.00     0.062 A 
HETATM   17  S1  UNL     1      15.466   8.497  55.529  1.00  0.00    -0.091 SA
HETATM   18  C5  UNL     1      13.919   8.986  55.050  1.00  0.00    -0.018 A 
HETATM   19  C6  UNL     1      12.843   8.199  54.335  1.00  0.00     0.056 C 
HETATM   20  C7  UNL     1      13.868  10.279  55.468  1.00  0.00     0.051 A 
HETATM   21  C8  UNL     1      14.970  10.792  56.098  1.00  0.00     0.122 A 
BRANCH  21  22
HETATM   22  N6  UNL     1      14.929  12.180  56.547  1.00  0.00    -0.114 N 
HETATM   23  O3  UNL     1      15.677  13.057  56.159  1.00  0.00    -0.532 OA
HETATM   24  O4  UNL     1      13.914  12.574  57.429  1.00  0.00    -0.532 OA
ENDBRANCH  21  22
ENDBRANCH   2  16
TORSDOF 4
ENDMDL
