MODEL 1
REMARK VINA RESULT: -7.218040375      0.000      0.000
REMARK  9 active torsions:
REMARK  status: ('A' for Active; 'I' for Inactive)
REMARK    1  A    between atoms: C2_2  and  C3_3 
REMARK    2  A    between atoms: C3_3  and  O1_4 
REMARK    3  A    between atoms: C3_3  and  C7_10 
REMARK    4  A    between atoms: O1_4  and  C4_5 
REMARK       I    between atoms: C4_5  and  N1_7 
REMARK    5  A    between atoms: C7_10  and  O3_11 
REMARK    6  A    between atoms: C7_10  and  C8_13 
REMARK    7  A    between atoms: C10_15  and  C11_16 
REMARK    8  A    between atoms: C11_16  and  O4_17 
REMARK    9  A    between atoms: C11_16  and  O5_19 
ROOT
HETATM    1  C7  UNL     1      15.526  10.937  56.261  1.00  0.00     0.136 C 
ENDROOT
BRANCH   1   2
HETATM    2  C3  UNL     1      16.409   9.946  56.205  1.00  0.00     0.116 C 
BRANCH   2   3
HETATM    3  C2  UNL     1      16.098   8.578  56.534  1.00  0.00     0.030 C 
HETATM    4  C1  UNL     1      16.454   7.572  55.787  1.00  0.00     0.014 C 
ENDBRANCH   2   3
BRANCH   2   5
HETATM    5  O1  UNL     1      17.721  10.201  55.806  1.00  0.00    -0.259 OA
BRANCH   5   6
HETATM    6  C4  UNL     1      18.816  10.259  56.634  1.00  0.00     0.367 C 
HETATM    7  O2  UNL     1      18.783  11.081  57.591  1.00  0.00    -0.238 OA
HETATM    8  N1  UNL     1      19.965   9.437  56.449  1.00  0.00    -0.336 N 
HETATM    9  C5  UNL     1      21.107   9.547  57.326  1.00  0.00     0.154 C 
HETATM   10  C6  UNL     1      20.035   8.454  55.381  1.00  0.00     0.154 C 
ENDBRANCH   5   6
ENDBRANCH   2   5
ENDBRANCH   1   2
BRANCH   1  11
HETATM   11  O3  UNL     1      15.993  12.205  56.557  1.00  0.00    -0.356 OA
ATOM     12  H3  UNL     1      15.356  12.873  56.782  1.00  0.00     0.218 HD
ENDBRANCH   1  11
BRANCH   1  13
HETATM   13  C8  UNL     1      14.120  10.744  56.023  1.00  0.00     0.136 A 
HETATM   14  C9  UNL     1      13.486  10.034  55.010  1.00  0.00     0.074 A 
HETATM   15  C10 UNL     1      12.140  10.151  55.232  1.00  0.00     0.089 A 
HETATM   16  N2  UNL     1      12.006  10.901  56.330  1.00  0.00    -0.260 N 
HETATM   17  O6  UNL     1      13.172  11.236  56.774  1.00  0.00    -0.235 OA
ATOM     18  H2  UNL     1      11.117  11.168  56.754  1.00  0.00     0.194 HD
BRANCH  15  19
HETATM   19  C11 UNL     1      11.079   9.545  54.359  1.00  0.00     0.309 C 
BRANCH  19  20
HETATM   20  O4  UNL     1      10.964   8.206  54.745  1.00  0.00    -0.366 OA
ATOM     21  H4  UNL     1      10.392   7.791  54.111  1.00  0.00     0.213 HD
ENDBRANCH  19  20
BRANCH  19  22
HETATM   22  O5  UNL     1       9.892  10.215  54.503  1.00  0.00    -0.360 OA
HETATM   23  C12 UNL     1       8.782   9.401  54.423  1.00  0.00     0.205 C 
ENDBRANCH  19  22
ENDBRANCH  15  19
ENDBRANCH   1  13
TORSDOF 9
ENDMDL
MODEL 2
REMARK VINA RESULT: -7.182168314      2.103      3.027
REMARK  9 active torsions:
REMARK  status: ('A' for Active; 'I' for Inactive)
REMARK    1  A    between atoms: C2_2  and  C3_3 
REMARK    2  A    between atoms: C3_3  and  O1_4 
REMARK    3  A    between atoms: C3_3  and  C7_10 
REMARK    4  A    between atoms: O1_4  and  C4_5 
REMARK       I    between atoms: C4_5  and  N1_7 
REMARK    5  A    between atoms: C7_10  and  O3_11 
REMARK    6  A    between atoms: C7_10  and  C8_13 
REMARK    7  A    between atoms: C10_15  and  C11_16 
REMARK    8  A    between atoms: C11_16  and  O4_17 
REMARK    9  A    between atoms: C11_16  and  O5_19 
ROOT
HETATM    1  C7  UNL     1      16.598   8.051  55.865  1.00  0.00     0.136 C 
ENDROOT
BRANCH   1   2
HETATM    2  C3  UNL     1      17.527   8.945  56.183  1.00  0.00     0.116 C 
BRANCH   2   3
HETATM    3  C2  UNL     1      17.300  10.368  56.191  1.00  0.00     0.030 C 
HETATM    4  C1  UNL     1      17.426  11.099  57.262  1.00  0.00     0.014 C 
ENDBRANCH   2   3
BRANCH   2   5
HETATM    5  O1  UNL     1      18.809   8.524  56.538  1.00  0.00    -0.259 OA
BRANCH   5   6
HETATM    6  C4  UNL     1      19.792   8.119  55.668  1.00  0.00     0.367 C 
HETATM    7  O2  UNL     1      19.773   6.918  55.283  1.00  0.00    -0.238 OA
HETATM    8  N1  UNL     1      20.812   8.996  55.196  1.00  0.00    -0.336 N 
HETATM    9  C5  UNL     1      21.843   8.524  54.302  1.00  0.00     0.154 C 
HETATM   10  C6  UNL     1      20.855  10.395  55.587  1.00  0.00     0.154 C 
ENDBRANCH   5   6
ENDBRANCH   2   5
ENDBRANCH   1   2
BRANCH   1  11
HETATM   11  O3  UNL     1      16.923   6.711  55.974  1.00  0.00    -0.356 OA
ATOM     12  H3  UNL     1      16.302   6.074  55.641  1.00  0.00     0.218 HD
ENDBRANCH   1  11
BRANCH   1  13
HETATM   13  C8  UNL     1      15.279   8.421  55.424  1.00  0.00     0.136 A 
HETATM   14  C9  UNL     1      14.398   9.353  55.960  1.00  0.00     0.074 A 
HETATM   15  C10 UNL     1      13.279   9.333  55.171  1.00  0.00     0.089 A 
HETATM   16  N2  UNL     1      13.508   8.424  54.219  1.00  0.00    -0.260 N 
HETATM   17  O6  UNL     1      14.679   7.904  54.385  1.00  0.00    -0.235 OA
ATOM     18  H2  UNL     1      12.857   8.178  53.473  1.00  0.00     0.194 HD
BRANCH  15  19
HETATM   19  C11 UNL     1      12.062  10.182  55.402  1.00  0.00     0.309 C 
BRANCH  19  20
HETATM   20  O4  UNL     1      12.376  11.050  56.452  1.00  0.00    -0.366 OA
ATOM     21  H4  UNL     1      13.252  11.374  56.282  1.00  0.00     0.213 HD
ENDBRANCH  19  20
BRANCH  19  22
HETATM   22  O5  UNL     1      11.726  10.869  54.264  1.00  0.00    -0.360 OA
HETATM   23  C12 UNL     1      10.379  10.834  53.971  1.00  0.00     0.205 C 
ENDBRANCH  19  22
ENDBRANCH  15  19
ENDBRANCH   1  13
TORSDOF 9
ENDMDL
MODEL 3
REMARK VINA RESULT: -7.162504343      1.724      2.507
REMARK  9 active torsions:
REMARK  status: ('A' for Active; 'I' for Inactive)
REMARK    1  A    between atoms: C2_2  and  C3_3 
REMARK    2  A    between atoms: C3_3  and  O1_4 
REMARK    3  A    between atoms: C3_3  and  C7_10 
REMARK    4  A    between atoms: O1_4  and  C4_5 
REMARK       I    between atoms: C4_5  and  N1_7 
REMARK    5  A    between atoms: C7_10  and  O3_11 
REMARK    6  A    between atoms: C7_10  and  C8_13 
REMARK    7  A    between atoms: C10_15  and  C11_16 
REMARK    8  A    between atoms: C11_16  and  O4_17 
REMARK    9  A    between atoms: C11_16  and  O5_19 
ROOT
HETATM    1  C7  UNL     1      15.906   8.556  55.902  1.00  0.00     0.136 C 
ENDROOT
BRANCH   1   2
HETATM    2  C3  UNL     1      16.759   9.540  56.160  1.00  0.00     0.116 C 
BRANCH   2   3
HETATM    3  C2  UNL     1      16.459  10.653  57.025  1.00  0.00     0.030 C 
HETATM    4  C1  UNL     1      16.260  11.862  56.580  1.00  0.00     0.014 C 
ENDBRANCH   2   3
BRANCH   2   5
HETATM    5  O1  UNL     1      18.029   9.533  55.583  1.00  0.00    -0.259 OA
BRANCH   5   6
HETATM    6  C4  UNL     1      19.191   9.140  56.202  1.00  0.00     0.367 C 
HETATM    7  O2  UNL     1      19.373   7.904  56.374  1.00  0.00    -0.238 OA
HETATM    8  N1  UNL     1      20.178  10.067  56.648  1.00  0.00    -0.336 N 
HETATM    9  C5  UNL     1      21.374   9.615  57.318  1.00  0.00     0.154 C 
HETATM   10  C6  UNL     1      20.027  11.498  56.443  1.00  0.00     0.154 C 
ENDBRANCH   5   6
ENDBRANCH   2   5
ENDBRANCH   1   2
BRANCH   1  11
HETATM   11  O3  UNL     1      16.304   7.262  56.188  1.00  0.00    -0.356 OA
ATOM     12  H3  UNL     1      16.040   6.889  57.021  1.00  0.00     0.218 HD
ENDBRANCH   1  11
BRANCH   1  13
HETATM   13  C8  UNL     1      14.597   8.782  55.350  1.00  0.00     0.136 A 
HETATM   14  C9  UNL     1      13.657   9.754  55.675  1.00  0.00     0.074 A 
HETATM   15  C10 UNL     1      12.579   9.546  54.858  1.00  0.00     0.089 A 
HETATM   16  N2  UNL     1      12.886   8.495  54.092  1.00  0.00    -0.260 N 
HETATM   17  O6  UNL     1      14.067   8.065  54.395  1.00  0.00    -0.235 OA
ATOM     18  H2  UNL     1      12.281   8.093  53.376  1.00  0.00     0.194 HD
BRANCH  15  19
HETATM   19  C11 UNL     1      11.321  10.366  54.886  1.00  0.00     0.309 C 
BRANCH  19  20
HETATM   20  O4  UNL     1      11.330  11.146  53.725  1.00  0.00    -0.366 OA
ATOM     21  H4  UNL     1      11.351  12.052  54.009  1.00  0.00     0.213 HD
ENDBRANCH  19  20
BRANCH  19  22
HETATM   22  O5  UNL     1      10.216   9.557  54.941  1.00  0.00    -0.360 OA
HETATM   23  C12 UNL     1       9.179   9.979  54.136  1.00  0.00     0.205 C 
ENDBRANCH  19  22
ENDBRANCH  15  19
ENDBRANCH   1  13
TORSDOF 9
ENDMDL
MODEL 4
REMARK VINA RESULT: -7.083311545      1.999      3.307
REMARK  9 active torsions:
REMARK  status: ('A' for Active; 'I' for Inactive)
REMARK    1  A    between atoms: C2_2  and  C3_3 
REMARK    2  A    between atoms: C3_3  and  O1_4 
REMARK    3  A    between atoms: C3_3  and  C7_10 
REMARK    4  A    between atoms: O1_4  and  C4_5 
REMARK       I    between atoms: C4_5  and  N1_7 
REMARK    5  A    between atoms: C7_10  and  O3_11 
REMARK    6  A    between atoms: C7_10  and  C8_13 
REMARK    7  A    between atoms: C10_15  and  C11_16 
REMARK    8  A    between atoms: C11_16  and  O4_17 
REMARK    9  A    between atoms: C11_16  and  O5_19 
ROOT
HETATM    1  C7  UNL     1      18.030  10.271  56.540  1.00  0.00     0.136 C 
ENDROOT
BRANCH   1   2
HETATM    2  C3  UNL     1      19.091   9.502  56.326  1.00  0.00     0.116 C 
BRANCH   2   3
HETATM    3  C2  UNL     1      19.890   8.929  57.380  1.00  0.00     0.030 C 
HETATM    4  C1  UNL     1      20.779   9.612  58.044  1.00  0.00     0.014 C 
ENDBRANCH   2   3
BRANCH   2   5
HETATM    5  O1  UNL     1      19.487   9.205  55.022  1.00  0.00    -0.259 OA
BRANCH   5   6
HETATM    6  C4  UNL     1      20.783   9.059  54.588  1.00  0.00     0.367 C 
HETATM    7  O2  UNL     1      21.480  10.103  54.466  1.00  0.00    -0.238 OA
HETATM    8  N1  UNL     1      21.352   7.790  54.279  1.00  0.00    -0.336 N 
HETATM    9  C5  UNL     1      22.710   7.681  53.801  1.00  0.00     0.154 C 
HETATM   10  C6  UNL     1      20.598   6.557  54.435  1.00  0.00     0.154 C 
ENDBRANCH   5   6
ENDBRANCH   2   5
ENDBRANCH   1   2
BRANCH   1  11
HETATM   11  O3  UNL     1      18.232  11.508  57.124  1.00  0.00    -0.356 OA
ATOM     12  H3  UNL     1      18.803  11.555  57.882  1.00  0.00     0.218 HD
ENDBRANCH   1  11
BRANCH   1  13
HETATM   13  C8  UNL     1      16.694   9.872  56.184  1.00  0.00     0.136 A 
HETATM   14  C9  UNL     1      15.493  10.552  56.358  1.00  0.00     0.074 A 
HETATM   15  C10 UNL     1      14.510   9.749  55.847  1.00  0.00     0.089 A 
HETATM   16  N2  UNL     1      15.121   8.648  55.397  1.00  0.00    -0.260 N 
HETATM   17  O6  UNL     1      16.393   8.741  55.604  1.00  0.00    -0.235 OA
ATOM     18  H2  UNL     1      14.654   7.856  54.956  1.00  0.00     0.194 HD
BRANCH  15  19
HETATM   19  C11 UNL     1      13.048  10.092  55.844  1.00  0.00     0.309 C 
BRANCH  19  20
HETATM   20  O4  UNL     1      12.899  11.200  56.684  1.00  0.00    -0.366 OA
ATOM     21  H4  UNL     1      13.020  10.885  57.571  1.00  0.00     0.213 HD
ENDBRANCH  19  20
BRANCH  19  22
HETATM   22  O5  UNL     1      12.616  10.363  54.571  1.00  0.00    -0.360 OA
HETATM   23  C12 UNL     1      11.244  10.433  54.454  1.00  0.00     0.205 C 
ENDBRANCH  19  22
ENDBRANCH  15  19
ENDBRANCH   1  13
TORSDOF 9
ENDMDL
MODEL 5
REMARK VINA RESULT: -7.030574446      1.450      2.259
REMARK  9 active torsions:
REMARK  status: ('A' for Active; 'I' for Inactive)
REMARK    1  A    between atoms: C2_2  and  C3_3 
REMARK    2  A    between atoms: C3_3  and  O1_4 
REMARK    3  A    between atoms: C3_3  and  C7_10 
REMARK    4  A    between atoms: O1_4  and  C4_5 
REMARK       I    between atoms: C4_5  and  N1_7 
REMARK    5  A    between atoms: C7_10  and  O3_11 
REMARK    6  A    between atoms: C7_10  and  C8_13 
REMARK    7  A    between atoms: C10_15  and  C11_16 
REMARK    8  A    between atoms: C11_16  and  O4_17 
REMARK    9  A    between atoms: C11_16  and  O5_19 
ROOT
HETATM    1  C7  UNL     1      15.160   9.158  55.649  1.00  0.00     0.136 C 
ENDROOT
BRANCH   1   2
HETATM    2  C3  UNL     1      16.214   9.819  56.113  1.00  0.00     0.116 C 
BRANCH   2   3
HETATM    3  C2  UNL     1      16.336  11.255  56.080  1.00  0.00     0.030 C 
HETATM    4  C1  UNL     1      16.073  12.011  57.108  1.00  0.00     0.014 C 
ENDBRANCH   2   3
BRANCH   2   5
HETATM    5  O1  UNL     1      17.285   9.122  56.674  1.00  0.00    -0.259 OA
BRANCH   5   6
HETATM    6  C4  UNL     1      18.615   9.348  56.416  1.00  0.00     0.367 C 
HETATM    7  O2  UNL     1      19.065   8.978  55.298  1.00  0.00    -0.238 OA
HETATM    8  N1  UNL     1      19.485   9.975  57.355  1.00  0.00    -0.336 N 
HETATM    9  C5  UNL     1      20.884  10.171  57.056  1.00  0.00     0.154 C 
HETATM   10  C6  UNL     1      19.005  10.448  58.642  1.00  0.00     0.154 C 
ENDBRANCH   5   6
ENDBRANCH   2   5
ENDBRANCH   1   2
BRANCH   1  11
HETATM   11  O3  UNL     1      15.365   7.891  55.132  1.00  0.00    -0.356 OA
ATOM     12  H3  UNL     1      16.260   7.611  54.982  1.00  0.00     0.218 HD
ENDBRANCH   1  11
BRANCH   1  13
HETATM   13  C8  UNL     1      13.828   9.701  55.669  1.00  0.00     0.136 A 
HETATM   14  C9  UNL     1      12.826   9.620  54.709  1.00  0.00     0.074 A 
HETATM   15  C10 UNL     1      11.746  10.295  55.211  1.00  0.00     0.089 A 
HETATM   16  N2  UNL     1      12.113  10.748  56.413  1.00  0.00    -0.260 N 
HETATM   17  O6  UNL     1      13.330  10.391  56.661  1.00  0.00    -0.235 OA
ATOM     18  H2  UNL     1      11.522  11.293  57.041  1.00  0.00     0.194 HD
BRANCH  15  19
HETATM   19  C11 UNL     1      10.442  10.470  54.486  1.00  0.00     0.309 C 
BRANCH  19  20
HETATM   20  O4  UNL     1      10.711  11.268  53.370  1.00  0.00    -0.366 OA
ATOM     21  H4  UNL     1      10.740  10.684  52.622  1.00  0.00     0.213 HD
ENDBRANCH  19  20
BRANCH  19  22
HETATM   22  O5  UNL     1       9.923   9.254  54.123  1.00  0.00    -0.360 OA
HETATM   23  C12 UNL     1       9.228   8.623  55.133  1.00  0.00     0.205 C 
ENDBRANCH  19  22
ENDBRANCH  15  19
ENDBRANCH   1  13
TORSDOF 9
ENDMDL
