MODEL 1
REMARK VINA RESULT: -8.401731142      0.000      0.000
REMARK  6 active torsions:
REMARK  status: ('A' for Active; 'I' for Inactive)
REMARK    1  A    between atoms: C2_2  and  S1_3 
REMARK    2  A    between atoms: S1_3  and  C3_4 
REMARK    3  A    between atoms: C4_6  and  C5_7 
REMARK    4  A    between atoms: C5_7  and  O3_9 
REMARK    5  A    between atoms: O3_9  and  N1_10 
REMARK       I    between atoms: N1_10  and  C6_12 
REMARK       I    between atoms: C6_12  and  N3_16 
REMARK    6  A    between atoms: N3_16  and  N4_18 
ROOT
HETATM    1  O3  UNL     1      16.481  11.852  56.488  1.00  0.00    -0.178 OA
ENDROOT
BRANCH   1   2
HETATM    2  C5  UNL     1      15.104  11.896  56.620  1.00  0.00     0.339 C 
HETATM    3  O2  UNL     1      14.601  12.765  57.368  1.00  0.00    -0.255 OA
BRANCH   2   4
HETATM    4  C4  UNL     1      14.233  10.943  55.899  1.00  0.00     0.154 A 
HETATM    5  O1  UNL     1      12.985  11.123  55.642  1.00  0.00    -0.297 OA
HETATM    6  C3  UNL     1      12.508  10.061  54.975  1.00  0.00     0.118 A 
HETATM    7  C8  UNL     1      13.531   9.157  54.804  1.00  0.00    -0.018 A 
HETATM    8  C7  UNL     1      14.647   9.746  55.410  1.00  0.00     0.053 A 
HETATM    9  C9  UNL     1      13.509   7.850  54.125  1.00  0.00     0.052 C 
BRANCH   6  10
HETATM   10  S1  UNL     1      10.812  10.041  54.493  1.00  0.00    -0.105 SA
BRANCH  10  11
HETATM   11  C2  UNL     1       9.814   8.742  55.137  1.00  0.00     0.077 C 
HETATM   12  C1  UNL     1       8.409   8.799  54.572  1.00  0.00     0.016 C 
ENDBRANCH  10  11
ENDBRANCH   6  10
ENDBRANCH   2   4
ENDBRANCH   1   2
BRANCH   1  13
HETATM   13  N1  UNL     1      17.315  11.100  57.269  1.00  0.00    -0.086 N 
HETATM   14  C6  UNL     1      18.607  10.734  56.807  1.00  0.00     0.715 C 
HETATM   15  N2  UNL     1      19.569  11.518  57.143  1.00  0.00    -0.232 N 
HETATM   16  N3  UNL     1      18.862   9.593  56.028  1.00  0.00    -0.070 N 
ATOM     17  H22 UNL     1      19.384  12.347  57.709  1.00  0.00     0.174 HD
ATOM     18  H21 UNL     1      20.497  11.255  56.810  1.00  0.00     0.174 HD
ATOM     19  H3  UNL     1      18.100   8.950  55.812  1.00  0.00     0.212 HD
ATOM     20  H1  UNL     1      17.005  10.799  58.194  1.00  0.00     0.214 HD
BRANCH  16  21
HETATM   21  N4  UNL     1      20.129   9.332  55.553  1.00  0.00    -0.024 N 
HETATM   22  O4  UNL     1      20.335   9.130  54.333  1.00  0.00    -0.516 OA
HETATM   23  O5  UNL     1      21.243   9.273  56.373  1.00  0.00    -0.516 OA
ENDBRANCH  16  21
ENDBRANCH   1  13
TORSDOF 6
ENDMDL
MODEL 2
REMARK VINA RESULT: -8.329073004      1.024      1.369
REMARK  6 active torsions:
REMARK  status: ('A' for Active; 'I' for Inactive)
REMARK    1  A    between atoms: C2_2  and  S1_3 
REMARK    2  A    between atoms: S1_3  and  C3_4 
REMARK    3  A    between atoms: C4_6  and  C5_7 
REMARK    4  A    between atoms: C5_7  and  O3_9 
REMARK    5  A    between atoms: O3_9  and  N1_10 
REMARK       I    between atoms: N1_10  and  C6_12 
REMARK       I    between atoms: C6_12  and  N3_16 
REMARK    6  A    between atoms: N3_16  and  N4_18 
ROOT
HETATM    1  O3  UNL     1      16.417  11.381  57.244  1.00  0.00    -0.178 OA
ENDROOT
BRANCH   1   2
HETATM    2  C5  UNL     1      15.169  11.789  56.803  1.00  0.00     0.339 C 
HETATM    3  O2  UNL     1      14.785  12.946  57.082  1.00  0.00    -0.255 OA
BRANCH   2   4
HETATM    4  C4  UNL     1      14.299  10.886  56.020  1.00  0.00     0.154 A 
HETATM    5  O1  UNL     1      13.059  11.096  55.750  1.00  0.00    -0.297 OA
HETATM    6  C3  UNL     1      12.580  10.075  55.022  1.00  0.00     0.118 A 
HETATM    7  C8  UNL     1      13.594   9.166  54.825  1.00  0.00    -0.018 A 
HETATM    8  C7  UNL     1      14.706   9.708  55.480  1.00  0.00     0.053 A 
HETATM    9  C9  UNL     1      13.567   7.895  54.081  1.00  0.00     0.052 C 
BRANCH   6  10
HETATM   10  S1  UNL     1      10.894  10.104  54.509  1.00  0.00    -0.105 SA
BRANCH  10  11
HETATM   11  C2  UNL     1       9.852   8.823  55.118  1.00  0.00     0.077 C 
HETATM   12  C1  UNL     1       8.469   8.901  54.501  1.00  0.00     0.016 C 
ENDBRANCH  10  11
ENDBRANCH   6  10
ENDBRANCH   2   4
ENDBRANCH   1   2
BRANCH   1  13
HETATM   13  N1  UNL     1      17.590  11.609  56.579  1.00  0.00    -0.086 N 
HETATM   14  C6  UNL     1      18.657  10.673  56.649  1.00  0.00     0.715 C 
HETATM   15  N2  UNL     1      18.700   9.796  55.710  1.00  0.00    -0.232 N 
HETATM   16  N3  UNL     1      19.626  10.671  57.665  1.00  0.00    -0.070 N 
ATOM     17  H22 UNL     1      17.996   9.798  54.971  1.00  0.00     0.174 HD
ATOM     18  H21 UNL     1      19.466   9.124  55.761  1.00  0.00     0.174 HD
ATOM     19  H3  UNL     1      19.614  11.403  58.375  1.00  0.00     0.212 HD
ATOM     20  H1  UNL     1      17.701  12.460  56.027  1.00  0.00     0.214 HD
BRANCH  16  21
HETATM   21  N4  UNL     1      20.595   9.692  57.714  1.00  0.00    -0.024 N 
HETATM   22  O4  UNL     1      21.810   9.985  57.822  1.00  0.00    -0.516 OA
HETATM   23  O5  UNL     1      20.304   8.340  57.647  1.00  0.00    -0.516 OA
ENDBRANCH  16  21
ENDBRANCH   1  13
TORSDOF 6
ENDMDL
MODEL 3
REMARK VINA RESULT: -8.260624752      1.584      1.979
REMARK  6 active torsions:
REMARK  status: ('A' for Active; 'I' for Inactive)
REMARK    1  A    between atoms: C2_2  and  S1_3 
REMARK    2  A    between atoms: S1_3  and  C3_4 
REMARK    3  A    between atoms: C4_6  and  C5_7 
REMARK    4  A    between atoms: C5_7  and  O3_9 
REMARK    5  A    between atoms: O3_9  and  N1_10 
REMARK       I    between atoms: N1_10  and  C6_12 
REMARK       I    between atoms: C6_12  and  N3_16 
REMARK    6  A    between atoms: N3_16  and  N4_18 
ROOT
HETATM    1  O3  UNL     1      17.844   9.563  56.784  1.00  0.00    -0.178 OA
ENDROOT
BRANCH   1   2
HETATM    2  C5  UNL     1      16.708  10.349  56.697  1.00  0.00     0.339 C 
HETATM    3  O2  UNL     1      16.714  11.473  57.246  1.00  0.00    -0.255 OA
BRANCH   2   4
HETATM    4  C4  UNL     1      15.505   9.881  55.975  1.00  0.00     0.154 A 
HETATM    5  O1  UNL     1      14.352  10.450  56.004  1.00  0.00    -0.297 OA
HETATM    6  C3  UNL     1      13.493   9.761  55.237  1.00  0.00     0.118 A 
HETATM    7  C8  UNL     1      14.159   8.687  54.692  1.00  0.00    -0.018 A 
HETATM    8  C7  UNL     1      15.468   8.780  55.182  1.00  0.00     0.053 A 
HETATM    9  C9  UNL     1      13.653   7.650  53.777  1.00  0.00     0.052 C 
BRANCH   6  10
HETATM   10  S1  UNL     1      11.828  10.323  55.093  1.00  0.00    -0.105 SA
BRANCH  10  11
HETATM   11  C2  UNL     1      10.588   9.095  54.870  1.00  0.00     0.077 C 
HETATM   12  C1  UNL     1       9.306   9.702  54.334  1.00  0.00     0.016 C 
ENDBRANCH  10  11
ENDBRANCH   6  10
ENDBRANCH   2   4
ENDBRANCH   1   2
BRANCH   1  13
HETATM   13  N1  UNL     1      19.125  10.030  56.673  1.00  0.00    -0.086 N 
HETATM   14  C6  UNL     1      19.941   9.653  55.574  1.00  0.00     0.715 C 
HETATM   15  N2  UNL     1      19.934  10.450  54.566  1.00  0.00    -0.232 N 
HETATM   16  N3  UNL     1      20.725   8.487  55.549  1.00  0.00    -0.070 N 
ATOM     17  H22 UNL     1      19.365  11.297  54.584  1.00  0.00     0.174 HD
ATOM     18  H21 UNL     1      20.520  10.179  53.777  1.00  0.00     0.174 HD
ATOM     19  H3  UNL     1      20.765   7.890  56.374  1.00  0.00     0.212 HD
ATOM     20  H1  UNL     1      19.497  10.656  57.387  1.00  0.00     0.214 HD
BRANCH  16  21
HETATM   21  N4  UNL     1      21.442   8.143  54.424  1.00  0.00    -0.024 N 
HETATM   22  O4  UNL     1      22.397   8.848  54.020  1.00  0.00    -0.516 OA
HETATM   23  O5  UNL     1      21.164   7.015  53.670  1.00  0.00    -0.516 OA
ENDBRANCH  16  21
ENDBRANCH   1  13
TORSDOF 6
ENDMDL
MODEL 4
REMARK VINA RESULT: -8.102260161      0.885      1.063
REMARK  6 active torsions:
REMARK  status: ('A' for Active; 'I' for Inactive)
REMARK    1  A    between atoms: C2_2  and  S1_3 
REMARK    2  A    between atoms: S1_3  and  C3_4 
REMARK    3  A    between atoms: C4_6  and  C5_7 
REMARK    4  A    between atoms: C5_7  and  O3_9 
REMARK    5  A    between atoms: O3_9  and  N1_10 
REMARK       I    between atoms: N1_10  and  C6_12 
REMARK       I    between atoms: C6_12  and  N3_16 
REMARK    6  A    between atoms: N3_16  and  N4_18 
ROOT
HETATM    1  O3  UNL     1      16.802  10.666  57.540  1.00  0.00    -0.178 OA
ENDROOT
BRANCH   1   2
HETATM    2  C5  UNL     1      15.873  11.316  56.744  1.00  0.00     0.339 C 
HETATM    3  O2  UNL     1      15.917  12.564  56.671  1.00  0.00    -0.255 OA
BRANCH   2   4
HETATM    4  C4  UNL     1      14.847  10.563  55.992  1.00  0.00     0.154 A 
HETATM    5  O1  UNL     1      13.625  10.929  55.830  1.00  0.00    -0.297 OA
HETATM    6  C3  UNL     1      12.975  10.011  55.097  1.00  0.00     0.118 A 
HETATM    7  C8  UNL     1      13.856   9.002  54.781  1.00  0.00    -0.018 A 
HETATM    8  C7  UNL     1      15.070   9.377  55.370  1.00  0.00     0.053 A 
HETATM    9  C9  UNL     1      13.624   7.784  53.986  1.00  0.00     0.052 C 
BRANCH   6  10
HETATM   10  S1  UNL     1      11.272  10.263  54.719  1.00  0.00    -0.105 SA
BRANCH  10  11
HETATM   11  C2  UNL     1      10.197   8.884  54.923  1.00  0.00     0.077 C 
HETATM   12  C1  UNL     1       8.787   9.217  54.476  1.00  0.00     0.016 C 
ENDBRANCH  10  11
ENDBRANCH   6  10
ENDBRANCH   2   4
ENDBRANCH   1   2
BRANCH   1  13
HETATM   13  N1  UNL     1      18.110  11.042  57.676  1.00  0.00    -0.086 N 
HETATM   14  C6  UNL     1      19.024  10.887  56.600  1.00  0.00     0.715 C 
HETATM   15  N2  UNL     1      19.173  11.909  55.835  1.00  0.00    -0.232 N 
HETATM   16  N3  UNL     1      19.742   9.706  56.351  1.00  0.00    -0.070 N 
ATOM     17  H22 UNL     1      18.652  12.768  56.016  1.00  0.00     0.174 HD
ATOM     18  H21 UNL     1      19.830  11.797  55.063  1.00  0.00     0.174 HD
ATOM     19  H3  UNL     1      19.657   8.919  56.995  1.00  0.00     0.212 HD
ATOM     20  H1  UNL     1      18.432  11.437  58.559  1.00  0.00     0.214 HD
BRANCH  16  21
HETATM   21  N4  UNL     1      20.562   9.597  55.249  1.00  0.00    -0.024 N 
HETATM   22  O4  UNL     1      21.463  10.440  55.024  1.00  0.00    -0.516 OA
HETATM   23  O5  UNL     1      20.451   8.570  54.327  1.00  0.00    -0.516 OA
ENDBRANCH  16  21
ENDBRANCH   1  13
TORSDOF 6
ENDMDL
MODEL 5
REMARK VINA RESULT: -7.942567073      0.988      1.049
REMARK  6 active torsions:
REMARK  status: ('A' for Active; 'I' for Inactive)
REMARK    1  A    between atoms: C2_2  and  S1_3 
REMARK    2  A    between atoms: S1_3  and  C3_4 
REMARK    3  A    between atoms: C4_6  and  C5_7 
REMARK    4  A    between atoms: C5_7  and  O3_9 
REMARK    5  A    between atoms: O3_9  and  N1_10 
REMARK       I    between atoms: N1_10  and  C6_12 
REMARK       I    between atoms: C6_12  and  N3_16 
REMARK    6  A    between atoms: N3_16  and  N4_18 
ROOT
HETATM    1  O3  UNL     1      16.447  11.682  56.645  1.00  0.00    -0.178 OA
ENDROOT
BRANCH   1   2
HETATM    2  C5  UNL     1      15.069  11.810  56.655  1.00  0.00     0.339 C 
HETATM    3  O2  UNL     1      14.559  12.749  57.306  1.00  0.00    -0.255 OA
BRANCH   2   4
HETATM    4  C4  UNL     1      14.205  10.864  55.916  1.00  0.00     0.154 A 
HETATM    5  O1  UNL     1      12.953  11.031  55.677  1.00  0.00    -0.297 OA
HETATM    6  C3  UNL     1      12.484   9.980  54.985  1.00  0.00     0.118 A 
HETATM    7  C8  UNL     1      13.519   9.097  54.780  1.00  0.00    -0.018 A 
HETATM    8  C7  UNL     1      14.632   9.687  55.391  1.00  0.00     0.053 A 
HETATM    9  C9  UNL     1      13.510   7.809  54.065  1.00  0.00     0.052 C 
BRANCH   6  10
HETATM   10  S1  UNL     1      10.785   9.948  54.519  1.00  0.00    -0.105 SA
BRANCH  10  11
HETATM   11  C2  UNL     1       9.864   8.514  54.957  1.00  0.00     0.077 C 
HETATM   12  C1  UNL     1       8.382   8.716  54.708  1.00  0.00     0.016 C 
ENDBRANCH  10  11
ENDBRANCH   6  10
ENDBRANCH   2   4
ENDBRANCH   1   2
BRANCH   1  13
HETATM   13  N1  UNL     1      17.132  10.595  57.113  1.00  0.00    -0.086 N 
HETATM   14  C6  UNL     1      18.526  10.674  57.376  1.00  0.00     0.715 C 
HETATM   15  N2  UNL     1      18.855  10.964  58.585  1.00  0.00    -0.232 N 
HETATM   16  N3  UNL     1      19.517  10.455  56.405  1.00  0.00    -0.070 N 
ATOM     17  H22 UNL     1      18.135  11.123  59.290  1.00  0.00     0.174 HD
ATOM     18  H21 UNL     1      19.856  11.022  58.773  1.00  0.00     0.174 HD
ATOM     19  H3  UNL     1      19.245  10.173  55.463  1.00  0.00     0.212 HD
ATOM     20  H1  UNL     1      16.637   9.717  57.274  1.00  0.00     0.214 HD
BRANCH  16  21
HETATM   21  N4  UNL     1      20.851  10.616  56.710  1.00  0.00    -0.024 N 
HETATM   22  O4  UNL     1      21.548  11.486  56.135  1.00  0.00    -0.516 OA
HETATM   23  O5  UNL     1      21.506   9.843  57.653  1.00  0.00    -0.516 OA
ENDBRANCH  16  21
ENDBRANCH   1  13
TORSDOF 6
ENDMDL
