MODEL 1
REMARK VINA RESULT: -7.697174919      0.000      0.000
REMARK  5 active torsions:
REMARK  status: ('A' for Active; 'I' for Inactive)
REMARK    1  A    between atoms: C2_2  and  O1_3 
REMARK    2  A    between atoms: O1_3  and  C3_4 
REMARK    3  A    between atoms: C3_4  and  C4_6 
REMARK    4  A    between atoms: C5_8  and  N1_9 
REMARK    5  A    between atoms: N1_9  and  N2_11 
REMARK       I    between atoms: N2_11  and  C6_13 
ROOT
HETATM    1  C4  UNL     1      13.780  10.183  55.702  1.00  0.00     0.090 A 
HETATM    2  S1  UNL     1      14.960  11.159  56.501  1.00  0.00    -0.063 SA
HETATM    3  C5  UNL     1      16.479  10.410  56.580  1.00  0.00     0.113 A 
HETATM    4  C8  UNL     1      16.580   9.173  56.022  1.00  0.00     0.106 A 
HETATM    5  C9  UNL     1      17.905   8.566  56.111  1.00  0.00     0.104 C 
HETATM    6  N3  UNL     1      18.971   8.090  56.168  1.00  0.00    -0.191 NA
HETATM    7  C10 UNL     1      15.530   8.480  55.394  1.00  0.00     0.057 A 
HETATM    8  N4  UNL     1      15.879   7.315  54.938  1.00  0.00    -0.397 N 
ATOM      9  H41 UNL     1      15.116   6.812  54.482  1.00  0.00     0.156 HD
ATOM     10  H42 UNL     1      16.829   6.958  55.040  1.00  0.00     0.156 HD
HETATM   11  C11 UNL     1      14.251   8.960  55.256  1.00  0.00    -0.011 A 
HETATM   12  C12 UNL     1      13.227   8.082  54.553  1.00  0.00     0.052 C 
ENDROOT
BRANCH   3  13
HETATM   13  N1  UNL     1      17.580  11.068  57.206  1.00  0.00    -0.290 N 
ATOM     14  H1  UNL     1      17.569  11.251  58.209  1.00  0.00     0.188 HD
BRANCH  13  15
HETATM   15  N2  UNL     1      18.669  11.456  56.430  1.00  0.00    -0.270 N 
HETATM   16  C6  UNL     1      20.002  11.253  56.876  1.00  0.00     0.232 C 
HETATM   17  C7  UNL     1      21.132  11.672  56.035  1.00  0.00     0.119 C 
HETATM   18  O3  UNL     1      20.175  10.710  57.996  1.00  0.00    -0.272 OA
ATOM     19  H2  UNL     1      18.506  11.895  55.524  1.00  0.00     0.190 HD
ENDBRANCH  13  15
ENDBRANCH   3  13
BRANCH   1  20
HETATM   20  C3  UNL     1      12.409  10.655  55.531  1.00  0.00     0.300 C 
HETATM   21  O2  UNL     1      11.713  11.111  56.439  1.00  0.00    -0.259 OA
BRANCH  20  22
HETATM   22  O1  UNL     1      11.857  10.584  54.260  1.00  0.00    -0.317 OA
BRANCH  22  23
HETATM   23  C2  UNL     1      10.450  10.781  54.057  1.00  0.00     0.174 C 
HETATM   24  C1  UNL     1       9.642   9.585  54.464  1.00  0.00     0.034 C 
ENDBRANCH  22  23
ENDBRANCH  20  22
ENDBRANCH   1  20
TORSDOF 5
ENDMDL
MODEL 2
REMARK VINA RESULT: -7.495511298      2.828      6.922
REMARK  5 active torsions:
REMARK  status: ('A' for Active; 'I' for Inactive)
REMARK    1  A    between atoms: C2_2  and  O1_3 
REMARK    2  A    between atoms: O1_3  and  C3_4 
REMARK    3  A    between atoms: C3_4  and  C4_6 
REMARK    4  A    between atoms: C5_8  and  N1_9 
REMARK    5  A    between atoms: N1_9  and  N2_11 
REMARK       I    between atoms: N2_11  and  C6_13 
ROOT
HETATM    1  C4  UNL     1      16.869   8.437  56.013  1.00  0.00     0.090 A 
HETATM    2  S1  UNL     1      15.218   8.723  55.598  1.00  0.00    -0.063 SA
HETATM    3  C5  UNL     1      14.719  10.302  55.963  1.00  0.00     0.113 A 
HETATM    4  C8  UNL     1      15.650  11.124  56.519  1.00  0.00     0.106 A 
HETATM    5  C9  UNL     1      15.178  12.474  56.816  1.00  0.00     0.104 C 
HETATM    6  N3  UNL     1      14.804  13.558  57.035  1.00  0.00    -0.191 NA
HETATM    7  C10 UNL     1      16.977  10.763  56.810  1.00  0.00     0.057 A 
HETATM    8  N4  UNL     1      17.672  11.726  57.337  1.00  0.00    -0.397 N 
ATOM      9  H41 UNL     1      18.635  11.464  57.548  1.00  0.00     0.156 HD
ATOM     10  H42 UNL     1      17.269  12.647  57.516  1.00  0.00     0.156 HD
HETATM   11  C11 UNL     1      17.520   9.525  56.570  1.00  0.00    -0.011 A 
HETATM   12  C12 UNL     1      18.975   9.293  56.947  1.00  0.00     0.052 C 
ENDROOT
BRANCH   3  13
HETATM   13  N1  UNL     1      13.382  10.722  55.689  1.00  0.00    -0.290 N 
ATOM     14  H1  UNL     1      13.166  11.711  55.571  1.00  0.00     0.188 HD
BRANCH  13  15
HETATM   15  N2  UNL     1      12.378   9.763  55.583  1.00  0.00    -0.270 N 
HETATM   16  C6  UNL     1      11.153  10.048  54.925  1.00  0.00     0.232 C 
HETATM   17  C7  UNL     1      10.111   9.016  54.828  1.00  0.00     0.119 C 
HETATM   18  O3  UNL     1      10.996  11.196  54.437  1.00  0.00    -0.272 OA
ATOM     19  H2  UNL     1      12.526   8.837  55.987  1.00  0.00     0.190 HD
ENDBRANCH  13  15
ENDBRANCH   3  13
BRANCH   1  20
HETATM   20  C3  UNL     1      17.488   7.136  55.773  1.00  0.00     0.300 C 
HETATM   21  O2  UNL     1      16.870   6.124  55.438  1.00  0.00    -0.259 OA
BRANCH  20  22
HETATM   22  O1  UNL     1      18.862   7.037  55.934  1.00  0.00    -0.317 OA
BRANCH  22  23
HETATM   23  C2  UNL     1      19.608   6.003  55.274  1.00  0.00     0.174 C 
HETATM   24  C1  UNL     1      20.694   6.553  54.398  1.00  0.00     0.034 C 
ENDBRANCH  22  23
ENDBRANCH  20  22
ENDBRANCH   1  20
TORSDOF 5
ENDMDL
MODEL 3
REMARK VINA RESULT: -7.334637061      2.671      7.084
REMARK  5 active torsions:
REMARK  status: ('A' for Active; 'I' for Inactive)
REMARK    1  A    between atoms: C2_2  and  O1_3 
REMARK    2  A    between atoms: O1_3  and  C3_4 
REMARK    3  A    between atoms: C3_4  and  C4_6 
REMARK    4  A    between atoms: C5_8  and  N1_9 
REMARK    5  A    between atoms: N1_9  and  N2_11 
REMARK       I    between atoms: N2_11  and  C6_13 
ROOT
HETATM    1  C4  UNL     1      18.344   8.282  55.894  1.00  0.00     0.090 A 
HETATM    2  S1  UNL     1      16.645   7.974  55.934  1.00  0.00    -0.063 SA
HETATM    3  C5  UNL     1      15.738   9.370  56.259  1.00  0.00     0.113 A 
HETATM    4  C8  UNL     1      16.437  10.524  56.441  1.00  0.00     0.106 A 
HETATM    5  C9  UNL     1      15.616  11.700  56.717  1.00  0.00     0.104 C 
HETATM    6  N3  UNL     1      14.957  12.643  56.919  1.00  0.00    -0.191 NA
HETATM    7  C10 UNL     1      17.836  10.640  56.382  1.00  0.00     0.057 A 
HETATM    8  N4  UNL     1      18.264  11.850  56.589  1.00  0.00    -0.397 N 
ATOM      9  H41 UNL     1      19.279  11.934  56.546  1.00  0.00     0.156 HD
ATOM     10  H42 UNL     1      17.625  12.623  56.777  1.00  0.00     0.156 HD
HETATM   11  C11 UNL     1      18.695   9.601  56.129  1.00  0.00    -0.011 A 
HETATM   12  C12 UNL     1      20.188   9.893  56.103  1.00  0.00     0.052 C 
ENDROOT
BRANCH   3  13
HETATM   13  N1  UNL     1      14.314   9.308  56.330  1.00  0.00    -0.290 N 
ATOM     14  H1  UNL     1      13.850   9.087  57.211  1.00  0.00     0.188 HD
BRANCH  13  15
HETATM   15  N2  UNL     1      13.565   9.555  55.183  1.00  0.00    -0.270 N 
HETATM   16  C6  UNL     1      12.370  10.320  55.232  1.00  0.00     0.232 C 
HETATM   17  C7  UNL     1      11.600  10.564  54.003  1.00  0.00     0.119 C 
HETATM   18  O3  UNL     1      12.002  10.772  56.345  1.00  0.00    -0.272 OA
ATOM     19  H2  UNL     1      13.882   9.178  54.289  1.00  0.00     0.190 HD
ENDBRANCH  13  15
ENDBRANCH   3  13
BRANCH   1  20
HETATM   20  C3  UNL     1      19.294   7.206  55.626  1.00  0.00     0.300 C 
HETATM   21  O2  UNL     1      19.483   6.245  56.373  1.00  0.00    -0.259 OA
BRANCH  20  22
HETATM   22  O1  UNL     1      20.030   7.275  54.452  1.00  0.00    -0.317 OA
BRANCH  22  23
HETATM   23  C2  UNL     1      21.390   6.817  54.409  1.00  0.00     0.174 C 
HETATM   24  C1  UNL     1      22.345   7.903  54.011  1.00  0.00     0.034 C 
ENDBRANCH  22  23
ENDBRANCH  20  22
ENDBRANCH   1  20
TORSDOF 5
ENDMDL
MODEL 4
REMARK VINA RESULT: -7.298040082      2.293      3.298
REMARK  5 active torsions:
REMARK  status: ('A' for Active; 'I' for Inactive)
REMARK    1  A    between atoms: C2_2  and  O1_3 
REMARK    2  A    between atoms: O1_3  and  C3_4 
REMARK    3  A    between atoms: C3_4  and  C4_6 
REMARK    4  A    between atoms: C5_8  and  N1_9 
REMARK    5  A    between atoms: N1_9  and  N2_11 
REMARK       I    between atoms: N2_11  and  C6_13 
ROOT
HETATM    1  C4  UNL     1      14.995   9.215  55.531  1.00  0.00     0.090 A 
HETATM    2  S1  UNL     1      16.296   8.087  55.401  1.00  0.00    -0.063 SA
HETATM    3  C5  UNL     1      17.719   8.646  56.135  1.00  0.00     0.113 A 
HETATM    4  C8  UNL     1      17.664   9.875  56.718  1.00  0.00     0.106 A 
HETATM    5  C9  UNL     1      18.910  10.316  57.339  1.00  0.00     0.104 C 
HETATM    6  N3  UNL     1      19.903  10.659  57.850  1.00  0.00    -0.191 NA
HETATM    7  C10 UNL     1      16.528  10.702  56.755  1.00  0.00     0.057 A 
HETATM    8  N4  UNL     1      16.728  11.828  57.373  1.00  0.00    -0.397 N 
ATOM      9  H41 UNL     1      15.903  12.428  57.399  1.00  0.00     0.156 HD
ATOM     10  H42 UNL     1      17.632  12.066  57.781  1.00  0.00     0.156 HD
HETATM   11  C11 UNL     1      15.312  10.383  56.205  1.00  0.00    -0.011 A 
HETATM   12  C12 UNL     1      14.181  11.393  56.327  1.00  0.00     0.052 C 
ENDROOT
BRANCH   3  13
HETATM   13  N1  UNL     1      18.901   7.847  56.127  1.00  0.00    -0.290 N 
ATOM     14  H1  UNL     1      18.916   6.942  56.597  1.00  0.00     0.188 HD
BRANCH  13  15
HETATM   15  N2  UNL     1      20.034   8.317  55.469  1.00  0.00    -0.270 N 
HETATM   16  C6  UNL     1      20.813   7.465  54.641  1.00  0.00     0.232 C 
HETATM   17  C7  UNL     1      22.004   7.990  53.958  1.00  0.00     0.119 C 
HETATM   18  O3  UNL     1      20.451   6.268  54.517  1.00  0.00    -0.272 OA
ATOM     19  H2  UNL     1      20.310   9.293  55.583  1.00  0.00     0.190 HD
ENDBRANCH  13  15
ENDBRANCH   3  13
BRANCH   1  20
HETATM   20  C3  UNL     1      13.684   8.916  54.963  1.00  0.00     0.300 C 
HETATM   21  O2  UNL     1      13.391   7.854  54.413  1.00  0.00    -0.259 OA
BRANCH  20  22
HETATM   22  O1  UNL     1      12.705   9.895  55.052  1.00  0.00    -0.317 OA
BRANCH  22  23
HETATM   23  C2  UNL     1      11.337   9.599  54.733  1.00  0.00     0.174 C 
HETATM   24  C1  UNL     1      10.634  10.764  54.104  1.00  0.00     0.034 C 
ENDBRANCH  22  23
ENDBRANCH  20  22
ENDBRANCH   1  20
TORSDOF 5
ENDMDL
MODEL 5
REMARK VINA RESULT: -7.173339077      1.911      6.678
REMARK  5 active torsions:
REMARK  status: ('A' for Active; 'I' for Inactive)
REMARK    1  A    between atoms: C2_2  and  O1_3 
REMARK    2  A    between atoms: O1_3  and  C3_4 
REMARK    3  A    between atoms: C3_4  and  C4_6 
REMARK    4  A    between atoms: C5_8  and  N1_9 
REMARK    5  A    between atoms: N1_9  and  N2_11 
REMARK       I    between atoms: N2_11  and  C6_13 
ROOT
HETATM    1  C4  UNL     1      17.559  10.233  56.898  1.00  0.00     0.090 A 
HETATM    2  S1  UNL     1      16.118  11.149  56.642  1.00  0.00    -0.063 SA
HETATM    3  C5  UNL     1      14.925  10.271  55.816  1.00  0.00     0.113 A 
HETATM    4  C8  UNL     1      15.239   8.993  55.469  1.00  0.00     0.106 A 
HETATM    5  C9  UNL     1      14.184   8.273  54.761  1.00  0.00     0.104 C 
HETATM    6  N3  UNL     1      13.331   7.693  54.212  1.00  0.00    -0.191 NA
HETATM    7  C10 UNL     1      16.464   8.358  55.740  1.00  0.00     0.057 A 
HETATM    8  N4  UNL     1      16.518   7.134  55.308  1.00  0.00    -0.397 N 
ATOM      9  H41 UNL     1      17.407   6.673  55.505  1.00  0.00     0.156 HD
ATOM     10  H42 UNL     1      15.736   6.699  54.819  1.00  0.00     0.156 HD
HETATM   11  C11 UNL     1      17.517   8.943  56.398  1.00  0.00    -0.011 A 
HETATM   12  C12 UNL     1      18.778   8.119  56.608  1.00  0.00     0.052 C 
ENDROOT
BRANCH   3  13
HETATM   13  N1  UNL     1      13.664  10.867  55.515  1.00  0.00    -0.290 N 
ATOM     14  H1  UNL     1      13.615  11.827  55.175  1.00  0.00     0.188 HD
BRANCH  13  15
HETATM   15  N2  UNL     1      12.502  10.120  55.690  1.00  0.00    -0.270 N 
HETATM   16  C6  UNL     1      11.373  10.307  54.849  1.00  0.00     0.232 C 
HETATM   17  C7  UNL     1      10.159   9.504  55.056  1.00  0.00     0.119 C 
HETATM   18  O3  UNL     1      11.450  11.168  53.937  1.00  0.00    -0.272 OA
ATOM     19  H2  UNL     1      12.461   9.426  56.436  1.00  0.00     0.190 HD
ENDBRANCH  13  15
ENDBRANCH   3  13
BRANCH   1  20
HETATM   20  C3  UNL     1      18.703  10.814  57.594  1.00  0.00     0.300 C 
HETATM   21  O2  UNL     1      18.920  10.687  58.800  1.00  0.00    -0.259 OA
BRANCH  20  22
HETATM   22  O1  UNL     1      19.603  11.558  56.846  1.00  0.00    -0.317 OA
BRANCH  22  23
HETATM   23  C2  UNL     1      20.884  11.019  56.486  1.00  0.00     0.174 C 
HETATM   24  C1  UNL     1      20.920  10.533  55.068  1.00  0.00     0.034 C 
ENDBRANCH  22  23
ENDBRANCH  20  22
ENDBRANCH   1  20
TORSDOF 5
ENDMDL
