MODEL 1
REMARK VINA RESULT: -7.452653648      0.000      0.000
REMARK  5 active torsions:
REMARK  status: ('A' for Active; 'I' for Inactive)
REMARK    1  A    between atoms: C3_5  and  N2_6 
REMARK    2  A    between atoms: N2_6  and  C4_8 
REMARK    3  A    between atoms: C4_8  and  C5_9 
REMARK    4  A    between atoms: C5_9  and  S1_10 
REMARK    5  A    between atoms: S1_10  and  C6_11 
ROOT
HETATM    1  C5  UNL     1      18.765  10.631  56.260  1.00  0.00     0.101 C 
ENDROOT
BRANCH   1   2
HETATM    2  C4  UNL     1      17.327  11.091  56.282  1.00  0.00     0.132 C 
BRANCH   2   3
HETATM    3  N2  UNL     1      16.429  10.121  56.856  1.00  0.00    -0.370 N 
ATOM      4  H2  UNL     1      16.636   9.648  57.736  1.00  0.00     0.161 HD
BRANCH   3   5
HETATM    5  C3  UNL     1      15.324   9.880  56.179  1.00  0.00     0.145 A 
HETATM    6  N1  UNL     1      15.115   8.912  55.288  1.00  0.00    -0.340 N 
HETATM    7  C2  UNL     1      13.951   8.828  54.717  1.00  0.00     0.020 A 
ATOM      8  H1  UNL     1      15.855   8.249  55.059  1.00  0.00     0.168 HD
HETATM    9  C1  UNL     1      13.603   7.764  53.686  1.00  0.00     0.069 C 
HETATM   10  C8  UNL     1      12.997   9.747  55.065  1.00  0.00     0.004 A 
HETATM   11  S3  UNL     1      13.829  10.700  56.213  1.00  0.00    -0.057 SA
HETATM   12  C9  UNL     1      11.580   9.873  54.557  1.00  0.00     0.058 C 
ENDBRANCH   3   5
ENDBRANCH   2   3
ENDBRANCH   1   2
BRANCH   1  13
HETATM   13  S1  UNL     1      18.777   8.828  56.346  1.00  0.00    -0.102 SA
BRANCH  13  14
HETATM   14  C6  UNL     1      20.145   8.194  55.376  1.00  0.00     0.130 A 
HETATM   15  N3  UNL     1      20.428   6.950  55.023  1.00  0.00    -0.286 N 
HETATM   16  N4  UNL     1      21.456   6.697  54.324  1.00  0.00    -0.279 N 
ATOM     17  H3  UNL     1      19.816   6.189  55.315  1.00  0.00     0.188 HD
HETATM   18  C7  UNL     1      22.246   7.706  53.952  1.00  0.00     0.159 A 
ATOM     19  H4  UNL     1      21.675   5.739  54.052  1.00  0.00     0.189 HD
HETATM   20  N5  UNL     1      23.345   7.644  53.233  1.00  0.00    -0.379 N 
HETATM   21  S2  UNL     1      21.439   9.047  54.657  1.00  0.00    -0.027 SA
ATOM     22  H52 UNL     1      23.824   6.847  52.815  1.00  0.00     0.158 HD
ATOM     23  H51 UNL     1      23.949   8.415  52.948  1.00  0.00     0.158 HD
ENDBRANCH  13  14
ENDBRANCH   1  13
TORSDOF 5
ENDMDL
MODEL 2
REMARK VINA RESULT: -7.440046537      1.518      1.804
REMARK  5 active torsions:
REMARK  status: ('A' for Active; 'I' for Inactive)
REMARK    1  A    between atoms: C3_5  and  N2_6 
REMARK    2  A    between atoms: N2_6  and  C4_8 
REMARK    3  A    between atoms: C4_8  and  C5_9 
REMARK    4  A    between atoms: C5_9  and  S1_10 
REMARK    5  A    between atoms: S1_10  and  C6_11 
ROOT
HETATM    1  C5  UNL     1      19.292  10.698  58.155  1.00  0.00     0.101 C 
ENDROOT
BRANCH   1   2
HETATM    2  C4  UNL     1      17.794  10.720  57.971  1.00  0.00     0.132 C 
BRANCH   2   3
HETATM    3  N2  UNL     1      17.389  11.138  56.653  1.00  0.00    -0.370 N 
ATOM      4  H2  UNL     1      17.990  11.712  56.061  1.00  0.00     0.161 HD
BRANCH   3   5
HETATM    5  C3  UNL     1      16.198  10.736  56.256  1.00  0.00     0.145 A 
HETATM    6  N1  UNL     1      15.908   9.662  55.524  1.00  0.00    -0.340 N 
HETATM    7  C2  UNL     1      14.666   9.422  55.227  1.00  0.00     0.020 A 
ATOM      8  H1  UNL     1      16.648   9.038  55.202  1.00  0.00     0.168 HD
HETATM    9  C1  UNL     1      14.222   8.226  54.399  1.00  0.00     0.069 C 
HETATM   10  C8  UNL     1      13.717  10.296  55.687  1.00  0.00     0.004 A 
HETATM   11  S3  UNL     1      14.667  11.434  56.535  1.00  0.00    -0.057 SA
HETATM   12  C9  UNL     1      12.220  10.252  55.488  1.00  0.00     0.058 C 
ENDBRANCH   3   5
ENDBRANCH   2   3
ENDBRANCH   1   2
BRANCH   1  13
HETATM   13  S1  UNL     1      20.057  11.083  56.566  1.00  0.00    -0.102 SA
BRANCH  13  14
HETATM   14  C6  UNL     1      20.466   9.558  55.716  1.00  0.00     0.130 A 
HETATM   15  N3  UNL     1      21.473   9.287  54.900  1.00  0.00    -0.286 N 
HETATM   16  N4  UNL     1      21.596   8.133  54.391  1.00  0.00    -0.279 N 
ATOM     17  H3  UNL     1      22.155  10.013  54.679  1.00  0.00     0.188 HD
HETATM   18  C7  UNL     1      20.695   7.196  54.692  1.00  0.00     0.159 A 
ATOM     19  H4  UNL     1      22.371   7.923  53.762  1.00  0.00     0.189 HD
HETATM   20  N5  UNL     1      20.653   5.953  54.268  1.00  0.00    -0.379 N 
HETATM   21  S2  UNL     1      19.651   8.057  55.750  1.00  0.00    -0.027 SA
ATOM     22  H52 UNL     1      21.273   5.442  53.639  1.00  0.00     0.158 HD
ATOM     23  H51 UNL     1      19.964   5.237  54.498  1.00  0.00     0.158 HD
ENDBRANCH  13  14
ENDBRANCH   1  13
TORSDOF 5
ENDMDL
MODEL 3
REMARK VINA RESULT: -7.185634743      1.702      2.249
REMARK  5 active torsions:
REMARK  status: ('A' for Active; 'I' for Inactive)
REMARK    1  A    between atoms: C3_5  and  N2_6 
REMARK    2  A    between atoms: N2_6  and  C4_8 
REMARK    3  A    between atoms: C4_8  and  C5_9 
REMARK    4  A    between atoms: C5_9  and  S1_10 
REMARK    5  A    between atoms: S1_10  and  C6_11 
ROOT
HETATM    1  C5  UNL     1      19.257  11.038  57.875  1.00  0.00     0.101 C 
ENDROOT
BRANCH   1   2
HETATM    2  C4  UNL     1      17.812  10.604  57.918  1.00  0.00     0.132 C 
BRANCH   2   3
HETATM    3  N2  UNL     1      16.962  11.371  57.043  1.00  0.00    -0.370 N 
ATOM      4  H2  UNL     1      17.109  12.368  56.885  1.00  0.00     0.161 HD
BRANCH   3   5
HETATM    5  C3  UNL     1      15.983  10.710  56.458  1.00  0.00     0.145 A 
HETATM    6  N1  UNL     1      14.690  11.032  56.434  1.00  0.00    -0.340 N 
HETATM    7  C2  UNL     1      13.863  10.254  55.801  1.00  0.00     0.020 A 
ATOM      8  H1  UNL     1      14.355  11.873  56.903  1.00  0.00     0.168 HD
HETATM    9  C1  UNL     1      12.369  10.525  55.710  1.00  0.00     0.069 C 
HETATM   10  C8  UNL     1      14.371   9.139  55.191  1.00  0.00     0.004 A 
HETATM   11  S3  UNL     1      16.035   9.262  55.559  1.00  0.00    -0.057 SA
HETATM   12  C9  UNL     1      13.638   8.081  54.400  1.00  0.00     0.058 C 
ENDBRANCH   3   5
ENDBRANCH   2   3
ENDBRANCH   1   2
BRANCH   1  13
HETATM   13  S1  UNL     1      19.705  11.323  56.150  1.00  0.00    -0.102 SA
BRANCH  13  14
HETATM   14  C6  UNL     1      20.288   9.790  55.424  1.00  0.00     0.130 A 
HETATM   15  N3  UNL     1      21.280   9.581  54.572  1.00  0.00    -0.286 N 
HETATM   16  N4  UNL     1      21.544   8.408  54.168  1.00  0.00    -0.279 N 
ATOM     17  H3  UNL     1      21.835  10.368  54.238  1.00  0.00     0.188 HD
HETATM   18  C7  UNL     1      20.806   7.390  54.617  1.00  0.00     0.159 A 
ATOM     19  H4  UNL     1      22.307   8.245  53.512  1.00  0.00     0.189 HD
HETATM   20  N5  UNL     1      20.925   6.117  54.316  1.00  0.00    -0.379 N 
HETATM   21  S2  UNL     1      19.704   8.202  55.654  1.00  0.00    -0.027 SA
ATOM     22  H52 UNL     1      21.579   5.635  53.700  1.00  0.00     0.158 HD
ATOM     23  H51 UNL     1      20.360   5.339  54.659  1.00  0.00     0.158 HD
ENDBRANCH  13  14
ENDBRANCH   1  13
TORSDOF 5
ENDMDL
MODEL 4
REMARK VINA RESULT: -7.167937119      2.398      7.548
REMARK  5 active torsions:
REMARK  status: ('A' for Active; 'I' for Inactive)
REMARK    1  A    between atoms: C3_5  and  N2_6 
REMARK    2  A    between atoms: N2_6  and  C4_8 
REMARK    3  A    between atoms: C4_8  and  C5_9 
REMARK    4  A    between atoms: C5_9  and  S1_10 
REMARK    5  A    between atoms: S1_10  and  C6_11 
ROOT
HETATM    1  C5  UNL     1      16.290  11.288  56.688  1.00  0.00     0.101 C 
ENDROOT
BRANCH   1   2
HETATM    2  C4  UNL     1      17.551  10.930  57.436  1.00  0.00     0.132 C 
BRANCH   2   3
HETATM    3  N2  UNL     1      18.754  11.261  56.715  1.00  0.00    -0.370 N 
ATOM      4  H2  UNL     1      19.100  12.219  56.654  1.00  0.00     0.161 HD
BRANCH   3   5
HETATM    5  C3  UNL     1      19.381  10.256  56.138  1.00  0.00     0.145 A 
HETATM    6  N1  UNL     1      19.098   8.958  56.242  1.00  0.00    -0.340 N 
HETATM    7  C2  UNL     1      19.832   8.103  55.595  1.00  0.00     0.020 A 
ATOM      8  H1  UNL     1      18.319   8.641  56.818  1.00  0.00     0.168 HD
HETATM    9  C1  UNL     1      19.599   6.600  55.641  1.00  0.00     0.069 C 
HETATM   10  C8  UNL     1      20.865   8.588  54.837  1.00  0.00     0.004 A 
HETATM   11  S3  UNL     1      20.730  10.272  55.094  1.00  0.00    -0.057 SA
HETATM   12  C9  UNL     1      21.859   7.821  53.998  1.00  0.00     0.058 C 
ENDBRANCH   3   5
ENDBRANCH   2   3
ENDBRANCH   1   2
BRANCH   1  13
HETATM   13  S1  UNL     1      15.587   9.769  56.015  1.00  0.00    -0.102 SA
BRANCH  13  14
HETATM   14  C6  UNL     1      13.833  10.001  55.725  1.00  0.00     0.130 A 
HETATM   15  N3  UNL     1      12.976  10.815  56.321  1.00  0.00    -0.286 N 
HETATM   16  N4  UNL     1      11.758  10.836  55.971  1.00  0.00    -0.279 N 
ATOM     17  H3  UNL     1      13.299  11.430  57.068  1.00  0.00     0.188 HD
HETATM   18  C7  UNL     1      11.354  10.024  54.992  1.00  0.00     0.159 A 
ATOM     19  H4  UNL     1      11.097  11.464  56.430  1.00  0.00     0.189 HD
HETATM   20  N5  UNL     1      10.144   9.902  54.495  1.00  0.00    -0.379 N 
HETATM   21  S2  UNL     1      12.819   9.220  54.593  1.00  0.00    -0.027 SA
ATOM     22  H52 UNL     1       9.275  10.380  54.732  1.00  0.00     0.158 HD
ATOM     23  H51 UNL     1       9.836   9.282  53.746  1.00  0.00     0.158 HD
ENDBRANCH  13  14
ENDBRANCH   1  13
TORSDOF 5
ENDMDL
MODEL 5
REMARK VINA RESULT: -7.124727067      1.445      1.975
REMARK  5 active torsions:
REMARK  status: ('A' for Active; 'I' for Inactive)
REMARK    1  A    between atoms: C3_5  and  N2_6 
REMARK    2  A    between atoms: N2_6  and  C4_8 
REMARK    3  A    between atoms: C4_8  and  C5_9 
REMARK    4  A    between atoms: C5_9  and  S1_10 
REMARK    5  A    between atoms: S1_10  and  C6_11 
ROOT
HETATM    1  C5  UNL     1      17.974  10.679  58.049  1.00  0.00     0.101 C 
ENDROOT
BRANCH   1   2
HETATM    2  C4  UNL     1      17.355  11.082  56.733  1.00  0.00     0.132 C 
BRANCH   2   3
HETATM    3  N2  UNL     1      15.975  11.479  56.851  1.00  0.00    -0.370 N 
ATOM      4  H2  UNL     1      15.693  12.290  57.401  1.00  0.00     0.161 HD
BRANCH   3   5
HETATM    5  C3  UNL     1      15.098  10.734  56.208  1.00  0.00     0.145 A 
HETATM    6  N1  UNL     1      13.803  10.985  56.023  1.00  0.00    -0.340 N 
HETATM    7  C2  UNL     1      13.088  10.129  55.357  1.00  0.00     0.020 A 
ATOM      8  H1  UNL     1      13.380  11.834  56.397  1.00  0.00     0.168 HD
HETATM    9  C1  UNL     1      11.603  10.315  55.086  1.00  0.00     0.069 C 
HETATM   10  C8  UNL     1      13.712   9.007  54.879  1.00  0.00     0.004 A 
HETATM   11  S3  UNL     1      15.316   9.239  55.417  1.00  0.00    -0.057 SA
HETATM   12  C9  UNL     1      13.120   7.866  54.084  1.00  0.00     0.058 C 
ENDBRANCH   3   5
ENDBRANCH   2   3
ENDBRANCH   1   2
BRANCH   1  13
HETATM   13  S1  UNL     1      19.758  10.547  57.812  1.00  0.00    -0.102 SA
BRANCH  13  14
HETATM   14  C6  UNL     1      20.106   9.254  56.619  1.00  0.00     0.130 A 
HETATM   15  N3  UNL     1      19.825   7.961  56.665  1.00  0.00    -0.286 N 
HETATM   16  N4  UNL     1      20.157   7.196  55.710  1.00  0.00    -0.279 N 
ATOM     17  H3  UNL     1      19.338   7.577  57.475  1.00  0.00     0.188 HD
HETATM   18  C7  UNL     1      20.794   7.716  54.659  1.00  0.00     0.159 A 
ATOM     19  H4  UNL     1      19.941   6.200  55.744  1.00  0.00     0.189 HD
HETATM   20  N5  UNL     1      21.216   7.091  53.583  1.00  0.00    -0.379 N 
HETATM   21  S2  UNL     1      20.896   9.371  55.109  1.00  0.00    -0.027 SA
ATOM     22  H52 UNL     1      21.155   6.108  53.316  1.00  0.00     0.158 HD
ATOM     23  H51 UNL     1      21.702   7.489  52.780  1.00  0.00     0.158 HD
ENDBRANCH  13  14
ENDBRANCH   1  13
TORSDOF 5
ENDMDL
