MODEL 1
REMARK VINA RESULT: -8.353203449      0.000      0.000
REMARK  3 active torsions:
REMARK  status: ('A' for Active; 'I' for Inactive)
REMARK    1  A    between atoms: C7_10  and  C8_11 
REMARK    2  A    between atoms: C8_11  and  N3_12 
REMARK    3  A    between atoms: N4_18  and  C14_19 
ROOT
HETATM    1  N1  UNL     1      36.794  84.386  -8.459  1.00  0.00    -0.102 NA
HETATM    2  C1  UNL     1      35.635  83.926  -7.803  1.00  0.00     0.048 A 
HETATM    3  C2  UNL     1      35.576  83.808  -6.431  1.00  0.00     0.029 A 
HETATM    4  C3  UNL     1      34.419  83.352  -5.835  1.00  0.00     0.034 A 
HETATM    5  C4  UNL     1      33.294  83.001  -6.565  1.00  0.00     0.063 A 
HETATM    6  C5  UNL     1      33.380  83.127  -7.928  1.00  0.00     0.062 A 
HETATM    7  C6  UNL     1      34.533  83.584  -8.565  1.00  0.00     0.058 A 
HETATM    8  N2  UNL     1      32.191  82.733  -8.382  1.00  0.00    -0.342 N 
ATOM      9  H2  UNL     1      31.922  82.706  -9.366  1.00  0.00     0.167 HD
HETATM   10  C7  UNL     1      31.397  82.378  -7.360  1.00  0.00     0.113 A 
HETATM   11  N4  UNL     1      32.063  82.536  -6.226  1.00  0.00    -0.328 N 
ENDROOT
BRANCH  10  12
HETATM   12  C8  UNL     1      29.999  81.890  -7.444  1.00  0.00     0.348 C 
BRANCH  12  13
HETATM   13  N3  UNL     1      29.023  82.910  -7.118  1.00  0.00     0.095 N 
HETATM   14  C9  UNL     1      29.223  84.106  -7.878  1.00  0.00     0.273 C 
HETATM   15  C10 UNL     1      28.815  83.975  -9.320  1.00  0.00     0.030 C 
HETATM   16  C11 UNL     1      27.444  83.396  -9.465  1.00  0.00     0.003 C 
HETATM   17  C12 UNL     1      27.311  82.125  -8.688  1.00  0.00     0.030 C 
HETATM   18  C13 UNL     1      27.712  82.346  -7.253  1.00  0.00     0.273 C 
ENDBRANCH  12  13
ENDBRANCH  10  12
BRANCH  11  19
HETATM   19  C14 UNL     1      31.703  82.318  -4.855  1.00  0.00     0.091 C 
HETATM   20  C15 UNL     1      32.763  81.479  -4.127  1.00  0.00     0.026 C 
HETATM   21  C16 UNL     1      32.793  81.837  -2.665  1.00  0.00     0.002 C 
HETATM   22  C17 UNL     1      31.384  81.924  -2.148  1.00  0.00     0.000 C 
HETATM   23  C18 UNL     1      30.565  82.980  -2.835  1.00  0.00     0.002 C 
HETATM   24  C19 UNL     1      31.387  83.502  -4.030  1.00  0.00     0.026 C 
ENDBRANCH  11  19
TORSDOF 3
ENDMDL
MODEL 2
REMARK VINA RESULT: -8.283050759      2.385      4.800
REMARK  3 active torsions:
REMARK  status: ('A' for Active; 'I' for Inactive)
REMARK    1  A    between atoms: C7_10  and  C8_11 
REMARK    2  A    between atoms: C8_11  and  N3_12 
REMARK    3  A    between atoms: N4_18  and  C14_19 
ROOT
HETATM    1  N1  UNL     1      35.187  78.387  -1.436  1.00  0.00    -0.102 NA
HETATM    2  C1  UNL     1      34.855  79.516  -2.210  1.00  0.00     0.048 A 
HETATM    3  C2  UNL     1      35.778  80.500  -2.493  1.00  0.00     0.029 A 
HETATM    4  C3  UNL     1      35.404  81.587  -3.254  1.00  0.00     0.034 A 
HETATM    5  C4  UNL     1      34.122  81.738  -3.758  1.00  0.00     0.063 A 
HETATM    6  C5  UNL     1      33.223  80.745  -3.462  1.00  0.00     0.062 A 
HETATM    7  C6  UNL     1      33.564  79.633  -2.695  1.00  0.00     0.058 A 
HETATM    8  N2  UNL     1      32.090  81.125  -4.053  1.00  0.00    -0.342 N 
ATOM      9  H2  UNL     1      31.215  80.601  -4.026  1.00  0.00     0.167 HD
HETATM   10  C7  UNL     1      32.265  82.294  -4.687  1.00  0.00     0.113 A 
HETATM   11  N4  UNL     1      33.517  82.691  -4.516  1.00  0.00    -0.328 N 
ENDROOT
BRANCH  10  12
HETATM   12  C8  UNL     1      31.252  83.047  -5.466  1.00  0.00     0.348 C 
BRANCH  12  13
HETATM   13  N3  UNL     1      30.964  82.444  -6.751  1.00  0.00     0.095 N 
HETATM   14  C9  UNL     1      29.644  82.756  -7.206  1.00  0.00     0.273 C 
HETATM   15  C10 UNL     1      29.492  84.177  -7.677  1.00  0.00     0.030 C 
HETATM   16  C11 UNL     1      30.565  84.564  -8.644  1.00  0.00     0.003 C 
HETATM   17  C12 UNL     1      31.922  84.258  -8.095  1.00  0.00     0.030 C 
HETATM   18  C13 UNL     1      32.000  82.815  -7.670  1.00  0.00     0.273 C 
ENDBRANCH  12  13
ENDBRANCH  10  12
BRANCH  11  19
HETATM   19  C14 UNL     1      34.237  83.844  -4.971  1.00  0.00     0.091 C 
HETATM   20  C15 UNL     1      34.817  84.641  -3.795  1.00  0.00     0.026 C 
HETATM   21  C16 UNL     1      36.077  85.348  -4.217  1.00  0.00     0.002 C 
HETATM   22  C17 UNL     1      35.855  85.994  -5.556  1.00  0.00     0.000 C 
HETATM   23  C18 UNL     1      35.526  85.010  -6.643  1.00  0.00     0.002 C 
HETATM   24  C19 UNL     1      35.301  83.640  -5.975  1.00  0.00     0.026 C 
ENDBRANCH  11  19
TORSDOF 3
ENDMDL
MODEL 3
REMARK VINA RESULT: -7.969564814      1.640      2.186
REMARK  3 active torsions:
REMARK  status: ('A' for Active; 'I' for Inactive)
REMARK    1  A    between atoms: C7_10  and  C8_11 
REMARK    2  A    between atoms: C8_11  and  N3_12 
REMARK    3  A    between atoms: N4_18  and  C14_19 
ROOT
HETATM    1  N1  UNL     1      36.519  87.235  -7.387  1.00  0.00    -0.102 NA
HETATM    2  C1  UNL     1      35.539  86.381  -6.844  1.00  0.00     0.048 A 
HETATM    3  C2  UNL     1      35.683  85.810  -5.597  1.00  0.00     0.029 A 
HETATM    4  C3  UNL     1      34.695  84.980  -5.110  1.00  0.00     0.034 A 
HETATM    5  C4  UNL     1      33.545  84.690  -5.827  1.00  0.00     0.063 A 
HETATM    6  C5  UNL     1      33.427  85.271  -7.063  1.00  0.00     0.062 A 
HETATM    7  C6  UNL     1      34.404  86.114  -7.589  1.00  0.00     0.058 A 
HETATM    8  N2  UNL     1      32.257  84.839  -7.532  1.00  0.00    -0.342 N 
ATOM      9  H2  UNL     1      31.865  85.088  -8.440  1.00  0.00     0.167 HD
HETATM   10  C7  UNL     1      31.668  84.028  -6.639  1.00  0.00     0.113 A 
HETATM   11  N4  UNL     1      32.451  83.923  -5.576  1.00  0.00    -0.328 N 
ENDROOT
BRANCH  10  12
HETATM   12  C8  UNL     1      30.358  83.349  -6.779  1.00  0.00     0.348 C 
BRANCH  12  13
HETATM   13  N3  UNL     1      29.904  83.272  -8.152  1.00  0.00     0.095 N 
HETATM   14  C9  UNL     1      30.083  81.963  -8.703  1.00  0.00     0.273 C 
HETATM   15  C10 UNL     1      29.105  80.951  -8.173  1.00  0.00     0.030 C 
HETATM   16  C11 UNL     1      27.694  81.442  -8.244  1.00  0.00     0.003 C 
HETATM   17  C12 UNL     1      27.561  82.790  -7.611  1.00  0.00     0.030 C 
HETATM   18  C13 UNL     1      28.554  83.750  -8.213  1.00  0.00     0.273 C 
ENDBRANCH  12  13
ENDBRANCH  10  12
BRANCH  11  19
HETATM   19  C14 UNL     1      32.316  83.204  -4.343  1.00  0.00     0.091 C 
HETATM   20  C15 UNL     1      31.098  83.689  -3.545  1.00  0.00     0.026 C 
HETATM   21  C16 UNL     1      30.546  82.567  -2.706  1.00  0.00     0.002 C 
HETATM   22  C17 UNL     1      31.682  81.851  -2.029  1.00  0.00     0.000 C 
HETATM   23  C18 UNL     1      32.653  81.233  -2.995  1.00  0.00     0.002 C 
HETATM   24  C19 UNL     1      32.283  81.728  -4.406  1.00  0.00     0.026 C 
ENDBRANCH  11  19
TORSDOF 3
ENDMDL
MODEL 4
REMARK VINA RESULT: -7.760972057      2.677      5.889
REMARK  3 active torsions:
REMARK  status: ('A' for Active; 'I' for Inactive)
REMARK    1  A    between atoms: C7_10  and  C8_11 
REMARK    2  A    between atoms: C8_11  and  N3_12 
REMARK    3  A    between atoms: N4_18  and  C14_19 
ROOT
HETATM    1  N1  UNL     1      35.786  79.954  -1.192  1.00  0.00    -0.102 NA
HETATM    2  C1  UNL     1      35.173  80.654  -2.249  1.00  0.00     0.048 A 
HETATM    3  C2  UNL     1      33.837  80.491  -2.550  1.00  0.00     0.029 A 
HETATM    4  C3  UNL     1      33.284  81.199  -3.596  1.00  0.00     0.034 A 
HETATM    5  C4  UNL     1      34.020  82.081  -4.371  1.00  0.00     0.063 A 
HETATM    6  C5  UNL     1      35.346  82.224  -4.050  1.00  0.00     0.062 A 
HETATM    7  C6  UNL     1      35.940  81.525  -3.001  1.00  0.00     0.058 A 
HETATM    8  N2  UNL     1      35.814  83.110  -4.929  1.00  0.00    -0.342 N 
ATOM      9  H2  UNL     1      36.779  83.440  -4.965  1.00  0.00     0.167 HD
HETATM   10  C7  UNL     1      34.837  83.505  -5.759  1.00  0.00     0.113 A 
HETATM   11  N4  UNL     1      33.718  82.878  -5.429  1.00  0.00    -0.328 N 
ENDROOT
BRANCH  10  12
HETATM   12  C8  UNL     1      34.949  84.482  -6.868  1.00  0.00     0.348 C 
BRANCH  12  13
HETATM   13  N3  UNL     1      34.986  85.856  -6.410  1.00  0.00     0.095 N 
HETATM   14  C9  UNL     1      36.315  86.387  -6.414  1.00  0.00     0.273 C 
HETATM   15  C10 UNL     1      36.838  86.683  -7.793  1.00  0.00     0.030 C 
HETATM   16  C11 UNL     1      35.870  87.488  -8.600  1.00  0.00     0.003 C 
HETATM   17  C12 UNL     1      34.513  86.859  -8.598  1.00  0.00     0.030 C 
HETATM   18  C13 UNL     1      34.051  86.619  -7.184  1.00  0.00     0.273 C 
ENDBRANCH  12  13
ENDBRANCH  10  12
BRANCH  11  19
HETATM   19  C14 UNL     1      32.389  82.926  -5.967  1.00  0.00     0.091 C 
HETATM   20  C15 UNL     1      31.688  84.243  -5.608  1.00  0.00     0.026 C 
HETATM   21  C16 UNL     1      30.691  84.608  -6.675  1.00  0.00     0.002 C 
HETATM   22  C17 UNL     1      29.900  83.387  -7.052  1.00  0.00     0.000 C 
HETATM   23  C18 UNL     1      30.748  82.281  -7.613  1.00  0.00     0.002 C 
HETATM   24  C19 UNL     1      32.223  82.680  -7.415  1.00  0.00     0.026 C 
ENDBRANCH  11  19
TORSDOF 3
ENDMDL
MODEL 5
REMARK VINA RESULT: -7.737090169      2.640      6.073
REMARK  3 active torsions:
REMARK  status: ('A' for Active; 'I' for Inactive)
REMARK    1  A    between atoms: C7_10  and  C8_11 
REMARK    2  A    between atoms: C8_11  and  N3_12 
REMARK    3  A    between atoms: N4_18  and  C14_19 
ROOT
HETATM    1  N1  UNL     1      35.558  78.881  -1.306  1.00  0.00    -0.102 NA
HETATM    2  C1  UNL     1      34.985  79.813  -2.193  1.00  0.00     0.048 A 
HETATM    3  C2  UNL     1      33.774  79.580  -2.809  1.00  0.00     0.029 A 
HETATM    4  C3  UNL     1      33.255  80.523  -3.670  1.00  0.00     0.034 A 
HETATM    5  C4  UNL     1      33.905  81.716  -3.949  1.00  0.00     0.063 A 
HETATM    6  C5  UNL     1      35.107  81.923  -3.322  1.00  0.00     0.062 A 
HETATM    7  C6  UNL     1      35.663  80.992  -2.446  1.00  0.00     0.058 A 
HETATM    8  N2  UNL     1      35.514  83.117  -3.752  1.00  0.00    -0.342 N 
ATOM      9  H2  UNL     1      36.383  83.571  -3.474  1.00  0.00     0.167 HD
HETATM   10  C7  UNL     1      34.616  83.635  -4.604  1.00  0.00     0.113 A 
HETATM   11  N4  UNL     1      33.612  82.782  -4.739  1.00  0.00    -0.328 N 
ENDROOT
BRANCH  10  12
HETATM   12  C8  UNL     1      34.695  84.945  -5.295  1.00  0.00     0.348 C 
BRANCH  12  13
HETATM   13  N3  UNL     1      35.917  85.111  -6.054  1.00  0.00     0.095 N 
HETATM   14  C9  UNL     1      35.813  84.551  -7.367  1.00  0.00     0.273 C 
HETATM   15  C10 UNL     1      34.955  85.363  -8.299  1.00  0.00     0.030 C 
HETATM   16  C11 UNL     1      35.335  86.810  -8.294  1.00  0.00     0.003 C 
HETATM   17  C12 UNL     1      35.380  87.350  -6.900  1.00  0.00     0.030 C 
HETATM   18  C13 UNL     1      36.277  86.499  -6.039  1.00  0.00     0.273 C 
ENDBRANCH  12  13
ENDBRANCH  10  12
BRANCH  11  19
HETATM   19  C14 UNL     1      32.402  82.827  -5.507  1.00  0.00     0.091 C 
HETATM   20  C15 UNL     1      31.526  84.019  -5.099  1.00  0.00     0.026 C 
HETATM   21  C16 UNL     1      30.704  84.485  -6.271  1.00  0.00     0.002 C 
HETATM   22  C17 UNL     1      30.112  83.290  -6.965  1.00  0.00     0.000 C 
HETATM   23  C18 UNL     1      31.147  82.347  -7.510  1.00  0.00     0.002 C 
HETATM   24  C19 UNL     1      32.519  82.807  -6.979  1.00  0.00     0.026 C 
ENDBRANCH  11  19
TORSDOF 3
ENDMDL
