MODEL 1
REMARK VINA RESULT: -7.622792033      0.000      0.000
REMARK  4 active torsions:
REMARK  status: ('A' for Active; 'I' for Inactive)
REMARK    1  A    between atoms: C2_2  and  C3_3 
REMARK    2  A    between atoms: C5_7  and  C6_8 
REMARK    3  A    between atoms: C8_10  and  N2_11 
REMARK    4  A    between atoms: N2_11  and  C9_13 
ROOT
HETATM    1  C6  UNL     1      32.861  83.313  -6.512  1.00  0.00     0.071 A 
HETATM    2  C7  UNL     1      33.173  82.902  -5.248  1.00  0.00     0.080 A 
HETATM    3  C8  UNL     1      34.509  82.829  -4.850  1.00  0.00     0.104 A 
HETATM    4  N3  UNL     1      35.476  83.168  -5.720  1.00  0.00    -0.333 N 
ATOM      5  H3  UNL     1      36.453  83.116  -5.429  1.00  0.00     0.168 HD
HETATM    6  C15 UNL     1      35.180  83.574  -6.968  1.00  0.00     0.079 A 
HETATM    7  C16 UNL     1      36.279  83.951  -7.933  1.00  0.00     0.089 C 
HETATM    8  N4  UNL     1      33.899  83.635  -7.325  1.00  0.00    -0.344 N 
ATOM      9  H4  UNL     1      33.682  83.945  -8.272  1.00  0.00     0.167 HD
ENDROOT
BRANCH   1  10
HETATM   10  C5  UNL     1      31.483  83.411  -6.992  1.00  0.00     0.101 A 
HETATM   11  N1  UNL     1      30.891  84.518  -7.399  1.00  0.00    -0.357 N 
HETATM   12  C4  UNL     1      29.661  84.475  -7.803  1.00  0.00     0.103 A 
ATOM     13  H1  UNL     1      31.399  85.402  -7.396  1.00  0.00     0.166 HD
HETATM   14  C3  UNL     1      29.020  83.263  -7.790  1.00  0.00    -0.000 A 
HETATM   15  S1  UNL     1      30.265  82.241  -7.180  1.00  0.00    -0.073 SA
BRANCH  14  16
HETATM   16  C2  UNL     1      27.615  82.948  -8.202  1.00  0.00     0.043 C 
HETATM   17  C1  UNL     1      27.357  81.459  -8.168  1.00  0.00     0.010 C 
ENDBRANCH  14  16
ENDBRANCH   1  10
BRANCH   3  18
HETATM   18  N2  UNL     1      34.768  82.436  -3.647  1.00  0.00    -0.372 N 
ATOM     19  H2  UNL     1      34.942  83.123  -2.913  1.00  0.00     0.161 HD
BRANCH  18  20
HETATM   20  C9  UNL     1      34.812  81.044  -3.343  1.00  0.00     0.083 C 
HETATM   21  C10 UNL     1      35.739  80.805  -2.145  1.00  0.00     0.025 C 
HETATM   22  C11 UNL     1      35.834  79.315  -1.900  1.00  0.00     0.002 C 
HETATM   23  C12 UNL     1      34.505  78.668  -1.667  1.00  0.00     0.000 C 
HETATM   24  C13 UNL     1      33.618  78.981  -2.873  1.00  0.00     0.002 C 
HETATM   25  C14 UNL     1      33.460  80.487  -2.898  1.00  0.00     0.025 C 
ENDBRANCH  18  20
ENDBRANCH   3  18
TORSDOF 4
ENDMDL
MODEL 2
REMARK VINA RESULT: -7.588831429      1.273      1.285
REMARK  4 active torsions:
REMARK  status: ('A' for Active; 'I' for Inactive)
REMARK    1  A    between atoms: C2_2  and  C3_3 
REMARK    2  A    between atoms: C5_7  and  C6_8 
REMARK    3  A    between atoms: C8_10  and  N2_11 
REMARK    4  A    between atoms: N2_11  and  C9_13 
ROOT
HETATM    1  C6  UNL     1      32.605  84.341  -6.206  1.00  0.00     0.071 A 
HETATM    2  C7  UNL     1      32.804  83.604  -5.075  1.00  0.00     0.080 A 
HETATM    3  C8  UNL     1      33.968  83.783  -4.324  1.00  0.00     0.104 A 
HETATM    4  N3  UNL     1      34.881  84.684  -4.727  1.00  0.00    -0.333 N 
ATOM      5  H3  UNL     1      35.731  84.815  -4.178  1.00  0.00     0.168 HD
HETATM    6  C15 UNL     1      34.694  85.415  -5.840  1.00  0.00     0.079 A 
HETATM    7  C16 UNL     1      35.730  86.423  -6.279  1.00  0.00     0.089 C 
HETATM    8  N4  UNL     1      33.577  85.227  -6.540  1.00  0.00    -0.344 N 
ATOM      9  H4  UNL     1      33.443  85.786  -7.383  1.00  0.00     0.167 HD
ENDROOT
BRANCH   1  10
HETATM   10  C5  UNL     1      31.410  84.202  -7.037  1.00  0.00     0.101 A 
HETATM   11  N1  UNL     1      31.055  85.018  -8.012  1.00  0.00    -0.357 N 
HETATM   12  C4  UNL     1      29.969  84.788  -8.677  1.00  0.00     0.103 A 
ATOM     13  H1  UNL     1      31.635  85.826  -8.239  1.00  0.00     0.166 HD
HETATM   14  C3  UNL     1      29.224  83.689  -8.335  1.00  0.00    -0.000 A 
HETATM   15  S1  UNL     1      30.164  83.046  -7.043  1.00  0.00    -0.073 SA
BRANCH  14  16
HETATM   16  C2  UNL     1      27.942  83.206  -8.942  1.00  0.00     0.043 C 
HETATM   17  C1  UNL     1      27.482  81.919  -8.295  1.00  0.00     0.010 C 
ENDBRANCH  14  16
ENDBRANCH   1  10
BRANCH   3  18
HETATM   18  N2  UNL     1      34.125  83.068  -3.259  1.00  0.00    -0.372 N 
ATOM     19  H2  UNL     1      34.276  83.524  -2.359  1.00  0.00     0.161 HD
BRANCH  18  20
HETATM   20  C9  UNL     1      34.086  81.646  -3.339  1.00  0.00     0.083 C 
HETATM   21  C10 UNL     1      35.238  81.050  -2.521  1.00  0.00     0.025 C 
HETATM   22  C11 UNL     1      35.224  79.547  -2.694  1.00  0.00     0.002 C 
HETATM   23  C12 UNL     1      33.925  78.918  -2.299  1.00  0.00     0.000 C 
HETATM   24  C13 UNL     1      32.818  79.585  -3.118  1.00  0.00     0.002 C 
HETATM   25  C14 UNL     1      32.825  81.047  -2.718  1.00  0.00     0.025 C 
ENDBRANCH  18  20
ENDBRANCH   3  18
TORSDOF 4
ENDMDL
MODEL 3
REMARK VINA RESULT: -7.447885008      0.933      1.030
REMARK  4 active torsions:
REMARK  status: ('A' for Active; 'I' for Inactive)
REMARK    1  A    between atoms: C2_2  and  C3_3 
REMARK    2  A    between atoms: C5_7  and  C6_8 
REMARK    3  A    between atoms: C8_10  and  N2_11 
REMARK    4  A    between atoms: N2_11  and  C9_13 
ROOT
HETATM    1  C6  UNL     1      32.975  83.081  -6.840  1.00  0.00     0.071 A 
HETATM    2  C7  UNL     1      33.210  82.709  -5.548  1.00  0.00     0.080 A 
HETATM    3  C8  UNL     1      34.495  82.823  -5.014  1.00  0.00     0.104 A 
HETATM    4  N3  UNL     1      35.489  83.301  -5.782  1.00  0.00    -0.333 N 
ATOM      5  H3  UNL     1      36.428  83.385  -5.391  1.00  0.00     0.168 HD
HETATM    6  C15 UNL     1      35.269  83.671  -7.057  1.00  0.00     0.079 A 
HETATM    7  C16 UNL     1      36.397  84.206  -7.906  1.00  0.00     0.089 C 
HETATM    8  N4  UNL     1      34.035  83.553  -7.544  1.00  0.00    -0.344 N 
ATOM      9  H4  UNL     1      33.876  83.836  -8.511  1.00  0.00     0.167 HD
ENDROOT
BRANCH   1  10
HETATM   10  C5  UNL     1      31.655  82.988  -7.461  1.00  0.00     0.101 A 
HETATM   11  N1  UNL     1      31.117  81.890  -7.956  1.00  0.00    -0.357 N 
HETATM   12  C4  UNL     1      29.935  81.936  -8.482  1.00  0.00     0.103 A 
ATOM     13  H1  UNL     1      31.630  81.009  -7.925  1.00  0.00     0.166 HD
HETATM   14  C3  UNL     1      29.284  83.143  -8.501  1.00  0.00    -0.000 A 
HETATM   15  S1  UNL     1      30.451  84.155  -7.739  1.00  0.00    -0.073 SA
BRANCH  14  16
HETATM   16  C2  UNL     1      27.925  83.460  -9.045  1.00  0.00     0.043 C 
HETATM   17  C1  UNL     1      26.962  82.318  -8.808  1.00  0.00     0.010 C 
ENDBRANCH  14  16
ENDBRANCH   1  10
BRANCH   3  18
HETATM   18  N2  UNL     1      34.682  82.461  -3.788  1.00  0.00    -0.372 N 
ATOM     19  H2  UNL     1      34.790  83.167  -3.060  1.00  0.00     0.161 HD
BRANCH  18  20
HETATM   20  C9  UNL     1      34.738  81.077  -3.451  1.00  0.00     0.083 C 
HETATM   21  C10 UNL     1      35.723  80.865  -2.295  1.00  0.00     0.025 C 
HETATM   22  C11 UNL     1      35.827  79.382  -2.016  1.00  0.00     0.002 C 
HETATM   23  C12 UNL     1      34.510  78.746  -1.700  1.00  0.00     0.000 C 
HETATM   24  C13 UNL     1      33.564  79.030  -2.869  1.00  0.00     0.002 C 
HETATM   25  C14 UNL     1      33.409  80.537  -2.924  1.00  0.00     0.025 C 
ENDBRANCH  18  20
ENDBRANCH   3  18
TORSDOF 4
ENDMDL
MODEL 4
REMARK VINA RESULT: -7.352933938      2.562      7.293
REMARK  4 active torsions:
REMARK  status: ('A' for Active; 'I' for Inactive)
REMARK    1  A    between atoms: C2_2  and  C3_3 
REMARK    2  A    between atoms: C5_7  and  C6_8 
REMARK    3  A    between atoms: C8_10  and  N2_11 
REMARK    4  A    between atoms: N2_11  and  C9_13 
ROOT
HETATM    1  C6  UNL     1      33.962  83.342  -4.963  1.00  0.00     0.071 A 
HETATM    2  C7  UNL     1      34.958  84.176  -5.381  1.00  0.00     0.080 A 
HETATM    3  C8  UNL     1      34.660  85.246  -6.228  1.00  0.00     0.104 A 
HETATM    4  N3  UNL     1      33.390  85.441  -6.622  1.00  0.00    -0.333 N 
ATOM      5  H3  UNL     1      33.171  86.223  -7.240  1.00  0.00     0.168 HD
HETATM    6  C15 UNL     1      32.400  84.624  -6.216  1.00  0.00     0.079 A 
HETATM    7  C16 UNL     1      30.978  84.858  -6.668  1.00  0.00     0.089 C 
HETATM    8  N4  UNL     1      32.709  83.611  -5.409  1.00  0.00    -0.344 N 
ATOM      9  H4  UNL     1      31.954  82.997  -5.105  1.00  0.00     0.167 HD
ENDROOT
BRANCH   1  10
HETATM   10  C5  UNL     1      34.206  82.204  -4.078  1.00  0.00     0.101 A 
HETATM   11  N1  UNL     1      33.293  81.349  -3.660  1.00  0.00    -0.357 N 
HETATM   12  C4  UNL     1      33.635  80.379  -2.873  1.00  0.00     0.103 A 
ATOM     13  H1  UNL     1      32.322  81.451  -3.955  1.00  0.00     0.166 HD
HETATM   14  C3  UNL     1      34.953  80.282  -2.504  1.00  0.00    -0.000 A 
HETATM   15  S1  UNL     1      35.625  81.631  -3.337  1.00  0.00    -0.073 SA
BRANCH  14  16
HETATM   16  C2  UNL     1      35.599  79.264  -1.615  1.00  0.00     0.043 C 
HETATM   17  C1  UNL     1      36.297  79.924  -0.448  1.00  0.00     0.010 C 
ENDBRANCH  14  16
ENDBRANCH   1  10
BRANCH   3  18
HETATM   18  N2  UNL     1      35.626  86.016  -6.605  1.00  0.00    -0.372 N 
ATOM     19  H2  UNL     1      36.109  86.598  -5.920  1.00  0.00     0.161 HD
BRANCH  18  20
HETATM   20  C9  UNL     1      36.020  86.053  -7.974  1.00  0.00     0.083 C 
HETATM   21  C10 UNL     1      37.119  87.105  -8.168  1.00  0.00     0.025 C 
HETATM   22  C11 UNL     1      37.455  87.184  -9.641  1.00  0.00     0.002 C 
HETATM   23  C12 UNL     1      37.882  85.873 -10.222  1.00  0.00     0.000 C 
HETATM   24  C13 UNL     1      36.764  84.862  -9.956  1.00  0.00     0.002 C 
HETATM   25  C14 UNL     1      36.653  84.747  -8.450  1.00  0.00     0.025 C 
ENDBRANCH  18  20
ENDBRANCH   3  18
TORSDOF 4
ENDMDL
MODEL 5
REMARK VINA RESULT: -7.327936650      1.359      1.465
REMARK  4 active torsions:
REMARK  status: ('A' for Active; 'I' for Inactive)
REMARK    1  A    between atoms: C2_2  and  C3_3 
REMARK    2  A    between atoms: C5_7  and  C6_8 
REMARK    3  A    between atoms: C8_10  and  N2_11 
REMARK    4  A    between atoms: N2_11  and  C9_13 
ROOT
HETATM    1  C6  UNL     1      33.415  83.282  -5.818  1.00  0.00     0.071 A 
HETATM    2  C7  UNL     1      33.892  82.575  -4.754  1.00  0.00     0.080 A 
HETATM    3  C8  UNL     1      35.001  83.043  -4.047  1.00  0.00     0.104 A 
HETATM    4  N3  UNL     1      35.587  84.192  -4.426  1.00  0.00    -0.333 N 
ATOM      5  H3  UNL     1      36.397  84.536  -3.909  1.00  0.00     0.168 HD
HETATM    6  C15 UNL     1      35.125  84.898  -5.474  1.00  0.00     0.079 A 
HETATM    7  C16 UNL     1      35.795  86.188  -5.886  1.00  0.00     0.089 C 
HETATM    8  N4  UNL     1      34.066  84.431  -6.132  1.00  0.00    -0.344 N 
ATOM      9  H4  UNL     1      33.721  84.972  -6.925  1.00  0.00     0.167 HD
ENDROOT
BRANCH   1  10
HETATM   10  C5  UNL     1      32.258  82.847  -6.601  1.00  0.00     0.101 A 
HETATM   11  N1  UNL     1      32.237  82.682  -7.910  1.00  0.00    -0.357 N 
HETATM   12  C4  UNL     1      31.147  82.292  -8.488  1.00  0.00     0.103 A 
ATOM     13  H1  UNL     1      33.075  82.862  -8.462  1.00  0.00     0.166 HD
HETATM   14  C3  UNL     1      30.046  82.063  -7.703  1.00  0.00    -0.000 A 
HETATM   15  S1  UNL     1      30.674  82.436  -6.144  1.00  0.00    -0.073 SA
BRANCH  14  16
HETATM   16  C2  UNL     1      28.681  81.610  -8.122  1.00  0.00     0.043 C 
HETATM   17  C1  UNL     1      27.624  82.611  -7.712  1.00  0.00     0.010 C 
ENDBRANCH  14  16
ENDBRANCH   1  10
BRANCH   3  18
HETATM   18  N2  UNL     1      35.427  82.348  -3.045  1.00  0.00    -0.372 N 
ATOM     19  H2  UNL     1      35.959  82.800  -2.301  1.00  0.00     0.161 HD
BRANCH  18  20
HETATM   20  C9  UNL     1      35.155  80.951  -2.976  1.00  0.00     0.083 C 
HETATM   21  C10 UNL     1      35.877  80.342  -1.769  1.00  0.00     0.025 C 
HETATM   22  C11 UNL     1      35.642  78.847  -1.770  1.00  0.00     0.002 C 
HETATM   23  C12 UNL     1      34.192  78.476  -1.751  1.00  0.00     0.000 C 
HETATM   24  C13 UNL     1      33.525  79.149  -2.952  1.00  0.00     0.002 C 
HETATM   25  C14 UNL     1      33.678  80.641  -2.735  1.00  0.00     0.025 C 
ENDBRANCH  18  20
ENDBRANCH   3  18
TORSDOF 4
ENDMDL
