MODEL 1
REMARK VINA RESULT: -7.251790658      0.000      0.000
REMARK  3 active torsions:
REMARK  status: ('A' for Active; 'I' for Inactive)
REMARK    1  A    between atoms: C1_2  and  C2_4 
REMARK    2  A    between atoms: C2_4  and  S1_5 
REMARK    3  A    between atoms: S1_5  and  C3_6 
ROOT
HETATM    1  C3  UNL     1      33.753  82.905  -6.543  1.00  0.00     0.113 A 
HETATM    2  N1  UNL     1      34.036  82.367  -5.372  1.00  0.00    -0.347 N 
ATOM      3  H1  UNL     1      34.994  82.092  -5.157  1.00  0.00     0.167 HD
HETATM    4  C4  UNL     1      33.096  82.186  -4.493  1.00  0.00     0.032 A 
HETATM    5  C5  UNL     1      31.826  82.573  -4.837  1.00  0.00     0.009 A 
HETATM    6  S2  UNL     1      32.077  83.180  -6.429  1.00  0.00    -0.068 SA
HETATM    7  C6  UNL     1      30.513  82.541  -4.149  1.00  0.00     0.048 C 
HETATM    8  C7  UNL     1      30.580  83.106  -2.747  1.00  0.00     0.005 C 
HETATM    9  C8  UNL     1      31.284  82.043  -1.914  1.00  0.00     0.001 C 
HETATM   10  C9  UNL     1      32.747  82.303  -2.019  1.00  0.00     0.016 C 
HETATM   11  C10 UNL     1      33.436  81.563  -3.144  1.00  0.00     0.007 C 
HETATM   12  C11 UNL     1      34.924  81.743  -2.875  1.00  0.00     0.042 C 
HETATM   13  C12 UNL     1      35.503  80.737  -1.982  1.00  0.00    -0.029 C 
HETATM   14  C13 UNL     1      35.198  79.464  -2.145  1.00  0.00    -0.031 C 
HETATM   15  C14 UNL     1      34.243  79.197  -3.288  1.00  0.00     0.028 C 
HETATM   16  C15 UNL     1      33.033  80.119  -3.141  1.00  0.00     0.020 C 
ENDROOT
BRANCH   1  17
HETATM   17  S1  UNL     1      34.878  83.239  -7.883  1.00  0.00    -0.094 SA
BRANCH  17  18
HETATM   18  C2  UNL     1      35.982  84.619  -7.472  1.00  0.00     0.194 C 
BRANCH  18  19
HETATM   19  C1  UNL     1      35.401  85.471  -6.406  1.00  0.00     0.182 C 
HETATM   20  O1  UNL     1      34.665  86.428  -6.725  1.00  0.00    -0.647 OA
HETATM   21  O2  UNL     1      35.698  85.171  -5.085  1.00  0.00    -0.647 OA
ENDBRANCH  18  19
ENDBRANCH  17  18
ENDBRANCH   1  17
TORSDOF 3
ENDMDL
MODEL 2
REMARK VINA RESULT: -7.223207521      1.917      3.862
REMARK  3 active torsions:
REMARK  status: ('A' for Active; 'I' for Inactive)
REMARK    1  A    between atoms: C1_2  and  C2_4 
REMARK    2  A    between atoms: C2_4  and  S1_5 
REMARK    3  A    between atoms: S1_5  and  C3_6 
ROOT
HETATM    1  C3  UNL     1      35.457  84.004  -4.349  1.00  0.00     0.113 A 
HETATM    2  N1  UNL     1      34.261  83.456  -4.247  1.00  0.00    -0.347 N 
ATOM      3  H1  UNL     1      33.460  83.896  -4.700  1.00  0.00     0.167 HD
HETATM    4  C4  UNL     1      34.103  82.359  -3.569  1.00  0.00     0.032 A 
HETATM    5  C5  UNL     1      35.215  81.813  -2.980  1.00  0.00     0.009 A 
HETATM    6  S2  UNL     1      36.432  82.938  -3.451  1.00  0.00    -0.068 SA
HETATM    7  C6  UNL     1      35.460  80.612  -2.147  1.00  0.00     0.048 C 
HETATM    8  C7  UNL     1      34.847  79.362  -2.740  1.00  0.00     0.005 C 
HETATM    9  C8  UNL     1      33.349  79.489  -2.497  1.00  0.00     0.001 C 
HETATM   10  C9  UNL     1      32.781  80.238  -3.652  1.00  0.00     0.016 C 
HETATM   11  C10 UNL     1      32.716  81.736  -3.458  1.00  0.00     0.007 C 
HETATM   12  C11 UNL     1      31.852  82.242  -4.604  1.00  0.00     0.042 C 
HETATM   13  C12 UNL     1      30.413  82.236  -4.326  1.00  0.00    -0.029 C 
HETATM   14  C13 UNL     1      29.971  82.677  -3.164  1.00  0.00    -0.031 C 
HETATM   15  C14 UNL     1      31.058  83.153  -2.226  1.00  0.00     0.028 C 
HETATM   16  C15 UNL     1      32.124  82.062  -2.119  1.00  0.00     0.020 C 
ENDROOT
BRANCH   1  17
HETATM   17  S1  UNL     1      35.895  85.494  -5.222  1.00  0.00    -0.094 SA
BRANCH  17  18
HETATM   18  C2  UNL     1      35.350  85.417  -6.950  1.00  0.00     0.194 C 
BRANCH  18  19
HETATM   19  C1  UNL     1      35.677  84.103  -7.557  1.00  0.00     0.182 C 
HETATM   20  O1  UNL     1      36.745  83.974  -8.191  1.00  0.00    -0.647 OA
HETATM   21  O2  UNL     1      34.777  83.060  -7.395  1.00  0.00    -0.647 OA
ENDBRANCH  18  19
ENDBRANCH  17  18
ENDBRANCH   1  17
TORSDOF 3
ENDMDL
MODEL 3
REMARK VINA RESULT: -6.686347686      1.907      2.202
REMARK  3 active torsions:
REMARK  status: ('A' for Active; 'I' for Inactive)
REMARK    1  A    between atoms: C1_2  and  C2_4 
REMARK    2  A    between atoms: C2_4  and  S1_5 
REMARK    3  A    between atoms: S1_5  and  C3_6 
ROOT
HETATM    1  C3  UNL     1      34.000  83.012  -6.420  1.00  0.00     0.113 A 
HETATM    2  N1  UNL     1      34.224  82.439  -5.253  1.00  0.00    -0.347 N 
ATOM      3  H1  UNL     1      35.171  82.162  -4.996  1.00  0.00     0.167 HD
HETATM    4  C4  UNL     1      33.240  82.227  -4.431  1.00  0.00     0.032 A 
HETATM    5  C5  UNL     1      31.987  82.620  -4.830  1.00  0.00     0.009 A 
HETATM    6  S2  UNL     1      32.319  83.277  -6.386  1.00  0.00    -0.068 SA
HETATM    7  C6  UNL     1      30.640  82.560  -4.214  1.00  0.00     0.048 C 
HETATM    8  C7  UNL     1      30.630  83.081  -2.794  1.00  0.00     0.005 C 
HETATM    9  C8  UNL     1      31.295  81.996  -1.957  1.00  0.00     0.001 C 
HETATM   10  C9  UNL     1      32.759  82.265  -1.977  1.00  0.00     0.016 C 
HETATM   11  C10 UNL     1      33.512  81.563  -3.086  1.00  0.00     0.007 C 
HETATM   12  C11 UNL     1      34.982  81.741  -2.734  1.00  0.00     0.042 C 
HETATM   13  C12 UNL     1      35.519  80.709  -1.843  1.00  0.00    -0.029 C 
HETATM   14  C13 UNL     1      35.230  79.441  -2.062  1.00  0.00    -0.031 C 
HETATM   15  C14 UNL     1      34.339  79.206  -3.261  1.00  0.00     0.028 C 
HETATM   16  C15 UNL     1      33.117  80.118  -3.149  1.00  0.00     0.020 C 
ENDROOT
BRANCH   1  17
HETATM   17  S1  UNL     1      35.193  83.393  -7.687  1.00  0.00    -0.094 SA
BRANCH  17  18
HETATM   18  C2  UNL     1      34.882  82.416  -9.184  1.00  0.00     0.194 C 
BRANCH  18  19
HETATM   19  C1  UNL     1      33.665  82.890  -9.889  1.00  0.00     0.182 C 
HETATM   20  O1  UNL     1      32.866  82.051 -10.356  1.00  0.00    -0.647 OA
HETATM   21  O2  UNL     1      33.460  84.257 -10.004  1.00  0.00    -0.647 OA
ENDBRANCH  18  19
ENDBRANCH  17  18
ENDBRANCH   1  17
TORSDOF 3
ENDMDL
MODEL 4
REMARK VINA RESULT: -6.670721065      5.319      7.191
REMARK  3 active torsions:
REMARK  status: ('A' for Active; 'I' for Inactive)
REMARK    1  A    between atoms: C1_2  and  C2_4 
REMARK    2  A    between atoms: C2_4  and  S1_5 
REMARK    3  A    between atoms: S1_5  and  C3_6 
ROOT
HETATM    1  C3  UNL     1      32.357  81.507 -10.752  1.00  0.00     0.113 A 
HETATM    2  N1  UNL     1      31.292  81.596  -9.978  1.00  0.00    -0.347 N 
ATOM      3  H1  UNL     1      30.435  81.107 -10.234  1.00  0.00     0.167 HD
HETATM    4  C4  UNL     1      31.334  82.305  -8.890  1.00  0.00     0.032 A 
HETATM    5  C5  UNL     1      32.512  82.942  -8.595  1.00  0.00     0.009 A 
HETATM    6  S2  UNL     1      33.494  82.467  -9.928  1.00  0.00    -0.068 SA
HETATM    7  C6  UNL     1      32.965  83.822  -7.491  1.00  0.00     0.048 C 
HETATM    8  C7  UNL     1      32.635  83.255  -6.128  1.00  0.00     0.005 C 
HETATM    9  C8  UNL     1      31.134  83.453  -5.957  1.00  0.00     0.001 C 
HETATM   10  C9  UNL     1      30.466  82.258  -6.545  1.00  0.00     0.016 C 
HETATM   11  C10 UNL     1      30.096  82.400  -8.004  1.00  0.00     0.007 C 
HETATM   12  C11 UNL     1      29.187  81.214  -8.294  1.00  0.00     0.042 C 
HETATM   13  C12 UNL     1      27.771  81.454  -8.007  1.00  0.00    -0.029 C 
HETATM   14  C13 UNL     1      27.211  82.588  -8.382  1.00  0.00    -0.031 C 
HETATM   15  C14 UNL     1      28.149  83.538  -9.092  1.00  0.00     0.028 C 
HETATM   16  C15 UNL     1      29.407  83.711  -8.241  1.00  0.00     0.020 C 
ENDROOT
BRANCH   1  17
HETATM   17  S1  UNL     1      32.516  80.598 -12.275  1.00  0.00    -0.094 SA
BRANCH  17  18
HETATM   18  C2  UNL     1      33.324  78.998 -11.992  1.00  0.00     0.194 C 
BRANCH  18  19
HETATM   19  C1  UNL     1      32.352  77.984 -11.517  1.00  0.00     0.182 C 
HETATM   20  O1  UNL     1      32.595  76.773 -11.700  1.00  0.00    -0.647 OA
HETATM   21  O2  UNL     1      31.199  78.422 -10.882  1.00  0.00    -0.647 OA
ENDBRANCH  18  19
ENDBRANCH  17  18
ENDBRANCH   1  17
TORSDOF 3
ENDMDL
MODEL 5
REMARK VINA RESULT: -6.586378195      3.211      4.766
REMARK  3 active torsions:
REMARK  status: ('A' for Active; 'I' for Inactive)
REMARK    1  A    between atoms: C1_2  and  C2_4 
REMARK    2  A    between atoms: C2_4  and  S1_5 
REMARK    3  A    between atoms: S1_5  and  C3_6 
ROOT
HETATM    1  C3  UNL     1      30.901  83.780  -7.064  1.00  0.00     0.113 A 
HETATM    2  N1  UNL     1      31.325  83.103  -6.014  1.00  0.00    -0.347 N 
ATOM      3  H1  UNL     1      30.772  82.328  -5.650  1.00  0.00     0.167 HD
HETATM    4  C4  UNL     1      32.448  83.423  -5.442  1.00  0.00     0.032 A 
HETATM    5  C5  UNL     1      33.151  84.475  -5.972  1.00  0.00     0.009 A 
HETATM    6  S2  UNL     1      32.129  84.938  -7.279  1.00  0.00    -0.068 SA
HETATM    7  C6  UNL     1      34.430  85.141  -5.631  1.00  0.00     0.048 C 
HETATM    8  C7  UNL     1      35.560  84.155  -5.432  1.00  0.00     0.005 C 
HETATM    9  C8  UNL     1      35.294  83.499  -4.083  1.00  0.00     0.001 C 
HETATM   10  C9  UNL     1      34.405  82.331  -4.333  1.00  0.00     0.016 C 
HETATM   11  C10 UNL     1      32.927  82.633  -4.229  1.00  0.00     0.007 C 
HETATM   12  C11 UNL     1      32.249  81.271  -4.225  1.00  0.00     0.042 C 
HETATM   13  C12 UNL     1      32.123  80.662  -2.898  1.00  0.00    -0.029 C 
HETATM   14  C13 UNL     1      31.726  81.397  -1.877  1.00  0.00    -0.031 C 
HETATM   15  C14 UNL     1      31.439  82.840  -2.225  1.00  0.00     0.028 C 
HETATM   16  C15 UNL     1      32.641  83.410  -2.978  1.00  0.00     0.020 C 
ENDROOT
BRANCH   1  17
HETATM   17  S1  UNL     1      29.404  83.513  -7.992  1.00  0.00    -0.094 SA
BRANCH  17  18
HETATM   18  C2  UNL     1      28.988  81.748  -8.056  1.00  0.00     0.194 C 
BRANCH  18  19
HETATM   19  C1  UNL     1      30.063  80.968  -8.717  1.00  0.00     0.182 C 
HETATM   20  O1  UNL     1      30.991  81.575  -9.291  1.00  0.00    -0.647 OA
HETATM   21  O2  UNL     1      29.995  79.583  -8.672  1.00  0.00    -0.647 OA
ENDBRANCH  18  19
ENDBRANCH  17  18
ENDBRANCH   1  17
TORSDOF 3
ENDMDL
