MODEL 1
REMARK VINA RESULT: -7.653166775      0.000      0.000
REMARK  3 active torsions:
REMARK  status: ('A' for Active; 'I' for Inactive)
REMARK       I    between atoms: C1_2  and  N1_3 
REMARK    1  A    between atoms: C1_2  and  C8_11 
REMARK    2  A    between atoms: N1_3  and  C2_5 
REMARK    3  A    between atoms: C11_15  and  C12_16 
ROOT
HETATM    1  C8  UNL     1      35.523  84.946  -6.027  1.00  0.00     0.077 A 
HETATM    2  C9  UNL     1      35.856  84.290  -7.178  1.00  0.00     0.065 A 
HETATM    3  C10 UNL     1      36.585  84.982  -8.086  1.00  0.00     0.112 A 
HETATM    4  O2  UNL     1      37.113  84.765  -9.286  1.00  0.00    -0.294 OA
HETATM    5  C11 UNL     1      37.743  85.802  -9.744  1.00  0.00     0.129 A 
HETATM    6  N2  UNL     1      37.649  86.774  -8.825  1.00  0.00    -0.332 N 
ATOM      7  H2  UNL     1      38.043  87.712  -8.889  1.00  0.00     0.168 HD
HETATM    8  C16 UNL     1      36.921  86.262  -7.783  1.00  0.00     0.111 A 
HETATM    9  S1  UNL     1      36.222  86.485  -6.242  1.00  0.00    -0.064 SA
ENDROOT
BRANCH   1  10
HETATM   10  C1  UNL     1      34.738  84.422  -4.883  1.00  0.00     0.259 C 
HETATM   11  O1  UNL     1      35.086  84.684  -3.707  1.00  0.00    -0.267 OA
HETATM   12  N1  UNL     1      33.592  83.623  -5.094  1.00  0.00    -0.352 N 
ATOM     13  H1  UNL     1      33.286  83.394  -6.040  1.00  0.00     0.163 HD
BRANCH  12  14
HETATM   14  C2  UNL     1      32.862  83.137  -3.947  1.00  0.00     0.084 C 
HETATM   15  C3  UNL     1      31.395  83.458  -4.178  1.00  0.00     0.025 C 
HETATM   16  C4  UNL     1      30.534  82.587  -3.309  1.00  0.00     0.002 C 
HETATM   17  C5  UNL     1      31.250  82.130  -2.055  1.00  0.00     0.000 C 
HETATM   18  C6  UNL     1      32.480  81.313  -2.383  1.00  0.00     0.002 C 
HETATM   19  C7  UNL     1      32.979  81.635  -3.796  1.00  0.00     0.025 C 
ENDBRANCH  12  14
ENDBRANCH   1  10
BRANCH   5  20
HETATM   20  C12 UNL     1      38.456  85.890 -11.074  1.00  0.00     0.061 C 
HETATM   21  C13 UNL     1      38.043  84.732 -11.955  1.00  0.00     0.013 C 
HETATM   22  C14 UNL     1      37.953  85.715 -13.110  1.00  0.00     0.002 C 
HETATM   23  C15 UNL     1      37.798  86.815 -12.059  1.00  0.00     0.013 C 
ENDBRANCH   5  20
TORSDOF 3
ENDMDL
MODEL 2
REMARK VINA RESULT: -7.336803410      2.974      3.962
REMARK  3 active torsions:
REMARK  status: ('A' for Active; 'I' for Inactive)
REMARK       I    between atoms: C1_2  and  N1_3 
REMARK    1  A    between atoms: C1_2  and  C8_11 
REMARK    2  A    between atoms: N1_3  and  C2_5 
REMARK    3  A    between atoms: C11_15  and  C12_16 
ROOT
HETATM    1  C8  UNL     1      35.689  84.949  -6.998  1.00  0.00     0.077 A 
HETATM    2  C9  UNL     1      35.569  86.247  -6.591  1.00  0.00     0.065 A 
HETATM    3  C10 UNL     1      36.151  87.189  -7.372  1.00  0.00     0.112 A 
HETATM    4  O2  UNL     1      36.288  88.510  -7.373  1.00  0.00    -0.294 OA
HETATM    5  C11 UNL     1      36.968  88.936  -8.393  1.00  0.00     0.129 A 
HETATM    6  N2  UNL     1      37.314  87.867  -9.126  1.00  0.00    -0.332 N 
ATOM      7  H2  UNL     1      37.852  87.872  -9.992  1.00  0.00     0.168 HD
HETATM    8  C16 UNL     1      36.804  86.768  -8.487  1.00  0.00     0.111 A 
HETATM    9  S1  UNL     1      36.597  85.075  -8.434  1.00  0.00    -0.064 SA
ENDROOT
BRANCH   1  10
HETATM   10  C1  UNL     1      35.149  83.739  -6.330  1.00  0.00     0.259 C 
HETATM   11  O1  UNL     1      34.671  82.802  -7.013  1.00  0.00    -0.267 OA
HETATM   12  N1  UNL     1      35.163  83.620  -4.922  1.00  0.00    -0.352 N 
ATOM     13  H1  UNL     1      35.545  84.367  -4.342  1.00  0.00     0.163 HD
BRANCH  12  14
HETATM   14  C2  UNL     1      34.626  82.422  -4.319  1.00  0.00     0.084 C 
HETATM   15  C3  UNL     1      35.745  81.781  -3.517  1.00  0.00     0.025 C 
HETATM   16  C4  UNL     1      35.173  80.840  -2.496  1.00  0.00     0.002 C 
HETATM   17  C5  UNL     1      33.824  80.289  -2.907  1.00  0.00     0.000 C 
HETATM   18  C6  UNL     1      32.803  81.390  -3.083  1.00  0.00     0.002 C 
HETATM   19  C7  UNL     1      33.497  82.729  -3.358  1.00  0.00     0.025 C 
ENDBRANCH  12  14
ENDBRANCH   1  10
BRANCH   5  20
HETATM   20  C12 UNL     1      37.302  90.378  -8.695  1.00  0.00     0.061 C 
HETATM   21  C13 UNL     1      36.046  91.218  -8.640  1.00  0.00     0.013 C 
HETATM   22  C14 UNL     1      36.849  92.270  -7.892  1.00  0.00     0.002 C 
HETATM   23  C15 UNL     1      37.814  91.147  -7.509  1.00  0.00     0.013 C 
ENDBRANCH   5  20
TORSDOF 3
ENDMDL
MODEL 3
REMARK VINA RESULT: -7.322693311      5.630      8.763
REMARK  3 active torsions:
REMARK  status: ('A' for Active; 'I' for Inactive)
REMARK       I    between atoms: C1_2  and  N1_3 
REMARK    1  A    between atoms: C1_2  and  C8_11 
REMARK    2  A    between atoms: N1_3  and  C2_5 
REMARK    3  A    between atoms: C11_15  and  C12_16 
ROOT
HETATM    1  C8  UNL     1      30.325  83.599  -6.950  1.00  0.00     0.077 A 
HETATM    2  C9  UNL     1      30.322  82.421  -6.260  1.00  0.00     0.065 A 
HETATM    3  C10 UNL     1      31.280  82.263  -5.315  1.00  0.00     0.112 A 
HETATM    4  O2  UNL     1      31.648  81.332  -4.442  1.00  0.00    -0.294 OA
HETATM    5  C11 UNL     1      32.677  81.692  -3.739  1.00  0.00     0.129 A 
HETATM    6  N2  UNL     1      33.035  82.920  -4.142  1.00  0.00    -0.332 N 
ATOM      7  H2  UNL     1      33.808  83.478  -3.780  1.00  0.00     0.168 HD
HETATM    8  C16 UNL     1      32.160  83.281  -5.133  1.00  0.00     0.111 A 
HETATM    9  S1  UNL     1      31.644  84.441  -6.273  1.00  0.00    -0.064 SA
ENDROOT
BRANCH   1  10
HETATM   10  C1  UNL     1      29.394  84.020  -8.025  1.00  0.00     0.259 C 
HETATM   11  O1  UNL     1      28.188  83.679  -7.985  1.00  0.00    -0.267 OA
HETATM   12  N1  UNL     1      29.845  84.806  -9.109  1.00  0.00    -0.352 N 
ATOM     13  H1  UNL     1      30.821  85.098  -9.168  1.00  0.00     0.163 HD
BRANCH  12  14
HETATM   14  C2  UNL     1      28.900  85.190 -10.132  1.00  0.00     0.084 C 
HETATM   15  C3  UNL     1      29.469  86.411 -10.835  1.00  0.00     0.025 C 
HETATM   16  C4  UNL     1      28.824  86.576 -12.181  1.00  0.00     0.002 C 
HETATM   17  C5  UNL     1      27.436  85.972 -12.238  1.00  0.00     0.000 C 
HETATM   18  C6  UNL     1      27.465  84.485 -11.965  1.00  0.00     0.002 C 
HETATM   19  C7  UNL     1      28.723  84.108 -11.174  1.00  0.00     0.025 C 
ENDBRANCH  12  14
ENDBRANCH   1  10
BRANCH   5  20
HETATM   20  C12 UNL     1      33.345  80.871  -2.661  1.00  0.00     0.061 C 
HETATM   21  C13 UNL     1      33.171  79.398  -2.956  1.00  0.00     0.013 C 
HETATM   22  C14 UNL     1      34.625  79.204  -2.559  1.00  0.00     0.002 C 
HETATM   23  C15 UNL     1      34.824  80.690  -2.859  1.00  0.00     0.013 C 
ENDBRANCH   5  20
TORSDOF 3
ENDMDL
MODEL 4
REMARK VINA RESULT: -7.318302783      3.376      4.087
REMARK  3 active torsions:
REMARK  status: ('A' for Active; 'I' for Inactive)
REMARK       I    between atoms: C1_2  and  N1_3 
REMARK    1  A    between atoms: C1_2  and  C8_11 
REMARK    2  A    between atoms: N1_3  and  C2_5 
REMARK    3  A    between atoms: C11_15  and  C12_16 
ROOT
HETATM    1  C8  UNL     1      34.666  85.152  -6.357  1.00  0.00     0.077 A 
HETATM    2  C9  UNL     1      35.709  86.027  -6.246  1.00  0.00     0.065 A 
HETATM    3  C10 UNL     1      35.546  87.247  -6.813  1.00  0.00     0.112 A 
HETATM    4  O2  UNL     1      36.253  88.363  -6.950  1.00  0.00    -0.294 OA
HETATM    5  C11 UNL     1      35.610  89.277  -7.610  1.00  0.00     0.129 A 
HETATM    6  N2  UNL     1      34.413  88.773  -7.941  1.00  0.00    -0.332 N 
ATOM      7  H2  UNL     1      33.676  89.248  -8.461  1.00  0.00     0.168 HD
HETATM    8  C16 UNL     1      34.369  87.497  -7.443  1.00  0.00     0.111 A 
HETATM    9  S1  UNL     1      33.507  86.040  -7.237  1.00  0.00    -0.064 SA
ENDROOT
BRANCH   1  10
HETATM   10  C1  UNL     1      34.588  83.767  -5.831  1.00  0.00     0.259 C 
HETATM   11  O1  UNL     1      34.731  82.790  -6.604  1.00  0.00    -0.267 OA
HETATM   12  N1  UNL     1      34.353  83.525  -4.459  1.00  0.00    -0.352 N 
ATOM     13  H1  UNL     1      34.233  84.300  -3.808  1.00  0.00     0.163 HD
BRANCH  12  14
HETATM   14  C2  UNL     1      34.285  82.158  -3.996  1.00  0.00     0.084 C 
HETATM   15  C3  UNL     1      35.582  81.867  -3.261  1.00  0.00     0.025 C 
HETATM   16  C4  UNL     1      35.406  80.684  -2.353  1.00  0.00     0.002 C 
HETATM   17  C5  UNL     1      34.320  79.742  -2.832  1.00  0.00     0.000 C 
HETATM   18  C6  UNL     1      32.975  80.430  -2.893  1.00  0.00     0.002 C 
HETATM   19  C7  UNL     1      33.152  81.948  -3.015  1.00  0.00     0.025 C 
ENDBRANCH  12  14
ENDBRANCH   1  10
BRANCH   5  20
HETATM   20  C12 UNL     1      36.125  90.660  -7.939  1.00  0.00     0.061 C 
HETATM   21  C13 UNL     1      37.359  90.956  -7.115  1.00  0.00     0.013 C 
HETATM   22  C14 UNL     1      37.981  91.555  -8.366  1.00  0.00     0.002 C 
HETATM   23  C15 UNL     1      36.988  90.713  -9.168  1.00  0.00     0.013 C 
ENDBRANCH   5  20
TORSDOF 3
ENDMDL
MODEL 5
REMARK VINA RESULT: -7.240243570      3.131      8.542
REMARK  3 active torsions:
REMARK  status: ('A' for Active; 'I' for Inactive)
REMARK       I    between atoms: C1_2  and  N1_3 
REMARK    1  A    between atoms: C1_2  and  C8_11 
REMARK    2  A    between atoms: N1_3  and  C2_5 
REMARK    3  A    between atoms: C11_15  and  C12_16 
ROOT
HETATM    1  C8  UNL     1      35.537  86.364  -6.111  1.00  0.00     0.077 A 
HETATM    2  C9  UNL     1      34.440  85.553  -6.171  1.00  0.00     0.065 A 
HETATM    3  C10 UNL     1      34.263  84.687  -5.144  1.00  0.00     0.112 A 
HETATM    4  O2  UNL     1      33.386  83.753  -4.793  1.00  0.00    -0.294 OA
HETATM    5  C11 UNL     1      33.691  83.188  -3.666  1.00  0.00     0.129 A 
HETATM    6  N2  UNL     1      34.823  83.752  -3.220  1.00  0.00    -0.332 N 
ATOM      7  H2  UNL     1      35.317  83.526  -2.358  1.00  0.00     0.168 HD
HETATM    8  C16 UNL     1      35.186  84.694  -4.148  1.00  0.00     0.111 A 
HETATM    9  S1  UNL     1      36.281  85.902  -4.649  1.00  0.00    -0.064 SA
ENDROOT
BRANCH   1  10
HETATM   10  C1  UNL     1      35.957  87.391  -7.096  1.00  0.00     0.259 C 
HETATM   11  O1  UNL     1      36.318  87.050  -8.247  1.00  0.00    -0.267 OA
HETATM   12  N1  UNL     1      35.959  88.763  -6.757  1.00  0.00    -0.352 N 
ATOM     13  H1  UNL     1      35.671  89.069  -5.827  1.00  0.00     0.163 HD
BRANCH  12  14
HETATM   14  C2  UNL     1      36.377  89.724  -7.751  1.00  0.00     0.084 C 
HETATM   15  C3  UNL     1      35.126  90.424  -8.255  1.00  0.00     0.025 C 
HETATM   16  C4  UNL     1      35.491  91.729  -8.901  1.00  0.00     0.002 C 
HETATM   17  C5  UNL     1      36.902  91.730  -9.452  1.00  0.00     0.000 C 
HETATM   18  C6  UNL     1      37.925  91.499  -8.363  1.00  0.00     0.002 C 
HETATM   19  C7  UNL     1      37.285  90.785  -7.167  1.00  0.00     0.025 C 
ENDBRANCH  12  14
ENDBRANCH   1  10
BRANCH   5  20
HETATM   20  C12 UNL     1      32.905  82.092  -2.983  1.00  0.00     0.061 C 
HETATM   21  C13 UNL     1      32.041  81.373  -3.996  1.00  0.00     0.013 C 
HETATM   22  C14 UNL     1      32.452  80.068  -3.334  1.00  0.00     0.002 C 
HETATM   23  C15 UNL     1      33.673  80.814  -2.797  1.00  0.00     0.013 C 
ENDBRANCH   5  20
TORSDOF 3
ENDMDL
