MODEL 1
REMARK VINA RESULT: -7.147677886      0.000      0.000
REMARK  5 active torsions:
REMARK  status: ('A' for Active; 'I' for Inactive)
REMARK    1  A    between atoms: O1_2  and  C2_3 
REMARK    2  A    between atoms: C5_7  and  C6_8 
REMARK    3  A    between atoms: C6_8  and  N1_9 
REMARK    4  A    between atoms: N1_9  and  C7_11 
REMARK    5  A    between atoms: C17_21  and  O2_22 
ROOT
HETATM    1  N1  UNL     1      35.474  84.580  -4.843  1.00  0.00    -0.389 N 
ATOM      2  H1  UNL     1      36.384  84.488  -4.390  1.00  0.00     0.159 HD
ENDROOT
BRANCH   1   3
HETATM    3  C6  UNL     1      34.445  84.274  -4.162  1.00  0.00     0.099 C 
BRANCH   3   4
HETATM    4  C5  UNL     1      34.258  82.883  -3.698  1.00  0.00     0.028 A 
HETATM    5  C3  UNL     1      32.998  82.388  -3.503  1.00  0.00    -0.004 A 
HETATM    6  S1  UNL     1      33.269  80.791  -2.985  1.00  0.00    -0.067 SA
HETATM    7  C4  UNL     1      31.651  83.021  -3.680  1.00  0.00     0.057 C 
HETATM    8  C2  UNL     1      34.970  80.779  -3.022  1.00  0.00     0.144 A 
HETATM    9  C17 UNL     1      35.284  82.044  -3.446  1.00  0.00     0.119 A 
BRANCH   8  10
HETATM   10  O1  UNL     1      35.846  79.719  -2.695  1.00  0.00    -0.346 OA
HETATM   11  C1  UNL     1      35.952  79.467  -1.291  1.00  0.00     0.211 C 
ENDBRANCH   8  10
BRANCH   9  12
HETATM   12  O2  UNL     1      36.656  82.372  -3.588  1.00  0.00    -0.357 OA
ATOM     13  H2  UNL     1      36.873  83.206  -3.987  1.00  0.00     0.218 HD
ENDBRANCH   9  12
ENDBRANCH   3   4
ENDBRANCH   1   3
BRANCH   1  14
HETATM   14  C7  UNL     1      35.451  85.044  -6.201  1.00  0.00     0.030 C 
HETATM   15  C8  UNL     1      34.089  85.529  -6.654  1.00  0.00     0.035 C 
HETATM   16  C9  UNL     1      34.206  86.006  -8.084  1.00  0.00    -0.012 C 
HETATM   17  C10 UNL     1      34.683  84.956  -9.032  1.00  0.00     0.009 C 
HETATM   18  C14 UNL     1      35.168  87.176  -8.164  1.00  0.00     0.009 C 
HETATM   19  C11 UNL     1      36.029  84.469  -8.537  1.00  0.00    -0.012 C 
HETATM   20  C12 UNL     1      37.019  85.587  -8.534  1.00  0.00     0.009 C 
HETATM   21  C16 UNL     1      35.870  83.943  -7.151  1.00  0.00     0.035 C 
HETATM   22  C13 UNL     1      36.543  86.727  -7.677  1.00  0.00    -0.012 C 
HETATM   23  C15 UNL     1      36.383  86.235  -6.279  1.00  0.00     0.035 C 
ENDBRANCH   1  14
TORSDOF 5
ENDMDL
MODEL 2
REMARK VINA RESULT: -7.098167616      0.749      1.810
REMARK  5 active torsions:
REMARK  status: ('A' for Active; 'I' for Inactive)
REMARK    1  A    between atoms: O1_2  and  C2_3 
REMARK    2  A    between atoms: C5_7  and  C6_8 
REMARK    3  A    between atoms: C6_8  and  N1_9 
REMARK    4  A    between atoms: N1_9  and  C7_11 
REMARK    5  A    between atoms: C17_21  and  O2_22 
ROOT
HETATM    1  N1  UNL     1      35.027  84.179  -4.554  1.00  0.00    -0.389 N 
ATOM      2  H1  UNL     1      35.832  84.134  -3.927  1.00  0.00     0.159 HD
ENDROOT
BRANCH   1   3
HETATM    3  C6  UNL     1      33.952  83.620  -4.170  1.00  0.00     0.099 C 
BRANCH   3   4
HETATM    4  C5  UNL     1      33.987  82.231  -3.662  1.00  0.00     0.028 A 
HETATM    5  C3  UNL     1      32.864  81.453  -3.716  1.00  0.00    -0.004 A 
HETATM    6  S1  UNL     1      33.366  79.975  -3.039  1.00  0.00    -0.067 SA
HETATM    7  C4  UNL     1      31.486  81.742  -4.229  1.00  0.00     0.057 C 
HETATM    8  C2  UNL     1      34.986  80.370  -2.698  1.00  0.00     0.144 A 
HETATM    9  C17 UNL     1      35.091  81.666  -3.131  1.00  0.00     0.119 A 
BRANCH   8  10
HETATM   10  O1  UNL     1      35.982  79.557  -2.112  1.00  0.00    -0.346 OA
HETATM   11  C1  UNL     1      36.186  79.804  -0.718  1.00  0.00     0.211 C 
ENDBRANCH   8  10
BRANCH   9  12
HETATM   12  O2  UNL     1      36.346  82.312  -2.990  1.00  0.00    -0.357 OA
ATOM     13  H2  UNL     1      36.511  83.081  -3.522  1.00  0.00     0.218 HD
ENDBRANCH   9  12
ENDBRANCH   3   4
ENDBRANCH   1   3
BRANCH   1  14
HETATM   14  C7  UNL     1      35.194  84.868  -5.801  1.00  0.00     0.030 C 
HETATM   15  C8  UNL     1      35.826  84.018  -6.885  1.00  0.00     0.035 C 
HETATM   16  C9  UNL     1      35.926  84.849  -8.143  1.00  0.00    -0.012 C 
HETATM   17  C10 UNL     1      36.731  86.096  -7.980  1.00  0.00     0.009 C 
HETATM   18  C14 UNL     1      34.540  85.249  -8.613  1.00  0.00     0.009 C 
HETATM   19  C11 UNL     1      36.096  86.909  -6.872  1.00  0.00    -0.012 C 
HETATM   20  C12 UNL     1      34.701  87.293  -7.241  1.00  0.00     0.009 C 
HETATM   21  C16 UNL     1      36.072  86.088  -5.626  1.00  0.00     0.035 C 
HETATM   22  C13 UNL     1      33.863  86.078  -7.525  1.00  0.00    -0.012 C 
HETATM   23  C15 UNL     1      33.811  85.239  -6.294  1.00  0.00     0.035 C 
ENDBRANCH   1  14
TORSDOF 5
ENDMDL
MODEL 3
REMARK VINA RESULT: -7.066857000      0.714      1.690
REMARK  5 active torsions:
REMARK  status: ('A' for Active; 'I' for Inactive)
REMARK    1  A    between atoms: O1_2  and  C2_3 
REMARK    2  A    between atoms: C5_7  and  C6_8 
REMARK    3  A    between atoms: C6_8  and  N1_9 
REMARK    4  A    between atoms: N1_9  and  C7_11 
REMARK    5  A    between atoms: C17_21  and  O2_22 
ROOT
HETATM    1  N1  UNL     1      35.165  84.084  -4.742  1.00  0.00    -0.389 N 
ATOM      2  H1  UNL     1      36.039  83.852  -4.269  1.00  0.00     0.159 HD
ENDROOT
BRANCH   1   3
HETATM    3  C6  UNL     1      34.092  83.590  -4.271  1.00  0.00     0.099 C 
BRANCH   3   4
HETATM    4  C5  UNL     1      34.101  82.229  -3.693  1.00  0.00     0.028 A 
HETATM    5  C3  UNL     1      32.963  81.471  -3.704  1.00  0.00    -0.004 A 
HETATM    6  S1  UNL     1      33.439  80.020  -2.955  1.00  0.00    -0.067 SA
HETATM    7  C4  UNL     1      31.589  81.762  -4.227  1.00  0.00     0.057 C 
HETATM    8  C2  UNL     1      35.068  80.398  -2.641  1.00  0.00     0.144 A 
HETATM    9  C17 UNL     1      35.196  81.669  -3.139  1.00  0.00     0.119 A 
BRANCH   8  10
HETATM   10  O1  UNL     1      36.050  79.596  -2.018  1.00  0.00    -0.346 OA
HETATM   11  C1  UNL     1      36.200  79.846  -0.617  1.00  0.00     0.211 C 
ENDBRANCH   8  10
BRANCH   9  12
HETATM   12  O2  UNL     1      36.464  82.295  -3.035  1.00  0.00    -0.357 OA
ATOM     13  H2  UNL     1      36.824  82.700  -3.815  1.00  0.00     0.218 HD
ENDBRANCH   9  12
ENDBRANCH   3   4
ENDBRANCH   1   3
BRANCH   1  14
HETATM   14  C7  UNL     1      35.239  84.942  -5.890  1.00  0.00     0.030 C 
HETATM   15  C8  UNL     1      36.050  86.200  -5.656  1.00  0.00     0.035 C 
HETATM   16  C9  UNL     1      36.066  87.000  -6.938  1.00  0.00    -0.012 C 
HETATM   17  C10 UNL     1      34.709  87.388  -7.423  1.00  0.00     0.009 C 
HETATM   18  C14 UNL     1      36.744  86.206  -8.038  1.00  0.00     0.009 C 
HETATM   19  C11 UNL     1      33.912  86.115  -7.618  1.00  0.00    -0.012 C 
HETATM   20  C12 UNL     1      34.554  85.250  -8.653  1.00  0.00     0.009 C 
HETATM   21  C16 UNL     1      33.856  85.380  -6.321  1.00  0.00     0.035 C 
HETATM   22  C13 UNL     1      35.969  84.912  -8.271  1.00  0.00    -0.012 C 
HETATM   23  C15 UNL     1      35.947  84.167  -6.980  1.00  0.00     0.035 C 
ENDBRANCH   1  14
TORSDOF 5
ENDMDL
MODEL 4
REMARK VINA RESULT: -6.960248070      2.962      4.153
REMARK  5 active torsions:
REMARK  status: ('A' for Active; 'I' for Inactive)
REMARK    1  A    between atoms: O1_2  and  C2_3 
REMARK    2  A    between atoms: C5_7  and  C6_8 
REMARK    3  A    between atoms: C6_8  and  N1_9 
REMARK    4  A    between atoms: N1_9  and  C7_11 
REMARK    5  A    between atoms: C17_21  and  O2_22 
ROOT
HETATM    1  N1  UNL     1      31.509  82.464  -4.890  1.00  0.00    -0.389 N 
ATOM      2  H1  UNL     1      31.113  81.557  -4.641  1.00  0.00     0.159 HD
ENDROOT
BRANCH   1   3
HETATM    3  C6  UNL     1      32.241  83.043  -4.027  1.00  0.00     0.099 C 
BRANCH   3   4
HETATM    4  C5  UNL     1      33.623  82.567  -3.797  1.00  0.00     0.028 A 
HETATM    5  C3  UNL     1      34.685  83.373  -4.098  1.00  0.00    -0.004 A 
HETATM    6  S1  UNL     1      36.037  82.432  -3.675  1.00  0.00    -0.067 SA
HETATM    7  C4  UNL     1      34.743  84.760  -4.662  1.00  0.00     0.057 C 
HETATM    8  C2  UNL     1      35.234  81.035  -3.127  1.00  0.00     0.144 A 
HETATM    9  C17 UNL     1      33.910  81.350  -3.291  1.00  0.00     0.119 A 
BRANCH   8  10
HETATM   10  O1  UNL     1      35.796  79.841  -2.623  1.00  0.00    -0.346 OA
HETATM   11  C1  UNL     1      36.015  79.855  -1.209  1.00  0.00     0.211 C 
ENDBRANCH   8  10
BRANCH   9  12
HETATM   12  O2  UNL     1      32.948  80.377  -2.920  1.00  0.00    -0.357 OA
ATOM     13  H2  UNL     1      32.845  80.186  -1.995  1.00  0.00     0.218 HD
ENDBRANCH   9  12
ENDBRANCH   3   4
ENDBRANCH   1   3
BRANCH   1  14
HETATM   14  C7  UNL     1      31.198  82.990  -6.189  1.00  0.00     0.030 C 
HETATM   15  C8  UNL     1      31.041  84.497  -6.212  1.00  0.00     0.035 C 
HETATM   16  C9  UNL     1      30.737  84.921  -7.630  1.00  0.00    -0.012 C 
HETATM   17  C10 UNL     1      29.502  84.300  -8.194  1.00  0.00     0.009 C 
HETATM   18  C14 UNL     1      31.896  84.560  -8.540  1.00  0.00     0.009 C 
HETATM   19  C11 UNL     1      29.675  82.797  -8.130  1.00  0.00    -0.012 C 
HETATM   20  C12 UNL     1      30.840  82.370  -8.961  1.00  0.00     0.009 C 
HETATM   21  C16 UNL     1      29.906  82.400  -6.710  1.00  0.00     0.035 C 
HETATM   22  C13 UNL     1      32.104  83.048  -8.509  1.00  0.00    -0.012 C 
HETATM   23  C15 UNL     1      32.368  82.663  -7.093  1.00  0.00     0.035 C 
ENDBRANCH   1  14
TORSDOF 5
ENDMDL
MODEL 5
REMARK VINA RESULT: -6.953456690      2.935      4.391
REMARK  5 active torsions:
REMARK  status: ('A' for Active; 'I' for Inactive)
REMARK    1  A    between atoms: O1_2  and  C2_3 
REMARK    2  A    between atoms: C5_7  and  C6_8 
REMARK    3  A    between atoms: C6_8  and  N1_9 
REMARK    4  A    between atoms: N1_9  and  C7_11 
REMARK    5  A    between atoms: C17_21  and  O2_22 
ROOT
HETATM    1  N1  UNL     1      31.442  82.670  -4.687  1.00  0.00    -0.389 N 
ATOM      2  H1  UNL     1      30.868  81.909  -4.324  1.00  0.00     0.159 HD
ENDROOT
BRANCH   1   3
HETATM    3  C6  UNL     1      32.259  83.224  -3.886  1.00  0.00     0.099 C 
BRANCH   3   4
HETATM    4  C5  UNL     1      33.618  82.664  -3.717  1.00  0.00     0.028 A 
HETATM    5  C3  UNL     1      34.714  83.418  -4.030  1.00  0.00    -0.004 A 
HETATM    6  S1  UNL     1      36.023  82.389  -3.683  1.00  0.00    -0.067 SA
HETATM    7  C4  UNL     1      34.833  84.817  -4.553  1.00  0.00     0.057 C 
HETATM    8  C2  UNL     1      35.159  81.023  -3.150  1.00  0.00     0.144 A 
HETATM    9  C17 UNL     1      33.851  81.417  -3.259  1.00  0.00     0.119 A 
BRANCH   8  10
HETATM   10  O1  UNL     1      35.668  79.783  -2.702  1.00  0.00    -0.346 OA
HETATM   11  C1  UNL     1      36.043  79.775  -1.321  1.00  0.00     0.211 C 
ENDBRANCH   8  10
BRANCH   9  12
HETATM   12  O2  UNL     1      32.847  80.488  -2.885  1.00  0.00    -0.357 OA
ATOM     13  H2  UNL     1      32.000  80.556  -3.309  1.00  0.00     0.218 HD
ENDBRANCH   9  12
ENDBRANCH   3   4
ENDBRANCH   1   3
BRANCH   1  14
HETATM   14  C7  UNL     1      31.267  83.037  -6.064  1.00  0.00     0.030 C 
HETATM   15  C8  UNL     1      32.441  82.663  -6.946  1.00  0.00     0.035 C 
HETATM   16  C9  UNL     1      32.123  83.082  -8.363  1.00  0.00    -0.012 C 
HETATM   17  C10 UNL     1      31.854  84.543  -8.513  1.00  0.00     0.009 C 
HETATM   18  C14 UNL     1      30.904  82.332  -8.865  1.00  0.00     0.009 C 
HETATM   19  C11 UNL     1      30.700  84.893  -7.599  1.00  0.00    -0.012 C 
HETATM   20  C12 UNL     1      29.471  84.143  -7.999  1.00  0.00     0.009 C 
HETATM   21  C16 UNL     1      31.068  84.531  -6.199  1.00  0.00     0.035 C 
HETATM   22  C13 UNL     1      29.711  82.659  -7.972  1.00  0.00    -0.012 C 
HETATM   23  C15 UNL     1      30.073  82.263  -6.581  1.00  0.00     0.035 C 
ENDBRANCH   1  14
TORSDOF 5
ENDMDL
