MODEL 1
REMARK VINA RESULT: -6.601070839      0.000      0.000
REMARK  3 active torsions:
REMARK  status: ('A' for Active; 'I' for Inactive)
REMARK    1  A    between atoms: C4_4  and  S1_5 
REMARK    2  A    between atoms: S1_5  and  C5_6 
REMARK    3  A    between atoms: C5_6  and  C6_7 
ROOT
HETATM    1  C1  UNL     1      31.553  82.560  -4.830  1.00  0.00     0.018 C 
HETATM    2  C2  UNL     1      32.600  82.284  -4.294  1.00  0.00    -0.074 C 
HETATM    3  C3  UNL     1      33.852  81.961  -3.682  1.00  0.00     0.064 A 
HETATM    4  C4  UNL     1      34.914  82.863  -3.676  1.00  0.00     0.090 A 
HETATM    5  N2  UNL     1      35.925  82.287  -3.047  1.00  0.00    -0.343 N 
ATOM      6  H2  UNL     1      36.842  82.704  -2.883  1.00  0.00     0.167 HD
HETATM    7  C10 UNL     1      35.530  81.041  -2.654  1.00  0.00     0.087 A 
HETATM    8  S3  UNL     1      35.998  79.610  -1.856  1.00  0.00    -0.083 SA
HETATM    9  C11 UNL     1      34.554  78.717  -2.009  1.00  0.00     0.059 A 
HETATM   10  C12 UNL     1      33.736  79.577  -2.688  1.00  0.00    -0.041 A 
HETATM   11  C13 UNL     1      32.325  79.119  -3.014  1.00  0.00     0.049 C 
HETATM   12  C14 UNL     1      34.242  80.780  -3.023  1.00  0.00     0.026 A 
ENDROOT
BRANCH   4  13
HETATM   13  S1  UNL     1      34.961  84.512  -4.376  1.00  0.00    -0.105 SA
BRANCH  13  14
HETATM   14  C5  UNL     1      35.544  84.505  -6.073  1.00  0.00     0.138 C 
BRANCH  14  15
HETATM   15  C6  UNL     1      34.404  84.083  -6.983  1.00  0.00     0.026 A 
HETATM   16  C7  UNL     1      34.512  82.952  -7.752  1.00  0.00     0.077 A 
HETATM   17  S2  UNL     1      33.001  82.942  -8.554  1.00  0.00    -0.087 SA
HETATM   18  C8  UNL     1      32.337  84.359  -7.869  1.00  0.00     0.047 A 
HETATM   19  C9  UNL     1      30.991  85.009  -8.105  1.00  0.00     0.076 C 
HETATM   20  N1  UNL     1      33.306  84.762  -7.065  1.00  0.00    -0.356 N 
ATOM     21  H1  UNL     1      33.187  85.609  -6.509  1.00  0.00     0.166 HD
ENDBRANCH  14  15
ENDBRANCH  13  14
ENDBRANCH   4  13
TORSDOF 3
ENDMDL
MODEL 2
REMARK VINA RESULT: -6.591348536      1.798      6.018
REMARK  3 active torsions:
REMARK  status: ('A' for Active; 'I' for Inactive)
REMARK    1  A    between atoms: C4_4  and  S1_5 
REMARK    2  A    between atoms: S1_5  and  C5_6 
REMARK    3  A    between atoms: C5_6  and  C6_7 
ROOT
HETATM    1  C1  UNL     1      30.657  82.656  -3.363  1.00  0.00     0.018 C 
HETATM    2  C2  UNL     1      31.279  82.761  -4.393  1.00  0.00    -0.074 C 
HETATM    3  C3  UNL     1      32.020  82.910  -5.608  1.00  0.00     0.064 A 
HETATM    4  C4  UNL     1      33.363  83.284  -5.600  1.00  0.00     0.090 A 
HETATM    5  N2  UNL     1      33.770  83.341  -6.857  1.00  0.00    -0.343 N 
ATOM      6  H2  UNL     1      34.709  83.587  -7.171  1.00  0.00     0.167 HD
HETATM    7  C10 UNL     1      32.718  83.012  -7.662  1.00  0.00     0.087 A 
HETATM    8  S3  UNL     1      32.200  82.796  -9.271  1.00  0.00    -0.083 SA
HETATM    9  C11 UNL     1      30.577  82.358  -8.988  1.00  0.00     0.059 A 
HETATM   10  C12 UNL     1      30.487  82.393  -7.624  1.00  0.00    -0.041 A 
HETATM   11  C13 UNL     1      29.154  82.047  -6.983  1.00  0.00     0.049 C 
HETATM   12  C14 UNL     1      31.595  82.732  -6.938  1.00  0.00     0.026 A 
ENDROOT
BRANCH   4  13
HETATM   13  S1  UNL     1      34.399  83.637  -4.181  1.00  0.00    -0.105 SA
BRANCH  13  14
HETATM   14  C5  UNL     1      35.821  82.545  -4.099  1.00  0.00     0.138 C 
BRANCH  14  15
HETATM   15  C6  UNL     1      35.481  81.360  -3.214  1.00  0.00     0.026 A 
HETATM   16  C7  UNL     1      34.462  80.507  -3.557  1.00  0.00     0.077 A 
HETATM   17  S2  UNL     1      34.505  79.389  -2.264  1.00  0.00    -0.087 SA
HETATM   18  C8  UNL     1      35.800  80.068  -1.380  1.00  0.00     0.047 A 
HETATM   19  C9  UNL     1      36.429  79.614  -0.080  1.00  0.00     0.076 C 
HETATM   20  N1  UNL     1      36.128  81.112  -2.121  1.00  0.00    -0.356 N 
ATOM     21  H1  UNL     1      36.892  81.723  -1.832  1.00  0.00     0.166 HD
ENDBRANCH  14  15
ENDBRANCH  13  14
ENDBRANCH   4  13
TORSDOF 3
ENDMDL
MODEL 3
REMARK VINA RESULT: -6.545906274      2.039      2.765
REMARK  3 active torsions:
REMARK  status: ('A' for Active; 'I' for Inactive)
REMARK    1  A    between atoms: C4_4  and  S1_5 
REMARK    2  A    between atoms: S1_5  and  C5_6 
REMARK    3  A    between atoms: C5_6  and  C6_7 
ROOT
HETATM    1  C1  UNL     1      31.792  82.489  -5.033  1.00  0.00     0.018 C 
HETATM    2  C2  UNL     1      32.810  82.201  -4.450  1.00  0.00    -0.074 C 
HETATM    3  C3  UNL     1      34.028  81.861  -3.781  1.00  0.00     0.064 A 
HETATM    4  C4  UNL     1      35.132  82.712  -3.802  1.00  0.00     0.090 A 
HETATM    5  N2  UNL     1      36.097  82.134  -3.107  1.00  0.00    -0.343 N 
ATOM      6  H2  UNL     1      37.028  82.518  -2.943  1.00  0.00     0.167 HD
HETATM    7  C10 UNL     1      35.632  80.936  -2.646  1.00  0.00     0.087 A 
HETATM    8  S3  UNL     1      36.011  79.540  -1.744  1.00  0.00    -0.083 SA
HETATM    9  C11 UNL     1      34.531  78.706  -1.883  1.00  0.00     0.059 A 
HETATM   10  C12 UNL     1      33.772  79.556  -2.640  1.00  0.00    -0.041 A 
HETATM   11  C13 UNL     1      32.351  79.143  -2.977  1.00  0.00     0.049 C 
HETATM   12  C14 UNL     1      34.343  80.710  -3.036  1.00  0.00     0.026 A 
ENDROOT
BRANCH   4  13
HETATM   13  S1  UNL     1      35.276  84.308  -4.605  1.00  0.00    -0.105 SA
BRANCH  13  14
HETATM   14  C5  UNL     1      35.553  84.149  -6.371  1.00  0.00     0.138 C 
BRANCH  14  15
HETATM   15  C6  UNL     1      35.862  85.519  -6.945  1.00  0.00     0.026 A 
HETATM   16  C7  UNL     1      35.465  86.655  -6.285  1.00  0.00     0.077 A 
HETATM   17  S2  UNL     1      36.047  87.877  -7.329  1.00  0.00    -0.087 SA
HETATM   18  C8  UNL     1      36.751  86.880  -8.525  1.00  0.00     0.047 A 
HETATM   19  C9  UNL     1      37.476  87.259  -9.798  1.00  0.00     0.076 C 
HETATM   20  N1  UNL     1      36.501  85.668  -8.060  1.00  0.00    -0.356 N 
ATOM     21  H1  UNL     1      36.814  84.849  -8.582  1.00  0.00     0.166 HD
ENDBRANCH  14  15
ENDBRANCH  13  14
ENDBRANCH   4  13
TORSDOF 3
ENDMDL
MODEL 4
REMARK VINA RESULT: -6.525668198      2.037      2.464
REMARK  3 active torsions:
REMARK  status: ('A' for Active; 'I' for Inactive)
REMARK    1  A    between atoms: C4_4  and  S1_5 
REMARK    2  A    between atoms: S1_5  and  C5_6 
REMARK    3  A    between atoms: C5_6  and  C6_7 
ROOT
HETATM    1  C1  UNL     1      31.765  82.439  -5.147  1.00  0.00     0.018 C 
HETATM    2  C2  UNL     1      32.784  82.201  -4.543  1.00  0.00    -0.074 C 
HETATM    3  C3  UNL     1      34.004  81.920  -3.850  1.00  0.00     0.064 A 
HETATM    4  C4  UNL     1      35.073  82.814  -3.868  1.00  0.00     0.090 A 
HETATM    5  N2  UNL     1      36.049  82.285  -3.149  1.00  0.00    -0.343 N 
ATOM      6  H2  UNL     1      36.961  82.708  -2.977  1.00  0.00     0.167 HD
HETATM    7  C10 UNL     1      35.625  81.077  -2.676  1.00  0.00     0.087 A 
HETATM    8  S3  UNL     1      36.043  79.712  -1.745  1.00  0.00    -0.083 SA
HETATM    9  C11 UNL     1      34.599  78.817  -1.893  1.00  0.00     0.059 A 
HETATM   10  C12 UNL     1      33.821  79.624  -2.675  1.00  0.00    -0.041 A 
HETATM   11  C13 UNL     1      32.422  79.151  -3.028  1.00  0.00     0.049 C 
HETATM   12  C14 UNL     1      34.352  80.794  -3.081  1.00  0.00     0.026 A 
ENDROOT
BRANCH   4  13
HETATM   13  S1  UNL     1      35.167  84.401  -4.695  1.00  0.00    -0.105 SA
BRANCH  13  14
HETATM   14  C5  UNL     1      35.288  84.224  -6.476  1.00  0.00     0.138 C 
BRANCH  14  15
HETATM   15  C6  UNL     1      35.723  85.551  -7.073  1.00  0.00     0.026 A 
HETATM   16  C7  UNL     1      36.732  85.597  -8.002  1.00  0.00     0.077 A 
HETATM   17  S2  UNL     1      36.813  87.273  -8.331  1.00  0.00    -0.087 SA
HETATM   18  C8  UNL     1      35.575  87.803  -7.281  1.00  0.00     0.047 A 
HETATM   19  C9  UNL     1      35.058  89.201  -7.020  1.00  0.00     0.076 C 
HETATM   20  N1  UNL     1      35.167  86.670  -6.736  1.00  0.00    -0.356 N 
ATOM     21  H1  UNL     1      34.413  86.677  -6.048  1.00  0.00     0.166 HD
ENDBRANCH  14  15
ENDBRANCH  13  14
ENDBRANCH   4  13
TORSDOF 3
ENDMDL
MODEL 5
REMARK VINA RESULT: -6.414283492      2.367      2.968
REMARK  3 active torsions:
REMARK  status: ('A' for Active; 'I' for Inactive)
REMARK    1  A    between atoms: C4_4  and  S1_5 
REMARK    2  A    between atoms: S1_5  and  C5_6 
REMARK    3  A    between atoms: C5_6  and  C6_7 
ROOT
HETATM    1  C1  UNL     1      31.877  82.743  -5.446  1.00  0.00     0.018 C 
HETATM    2  C2  UNL     1      32.882  82.416  -4.861  1.00  0.00    -0.074 C 
HETATM    3  C3  UNL     1      34.085  82.026  -4.191  1.00  0.00     0.064 A 
HETATM    4  C4  UNL     1      35.267  82.749  -4.338  1.00  0.00     0.090 A 
HETATM    5  N2  UNL     1      36.194  82.152  -3.608  1.00  0.00    -0.343 N 
ATOM      6  H2  UNL     1      37.165  82.452  -3.515  1.00  0.00     0.167 HD
HETATM    7  C10 UNL     1      35.629  81.068  -3.002  1.00  0.00     0.087 A 
HETATM    8  S3  UNL     1      35.898  79.748  -1.958  1.00  0.00    -0.083 SA
HETATM    9  C11 UNL     1      34.337  79.064  -1.961  1.00  0.00     0.059 A 
HETATM   10  C12 UNL     1      33.640  79.900  -2.789  1.00  0.00    -0.041 A 
HETATM   11  C13 UNL     1      32.172  79.605  -3.038  1.00  0.00     0.049 C 
HETATM   12  C14 UNL     1      34.310  80.937  -3.329  1.00  0.00     0.026 A 
ENDROOT
BRANCH   4  13
HETATM   13  S1  UNL     1      35.541  84.222  -5.321  1.00  0.00    -0.105 SA
BRANCH  13  14
HETATM   14  C5  UNL     1      35.410  83.891  -7.080  1.00  0.00     0.138 C 
BRANCH  14  15
HETATM   15  C6  UNL     1      36.247  84.906  -7.835  1.00  0.00     0.026 A 
HETATM   16  C7  UNL     1      36.459  86.158  -7.313  1.00  0.00     0.077 A 
HETATM   17  S2  UNL     1      37.434  86.870  -8.524  1.00  0.00    -0.087 SA
HETATM   18  C8  UNL     1      37.510  85.549  -9.604  1.00  0.00     0.047 A 
HETATM   19  C9  UNL     1      38.214  85.428 -10.938  1.00  0.00     0.076 C 
HETATM   20  N1  UNL     1      36.786  84.636  -8.980  1.00  0.00    -0.356 N 
ATOM     21  H1  UNL     1      36.652  83.717  -9.402  1.00  0.00     0.166 HD
ENDBRANCH  14  15
ENDBRANCH  13  14
ENDBRANCH   4  13
TORSDOF 3
ENDMDL
