MODEL 1
REMARK VINA RESULT: -8.240263785      0.000      0.000
REMARK  2 active torsions:
REMARK  status: ('A' for Active; 'I' for Inactive)
REMARK    1  A    between atoms: C1_2  and  C2_4 
REMARK    2  A    between atoms: C4_6  and  C5_7 
ROOT
HETATM    1  C5  UNL     1     -24.562 101.021   2.088  1.00  0.00     0.045 C 
HETATM    2  N2  UNL     1     -25.300 100.264   1.375  1.00  0.00    -0.289 N 
ATOM      3  H2  UNL     1     -26.209 100.013   1.765  1.00  0.00     0.188 HD
HETATM    4  N3  UNL     1     -24.991  99.743   0.115  1.00  0.00    -0.247 N 
ATOM      5  H3  UNL     1     -25.782  99.606  -0.514  1.00  0.00     0.208 HD
HETATM    6  N4  UNL     1     -23.837  99.412  -0.357  1.00  0.00    -0.321 N 
ATOM      7  H4  UNL     1     -23.768  99.042  -1.304  1.00  0.00     0.181 HD
HETATM    8  C6  UNL     1     -22.616  99.561   0.454  1.00  0.00     0.150 C 
HETATM    9  C7  UNL     1     -22.427 101.014   0.755  1.00  0.00    -0.018 C 
HETATM   10  C8  UNL     1     -22.690 101.853  -0.482  1.00  0.00     0.011 C 
HETATM   11  C9  UNL     1     -21.436 102.487  -1.024  1.00  0.00     0.001 C 
HETATM   12  C10 UNL     1     -20.712 103.306   0.015  1.00  0.00     0.000 C 
HETATM   13  C11 UNL     1     -20.701 102.628   1.366  1.00  0.00     0.001 C 
HETATM   14  C12 UNL     1     -20.952 101.166   1.155  1.00  0.00     0.011 C 
HETATM   15  C13 UNL     1     -23.240 101.571   1.860  1.00  0.00     0.071 C 
ENDROOT
BRANCH   1  16
HETATM   16  C4  UNL     1     -25.135 101.427   3.385  1.00  0.00     0.031 A 
HETATM   17  C3  UNL     1     -26.305 102.090   3.621  1.00  0.00     0.037 A 
HETATM   18  C2  UNL     1     -26.621 102.351   4.896  1.00  0.00     0.029 A 
HETATM   19  C14 UNL     1     -25.744 101.931   5.860  1.00  0.00     0.088 A 
HETATM   20  S2  UNL     1     -24.507 101.184   4.948  1.00  0.00    -0.075 SA
HETATM   21 CL1  UNL     1     -25.883 102.126   7.616  1.00  0.00    -0.075 Cl
BRANCH  18  22
HETATM   22  C1  UNL     1     -27.863 103.067   5.312  1.00  0.00     0.125 C 
HETATM   23  N1  UNL     1     -28.960 102.373   5.890  1.00  0.00    -0.089 NA
HETATM   24  S1  UNL     1     -27.999 104.680   5.116  1.00  0.00    -0.063 SA
ENDBRANCH  18  22
ENDBRANCH   1  16
TORSDOF 2
ENDMDL
MODEL 2
REMARK VINA RESULT: -8.121868115      1.466      1.787
REMARK  2 active torsions:
REMARK  status: ('A' for Active; 'I' for Inactive)
REMARK    1  A    between atoms: C1_2  and  C2_4 
REMARK    2  A    between atoms: C4_6  and  C5_7 
ROOT
HETATM    1  C5  UNL     1     -24.715 101.255   1.563  1.00  0.00     0.045 C 
HETATM    2  N2  UNL     1     -25.267 100.329   0.882  1.00  0.00    -0.289 N 
ATOM      3  H2  UNL     1     -26.231 100.096   1.124  1.00  0.00     0.188 HD
HETATM    4  N3  UNL     1     -24.688  99.602  -0.162  1.00  0.00    -0.247 N 
ATOM      5  H3  UNL     1     -25.326  99.296  -0.897  1.00  0.00     0.208 HD
HETATM    6  N4  UNL     1     -23.452  99.267  -0.318  1.00  0.00    -0.321 N 
ATOM      7  H4  UNL     1     -23.177  98.731  -1.140  1.00  0.00     0.181 HD
HETATM    8  C6  UNL     1     -22.433  99.648   0.674  1.00  0.00     0.150 C 
HETATM    9  C7  UNL     1     -22.350 101.141   0.711  1.00  0.00    -0.018 C 
HETATM   10  C8  UNL     1     -22.371 101.712  -0.695  1.00  0.00     0.011 C 
HETATM   11  C9  UNL     1     -21.049 102.315  -1.090  1.00  0.00     0.001 C 
HETATM   12  C10 UNL     1     -20.581 103.363  -0.111  1.00  0.00     0.000 C 
HETATM   13  C11 UNL     1     -20.834 102.954   1.322  1.00  0.00     0.001 C 
HETATM   14  C12 UNL     1     -20.995 101.466   1.360  1.00  0.00     0.011 C 
HETATM   15  C13 UNL     1     -23.390 101.841   1.500  1.00  0.00     0.071 C 
ENDROOT
BRANCH   1  16
HETATM   16  C4  UNL     1     -25.558 101.859   2.613  1.00  0.00     0.031 A 
HETATM   17  C3  UNL     1     -25.648 101.509   3.929  1.00  0.00     0.037 A 
HETATM   18  C2  UNL     1     -26.491 102.210   4.699  1.00  0.00     0.029 A 
HETATM   19  C14 UNL     1     -27.195 103.221   4.102  1.00  0.00     0.088 A 
HETATM   20  S2  UNL     1     -26.652 103.157   2.483  1.00  0.00    -0.075 SA
HETATM   21 CL1  UNL     1     -28.373 104.314   4.848  1.00  0.00    -0.075 Cl
BRANCH  18  22
HETATM   22  C1  UNL     1     -26.699 101.946   6.153  1.00  0.00     0.125 C 
HETATM   23  N1  UNL     1     -27.972 101.577   6.665  1.00  0.00    -0.089 NA
HETATM   24  S1  UNL     1     -25.462 102.075   7.208  1.00  0.00    -0.063 SA
ENDBRANCH  18  22
ENDBRANCH   1  16
TORSDOF 2
ENDMDL
MODEL 3
REMARK VINA RESULT: -7.812515955      3.356      6.931
REMARK  2 active torsions:
REMARK  status: ('A' for Active; 'I' for Inactive)
REMARK    1  A    between atoms: C1_2  and  C2_4 
REMARK    2  A    between atoms: C4_6  and  C5_7 
ROOT
HETATM    1  C5  UNL     1     -26.009 102.295   2.386  1.00  0.00     0.045 C 
HETATM    2  N2  UNL     1     -26.852 102.976   1.714  1.00  0.00    -0.289 N 
ATOM      3  H2  UNL     1     -26.799 102.895   0.698  1.00  0.00     0.188 HD
HETATM    4  N3  UNL     1     -27.839 103.823   2.226  1.00  0.00    -0.247 N 
ATOM      5  H3  UNL     1     -28.696 103.889   1.677  1.00  0.00     0.208 HD
HETATM    6  N4  UNL     1     -27.809 104.532   3.304  1.00  0.00    -0.321 N 
ATOM      7  H4  UNL     1     -28.614 105.107   3.550  1.00  0.00     0.181 HD
HETATM    8  C6  UNL     1     -26.627 104.524   4.183  1.00  0.00     0.150 C 
HETATM    9  C7  UNL     1     -26.449 103.138   4.715  1.00  0.00    -0.018 C 
HETATM   10  C8  UNL     1     -27.783 102.554   5.140  1.00  0.00     0.011 C 
HETATM   11  C9  UNL     1     -27.892 102.396   6.634  1.00  0.00     0.001 C 
HETATM   12  C10 UNL     1     -26.762 101.580   7.209  1.00  0.00     0.000 C 
HETATM   13  C11 UNL     1     -25.433 101.924   6.574  1.00  0.00     0.001 C 
HETATM   14  C12 UNL     1     -25.551 103.283   5.955  1.00  0.00     0.011 C 
HETATM   15  C13 UNL     1     -25.794 102.163   3.814  1.00  0.00     0.071 C 
ENDROOT
BRANCH   1  16
HETATM   16  C4  UNL     1     -25.072 101.481   1.589  1.00  0.00     0.031 A 
HETATM   17  C3  UNL     1     -23.750 101.714   1.342  1.00  0.00     0.037 A 
HETATM   18  C2  UNL     1     -23.097 100.824   0.582  1.00  0.00     0.029 A 
HETATM   19  C14 UNL     1     -23.810  99.753   0.114  1.00  0.00     0.088 A 
HETATM   20  S2  UNL     1     -25.370 100.028   0.754  1.00  0.00    -0.075 SA
HETATM   21 CL1  UNL     1     -23.231  98.423  -0.904  1.00  0.00    -0.075 Cl
BRANCH  18  22
HETATM   22  C1  UNL     1     -21.652 100.942   0.226  1.00  0.00     0.125 C 
HETATM   23  N1  UNL     1     -20.700  99.983   0.665  1.00  0.00    -0.089 NA
HETATM   24  S1  UNL     1     -21.118 102.183  -0.688  1.00  0.00    -0.063 SA
ENDBRANCH  18  22
ENDBRANCH   1  16
TORSDOF 2
ENDMDL
MODEL 4
REMARK VINA RESULT: -7.787730530      1.297      1.310
REMARK  2 active torsions:
REMARK  status: ('A' for Active; 'I' for Inactive)
REMARK    1  A    between atoms: C1_2  and  C2_4 
REMARK    2  A    between atoms: C4_6  and  C5_7 
ROOT
HETATM    1  C5  UNL     1     -24.703 101.352   1.987  1.00  0.00     0.045 C 
HETATM    2  N2  UNL     1     -25.409 100.504   1.348  1.00  0.00    -0.289 N 
ATOM      3  H2  UNL     1     -26.346 100.325   1.708  1.00  0.00     0.188 HD
HETATM    4  N3  UNL     1     -25.029  99.794   0.205  1.00  0.00    -0.247 N 
ATOM      5  H3  UNL     1     -25.780  99.572  -0.449  1.00  0.00     0.208 HD
HETATM    6  N4  UNL     1     -23.853  99.384  -0.132  1.00  0.00    -0.321 N 
ATOM      7  H4  UNL     1     -23.730  98.874  -1.006  1.00  0.00     0.181 HD
HETATM    8  C6  UNL     1     -22.686  99.641   0.729  1.00  0.00     0.150 C 
HETATM    9  C7  UNL     1     -22.487 101.120   0.819  1.00  0.00    -0.018 C 
HETATM   10  C8  UNL     1     -22.650 101.764  -0.546  1.00  0.00     0.011 C 
HETATM   11  C9  UNL     1     -21.350 102.295  -1.090  1.00  0.00     0.001 C 
HETATM   12  C10 UNL     1     -20.679 103.255  -0.140  1.00  0.00     0.000 C 
HETATM   13  C11 UNL     1     -20.770 102.790   1.296  1.00  0.00     0.001 C 
HETATM   14  C12 UNL     1     -21.037 101.316   1.292  1.00  0.00     0.011 C 
HETATM   15  C13 UNL     1     -23.358 101.848   1.770  1.00  0.00     0.071 C 
ENDROOT
BRANCH   1  16
HETATM   16  C4  UNL     1     -25.352 101.956   3.166  1.00  0.00     0.031 A 
HETATM   17  C3  UNL     1     -25.775 103.244   3.331  1.00  0.00     0.037 A 
HETATM   18  C2  UNL     1     -26.343 103.563   4.501  1.00  0.00     0.029 A 
HETATM   19  C14 UNL     1     -26.451 102.571   5.439  1.00  0.00     0.088 A 
HETATM   20  S2  UNL     1     -25.756 101.225   4.649  1.00  0.00    -0.075 SA
HETATM   21 CL1  UNL     1     -27.148 102.683   7.065  1.00  0.00    -0.075 Cl
BRANCH  18  22
HETATM   22  C1  UNL     1     -26.854 104.926   4.830  1.00  0.00     0.125 C 
HETATM   23  N1  UNL     1     -26.050 105.874   5.518  1.00  0.00    -0.089 NA
HETATM   24  S1  UNL     1     -28.365 105.374   4.406  1.00  0.00    -0.063 SA
ENDBRANCH  18  22
ENDBRANCH   1  16
TORSDOF 2
ENDMDL
MODEL 5
REMARK VINA RESULT: -7.641737714      2.082      2.244
REMARK  2 active torsions:
REMARK  status: ('A' for Active; 'I' for Inactive)
REMARK    1  A    between atoms: C1_2  and  C2_4 
REMARK    2  A    between atoms: C4_6  and  C5_7 
ROOT
HETATM    1  C5  UNL     1     -24.953 101.905   1.623  1.00  0.00     0.045 C 
HETATM    2  N2  UNL     1     -25.635 101.015   1.016  1.00  0.00    -0.289 N 
ATOM      3  H2  UNL     1     -26.622 100.944   1.268  1.00  0.00     0.188 HD
HETATM    4  N3  UNL     1     -25.171 100.126   0.041  1.00  0.00    -0.247 N 
ATOM      5  H3  UNL     1     -25.848  99.856  -0.671  1.00  0.00     0.208 HD
HETATM    6  N4  UNL     1     -23.996  99.605  -0.075  1.00  0.00    -0.321 N 
ATOM      7  H4  UNL     1     -23.804  98.967  -0.847  1.00  0.00     0.181 HD
HETATM    8  C6  UNL     1     -22.930  99.916   0.891  1.00  0.00     0.150 C 
HETATM    9  C7  UNL     1     -22.632 101.379   0.805  1.00  0.00    -0.018 C 
HETATM   10  C8  UNL     1     -22.574 101.828  -0.643  1.00  0.00     0.011 C 
HETATM   11  C9  UNL     1     -21.180 102.198  -1.075  1.00  0.00     0.001 C 
HETATM   12  C10 UNL     1     -20.562 103.246  -0.182  1.00  0.00     0.000 C 
HETATM   13  C11 UNL     1     -20.867 102.999   1.278  1.00  0.00     0.001 C 
HETATM   14  C12 UNL     1     -21.242 101.558   1.438  1.00  0.00     0.011 C 
HETATM   15  C13 UNL     1     -23.557 102.285   1.523  1.00  0.00     0.071 C 
ENDROOT
BRANCH   1  16
HETATM   16  C4  UNL     1     -25.697 102.709   2.611  1.00  0.00     0.031 A 
HETATM   17  C3  UNL     1     -25.290 103.112   3.850  1.00  0.00     0.037 A 
HETATM   18  C2  UNL     1     -26.147 103.844   4.574  1.00  0.00     0.029 A 
HETATM   19  C14 UNL     1     -27.363 104.128   4.012  1.00  0.00     0.088 A 
HETATM   20  S2  UNL     1     -27.264 103.361   2.488  1.00  0.00    -0.075 SA
HETATM   21 CL1  UNL     1     -28.694 105.064   4.714  1.00  0.00    -0.075 Cl
BRANCH  18  22
HETATM   22  C1  UNL     1     -25.847 104.357   5.943  1.00  0.00     0.125 C 
HETATM   23  N1  UNL     1     -25.319 105.660   6.148  1.00  0.00    -0.089 NA
HETATM   24  S1  UNL     1     -26.118 103.431   7.258  1.00  0.00    -0.063 SA
ENDBRANCH  18  22
ENDBRANCH   1  16
TORSDOF 2
ENDMDL
