MODEL 1
REMARK VINA RESULT: -7.498753798      0.000      0.000
REMARK  2 active torsions:
REMARK  status: ('A' for Active; 'I' for Inactive)
REMARK    1  A    between atoms: C3_4  and  N2_5 
REMARK    2  A    between atoms: N2_5  and  C4_7 
ROOT
HETATM    1  N1  UNL     1     -21.367 103.646   0.990  1.00  0.00    -0.191 NA
HETATM    2  C1  UNL     1     -22.161 102.772   0.946  1.00  0.00     0.103 C 
HETATM    3  C2  UNL     1     -23.146 101.659   0.821  1.00  0.00     0.085 A 
HETATM    4  C3  UNL     1     -24.442 101.864   1.137  1.00  0.00     0.097 A 
HETATM    5  S2  UNL     1     -25.146 100.310   0.634  1.00  0.00    -0.075 SA
HETATM    6  C7  UNL     1     -23.761  99.540   0.081  1.00  0.00    -0.007 A 
HETATM    7  C8  UNL     1     -22.785 100.458   0.277  1.00  0.00    -0.021 A 
HETATM    8  C9  UNL     1     -21.384 100.009  -0.142  1.00  0.00     0.041 C 
HETATM    9  C10 UNL     1     -21.284  98.558   0.253  1.00  0.00     0.005 C 
HETATM   10  C11 UNL     1     -22.149  97.794  -0.713  1.00  0.00     0.005 C 
HETATM   11  C12 UNL     1     -23.568  98.178  -0.502  1.00  0.00     0.047 C 
ENDROOT
BRANCH   4  12
HETATM   12  N2  UNL     1     -25.225 102.837   1.802  1.00  0.00    -0.343 N 
ATOM     13  H2  UNL     1     -25.197 103.758   1.363  1.00  0.00     0.167 HD
BRANCH  12  14
HETATM   14  C4  UNL     1     -26.027 102.779   2.939  1.00  0.00     0.092 A 
HETATM   15  C5  UNL     1     -27.266 103.423   3.110  1.00  0.00     0.126 A 
HETATM   16  N3  UNL     1     -27.911 103.186   4.192  1.00  0.00    -0.352 N 
HETATM   17  C6  UNL     1     -27.438 102.372   5.109  1.00  0.00     0.123 A 
ATOM     18  H3  UNL     1     -28.813 103.639   4.344  1.00  0.00     0.166 HD
HETATM   19 BR1  UNL     1     -28.261 101.905   6.772  1.00  0.00    -0.023 Br
HETATM   20  S1  UNL     1     -25.968 101.894   4.413  1.00  0.00    -0.046 SA
ENDBRANCH  12  14
ENDBRANCH   4  12
TORSDOF 2
ENDMDL
MODEL 2
REMARK VINA RESULT: -7.462913011      0.902      1.005
REMARK  2 active torsions:
REMARK  status: ('A' for Active; 'I' for Inactive)
REMARK    1  A    between atoms: C3_4  and  N2_5 
REMARK    2  A    between atoms: N2_5  and  C4_7 
ROOT
HETATM    1  N1  UNL     1     -21.460 103.602   1.292  1.00  0.00    -0.191 NA
HETATM    2  C1  UNL     1     -22.228 102.710   1.189  1.00  0.00     0.103 C 
HETATM    3  C2  UNL     1     -23.181 101.579   0.990  1.00  0.00     0.085 A 
HETATM    4  C3  UNL     1     -24.481 101.722   1.323  1.00  0.00     0.097 A 
HETATM    5  S2  UNL     1     -25.140 100.187   0.715  1.00  0.00    -0.075 SA
HETATM    6  C7  UNL     1     -23.736  99.499   0.105  1.00  0.00    -0.007 A 
HETATM    7  C8  UNL     1     -22.787 100.430   0.362  1.00  0.00    -0.021 A 
HETATM    8  C9  UNL     1     -21.375 100.055  -0.092  1.00  0.00     0.041 C 
HETATM    9  C10 UNL     1     -21.230  98.583   0.200  1.00  0.00     0.005 C 
HETATM   10  C11 UNL     1     -22.077  97.863  -0.814  1.00  0.00     0.005 C 
HETATM   11  C12 UNL     1     -23.505  98.188  -0.573  1.00  0.00     0.047 C 
ENDROOT
BRANCH   4  12
HETATM   12  N2  UNL     1     -25.288 102.622   2.057  1.00  0.00    -0.343 N 
ATOM     13  H2  UNL     1     -25.288 103.572   1.686  1.00  0.00     0.167 HD
BRANCH  12  14
HETATM   14  C4  UNL     1     -26.084 102.460   3.189  1.00  0.00     0.092 A 
HETATM   15  C5  UNL     1     -25.858 101.545   4.234  1.00  0.00     0.126 A 
HETATM   16  N3  UNL     1     -26.645 101.596   5.244  1.00  0.00    -0.352 N 
HETATM   17  C6  UNL     1     -27.628 102.468   5.306  1.00  0.00     0.123 A 
ATOM     18  H3  UNL     1     -26.507 100.945   6.017  1.00  0.00     0.166 HD
HETATM   19 BR1  UNL     1     -28.890 102.683   6.728  1.00  0.00    -0.023 Br
HETATM   20  S1  UNL     1     -27.445 103.289   3.835  1.00  0.00    -0.046 SA
ENDBRANCH  12  14
ENDBRANCH   4  12
TORSDOF 2
ENDMDL
MODEL 3
REMARK VINA RESULT: -6.921179760      2.325      3.415
REMARK  2 active torsions:
REMARK  status: ('A' for Active; 'I' for Inactive)
REMARK    1  A    between atoms: C3_4  and  N2_5 
REMARK    2  A    between atoms: N2_5  and  C4_7 
ROOT
HETATM    1  N1  UNL     1     -24.156  98.544   0.122  1.00  0.00    -0.191 NA
HETATM    2  C1  UNL     1     -23.944  99.597   0.614  1.00  0.00     0.103 C 
HETATM    3  C2  UNL     1     -23.608 100.907   1.243  1.00  0.00     0.085 A 
HETATM    4  C3  UNL     1     -24.274 101.323   2.340  1.00  0.00     0.097 A 
HETATM    5  S2  UNL     1     -23.356 102.794   2.737  1.00  0.00    -0.075 SA
HETATM    6  C7  UNL     1     -22.227 102.764   1.496  1.00  0.00    -0.007 A 
HETATM    7  C8  UNL     1     -22.548 101.649   0.798  1.00  0.00    -0.021 A 
HETATM    8  C9  UNL     1     -21.665 101.374  -0.420  1.00  0.00     0.041 C 
HETATM    9  C10 UNL     1     -21.392 102.720  -1.040  1.00  0.00     0.005 C 
HETATM   10  C11 UNL     1     -20.430 103.423  -0.120  1.00  0.00     0.005 C 
HETATM   11  C12 UNL     1     -21.107 103.698   1.172  1.00  0.00     0.047 C 
ENDROOT
BRANCH   4  12
HETATM   12  N2  UNL     1     -25.444 100.979   3.057  1.00  0.00    -0.343 N 
ATOM     13  H2  UNL     1     -25.719 100.002   2.952  1.00  0.00     0.167 HD
BRANCH  12  14
HETATM   14  C4  UNL     1     -26.293 101.718   3.878  1.00  0.00     0.092 A 
HETATM   15  C5  UNL     1     -26.540 101.476   5.242  1.00  0.00     0.126 A 
HETATM   16  N3  UNL     1     -27.283 102.313   5.865  1.00  0.00    -0.352 N 
HETATM   17  C6  UNL     1     -27.797 103.360   5.258  1.00  0.00     0.123 A 
ATOM     18  H3  UNL     1     -27.481 102.164   6.855  1.00  0.00     0.166 HD
HETATM   19 BR1  UNL     1     -28.921 104.704   6.029  1.00  0.00    -0.023 Br
HETATM   20  S1  UNL     1     -27.199 103.167   3.684  1.00  0.00    -0.046 SA
ENDBRANCH  12  14
ENDBRANCH   4  12
TORSDOF 2
ENDMDL
MODEL 4
REMARK VINA RESULT: -6.866484998      2.855      3.648
REMARK  2 active torsions:
REMARK  status: ('A' for Active; 'I' for Inactive)
REMARK    1  A    between atoms: C3_4  and  N2_5 
REMARK    2  A    between atoms: N2_5  and  C4_7 
ROOT
HETATM    1  N1  UNL     1     -25.755  99.751   0.538  1.00  0.00    -0.191 NA
HETATM    2  C1  UNL     1     -25.088 100.406   1.259  1.00  0.00     0.103 C 
HETATM    3  C2  UNL     1     -24.189 101.194   2.152  1.00  0.00     0.085 A 
HETATM    4  C3  UNL     1     -24.483 101.327   3.462  1.00  0.00     0.097 A 
HETATM    5  S2  UNL     1     -23.025 102.168   4.036  1.00  0.00    -0.075 SA
HETATM    6  C7  UNL     1     -22.180 102.285   2.591  1.00  0.00    -0.007 A 
HETATM    7  C8  UNL     1     -23.000 101.690   1.693  1.00  0.00    -0.021 A 
HETATM    8  C9  UNL     1     -22.471 101.660   0.257  1.00  0.00     0.041 C 
HETATM    9  C10 UNL     1     -21.792 102.988   0.044  1.00  0.00     0.005 C 
HETATM   10  C11 UNL     1     -20.515 102.945   0.839  1.00  0.00     0.005 C 
HETATM   11  C12 UNL     1     -20.845 102.882   2.285  1.00  0.00     0.047 C 
ENDROOT
BRANCH   4  12
HETATM   12  N2  UNL     1     -25.582 101.104   4.324  1.00  0.00    -0.343 N 
ATOM     13  H2  UNL     1     -25.617 100.160   4.710  1.00  0.00     0.167 HD
BRANCH  12  14
HETATM   14  C4  UNL     1     -26.624 101.925   4.748  1.00  0.00     0.092 A 
HETATM   15  C5  UNL     1     -27.395 101.747   5.913  1.00  0.00     0.126 A 
HETATM   16  N3  UNL     1     -28.256 102.652   6.195  1.00  0.00    -0.352 N 
HETATM   17  C6  UNL     1     -28.417 103.710   5.430  1.00  0.00     0.123 A 
ATOM     18  H3  UNL     1     -28.830 102.551   7.032  1.00  0.00     0.166 HD
HETATM   19 BR1  UNL     1     -29.648 105.150   5.698  1.00  0.00    -0.023 Br
HETATM   20  S1  UNL     1     -27.275 103.423   4.211  1.00  0.00    -0.046 SA
ENDBRANCH  12  14
ENDBRANCH   4  12
TORSDOF 2
ENDMDL
MODEL 5
REMARK VINA RESULT: -6.846614924      4.365      5.825
REMARK  2 active torsions:
REMARK  status: ('A' for Active; 'I' for Inactive)
REMARK    1  A    between atoms: C3_4  and  N2_5 
REMARK    2  A    between atoms: N2_5  and  C4_7 
ROOT
HETATM    1  N1  UNL     1     -20.312 103.439  -0.402  1.00  0.00    -0.191 NA
HETATM    2  C1  UNL     1     -20.878 103.068   0.566  1.00  0.00     0.103 C 
HETATM    3  C2  UNL     1     -21.651 102.634   1.766  1.00  0.00     0.085 A 
HETATM    4  C3  UNL     1     -21.189 102.906   3.004  1.00  0.00     0.097 A 
HETATM    5  S2  UNL     1     -22.558 102.344   3.990  1.00  0.00    -0.075 SA
HETATM    6  C7  UNL     1     -23.583 101.813   2.771  1.00  0.00    -0.007 A 
HETATM    7  C8  UNL     1     -22.888 102.066   1.637  1.00  0.00    -0.021 A 
HETATM    8  C9  UNL     1     -23.599 101.665   0.343  1.00  0.00     0.041 C 
HETATM    9  C10 UNL     1     -24.296 100.364   0.645  1.00  0.00     0.005 C 
HETATM   10  C11 UNL     1     -25.459 100.703   1.538  1.00  0.00     0.005 C 
HETATM   11  C12 UNL     1     -24.944 101.202   2.838  1.00  0.00     0.047 C 
ENDROOT
BRANCH   4  12
HETATM   12  N2  UNL     1     -19.988 103.346   3.609  1.00  0.00    -0.343 N 
ATOM     13  H2  UNL     1     -19.153 103.152   3.055  1.00  0.00     0.167 HD
BRANCH  12  14
HETATM   14  C4  UNL     1     -19.726 103.992   4.814  1.00  0.00     0.092 A 
HETATM   15  C5  UNL     1     -18.597 103.793   5.630  1.00  0.00     0.126 A 
HETATM   16  N3  UNL     1     -18.475 104.542   6.663  1.00  0.00    -0.352 N 
HETATM   17  C6  UNL     1     -19.366 105.464   6.952  1.00  0.00     0.123 A 
ATOM     18  H3  UNL     1     -17.667 104.420   7.274  1.00  0.00     0.166 HD
HETATM   19 BR1  UNL     1     -19.343 106.664   8.443  1.00  0.00    -0.023 Br
HETATM   20  S1  UNL     1     -20.473 105.275   5.682  1.00  0.00    -0.046 SA
ENDBRANCH  12  14
ENDBRANCH   4  12
TORSDOF 2
ENDMDL
