MODEL 1
REMARK VINA RESULT: -6.960199004      0.000      0.000
REMARK  2 active torsions:
REMARK  status: ('A' for Active; 'I' for Inactive)
REMARK    1  A    between atoms: C2_2  and  S1_4 
REMARK    2  A    between atoms: S1_4  and  C4_5 
ROOT
HETATM    1  C4  UNL     1     -21.711 103.720   5.781  1.00  0.00     0.145 A 
HETATM    2  N1  UNL     1     -22.995 103.312   5.725  1.00  0.00    -0.339 N 
ATOM      3  H1  UNL     1     -23.572 103.444   6.555  1.00  0.00     0.168 HD
HETATM    4  C5  UNL     1     -23.566 102.742   4.647  1.00  0.00     0.025 A 
HETATM    5  C6  UNL     1     -22.767 102.564   3.513  1.00  0.00     0.030 A 
HETATM    6  C7  UNL     1     -23.181 102.007   2.384  1.00  0.00    -0.005 A 
HETATM    7  C8  UNL     1     -22.320 101.859   1.334  1.00  0.00     0.011 A 
HETATM    8  S2  UNL     1     -20.888 102.542   1.990  1.00  0.00    -0.074 SA
HETATM    9  C9  UNL     1     -21.450 102.974   3.550  1.00  0.00     0.089 A 
HETATM   10  N2  UNL     1     -20.963 103.536   4.673  1.00  0.00    -0.330 N 
ATOM     11  H2  UNL     1     -19.987 103.835   4.687  1.00  0.00     0.168 HD
HETATM   12  C10 UNL     1     -22.450 101.264  -0.029  1.00  0.00     0.161 C 
HETATM   13  N3  UNL     1     -22.872  99.892  -0.101  1.00  0.00    -0.417 N 
ATOM     14  H3  UNL     1     -22.240  99.141  -0.379  1.00  0.00     0.153 HD
HETATM   15  C11 UNL     1     -24.270  99.647   0.250  1.00  0.00     0.116 C 
HETATM   16  C12 UNL     1     -24.756 100.469   1.342  1.00  0.00     0.050 C 
HETATM   17  C13 UNL     1     -24.646 101.527   2.281  1.00  0.00     0.068 C 
HETATM   18 CL1  UNL     1     -25.550 103.046   1.974  1.00  0.00    -0.114 Cl
HETATM   19  C14 UNL     1     -25.097 101.138   3.678  1.00  0.00     0.037 C 
HETATM   20  C15 UNL     1     -24.967 102.301   4.620  1.00  0.00     0.060 C 
ENDROOT
BRANCH   1  21
HETATM   21  S1  UNL     1     -20.968 104.464   7.213  1.00  0.00    -0.090 SA
BRANCH  21  22
HETATM   22  C2  UNL     1     -19.734 105.654   6.699  1.00  0.00     0.047 C 
HETATM   23  C1  UNL     1     -19.727 106.810   7.664  1.00  0.00     0.021 C 
HETATM   24  C3  UNL     1     -18.355 105.043   6.556  1.00  0.00     0.021 C 
ENDBRANCH  21  22
ENDBRANCH   1  21
TORSDOF 2
ENDMDL
MODEL 2
REMARK VINA RESULT: -6.950426568      3.371      5.276
REMARK  2 active torsions:
REMARK  status: ('A' for Active; 'I' for Inactive)
REMARK    1  A    between atoms: C2_2  and  S1_4 
REMARK    2  A    between atoms: S1_4  and  C4_5 
ROOT
HETATM    1  C4  UNL     1     -26.528 103.589   4.068  1.00  0.00     0.145 A 
HETATM    2  N1  UNL     1     -25.356 104.166   4.405  1.00  0.00    -0.339 N 
ATOM      3  H1  UNL     1     -25.353 104.812   5.194  1.00  0.00     0.168 HD
HETATM    4  C5  UNL     1     -24.190 103.947   3.769  1.00  0.00     0.025 A 
HETATM    5  C6  UNL     1     -24.203 103.061   2.687  1.00  0.00     0.030 A 
HETATM    6  C7  UNL     1     -23.140 102.756   1.955  1.00  0.00    -0.005 A 
HETATM    7  C8  UNL     1     -23.255 101.892   0.903  1.00  0.00     0.011 A 
HETATM    8  S2  UNL     1     -24.928 101.511   0.978  1.00  0.00    -0.074 SA
HETATM    9  C9  UNL     1     -25.391 102.461   2.325  1.00  0.00     0.089 A 
HETATM   10  N2  UNL     1     -26.511 102.739   3.021  1.00  0.00    -0.330 N 
ATOM     11  H2  UNL     1     -27.384 102.289   2.743  1.00  0.00     0.168 HD
HETATM   12  C10 UNL     1     -22.293 101.372  -0.114  1.00  0.00     0.161 C 
HETATM   13  N3  UNL     1     -21.601 102.347  -0.910  1.00  0.00    -0.417 N 
ATOM     14  H3  UNL     1     -21.801 102.484  -1.901  1.00  0.00     0.153 HD
HETATM   15  C11 UNL     1     -20.588 103.130  -0.203  1.00  0.00     0.116 C 
HETATM   16  C12 UNL     1     -20.955 103.475   1.158  1.00  0.00     0.050 C 
HETATM   17  C13 UNL     1     -21.780 103.396   2.309  1.00  0.00     0.068 C 
HETATM   18 CL1  UNL     1     -21.219 102.414   3.702  1.00  0.00    -0.114 Cl
HETATM   19  C14 UNL     1     -22.063 104.749   2.937  1.00  0.00     0.037 C 
HETATM   20  C15 UNL     1     -22.930 104.597   4.155  1.00  0.00     0.060 C 
ENDROOT
BRANCH   1  21
HETATM   21  S1  UNL     1     -28.061 103.894   4.913  1.00  0.00    -0.090 SA
BRANCH  21  22
HETATM   22  C2  UNL     1     -28.472 102.484   5.936  1.00  0.00     0.047 C 
HETATM   23  C1  UNL     1     -27.235 101.655   6.157  1.00  0.00     0.021 C 
HETATM   24  C3  UNL     1     -29.116 102.879   7.248  1.00  0.00     0.021 C 
ENDBRANCH  21  22
ENDBRANCH   1  21
TORSDOF 2
ENDMDL
MODEL 3
REMARK VINA RESULT: -6.805549010      3.545      5.308
REMARK  2 active torsions:
REMARK  status: ('A' for Active; 'I' for Inactive)
REMARK    1  A    between atoms: C2_2  and  S1_4 
REMARK    2  A    between atoms: S1_4  and  C4_5 
ROOT
HETATM    1  C4  UNL     1     -26.556 103.908   4.245  1.00  0.00     0.145 A 
HETATM    2  N1  UNL     1     -25.351 104.427   4.554  1.00  0.00    -0.339 N 
ATOM      3  H1  UNL     1     -25.302 105.088   5.330  1.00  0.00     0.168 HD
HETATM    4  C5  UNL     1     -24.207 104.133   3.908  1.00  0.00     0.025 A 
HETATM    5  C6  UNL     1     -24.283 103.227   2.845  1.00  0.00     0.030 A 
HETATM    6  C7  UNL     1     -23.248 102.851   2.106  1.00  0.00    -0.005 A 
HETATM    7  C8  UNL     1     -23.424 101.972   1.075  1.00  0.00     0.011 A 
HETATM    8  S2  UNL     1     -25.113 101.684   1.179  1.00  0.00    -0.074 SA
HETATM    9  C9  UNL     1     -25.506 102.685   2.512  1.00  0.00     0.089 A 
HETATM   10  N2  UNL     1     -26.600 103.037   3.215  1.00  0.00    -0.330 N 
ATOM     11  H2  UNL     1     -27.499 102.629   2.959  1.00  0.00     0.168 HD
HETATM   12  C10 UNL     1     -22.505 101.381   0.057  1.00  0.00     0.161 C 
HETATM   13  N3  UNL     1     -21.773 102.301  -0.769  1.00  0.00    -0.417 N 
ATOM     14  H3  UNL     1     -21.980 102.428  -1.759  1.00  0.00     0.153 HD
HETATM   15  C11 UNL     1     -20.710 103.043  -0.091  1.00  0.00     0.116 C 
HETATM   16  C12 UNL     1     -21.038 103.434   1.266  1.00  0.00     0.050 C 
HETATM   17  C13 UNL     1     -21.850 103.423   2.430  1.00  0.00     0.068 C 
HETATM   18 CL1  UNL     1     -21.324 102.441   3.836  1.00  0.00    -0.114 Cl
HETATM   19  C14 UNL     1     -22.052 104.802   3.032  1.00  0.00     0.037 C 
HETATM   20  C15 UNL     1     -22.909 104.722   4.264  1.00  0.00     0.060 C 
ENDROOT
BRANCH   1  21
HETATM   21  S1  UNL     1     -28.060 104.312   5.102  1.00  0.00    -0.090 SA
BRANCH  21  22
HETATM   22  C2  UNL     1     -28.822 105.737   4.335  1.00  0.00     0.047 C 
HETATM   23  C1  UNL     1     -30.096 106.071   5.066  1.00  0.00     0.021 C 
HETATM   24  C3  UNL     1     -27.894 106.932   4.265  1.00  0.00     0.021 C 
ENDBRANCH  21  22
ENDBRANCH   1  21
TORSDOF 2
ENDMDL
MODEL 4
REMARK VINA RESULT: -6.715741811      3.561      6.360
REMARK  2 active torsions:
REMARK  status: ('A' for Active; 'I' for Inactive)
REMARK    1  A    between atoms: C2_2  and  S1_4 
REMARK    2  A    between atoms: S1_4  and  C4_5 
ROOT
HETATM    1  C4  UNL     1     -23.568 102.161   1.802  1.00  0.00     0.145 A 
HETATM    2  N1  UNL     1     -23.163 101.845   3.049  1.00  0.00    -0.339 N 
ATOM      3  H1  UNL     1     -22.206 101.514   3.168  1.00  0.00     0.168 HD
HETATM    4  C5  UNL     1     -23.937 101.936   4.147  1.00  0.00     0.025 A 
HETATM    5  C6  UNL     1     -25.249 102.390   3.974  1.00  0.00     0.030 A 
HETATM    6  C7  UNL     1     -26.133 102.518   4.953  1.00  0.00    -0.005 A 
HETATM    7  C8  UNL     1     -27.400 102.953   4.684  1.00  0.00     0.011 A 
HETATM    8  S2  UNL     1     -27.309 103.182   2.985  1.00  0.00    -0.074 SA
HETATM    9  C9  UNL     1     -25.684 102.717   2.707  1.00  0.00     0.089 A 
HETATM   10  N2  UNL     1     -24.838 102.596   1.664  1.00  0.00    -0.330 N 
ATOM     11  H2  UNL     1     -25.172 102.841   0.732  1.00  0.00     0.168 HD
HETATM   12  C10 UNL     1     -28.614 103.174   5.524  1.00  0.00     0.161 C 
HETATM   13  N3  UNL     1     -29.093 102.052   6.282  1.00  0.00    -0.417 N 
ATOM     14  H3  UNL     1     -29.958 101.564   6.046  1.00  0.00     0.153 HD
HETATM   15  C11 UNL     1     -28.257 101.656   7.414  1.00  0.00     0.116 C 
HETATM   16  C12 UNL     1     -26.833 101.770   7.163  1.00  0.00     0.050 C 
HETATM   17  C13 UNL     1     -25.706 102.167   6.396  1.00  0.00     0.068 C 
HETATM   18 CL1  UNL     1     -24.782 103.615   6.912  1.00  0.00    -0.114 Cl
HETATM   19  C14 UNL     1     -24.637 101.093   6.305  1.00  0.00     0.037 C 
HETATM   20  C15 UNL     1     -23.469 101.576   5.492  1.00  0.00     0.060 C 
ENDROOT
BRANCH   1  21
HETATM   21  S1  UNL     1     -22.537 102.029   0.361  1.00  0.00    -0.090 SA
BRANCH  21  22
HETATM   22  C2  UNL     1     -22.558 100.343  -0.238  1.00  0.00     0.047 C 
HETATM   23  C1  UNL     1     -21.289  99.651   0.187  1.00  0.00     0.021 C 
HETATM   24  C3  UNL     1     -23.784  99.576   0.212  1.00  0.00     0.021 C 
ENDBRANCH  21  22
ENDBRANCH   1  21
TORSDOF 2
ENDMDL
MODEL 5
REMARK VINA RESULT: -6.706772466      0.873      1.081
REMARK  2 active torsions:
REMARK  status: ('A' for Active; 'I' for Inactive)
REMARK    1  A    between atoms: C2_2  and  S1_4 
REMARK    2  A    between atoms: S1_4  and  C4_5 
ROOT
HETATM    1  C4  UNL     1     -21.777 104.604   4.803  1.00  0.00     0.145 A 
HETATM    2  N1  UNL     1     -23.025 104.102   4.904  1.00  0.00    -0.339 N 
ATOM      3  H1  UNL     1     -23.572 104.351   5.729  1.00  0.00     0.168 HD
HETATM    4  C5  UNL     1     -23.597 103.295   3.992  1.00  0.00     0.025 A 
HETATM    5  C6  UNL     1     -22.839 102.958   2.865  1.00  0.00     0.030 A 
HETATM    6  C7  UNL     1     -23.259 102.163   1.891  1.00  0.00    -0.005 A 
HETATM    7  C8  UNL     1     -22.438 101.877   0.837  1.00  0.00     0.011 A 
HETATM    8  S2  UNL     1     -21.038 102.775   1.262  1.00  0.00    -0.074 SA
HETATM    9  C9  UNL     1     -21.561 103.460   2.743  1.00  0.00     0.089 A 
HETATM   10  N2  UNL     1     -21.069 104.263   3.707  1.00  0.00    -0.330 N 
ATOM     11  H2  UNL     1     -20.122 104.627   3.604  1.00  0.00     0.168 HD
HETATM   12  C10 UNL     1     -22.582 101.020  -0.378  1.00  0.00     0.161 C 
HETATM   13  N3  UNL     1     -22.893  99.635  -0.162  1.00  0.00    -0.417 N 
ATOM     14  H3  UNL     1     -22.215  98.891  -0.331  1.00  0.00     0.153 HD
HETATM   15  C11 UNL     1     -24.249  99.363   0.314  1.00  0.00     0.116 C 
HETATM   16  C12 UNL     1     -24.749 100.344   1.258  1.00  0.00     0.050 C 
HETATM   17  C13 UNL     1     -24.683 101.570   1.970  1.00  0.00     0.068 C 
HETATM   18 CL1  UNL     1     -25.722 102.931   1.436  1.00  0.00    -0.114 Cl
HETATM   19  C14 UNL     1     -25.034 101.428   3.440  1.00  0.00     0.037 C 
HETATM   20  C15 UNL     1     -24.957 102.758   4.135  1.00  0.00     0.060 C 
ENDROOT
BRANCH   1  21
HETATM   21  S1  UNL     1     -21.032 105.663   6.020  1.00  0.00    -0.090 SA
BRANCH  21  22
HETATM   22  C2  UNL     1     -19.461 104.976   6.530  1.00  0.00     0.047 C 
HETATM   23  C1  UNL     1     -18.479 105.086   5.393  1.00  0.00     0.021 C 
HETATM   24  C3  UNL     1     -18.922 105.620   7.791  1.00  0.00     0.021 C 
ENDBRANCH  21  22
ENDBRANCH   1  21
TORSDOF 2
ENDMDL
