MODEL 1
REMARK VINA RESULT: -6.960002338      0.000      0.000
REMARK  7 active torsions:
REMARK  status: ('A' for Active; 'I' for Inactive)
REMARK    1  A    between atoms: C2_2  and  C3_4 
REMARK    2  A    between atoms: C3_4  and  C4_5 
REMARK    3  A    between atoms: C4_5  and  C5_6 
REMARK    4  A    between atoms: C5_6  and  N1_7 
REMARK    5  A    between atoms: N1_7  and  N2_9 
REMARK    6  A    between atoms: C6_10  and  C7_11 
REMARK    7  A    between atoms: N3_14  and  C10_15 
ROOT
HETATM    1  N2  UNL     1     -23.507 101.689   2.058  1.00  0.00    -0.208 N 
HETATM    2  C6  UNL     1     -23.174 101.976   3.330  1.00  0.00     0.126 A 
HETATM    3  N4  UNL     1     -24.215 101.578   4.079  1.00  0.00    -0.285 N 
ATOM      4  H4  UNL     1     -24.276 101.658   5.095  1.00  0.00     0.188 HD
HETATM    5  N5  UNL     1     -25.157 101.062   3.290  1.00  0.00    -0.273 N 
ATOM      6  H5  UNL     1     -26.052 100.683   3.598  1.00  0.00     0.189 HD
HETATM    7  C16 UNL     1     -24.726 101.126   2.021  1.00  0.00     0.214 A 
HETATM    8  S1  UNL     1     -25.544 100.609   0.680  1.00  0.00    -0.037 SA
ENDROOT
BRANCH   2   9
HETATM    9  C7  UNL     1     -21.896 102.612   3.810  1.00  0.00     0.060 C 
HETATM   10  C8  UNL     1     -21.768 102.271   5.297  1.00  0.00     0.042 C 
HETATM   11  C9  UNL     1     -20.451 102.781   5.833  1.00  0.00     0.274 C 
HETATM   12  N3  UNL     1     -19.898 103.734   4.922  1.00  0.00     0.097 N 
HETATM   13  C14 UNL     1     -20.856 104.710   4.499  1.00  0.00     0.274 C 
HETATM   14  C15 UNL     1     -21.945 104.097   3.629  1.00  0.00     0.042 C 
BRANCH  12  15
HETATM   15  C10 UNL     1     -18.745 104.348   5.500  1.00  0.00     0.149 C 
HETATM   16  C11 UNL     1     -19.034 105.087   6.791  1.00  0.00     0.048 C 
HETATM   17  C12 UNL     1     -17.675 103.310   5.766  1.00  0.00     0.048 C 
HETATM   18  C13 UNL     1     -18.171 105.367   4.519  1.00  0.00     0.048 C 
ENDBRANCH  12  15
ENDBRANCH   2   9
BRANCH   1  19
HETATM   19  N1  UNL     1     -22.661 101.964   0.978  1.00  0.00    -0.255 N 
ATOM     20  H1  UNL     1     -22.665 102.866   0.501  1.00  0.00     0.197 HD
BRANCH  19  21
HETATM   21  C5  UNL     1     -21.873 101.001   0.622  1.00  0.00    -0.025 C 
BRANCH  21  22
HETATM   22  C4  UNL     1     -21.150 100.116   0.005  1.00  0.00     0.079 C 
BRANCH  22  23
HETATM   23  C3  UNL     1     -21.412  98.714   0.213  1.00  0.00     0.047 C 
BRANCH  23  24
HETATM   24  C2  UNL     1     -22.110  97.963  -0.599  1.00  0.00     0.090 C 
HETATM   25  C1  UNL     1     -23.595  97.931  -0.615  1.00  0.00     0.082 C 
HETATM   26  F1  UNL     1     -21.454  97.166  -1.476  1.00  0.00    -0.211 F 
ENDBRANCH  23  24
ENDBRANCH  22  23
ENDBRANCH  21  22
ENDBRANCH  19  21
ENDBRANCH   1  19
TORSDOF 7
ENDMDL
MODEL 2
REMARK VINA RESULT: -6.947273188      3.410      6.757
REMARK  7 active torsions:
REMARK  status: ('A' for Active; 'I' for Inactive)
REMARK    1  A    between atoms: C2_2  and  C3_4 
REMARK    2  A    between atoms: C3_4  and  C4_5 
REMARK    3  A    between atoms: C4_5  and  C5_6 
REMARK    4  A    between atoms: C5_6  and  N1_7 
REMARK    5  A    between atoms: N1_7  and  N2_9 
REMARK    6  A    between atoms: C6_10  and  C7_11 
REMARK    7  A    between atoms: N3_14  and  C10_15 
ROOT
HETATM    1  N2  UNL     1     -21.805 102.985   6.208  1.00  0.00    -0.208 N 
HETATM    2  C6  UNL     1     -22.424 103.244   5.043  1.00  0.00     0.126 A 
HETATM    3  N4  UNL     1     -23.156 104.350   5.255  1.00  0.00    -0.285 N 
ATOM      4  H4  UNL     1     -23.748 104.808   4.562  1.00  0.00     0.188 HD
HETATM    5  N5  UNL     1     -22.990 104.756   6.514  1.00  0.00    -0.273 N 
ATOM      6  H5  UNL     1     -23.428 105.572   6.941  1.00  0.00     0.189 HD
HETATM    7  C16 UNL     1     -22.146 103.909   7.123  1.00  0.00     0.214 A 
HETATM    8  S1  UNL     1     -21.631 103.995   8.692  1.00  0.00    -0.037 SA
ENDROOT
BRANCH   2   9
HETATM    9  C7  UNL     1     -22.316 102.456   3.764  1.00  0.00     0.060 C 
HETATM   10  C8  UNL     1     -21.268 103.162   2.901  1.00  0.00     0.042 C 
HETATM   11  C9  UNL     1     -21.017 102.370   1.639  1.00  0.00     0.274 C 
HETATM   12  N3  UNL     1     -22.073 101.424   1.448  1.00  0.00     0.097 N 
HETATM   13  C14 UNL     1     -23.370 102.009   1.608  1.00  0.00     0.274 C 
HETATM   14  C15 UNL     1     -23.631 102.426   3.050  1.00  0.00     0.042 C 
BRANCH  12  15
HETATM   15  C10 UNL     1     -21.937 100.794   0.173  1.00  0.00     0.149 C 
HETATM   16  C11 UNL     1     -20.873  99.716   0.139  1.00  0.00     0.048 C 
HETATM   17  C12 UNL     1     -23.256 100.186  -0.255  1.00  0.00     0.048 C 
HETATM   18  C13 UNL     1     -21.548 101.840  -0.869  1.00  0.00     0.048 C 
ENDBRANCH  12  15
ENDBRANCH   2   9
BRANCH   1  19
HETATM   19  N1  UNL     1     -20.945 101.894   6.378  1.00  0.00    -0.255 N 
ATOM     20  H1  UNL     1     -21.265 101.006   6.763  1.00  0.00     0.197 HD
BRANCH  19  21
HETATM   21  C5  UNL     1     -19.718 102.085   6.016  1.00  0.00    -0.025 C 
BRANCH  21  22
HETATM   22  C4  UNL     1     -18.554 102.548   5.669  1.00  0.00     0.079 C 
BRANCH  22  23
HETATM   23  C3  UNL     1     -18.456 103.868   5.097  1.00  0.00     0.047 C 
BRANCH  23  24
HETATM   24  C2  UNL     1     -19.010 104.938   5.606  1.00  0.00     0.090 C 
HETATM   25  C1  UNL     1     -18.633 105.509   6.924  1.00  0.00     0.082 C 
HETATM   26  F1  UNL     1     -19.981 105.567   4.902  1.00  0.00    -0.211 F 
ENDBRANCH  23  24
ENDBRANCH  22  23
ENDBRANCH  21  22
ENDBRANCH  19  21
ENDBRANCH   1  19
TORSDOF 7
ENDMDL
MODEL 3
REMARK VINA RESULT: -6.573129516      3.740      5.624
REMARK  7 active torsions:
REMARK  status: ('A' for Active; 'I' for Inactive)
REMARK    1  A    between atoms: C2_2  and  C3_4 
REMARK    2  A    between atoms: C3_4  and  C4_5 
REMARK    3  A    between atoms: C4_5  and  C5_6 
REMARK    4  A    between atoms: C5_6  and  N1_7 
REMARK    5  A    between atoms: N1_7  and  N2_9 
REMARK    6  A    between atoms: C6_10  and  C7_11 
REMARK    7  A    between atoms: N3_14  and  C10_15 
ROOT
HETATM    1  N2  UNL     1     -24.489 101.075   1.551  1.00  0.00    -0.208 N 
HETATM    2  C6  UNL     1     -25.631 101.777   1.658  1.00  0.00     0.126 A 
HETATM    3  N4  UNL     1     -26.416 101.354   0.654  1.00  0.00    -0.285 N 
ATOM      4  H4  UNL     1     -27.358 101.695   0.458  1.00  0.00     0.188 HD
HETATM    5  N5  UNL     1     -25.774 100.420  -0.047  1.00  0.00    -0.273 N 
ATOM      6  H5  UNL     1     -26.140  99.929  -0.863  1.00  0.00     0.189 HD
HETATM    7  C16 UNL     1     -24.564 100.236   0.504  1.00  0.00     0.214 A 
HETATM    8  S1  UNL     1     -23.402  99.179  -0.012  1.00  0.00    -0.037 SA
ENDROOT
BRANCH   2   9
HETATM    9  C7  UNL     1     -25.959 102.821   2.693  1.00  0.00     0.060 C 
HETATM   10  C8  UNL     1     -26.130 102.082   4.022  1.00  0.00     0.042 C 
HETATM   11  C9  UNL     1     -26.354 103.072   5.140  1.00  0.00     0.274 C 
HETATM   12  N3  UNL     1     -26.710 104.344   4.592  1.00  0.00     0.097 N 
HETATM   13  C14 UNL     1     -27.727 104.245   3.589  1.00  0.00     0.274 C 
HETATM   14  C15 UNL     1     -27.226 103.535   2.339  1.00  0.00     0.042 C 
BRANCH  12  15
HETATM   15  C10 UNL     1     -27.093 105.237   5.639  1.00  0.00     0.149 C 
HETATM   16  C11 UNL     1     -26.059 105.359   6.740  1.00  0.00     0.048 C 
HETATM   17  C12 UNL     1     -27.368 106.617   5.079  1.00  0.00     0.048 C 
HETATM   18  C13 UNL     1     -28.380 104.734   6.287  1.00  0.00     0.048 C 
ENDBRANCH  12  15
ENDBRANCH   2   9
BRANCH   1  19
HETATM   19  N1  UNL     1     -23.416 101.242   2.433  1.00  0.00    -0.255 N 
ATOM     20  H1  UNL     1     -23.234 100.590   3.196  1.00  0.00     0.197 HD
BRANCH  19  21
HETATM   21  C5  UNL     1     -22.669 102.277   2.220  1.00  0.00    -0.025 C 
BRANCH  21  22
HETATM   22  C4  UNL     1     -21.723 103.164   2.140  1.00  0.00     0.079 C 
BRANCH  22  23
HETATM   23  C3  UNL     1     -20.694 103.017   1.141  1.00  0.00     0.047 C 
BRANCH  23  24
HETATM   24  C2  UNL     1     -20.890 103.130  -0.147  1.00  0.00     0.090 C 
HETATM   25  C1  UNL     1     -21.030 101.967  -1.060  1.00  0.00     0.082 C 
HETATM   26  F1  UNL     1     -20.969 104.369  -0.689  1.00  0.00    -0.211 F 
ENDBRANCH  23  24
ENDBRANCH  22  23
ENDBRANCH  21  22
ENDBRANCH  19  21
ENDBRANCH   1  19
TORSDOF 7
ENDMDL
MODEL 4
REMARK VINA RESULT: -6.547144458      3.775      6.368
REMARK  7 active torsions:
REMARK  status: ('A' for Active; 'I' for Inactive)
REMARK    1  A    between atoms: C2_2  and  C3_4 
REMARK    2  A    between atoms: C3_4  and  C4_5 
REMARK    3  A    between atoms: C4_5  and  C5_6 
REMARK    4  A    between atoms: C5_6  and  N1_7 
REMARK    5  A    between atoms: N1_7  and  N2_9 
REMARK    6  A    between atoms: C6_10  and  C7_11 
REMARK    7  A    between atoms: N3_14  and  C10_15 
ROOT
HETATM    1  N2  UNL     1     -23.599 101.318   1.186  1.00  0.00    -0.208 N 
HETATM    2  C6  UNL     1     -24.860 101.338   1.655  1.00  0.00     0.126 A 
HETATM    3  N4  UNL     1     -25.419 100.185   1.252  1.00  0.00    -0.285 N 
ATOM      4  H4  UNL     1     -26.377  99.895   1.447  1.00  0.00     0.188 HD
HETATM    5  N5  UNL     1     -24.527  99.480   0.556  1.00  0.00    -0.273 N 
ATOM      6  H5  UNL     1     -24.687  98.566   0.134  1.00  0.00     0.189 HD
HETATM    7  C16 UNL     1     -23.382 100.179   0.506  1.00  0.00     0.214 A 
HETATM    8  S1  UNL     1     -21.984  99.718  -0.245  1.00  0.00    -0.037 SA
ENDROOT
BRANCH   2   9
HETATM    9  C7  UNL     1     -25.507 102.429   2.467  1.00  0.00     0.060 C 
HETATM   10  C8  UNL     1     -25.899 101.804   3.808  1.00  0.00     0.042 C 
HETATM   11  C9  UNL     1     -26.458 102.863   4.729  1.00  0.00     0.274 C 
HETATM   12  N3  UNL     1     -26.801 104.027   3.971  1.00  0.00     0.097 N 
HETATM   13  C14 UNL     1     -27.556 103.714   2.795  1.00  0.00     0.274 C 
HETATM   14  C15 UNL     1     -26.724 102.952   1.772  1.00  0.00     0.042 C 
BRANCH  12  15
HETATM   15  C10 UNL     1     -27.489 104.964   4.801  1.00  0.00     0.149 C 
HETATM   16  C11 UNL     1     -27.959 106.200   4.061  1.00  0.00     0.048 C 
HETATM   17  C12 UNL     1     -28.686 104.306   5.455  1.00  0.00     0.048 C 
HETATM   18  C13 UNL     1     -26.554 105.435   5.912  1.00  0.00     0.048 C 
ENDBRANCH  12  15
ENDBRANCH   2   9
BRANCH   1  19
HETATM   19  N1  UNL     1     -22.696 102.363   1.407  1.00  0.00    -0.255 N 
ATOM     20  H1  UNL     1     -22.530 103.093   0.713  1.00  0.00     0.197 HD
BRANCH  19  21
HETATM   21  C5  UNL     1     -22.085 102.347   2.547  1.00  0.00    -0.025 C 
BRANCH  21  22
HETATM   22  C4  UNL     1     -21.686 102.491   3.775  1.00  0.00     0.079 C 
BRANCH  22  23
HETATM   23  C3  UNL     1     -22.600 103.006   4.764  1.00  0.00     0.047 C 
BRANCH  23  24
HETATM   24  C2  UNL     1     -22.917 104.268   4.893  1.00  0.00     0.090 C 
HETATM   25  C1  UNL     1     -22.468 105.114   6.029  1.00  0.00     0.082 C 
HETATM   26  F1  UNL     1     -23.697 104.846   3.949  1.00  0.00    -0.211 F 
ENDBRANCH  23  24
ENDBRANCH  22  23
ENDBRANCH  21  22
ENDBRANCH  19  21
ENDBRANCH   1  19
TORSDOF 7
ENDMDL
MODEL 5
REMARK VINA RESULT: -6.521362018      3.486      5.870
REMARK  7 active torsions:
REMARK  status: ('A' for Active; 'I' for Inactive)
REMARK    1  A    between atoms: C2_2  and  C3_4 
REMARK    2  A    between atoms: C3_4  and  C4_5 
REMARK    3  A    between atoms: C4_5  and  C5_6 
REMARK    4  A    between atoms: C5_6  and  N1_7 
REMARK    5  A    between atoms: N1_7  and  N2_9 
REMARK    6  A    between atoms: C6_10  and  C7_11 
REMARK    7  A    between atoms: N3_14  and  C10_15 
ROOT
HETATM    1  N2  UNL     1     -20.913 102.871   4.926  1.00  0.00    -0.208 N 
HETATM    2  C6  UNL     1     -22.092 102.433   5.402  1.00  0.00     0.126 A 
HETATM    3  N4  UNL     1     -21.798 101.696   6.486  1.00  0.00    -0.285 N 
ATOM      4  H4  UNL     1     -22.479 101.220   7.078  1.00  0.00     0.188 HD
HETATM    5  N5  UNL     1     -20.478 101.683   6.668  1.00  0.00    -0.273 N 
ATOM      6  H5  UNL     1     -19.983 101.200   7.418  1.00  0.00     0.189 HD
HETATM    7  C16 UNL     1     -19.911 102.415   5.697  1.00  0.00     0.214 A 
HETATM    8  S1  UNL     1     -18.293 102.696   5.497  1.00  0.00    -0.037 SA
ENDROOT
BRANCH   2   9
HETATM    9  C7  UNL     1     -23.458 102.715   4.836  1.00  0.00     0.060 C 
HETATM   10  C8  UNL     1     -24.062 103.837   5.684  1.00  0.00     0.042 C 
HETATM   11  C9  UNL     1     -25.395 104.258   5.112  1.00  0.00     0.274 C 
HETATM   12  N3  UNL     1     -25.865 103.259   4.202  1.00  0.00     0.097 N 
HETATM   13  C14 UNL     1     -25.770 101.937   4.741  1.00  0.00     0.274 C 
HETATM   14  C15 UNL     1     -24.323 101.495   4.913  1.00  0.00     0.042 C 
BRANCH  12  15
HETATM   15  C10 UNL     1     -27.199 103.563   3.791  1.00  0.00     0.149 C 
HETATM   16  C11 UNL     1     -27.482 103.217   2.343  1.00  0.00     0.048 C 
HETATM   17  C12 UNL     1     -28.197 102.836   4.667  1.00  0.00     0.048 C 
HETATM   18  C13 UNL     1     -27.447 105.061   3.950  1.00  0.00     0.048 C 
ENDBRANCH  12  15
ENDBRANCH   2   9
BRANCH   1  19
HETATM   19  N1  UNL     1     -20.813 103.679   3.788  1.00  0.00    -0.255 N 
ATOM     20  H1  UNL     1     -20.669 104.687   3.850  1.00  0.00     0.197 HD
BRANCH  19  21
HETATM   21  C5  UNL     1     -20.914 103.067   2.653  1.00  0.00    -0.025 C 
BRANCH  21  22
HETATM   22  C4  UNL     1     -21.269 102.575   1.504  1.00  0.00     0.079 C 
BRANCH  22  23
HETATM   23  C3  UNL     1     -22.194 101.470   1.460  1.00  0.00     0.047 C 
BRANCH  23  24
HETATM   24  C2  UNL     1     -23.488 101.593   1.315  1.00  0.00     0.090 C 
HETATM   25  C1  UNL     1     -24.378 100.473   0.915  1.00  0.00     0.082 C 
HETATM   26  F1  UNL     1     -24.058 102.800   1.539  1.00  0.00    -0.211 F 
ENDBRANCH  23  24
ENDBRANCH  22  23
ENDBRANCH  21  22
ENDBRANCH  19  21
ENDBRANCH   1  19
TORSDOF 7
ENDMDL
