MODEL 1
REMARK VINA RESULT: -6.405496633      0.000      0.000
REMARK  6 active torsions:
REMARK  status: ('A' for Active; 'I' for Inactive)
REMARK    1  A    between atoms: O1_1  and  C1_3 
REMARK    2  A    between atoms: C1_3  and  C11_20 
REMARK    3  A    between atoms: C2_4  and  S1_5 
REMARK    4  A    between atoms: S1_5  and  C3_6 
REMARK    5  A    between atoms: N3_13  and  C5_14 
REMARK    6  A    between atoms: C14_24  and  O2_25 
ROOT
HETATM    1  C3  UNL     1      49.093  67.561  44.429  1.00  0.00     0.168 A 
HETATM    2  N1  UNL     1      49.323  67.288  43.135  1.00  0.00    -0.277 N 
ATOM      3  H1  UNL     1      48.905  66.526  42.603  1.00  0.00     0.189 HD
HETATM    4  N2  UNL     1      50.193  68.189  42.662  1.00  0.00    -0.274 N 
ATOM      5  H2  UNL     1      50.555  68.234  41.710  1.00  0.00     0.189 HD
HETATM    6  C4  UNL     1      50.505  69.028  43.676  1.00  0.00     0.195 A 
HETATM    7  S2  UNL     1      51.518  70.300  43.641  1.00  0.00    -0.039 SA
HETATM    8  N3  UNL     1      49.823  68.639  44.772  1.00  0.00    -0.297 N 
ENDROOT
BRANCH   1   9
HETATM    9  S1  UNL     1      47.992  66.607  45.458  1.00  0.00    -0.061 SA
BRANCH   9  10
HETATM   10  C2  UNL     1      48.830  65.167  46.025  1.00  0.00     0.091 C 
HETATM   11  C1  UNL     1      48.626  63.871  45.442  1.00  0.00     0.092 C 
BRANCH  11  12
HETATM   12  O1  UNL     1      49.339  62.887  46.009  1.00  0.00    -0.359 OA
ATOM     13  H1  UNL     1      49.221  62.034  45.609  1.00  0.00     0.217 HD
ENDBRANCH  11  12
BRANCH  11  14
HETATM   14  C11 UNL     1      47.814  63.363  44.358  1.00  0.00     0.071 A 
HETATM   15  S3  UNL     1      46.585  62.115  44.566  1.00  0.00    -0.096 SA
HETATM   16  C12 UNL     1      46.030  61.983  42.974  1.00  0.00     0.053 A 
HETATM   17  C13 UNL     1      46.792  62.894  42.318  1.00  0.00     0.045 A 
HETATM   18  C14 UNL     1      47.703  63.599  43.025  1.00  0.00     0.086 A 
BRANCH  18  19
HETATM   19  O2  UNL     1      48.526  64.566  42.383  1.00  0.00    -0.359 OA
ATOM     20  H2  UNL     1      49.239  64.299  41.816  1.00  0.00     0.217 HD
ENDBRANCH  18  19
ENDBRANCH  11  14
ENDBRANCH   9  10
ENDBRANCH   1   9
BRANCH   8  21
HETATM   21  C5  UNL     1      49.834  69.217  46.066  1.00  0.00     0.094 C 
HETATM   22  C6  UNL     1      48.498  69.352  46.743  1.00  0.00     0.026 C 
HETATM   23  C7  UNL     1      48.681  70.458  47.796  1.00  0.00     0.002 C 
HETATM   24  C8  UNL     1      50.010  70.312  48.491  1.00  0.00     0.000 C 
HETATM   25  C9  UNL     1      50.556  68.910  48.409  1.00  0.00     0.002 C 
HETATM   26  C10 UNL     1      50.707  68.389  47.010  1.00  0.00     0.026 C 
ENDBRANCH   8  21
TORSDOF 6
ENDMDL
MODEL 2
REMARK VINA RESULT: -6.286456453      1.111      1.314
REMARK  6 active torsions:
REMARK  status: ('A' for Active; 'I' for Inactive)
REMARK    1  A    between atoms: O1_1  and  C1_3 
REMARK    2  A    between atoms: C1_3  and  C11_20 
REMARK    3  A    between atoms: C2_4  and  S1_5 
REMARK    4  A    between atoms: S1_5  and  C3_6 
REMARK    5  A    between atoms: N3_13  and  C5_14 
REMARK    6  A    between atoms: C14_24  and  O2_25 
ROOT
HETATM    1  C3  UNL     1      49.065  67.506  44.367  1.00  0.00     0.168 A 
HETATM    2  N1  UNL     1      49.307  67.267  43.068  1.00  0.00    -0.277 N 
ATOM      3  H1  UNL     1      48.886  66.527  42.509  1.00  0.00     0.189 HD
HETATM    4  N2  UNL     1      50.197  68.168  42.632  1.00  0.00    -0.274 N 
ATOM      5  H2  UNL     1      50.572  68.235  41.687  1.00  0.00     0.189 HD
HETATM    6  C4  UNL     1      50.508  68.973  43.675  1.00  0.00     0.195 A 
HETATM    7  S2  UNL     1      51.539  70.231  43.688  1.00  0.00    -0.039 SA
HETATM    8  N3  UNL     1      49.806  68.563  44.750  1.00  0.00    -0.297 N 
ENDROOT
BRANCH   1   9
HETATM    9  S1  UNL     1      47.936  66.540  45.353  1.00  0.00    -0.061 SA
BRANCH   9  10
HETATM   10  C2  UNL     1      48.765  65.102  45.940  1.00  0.00     0.091 C 
HETATM   11  C1  UNL     1      48.568  63.803  45.362  1.00  0.00     0.092 C 
BRANCH  11  12
HETATM   12  O1  UNL     1      49.272  62.822  45.944  1.00  0.00    -0.359 OA
ATOM     13  H1  UNL     1      49.726  62.249  45.338  1.00  0.00     0.217 HD
ENDBRANCH  11  12
BRANCH  11  14
HETATM   14  C11 UNL     1      47.770  63.290  44.270  1.00  0.00     0.071 A 
HETATM   15  S3  UNL     1      47.956  63.820  42.597  1.00  0.00    -0.096 SA
HETATM   16  C12 UNL     1      46.767  62.873  41.856  1.00  0.00     0.053 A 
HETATM   17  C13 UNL     1      46.255  62.172  42.899  1.00  0.00     0.045 A 
HETATM   18  C14 UNL     1      46.767  62.385  44.131  1.00  0.00     0.086 A 
BRANCH  18  19
HETATM   19  O2  UNL     1      46.264  61.675  45.257  1.00  0.00    -0.359 OA
ATOM     20  H2  UNL     1      46.086  62.123  46.075  1.00  0.00     0.217 HD
ENDBRANCH  18  19
ENDBRANCH  11  14
ENDBRANCH   9  10
ENDBRANCH   1   9
BRANCH   8  21
HETATM   21  C5  UNL     1      49.808  69.104  46.059  1.00  0.00     0.094 C 
HETATM   22  C6  UNL     1      48.464  69.245  46.721  1.00  0.00     0.026 C 
HETATM   23  C7  UNL     1      48.653  70.318  47.807  1.00  0.00     0.002 C 
HETATM   24  C8  UNL     1      49.968  70.126  48.518  1.00  0.00     0.000 C 
HETATM   25  C9  UNL     1      50.489  68.717  48.403  1.00  0.00     0.002 C 
HETATM   26  C10 UNL     1      50.650  68.232  46.992  1.00  0.00     0.026 C 
ENDBRANCH   8  21
TORSDOF 6
ENDMDL
MODEL 3
REMARK VINA RESULT: -6.272554735      2.086      3.116
REMARK  6 active torsions:
REMARK  status: ('A' for Active; 'I' for Inactive)
REMARK    1  A    between atoms: O1_1  and  C1_3 
REMARK    2  A    between atoms: C1_3  and  C11_20 
REMARK    3  A    between atoms: C2_4  and  S1_5 
REMARK    4  A    between atoms: S1_5  and  C3_6 
REMARK    5  A    between atoms: N3_13  and  C5_14 
REMARK    6  A    between atoms: C14_24  and  O2_25 
ROOT
HETATM    1  C3  UNL     1      48.067  67.914  46.034  1.00  0.00     0.168 A 
HETATM    2  N1  UNL     1      47.075  68.154  46.906  1.00  0.00    -0.277 N 
ATOM      3  H1  UNL     1      46.234  67.590  47.023  1.00  0.00     0.189 HD
HETATM    4  N2  UNL     1      47.379  69.259  47.598  1.00  0.00    -0.274 N 
ATOM      5  H2  UNL     1      46.814  69.685  48.331  1.00  0.00     0.189 HD
HETATM    6  C4  UNL     1      48.573  69.708  47.147  1.00  0.00     0.195 A 
HETATM    7  S2  UNL     1      49.399  71.017  47.647  1.00  0.00    -0.039 SA
HETATM    8  N3  UNL     1      48.999  68.875  46.177  1.00  0.00    -0.297 N 
ENDROOT
BRANCH   1   9
HETATM    9  S1  UNL     1      48.074  66.534  44.904  1.00  0.00    -0.061 SA
BRANCH   9  10
HETATM   10  C2  UNL     1      48.631  65.095  45.751  1.00  0.00     0.091 C 
HETATM   11  C1  UNL     1      48.346  63.766  45.290  1.00  0.00     0.092 C 
BRANCH  11  12
HETATM   12  O1  UNL     1      48.839  62.790  46.066  1.00  0.00    -0.359 OA
ATOM     13  H1  UNL     1      48.941  63.027  46.980  1.00  0.00     0.217 HD
ENDBRANCH  11  12
BRANCH  11  14
HETATM   14  C11 UNL     1      47.636  63.216  44.157  1.00  0.00     0.071 A 
HETATM   15  S3  UNL     1      48.017  63.620  42.481  1.00  0.00    -0.096 SA
HETATM   16  C12 UNL     1      46.860  62.681  41.683  1.00  0.00     0.053 A 
HETATM   17  C13 UNL     1      46.209  62.078  42.710  1.00  0.00     0.045 A 
HETATM   18  C14 UNL     1      46.606  62.351  43.972  1.00  0.00     0.086 A 
BRANCH  18  19
HETATM   19  O2  UNL     1      45.955  61.745  45.082  1.00  0.00    -0.359 OA
ATOM     20  H2  UNL     1      45.078  61.389  44.998  1.00  0.00     0.217 HD
ENDBRANCH  18  19
ENDBRANCH  11  14
ENDBRANCH   9  10
ENDBRANCH   1   9
BRANCH   8  21
HETATM   21  C5  UNL     1      50.195  68.946  45.419  1.00  0.00     0.094 C 
HETATM   22  C6  UNL     1      50.373  70.179  44.576  1.00  0.00     0.026 C 
HETATM   23  C7  UNL     1      51.379  69.784  43.481  1.00  0.00     0.002 C 
HETATM   24  C8  UNL     1      52.489  68.945  44.060  1.00  0.00     0.000 C 
HETATM   25  C9  UNL     1      52.655  69.147  45.544  1.00  0.00     0.002 C 
HETATM   26  C10 UNL     1      51.412  68.885  46.344  1.00  0.00     0.026 C 
ENDBRANCH   8  21
TORSDOF 6
ENDMDL
MODEL 4
REMARK VINA RESULT: -6.173430681      4.501      6.646
REMARK  6 active torsions:
REMARK  status: ('A' for Active; 'I' for Inactive)
REMARK    1  A    between atoms: O1_1  and  C1_3 
REMARK    2  A    between atoms: C1_3  and  C11_20 
REMARK    3  A    between atoms: C2_4  and  S1_5 
REMARK    4  A    between atoms: S1_5  and  C3_6 
REMARK    5  A    between atoms: N3_13  and  C5_14 
REMARK    6  A    between atoms: C14_24  and  O2_25 
ROOT
HETATM    1  C3  UNL     1      46.924  62.623  43.003  1.00  0.00     0.168 A 
HETATM    2  N1  UNL     1      46.218  61.712  43.691  1.00  0.00    -0.277 N 
ATOM      3  H1  UNL     1      45.878  60.822  43.328  1.00  0.00     0.189 HD
HETATM    4  N2  UNL     1      46.035  62.172  44.935  1.00  0.00    -0.274 N 
ATOM      5  H2  UNL     1      45.533  61.696  45.685  1.00  0.00     0.189 HD
HETATM    6  C4  UNL     1      46.635  63.381  45.017  1.00  0.00     0.195 A 
HETATM    7  S2  UNL     1      46.713  64.369  46.306  1.00  0.00    -0.039 SA
HETATM    8  N3  UNL     1      47.187  63.661  43.820  1.00  0.00    -0.297 N 
ENDROOT
BRANCH   1   9
HETATM    9  S1  UNL     1      47.397  62.421  41.296  1.00  0.00    -0.061 SA
BRANCH   9  10
HETATM   10  C2  UNL     1      46.444  61.125  40.580  1.00  0.00     0.091 C 
HETATM   11  C1  UNL     1      46.472  60.826  39.176  1.00  0.00     0.092 C 
BRANCH  11  12
HETATM   12  O1  UNL     1      45.675  59.814  38.807  1.00  0.00    -0.359 OA
ATOM     13  H1  UNL     1      44.952  60.066  38.245  1.00  0.00     0.217 HD
ENDBRANCH  11  12
BRANCH  11  14
HETATM   14  C11 UNL     1      47.177  61.372  38.038  1.00  0.00     0.071 A 
HETATM   15  S3  UNL     1      47.184  63.089  37.629  1.00  0.00    -0.096 SA
HETATM   16  C12 UNL     1      48.151  63.056  36.242  1.00  0.00     0.053 A 
HETATM   17  C13 UNL     1      48.449  61.738  36.121  1.00  0.00     0.045 A 
HETATM   18  C14 UNL     1      47.952  60.878  37.038  1.00  0.00     0.086 A 
BRANCH  18  19
HETATM   19  O2  UNL     1      48.237  59.487  36.954  1.00  0.00    -0.359 OA
ATOM     20  H2  UNL     1      47.984  58.983  36.189  1.00  0.00     0.217 HD
ENDBRANCH  18  19
ENDBRANCH  11  14
ENDBRANCH   9  10
ENDBRANCH   1   9
BRANCH   8  21
HETATM   21  C5  UNL     1      47.917  64.814  43.436  1.00  0.00     0.094 C 
HETATM   22  C6  UNL     1      47.121  65.924  42.806  1.00  0.00     0.026 C 
HETATM   23  C7  UNL     1      48.138  66.750  42.000  1.00  0.00     0.002 C 
HETATM   24  C8  UNL     1      49.420  66.916  42.776  1.00  0.00     0.000 C 
HETATM   25  C9  UNL     1      49.225  66.742  44.260  1.00  0.00     0.002 C 
HETATM   26  C10 UNL     1      48.614  65.428  44.652  1.00  0.00     0.026 C 
ENDBRANCH   8  21
TORSDOF 6
ENDMDL
MODEL 5
REMARK VINA RESULT: -6.152658375      2.089      3.314
REMARK  6 active torsions:
REMARK  status: ('A' for Active; 'I' for Inactive)
REMARK    1  A    between atoms: O1_1  and  C1_3 
REMARK    2  A    between atoms: C1_3  and  C11_20 
REMARK    3  A    between atoms: C2_4  and  S1_5 
REMARK    4  A    between atoms: S1_5  and  C3_6 
REMARK    5  A    between atoms: N3_13  and  C5_14 
REMARK    6  A    between atoms: C14_24  and  O2_25 
ROOT
HETATM    1  C3  UNL     1      48.197  67.919  45.890  1.00  0.00     0.168 A 
HETATM    2  N1  UNL     1      47.240  68.043  46.824  1.00  0.00    -0.277 N 
ATOM      3  H1  UNL     1      46.490  67.376  47.001  1.00  0.00     0.189 HD
HETATM    4  N2  UNL     1      47.441  69.191  47.484  1.00  0.00    -0.274 N 
ATOM      5  H2  UNL     1      46.872  69.553  48.248  1.00  0.00     0.189 HD
HETATM    6  C4  UNL     1      48.534  69.783  46.951  1.00  0.00     0.195 A 
HETATM    7  S2  UNL     1      49.211  71.197  47.384  1.00  0.00    -0.039 SA
HETATM    8  N3  UNL     1      49.003  68.995  45.963  1.00  0.00    -0.297 N 
ENDROOT
BRANCH   1   9
HETATM    9  S1  UNL     1      48.313  66.532  44.775  1.00  0.00    -0.061 SA
BRANCH   9  10
HETATM   10  C2  UNL     1      48.766  65.095  45.684  1.00  0.00     0.091 C 
HETATM   11  C1  UNL     1      48.400  63.769  45.271  1.00  0.00     0.092 C 
BRANCH  11  12
HETATM   12  O1  UNL     1      48.821  62.795  46.090  1.00  0.00    -0.359 OA
ATOM     13  H1  UNL     1      48.541  61.922  45.842  1.00  0.00     0.217 HD
ENDBRANCH  11  12
BRANCH  11  14
HETATM   14  C11 UNL     1      47.668  63.223  44.151  1.00  0.00     0.071 A 
HETATM   15  S3  UNL     1      48.039  63.601  42.467  1.00  0.00    -0.096 SA
HETATM   16  C12 UNL     1      46.854  62.677  41.691  1.00  0.00     0.053 A 
HETATM   17  C13 UNL     1      46.202  62.098  42.731  1.00  0.00     0.045 A 
HETATM   18  C14 UNL     1      46.617  62.377  43.986  1.00  0.00     0.086 A 
BRANCH  18  19
HETATM   19  O2  UNL     1      45.966  61.795  45.109  1.00  0.00    -0.359 OA
ATOM     20  H2  UNL     1      45.938  60.852  45.222  1.00  0.00     0.217 HD
ENDBRANCH  18  19
ENDBRANCH  11  14
ENDBRANCH   9  10
ENDBRANCH   1   9
BRANCH   8  21
HETATM   21  C5  UNL     1      50.128  69.208  45.127  1.00  0.00     0.094 C 
HETATM   22  C6  UNL     1      51.320  68.327  45.383  1.00  0.00     0.026 C 
HETATM   23  C7  UNL     1      52.523  69.086  44.797  1.00  0.00     0.002 C 
HETATM   24  C8  UNL     1      52.160  69.716  43.477  1.00  0.00     0.000 C 
HETATM   25  C9  UNL     1      50.986  69.041  42.816  1.00  0.00     0.002 C 
HETATM   26  C10 UNL     1      49.747  68.993  43.662  1.00  0.00     0.026 C 
ENDBRANCH   8  21
TORSDOF 6
ENDMDL
