MODEL 1
REMARK VINA RESULT: -7.617608691      0.000      0.000
REMARK  7 active torsions:
REMARK  status: ('A' for Active; 'I' for Inactive)
REMARK    1  A    between atoms: N2_6  and  N3_7 
REMARK    2  A    between atoms: C4_9  and  C5_10 
REMARK    3  A    between atoms: C7_12  and  S1_13 
REMARK    4  A    between atoms: S1_13  and  C8_14 
REMARK    5  A    between atoms: C8_14  and  C9_15 
REMARK    6  A    between atoms: C15_21  and  O1_22 
REMARK    7  A    between atoms: C17_25  and  O2_26 
ROOT
HETATM    1  C5  UNL     1      49.142  59.484  35.821  1.00  0.00     0.015 A 
HETATM    2  C6  UNL     1      48.204  60.086  36.638  1.00  0.00     0.037 A 
HETATM    3  C7  UNL     1      48.048  61.450  36.759  1.00  0.00     0.034 A 
HETATM    4  C15 UNL     1      48.880  62.258  36.019  1.00  0.00     0.085 A 
HETATM    5  C16 UNL     1      49.830  61.693  35.193  1.00  0.00     0.075 A 
HETATM    6  C17 UNL     1      49.969  60.327  35.086  1.00  0.00     0.080 A 
ENDROOT
BRANCH   1   7
HETATM    7  C4  UNL     1      49.261  58.021  35.734  1.00  0.00     0.122 C 
HETATM    8  N3  UNL     1      49.107  57.478  34.602  1.00  0.00    -0.303 N 
ATOM      9  H3  UNL     1      48.906  58.106  33.823  1.00  0.00     0.186 HD
BRANCH   8  10
HETATM   10  N2  UNL     1      49.177  56.137  34.302  1.00  0.00    -0.255 N 
HETATM   11  C3  UNL     1      50.260  55.360  34.463  1.00  0.00     0.207 A 
HETATM   12  N1  UNL     1      49.978  54.095  34.067  1.00  0.00    -0.353 N 
HETATM   13  C2  UNL     1      48.716  54.054  33.650  1.00  0.00     0.030 A 
ATOM     14  H1  UNL     1      50.626  53.308  34.085  1.00  0.00     0.166 HD
HETATM   15  C1  UNL     1      47.969  52.884  33.128  1.00  0.00     0.070 C 
HETATM   16  C18 UNL     1      48.213  55.350  33.801  1.00  0.00     0.053 A 
HETATM   17  C19 UNL     1      46.854  55.785  33.468  1.00  0.00     0.072 C 
ENDBRANCH   8  10
ENDBRANCH   1   7
BRANCH   6  18
HETATM   18  O2  UNL     1      50.921  59.729  34.257  1.00  0.00    -0.360 OA
ATOM     19  H2  UNL     1      51.749  59.478  34.650  1.00  0.00     0.217 HD
ENDBRANCH   6  18
BRANCH   3  20
HETATM   20  S1  UNL     1      46.806  62.108  37.841  1.00  0.00    -0.127 SA
BRANCH  20  21
HETATM   21  C8  UNL     1      47.118  61.647  39.568  1.00  0.00     0.084 C 
BRANCH  21  22
HETATM   22  C9  UNL     1      45.914  60.878  40.077  1.00  0.00    -0.005 C 
HETATM   23  C10 UNL     1      45.429  60.014  38.936  1.00  0.00     0.005 C 
HETATM   24  C11 UNL     1      45.805  58.556  39.187  1.00  0.00     0.000 C 
HETATM   25  C12 UNL     1      44.970  58.094  40.361  1.00  0.00     0.000 C 
HETATM   26  C13 UNL     1      45.305  58.938  41.541  1.00  0.00     0.000 C 
HETATM   27  C14 UNL     1      46.280  60.038  41.258  1.00  0.00     0.005 C 
ENDBRANCH  21  22
ENDBRANCH  20  21
ENDBRANCH   3  20
BRANCH   4  28
HETATM   28  O1  UNL     1      48.713  63.627  36.149  1.00  0.00    -0.359 OA
ATOM     29  H1  UNL     1      49.093  64.178  35.474  1.00  0.00     0.217 HD
ENDBRANCH   4  28
TORSDOF 7
ENDMDL
MODEL 2
REMARK VINA RESULT: -7.586098409      7.067     10.618
REMARK  7 active torsions:
REMARK  status: ('A' for Active; 'I' for Inactive)
REMARK    1  A    between atoms: N2_6  and  N3_7 
REMARK    2  A    between atoms: C4_9  and  C5_10 
REMARK    3  A    between atoms: C7_12  and  S1_13 
REMARK    4  A    between atoms: S1_13  and  C8_14 
REMARK    5  A    between atoms: C8_14  and  C9_15 
REMARK    6  A    between atoms: C15_21  and  O1_22 
REMARK    7  A    between atoms: C17_25  and  O2_26 
ROOT
HETATM    1  C5  UNL     1      48.349  65.904  42.990  1.00  0.00     0.015 A 
HETATM    2  C6  UNL     1      47.670  64.734  42.715  1.00  0.00     0.037 A 
HETATM    3  C7  UNL     1      47.479  63.719  43.628  1.00  0.00     0.034 A 
HETATM    4  C15 UNL     1      47.999  63.887  44.891  1.00  0.00     0.085 A 
HETATM    5  C16 UNL     1      48.685  65.044  45.202  1.00  0.00     0.075 A 
HETATM    6  C17 UNL     1      48.864  66.046  44.275  1.00  0.00     0.080 A 
ENDROOT
BRANCH   1   7
HETATM    7  C4  UNL     1      48.521  66.952  41.972  1.00  0.00     0.122 C 
HETATM    8  N3  UNL     1      49.685  67.157  41.522  1.00  0.00    -0.303 N 
ATOM      9  H3  UNL     1      50.428  66.572  41.905  1.00  0.00     0.186 HD
BRANCH   8  10
HETATM   10  N2  UNL     1      50.063  68.080  40.574  1.00  0.00    -0.255 N 
HETATM   11  C3  UNL     1      49.233  68.712  39.728  1.00  0.00     0.207 A 
HETATM   12  N1  UNL     1      49.942  69.549  38.933  1.00  0.00    -0.353 N 
HETATM   13  C2  UNL     1      51.226  69.460  39.262  1.00  0.00     0.030 A 
ATOM     14  H1  UNL     1      49.553  70.147  38.203  1.00  0.00     0.166 HD
HETATM   15  C1  UNL     1      52.372  70.189  38.664  1.00  0.00     0.070 C 
HETATM   16  C18 UNL     1      51.299  68.527  40.302  1.00  0.00     0.053 A 
HETATM   17  C19 UNL     1      52.522  68.104  40.988  1.00  0.00     0.072 C 
ENDBRANCH   8  10
ENDBRANCH   1   7
BRANCH   6  18
HETATM   18  O2  UNL     1      49.552  67.226  44.564  1.00  0.00    -0.360 OA
ATOM     19  H2  UNL     1      49.645  67.466  45.479  1.00  0.00     0.217 HD
ENDBRANCH   6  18
BRANCH   3  20
HETATM   20  S1  UNL     1      46.588  62.259  43.158  1.00  0.00    -0.127 SA
BRANCH  20  21
HETATM   21  C8  UNL     1      46.735  61.934  41.380  1.00  0.00     0.084 C 
BRANCH  21  22
HETATM   22  C9  UNL     1      45.648  60.953  40.987  1.00  0.00    -0.005 C 
HETATM   23  C10 UNL     1      45.599  60.931  39.477  1.00  0.00     0.005 C 
HETATM   24  C11 UNL     1      46.221  59.639  38.952  1.00  0.00     0.000 C 
HETATM   25  C12 UNL     1      45.286  58.520  39.353  1.00  0.00     0.000 C 
HETATM   26  C13 UNL     1      45.187  58.495  40.839  1.00  0.00     0.000 C 
HETATM   27  C14 UNL     1      45.940  59.590  41.527  1.00  0.00     0.005 C 
ENDBRANCH  21  22
ENDBRANCH  20  21
ENDBRANCH   3  20
BRANCH   4  28
HETATM   28  O1  UNL     1      47.801  62.861  45.800  1.00  0.00    -0.359 OA
ATOM     29  H1  UNL     1      48.574  62.423  46.137  1.00  0.00     0.217 HD
ENDBRANCH   4  28
TORSDOF 7
ENDMDL
MODEL 3
REMARK VINA RESULT: -7.572062977      8.406     12.407
REMARK  7 active torsions:
REMARK  status: ('A' for Active; 'I' for Inactive)
REMARK    1  A    between atoms: N2_6  and  N3_7 
REMARK    2  A    between atoms: C4_9  and  C5_10 
REMARK    3  A    between atoms: C7_12  and  S1_13 
REMARK    4  A    between atoms: S1_13  and  C8_14 
REMARK    5  A    between atoms: C8_14  and  C9_15 
REMARK    6  A    between atoms: C15_21  and  O1_22 
REMARK    7  A    between atoms: C17_25  and  O2_26 
ROOT
HETATM    1  C5  UNL     1      47.890  65.284  44.575  1.00  0.00     0.015 A 
HETATM    2  C6  UNL     1      48.005  64.316  43.597  1.00  0.00     0.037 A 
HETATM    3  C7  UNL     1      47.442  63.061  43.684  1.00  0.00     0.034 A 
HETATM    4  C15 UNL     1      46.723  62.758  44.817  1.00  0.00     0.085 A 
HETATM    5  C16 UNL     1      46.587  63.700  45.816  1.00  0.00     0.075 A 
HETATM    6  C17 UNL     1      47.157  64.950  45.709  1.00  0.00     0.080 A 
ENDROOT
BRANCH   1   7
HETATM    7  C4  UNL     1      48.514  66.607  44.425  1.00  0.00     0.122 C 
HETATM    8  N3  UNL     1      49.282  67.010  45.347  1.00  0.00    -0.303 N 
ATOM      9  H3  UNL     1      49.411  66.377  46.136  1.00  0.00     0.186 HD
BRANCH   8  10
HETATM   10  N2  UNL     1      49.962  68.204  45.405  1.00  0.00    -0.255 N 
HETATM   11  C3  UNL     1      51.126  68.468  44.789  1.00  0.00     0.207 A 
HETATM   12  N1  UNL     1      51.511  69.738  45.062  1.00  0.00    -0.353 N 
HETATM   13  C2  UNL     1      50.598  70.296  45.852  1.00  0.00     0.030 A 
ATOM     14  H1  UNL     1      52.358  70.190  44.719  1.00  0.00     0.166 HD
HETATM   15  C1  UNL     1      50.594  71.671  46.407  1.00  0.00     0.070 C 
HETATM   16  C18 UNL     1      49.619  69.320  46.067  1.00  0.00     0.053 A 
HETATM   17  C19 UNL     1      48.412  69.483  46.881  1.00  0.00     0.072 C 
ENDBRANCH   8  10
ENDBRANCH   1   7
BRANCH   6  18
HETATM   18  O2  UNL     1      47.035  65.922  46.704  1.00  0.00    -0.360 OA
ATOM     19  H2  UNL     1      47.836  66.259  47.088  1.00  0.00     0.217 HD
ENDBRANCH   6  18
BRANCH   3  20
HETATM   20  S1  UNL     1      47.658  61.898  42.361  1.00  0.00    -0.127 SA
BRANCH  20  21
HETATM   21  C8  UNL     1      46.562  62.270  40.964  1.00  0.00     0.084 C 
BRANCH  21  22
HETATM   22  C9  UNL     1      45.605  61.107  40.791  1.00  0.00    -0.005 C 
HETATM   23  C10 UNL     1      45.448  60.883  39.305  1.00  0.00     0.005 C 
HETATM   24  C11 UNL     1      46.212  59.631  38.881  1.00  0.00     0.000 C 
HETATM   25  C12 UNL     1      45.484  58.456  39.495  1.00  0.00     0.000 C 
HETATM   26  C13 UNL     1      45.501  58.611  40.976  1.00  0.00     0.000 C 
HETATM   27  C14 UNL     1      46.134  59.878  41.459  1.00  0.00     0.005 C 
ENDBRANCH  21  22
ENDBRANCH  20  21
ENDBRANCH   3  20
BRANCH   4  28
HETATM   28  O1  UNL     1      46.162  61.493  44.893  1.00  0.00    -0.359 OA
ATOM     29  H1  UNL     1      45.460  61.366  45.520  1.00  0.00     0.217 HD
ENDBRANCH   4  28
TORSDOF 7
ENDMDL
MODEL 4
REMARK VINA RESULT: -7.526396626      7.081     10.486
REMARK  7 active torsions:
REMARK  status: ('A' for Active; 'I' for Inactive)
REMARK    1  A    between atoms: N2_6  and  N3_7 
REMARK    2  A    between atoms: C4_9  and  C5_10 
REMARK    3  A    between atoms: C7_12  and  S1_13 
REMARK    4  A    between atoms: S1_13  and  C8_14 
REMARK    5  A    between atoms: C8_14  and  C9_15 
REMARK    6  A    between atoms: C15_21  and  O1_22 
REMARK    7  A    between atoms: C17_25  and  O2_26 
ROOT
HETATM    1  C5  UNL     1      48.425  65.926  43.191  1.00  0.00     0.015 A 
HETATM    2  C6  UNL     1      47.685  64.804  42.874  1.00  0.00     0.037 A 
HETATM    3  C7  UNL     1      47.491  63.741  43.729  1.00  0.00     0.034 A 
HETATM    4  C15 UNL     1      48.074  63.805  44.974  1.00  0.00     0.085 A 
HETATM    5  C16 UNL     1      48.821  64.910  45.326  1.00  0.00     0.075 A 
HETATM    6  C17 UNL     1      49.002  65.964  44.456  1.00  0.00     0.080 A 
ENDROOT
BRANCH   1   7
HETATM    7  C4  UNL     1      48.596  67.031  42.234  1.00  0.00     0.122 C 
HETATM    8  N3  UNL     1      49.703  67.125  41.628  1.00  0.00    -0.303 N 
ATOM      9  H3  UNL     1      50.403  66.418  41.853  1.00  0.00     0.186 HD
BRANCH   8  10
HETATM   10  N2  UNL     1      50.068  68.073  40.701  1.00  0.00    -0.255 N 
HETATM   11  C3  UNL     1      51.162  68.849  40.770  1.00  0.00     0.207 A 
HETATM   12  N1  UNL     1      51.211  69.668  39.693  1.00  0.00    -0.353 N 
HETATM   13  C2  UNL     1      50.152  69.424  38.926  1.00  0.00     0.030 A 
ATOM     14  H1  UNL     1      51.939  70.357  39.501  1.00  0.00     0.166 HD
HETATM   15  C1  UNL     1      49.786  70.076  37.645  1.00  0.00     0.070 C 
HETATM   16  C18 UNL     1      49.431  68.413  39.570  1.00  0.00     0.053 A 
HETATM   17  C19 UNL     1      48.181  67.816  39.092  1.00  0.00     0.072 C 
ENDBRANCH   8  10
ENDBRANCH   1   7
BRANCH   6  18
HETATM   18  O2  UNL     1      49.752  67.094  44.787  1.00  0.00    -0.360 OA
ATOM     19  H2  UNL     1      49.781  67.347  45.702  1.00  0.00     0.217 HD
ENDBRANCH   6  18
BRANCH   3  20
HETATM   20  S1  UNL     1      46.519  62.350  43.210  1.00  0.00    -0.127 SA
BRANCH  20  21
HETATM   21  C8  UNL     1      46.737  62.010  41.442  1.00  0.00     0.084 C 
BRANCH  21  22
HETATM   22  C9  UNL     1      45.657  61.037  41.010  1.00  0.00    -0.005 C 
HETATM   23  C10 UNL     1      45.628  61.053  39.500  1.00  0.00     0.005 C 
HETATM   24  C11 UNL     1      46.259  59.776  38.950  1.00  0.00     0.000 C 
HETATM   25  C12 UNL     1      45.321  58.645  39.311  1.00  0.00     0.000 C 
HETATM   26  C13 UNL     1      45.204  58.583  40.795  1.00  0.00     0.000 C 
HETATM   27  C14 UNL     1      45.946  59.661  41.520  1.00  0.00     0.005 C 
ENDBRANCH  21  22
ENDBRANCH  20  21
ENDBRANCH   3  20
BRANCH   4  28
HETATM   28  O1  UNL     1      47.872  62.730  45.824  1.00  0.00    -0.359 OA
ATOM     29  H1  UNL     1      47.115  62.765  46.397  1.00  0.00     0.217 HD
ENDBRANCH   4  28
TORSDOF 7
ENDMDL
MODEL 5
REMARK VINA RESULT: -7.498023294      6.354     10.187
REMARK  7 active torsions:
REMARK  status: ('A' for Active; 'I' for Inactive)
REMARK    1  A    between atoms: N2_6  and  N3_7 
REMARK    2  A    between atoms: C4_9  and  C5_10 
REMARK    3  A    between atoms: C7_12  and  S1_13 
REMARK    4  A    between atoms: S1_13  and  C8_14 
REMARK    5  A    between atoms: C8_14  and  C9_15 
REMARK    6  A    between atoms: C15_21  and  O1_22 
REMARK    7  A    between atoms: C17_25  and  O2_26 
ROOT
HETATM    1  C5  UNL     1      47.307  62.325  41.431  1.00  0.00     0.015 A 
HETATM    2  C6  UNL     1      47.653  62.161  40.105  1.00  0.00     0.037 A 
HETATM    3  C7  UNL     1      46.999  61.315  39.236  1.00  0.00     0.034 A 
HETATM    4  C15 UNL     1      45.936  60.590  39.725  1.00  0.00     0.085 A 
HETATM    5  C16 UNL     1      45.562  60.728  41.046  1.00  0.00     0.075 A 
HETATM    6  C17 UNL     1      46.229  61.581  41.898  1.00  0.00     0.080 A 
ENDROOT
BRANCH   1   7
HETATM    7  C4  UNL     1      48.046  63.245  42.311  1.00  0.00     0.122 C 
HETATM    8  N3  UNL     1      47.392  64.148  42.909  1.00  0.00    -0.303 N 
ATOM      9  H3  UNL     1      46.388  64.172  42.732  1.00  0.00     0.186 HD
BRANCH   8  10
HETATM   10  N2  UNL     1      47.883  65.102  43.770  1.00  0.00    -0.255 N 
HETATM   11  C3  UNL     1      47.790  65.064  45.109  1.00  0.00     0.207 A 
HETATM   12  N1  UNL     1      48.378  66.162  45.640  1.00  0.00    -0.353 N 
HETATM   13  C2  UNL     1      48.851  66.911  44.649  1.00  0.00     0.030 A 
ATOM     14  H1  UNL     1      48.446  66.379  46.635  1.00  0.00     0.166 HD
HETATM   15  C1  UNL     1      49.572  68.203  44.747  1.00  0.00     0.070 C 
HETATM   16  C18 UNL     1      48.534  66.235  43.465  1.00  0.00     0.053 A 
HETATM   17  C19 UNL     1      48.859  66.685  42.109  1.00  0.00     0.072 C 
ENDBRANCH   8  10
ENDBRANCH   1   7
BRANCH   6  18
HETATM   18  O2  UNL     1      45.871  61.739  43.239  1.00  0.00    -0.360 OA
ATOM     19  H2  UNL     1      46.457  61.379  43.894  1.00  0.00     0.217 HD
ENDBRANCH   6  18
BRANCH   3  20
HETATM   20  S1  UNL     1      47.535  61.187  37.550  1.00  0.00    -0.127 SA
BRANCH  20  21
HETATM   21  C8  UNL     1      47.982  62.807  36.869  1.00  0.00     0.084 C 
BRANCH  21  22
HETATM   22  C9  UNL     1      46.871  63.784  37.204  1.00  0.00    -0.005 C 
HETATM   23  C10 UNL     1      47.501  65.155  37.285  1.00  0.00     0.005 C 
HETATM   24  C11 UNL     1      47.131  65.975  36.051  1.00  0.00     0.000 C 
HETATM   25  C12 UNL     1      45.648  66.258  36.153  1.00  0.00     0.000 C 
HETATM   26  C13 UNL     1      44.918  64.960  36.166  1.00  0.00     0.000 C 
HETATM   27  C14 UNL     1      45.803  63.752  36.159  1.00  0.00     0.005 C 
ENDBRANCH  21  22
ENDBRANCH  20  21
ENDBRANCH   3  20
BRANCH   4  28
HETATM   28  O1  UNL     1      45.286  59.744  38.842  1.00  0.00    -0.359 OA
ATOM     29  H1  UNL     1      45.793  59.402  38.115  1.00  0.00     0.217 HD
ENDBRANCH   4  28
TORSDOF 7
ENDMDL
