MODEL 1
REMARK VINA RESULT: -6.267815238      0.000      0.000
REMARK  8 active torsions:
REMARK  status: ('A' for Active; 'I' for Inactive)
REMARK    1  A    between atoms: C2_2  and  C3_3 
REMARK    2  A    between atoms: C3_3  and  O2_5 
REMARK    3  A    between atoms: O2_5  and  C4_6 
REMARK    4  A    between atoms: C5_7  and  C6_8 
REMARK    5  A    between atoms: N1_9  and  O3_11 
REMARK    6  A    between atoms: C15_21  and  O4_22 
REMARK    7  A    between atoms: N2_24  and  C16_25 
REMARK    8  A    between atoms: C18_27  and  O5_28 
ROOT
HETATM    1  C4  UNL     1      48.313  66.775  44.156  1.00  0.00     0.103 A 
HETATM    2  C5  UNL     1      48.229  67.132  45.416  1.00  0.00     0.008 A 
HETATM    3  C7  UNL     1      49.293  68.157  45.692  1.00  0.00     0.023 A 
HETATM    4  C8  UNL     1      48.684  69.413  46.182  1.00  0.00     0.019 C 
HETATM    5  C9  UNL     1      49.000  69.911  47.521  1.00  0.00     0.001 C 
HETATM    6  C10 UNL     1      50.122  69.291  48.255  1.00  0.00     0.000 C 
HETATM    7  C11 UNL     1      50.407  67.886  47.952  1.00  0.00     0.001 C 
HETATM    8  C12 UNL     1      50.309  67.488  46.550  1.00  0.00     0.019 C 
HETATM    9  C13 UNL     1      49.923  68.345  44.330  1.00  0.00     0.024 A 
HETATM   10  C14 UNL     1      49.337  67.491  43.449  1.00  0.00     0.061 A 
HETATM   11  C15 UNL     1      49.937  67.649  42.193  1.00  0.00     0.158 A 
HETATM   12  N2  UNL     1      50.874  68.595  42.335  1.00  0.00    -0.307 N 
HETATM   13  C18 UNL     1      50.895  69.048  43.634  1.00  0.00     0.154 A 
ENDROOT
BRANCH   1  14
HETATM   14  O2  UNL     1      47.471  65.793  43.566  1.00  0.00    -0.277 OA
BRANCH  14  15
HETATM   15  C3  UNL     1      48.012  64.543  43.301  1.00  0.00     0.263 C 
HETATM   16  O1  UNL     1      48.611  63.951  44.217  1.00  0.00    -0.265 OA
BRANCH  15  17
HETATM   17  C2  UNL     1      47.904  63.886  41.975  1.00  0.00     0.107 C 
HETATM   18  C1  UNL     1      47.162  62.575  42.096  1.00  0.00     0.015 C 
ENDBRANCH  15  17
ENDBRANCH  14  15
ENDBRANCH   1  14
BRANCH   2  19
HETATM   19  C6  UNL     1      47.248  66.560  46.360  1.00  0.00     0.124 C 
HETATM   20  N1  UNL     1      47.196  65.320  46.558  1.00  0.00    -0.280 N 
ATOM     21  H1  UNL     1      47.860  64.750  46.034  1.00  0.00     0.193 HD
BRANCH  20  22
HETATM   22  O3  UNL     1      46.359  64.658  47.385  1.00  0.00    -0.290 OA
ATOM     23  H3  UNL     1      46.586  64.189  48.178  1.00  0.00     0.244 HD
ENDBRANCH  20  22
ENDBRANCH   2  19
BRANCH  11  24
HETATM   24  O4  UNL     1      49.593  66.944  41.068  1.00  0.00    -0.345 OA
ATOM     25  H4  UNL     1      48.740  66.973  40.651  1.00  0.00     0.219 HD
ENDBRANCH  11  24
BRANCH  13  26
HETATM   26  O5  UNL     1      51.760  70.010  44.038  1.00  0.00    -0.340 OA
HETATM   27  C19 UNL     1      52.163  70.517  45.223  1.00  0.00     0.211 C 
ENDBRANCH  13  26
BRANCH  12  28
HETATM   28  C16 UNL     1      51.762  69.105  41.309  1.00  0.00     0.129 C 
HETATM   29  C17 UNL     1      52.881  68.176  40.977  1.00  0.00     0.027 C 
ENDBRANCH  12  28
TORSDOF 8
ENDMDL
MODEL 2
REMARK VINA RESULT: -6.173321422      1.128      1.389
REMARK  8 active torsions:
REMARK  status: ('A' for Active; 'I' for Inactive)
REMARK    1  A    between atoms: C2_2  and  C3_3 
REMARK    2  A    between atoms: C3_3  and  O2_5 
REMARK    3  A    between atoms: O2_5  and  C4_6 
REMARK    4  A    between atoms: C5_7  and  C6_8 
REMARK    5  A    between atoms: N1_9  and  O3_11 
REMARK    6  A    between atoms: C15_21  and  O4_22 
REMARK    7  A    between atoms: N2_24  and  C16_25 
REMARK    8  A    between atoms: C18_27  and  O5_28 
ROOT
HETATM    1  C4  UNL     1      49.312  66.695  44.456  1.00  0.00     0.103 A 
HETATM    2  C5  UNL     1      49.042  67.008  45.702  1.00  0.00     0.008 A 
HETATM    3  C7  UNL     1      49.485  68.424  45.942  1.00  0.00     0.023 A 
HETATM    4  C8  UNL     1      48.342  69.254  46.383  1.00  0.00     0.019 C 
HETATM    5  C9  UNL     1      48.356  69.884  47.703  1.00  0.00     0.001 C 
HETATM    6  C10 UNL     1      49.622  69.897  48.463  1.00  0.00     0.000 C 
HETATM    7  C11 UNL     1      50.547  68.788  48.214  1.00  0.00     0.001 C 
HETATM    8  C12 UNL     1      50.679  68.348  46.828  1.00  0.00     0.019 C 
HETATM    9  C13 UNL     1      49.978  68.847  44.577  1.00  0.00     0.024 A 
HETATM   10  C14 UNL     1      49.887  67.789  43.726  1.00  0.00     0.061 A 
HETATM   11  C15 UNL     1      50.366  68.173  42.467  1.00  0.00     0.158 A 
HETATM   12  N2  UNL     1      50.737  69.455  42.576  1.00  0.00    -0.307 N 
HETATM   13  C18 UNL     1      50.514  69.905  43.857  1.00  0.00     0.154 A 
ENDROOT
BRANCH   1  14
HETATM   14  O2  UNL     1      49.051  65.412  43.901  1.00  0.00    -0.277 OA
BRANCH  14  15
HETATM   15  C3  UNL     1      47.998  65.289  43.007  1.00  0.00     0.263 C 
HETATM   16  O1  UNL     1      47.547  66.321  42.478  1.00  0.00    -0.265 OA
BRANCH  15  17
HETATM   17  C2  UNL     1      47.392  63.981  42.655  1.00  0.00     0.107 C 
HETATM   18  C1  UNL     1      47.257  63.115  43.887  1.00  0.00     0.015 C 
ENDBRANCH  15  17
ENDBRANCH  14  15
ENDBRANCH   1  14
BRANCH   2  19
HETATM   19  C6  UNL     1      48.432  66.069  46.664  1.00  0.00     0.124 C 
HETATM   20  N1  UNL     1      47.292  65.584  46.453  1.00  0.00    -0.280 N 
ATOM     21  H1  UNL     1      46.828  65.878  45.593  1.00  0.00     0.193 HD
BRANCH  20  22
HETATM   22  O3  UNL     1      46.612  64.720  47.236  1.00  0.00    -0.290 OA
ATOM     23  H3  UNL     1      45.671  64.613  47.291  1.00  0.00     0.244 HD
ENDBRANCH  20  22
ENDBRANCH   2  19
BRANCH  11  24
HETATM   24  O4  UNL     1      50.421  67.354  41.368  1.00  0.00    -0.345 OA
ATOM     25  H4  UNL     1      50.362  67.651  40.468  1.00  0.00     0.219 HD
ENDBRANCH  11  24
BRANCH  13  26
HETATM   26  O5  UNL     1      50.808  71.174  44.227  1.00  0.00    -0.340 OA
HETATM   27  C19 UNL     1      50.918  71.845  45.395  1.00  0.00     0.211 C 
ENDBRANCH  13  26
BRANCH  12  28
HETATM   28  C16 UNL     1      51.296  70.294  41.534  1.00  0.00     0.129 C 
HETATM   29  C17 UNL     1      50.266  70.892  40.636  1.00  0.00     0.027 C 
ENDBRANCH  12  28
TORSDOF 8
ENDMDL
MODEL 3
REMARK VINA RESULT: -6.001335188      9.022     12.550
REMARK  8 active torsions:
REMARK  status: ('A' for Active; 'I' for Inactive)
REMARK    1  A    between atoms: C2_2  and  C3_3 
REMARK    2  A    between atoms: C3_3  and  O2_5 
REMARK    3  A    between atoms: O2_5  and  C4_6 
REMARK    4  A    between atoms: C5_7  and  C6_8 
REMARK    5  A    between atoms: N1_9  and  O3_11 
REMARK    6  A    between atoms: C15_21  and  O4_22 
REMARK    7  A    between atoms: N2_24  and  C16_25 
REMARK    8  A    between atoms: C18_27  and  O5_28 
ROOT
HETATM    1  C4  UNL     1      48.848  57.837  36.493  1.00  0.00     0.103 A 
HETATM    2  C5  UNL     1      49.412  58.642  35.623  1.00  0.00     0.008 A 
HETATM    3  C7  UNL     1      48.873  60.029  35.838  1.00  0.00     0.023 A 
HETATM    4  C8  UNL     1      49.975  60.969  36.139  1.00  0.00     0.019 C 
HETATM    5  C9  UNL     1      50.250  62.092  35.244  1.00  0.00     0.001 C 
HETATM    6  C10 UNL     1      49.258  62.418  34.200  1.00  0.00     0.000 C 
HETATM    7  C11 UNL     1      48.453  61.304  33.690  1.00  0.00     0.001 C 
HETATM    8  C12 UNL     1      47.996  60.326  34.673  1.00  0.00     0.019 C 
HETATM    9  C13 UNL     1      47.967  59.842  37.034  1.00  0.00     0.024 A 
HETATM   10  C14 UNL     1      47.953  58.527  37.379  1.00  0.00     0.061 A 
HETATM   11  C15 UNL     1      47.094  58.350  38.472  1.00  0.00     0.158 A 
HETATM   12  N2  UNL     1      46.605  59.560  38.770  1.00  0.00    -0.307 N 
HETATM   13  C18 UNL     1      47.117  60.503  37.909  1.00  0.00     0.154 A 
ENDROOT
BRANCH   1  14
HETATM   14  O2  UNL     1      49.108  56.440  36.545  1.00  0.00    -0.277 OA
BRANCH  14  15
HETATM   15  C3  UNL     1      48.092  55.572  36.174  1.00  0.00     0.263 C 
HETATM   16  O1  UNL     1      47.482  54.958  37.069  1.00  0.00    -0.265 OA
BRANCH  15  17
HETATM   17  C2  UNL     1      47.703  55.349  34.760  1.00  0.00     0.107 C 
HETATM   18  C1  UNL     1      46.626  54.292  34.670  1.00  0.00     0.015 C 
ENDBRANCH  15  17
ENDBRANCH  14  15
ENDBRANCH   1  14
BRANCH   2  19
HETATM   19  C6  UNL     1      50.385  58.190  34.608  1.00  0.00     0.124 C 
HETATM   20  N1  UNL     1      51.619  58.335  34.793  1.00  0.00    -0.280 N 
ATOM     21  H1  UNL     1      51.897  58.775  35.670  1.00  0.00     0.193 HD
BRANCH  20  22
HETATM   22  O3  UNL     1      52.619  57.974  33.961  1.00  0.00    -0.290 OA
ATOM     23  H3  UNL     1      53.519  57.782  34.193  1.00  0.00     0.244 HD
ENDBRANCH  20  22
ENDBRANCH   2  19
BRANCH  11  24
HETATM   24  O4  UNL     1      46.841  57.147  39.080  1.00  0.00    -0.345 OA
ATOM     25  H4  UNL     1      46.515  57.047  39.967  1.00  0.00     0.219 HD
ENDBRANCH  11  24
BRANCH  13  26
HETATM   26  O5  UNL     1      46.775  61.810  38.001  1.00  0.00    -0.340 OA
HETATM   27  C19 UNL     1      47.111  62.949  37.356  1.00  0.00     0.211 C 
ENDBRANCH  13  26
BRANCH  12  28
HETATM   28  C16 UNL     1      45.671  59.886  39.830  1.00  0.00     0.129 C 
HETATM   29  C17 UNL     1      46.335  60.228  41.122  1.00  0.00     0.027 C 
ENDBRANCH  12  28
TORSDOF 8
ENDMDL
MODEL 4
REMARK VINA RESULT: -5.650895308      8.668     12.531
REMARK  8 active torsions:
REMARK  status: ('A' for Active; 'I' for Inactive)
REMARK    1  A    between atoms: C2_2  and  C3_3 
REMARK    2  A    between atoms: C3_3  and  O2_5 
REMARK    3  A    between atoms: O2_5  and  C4_6 
REMARK    4  A    between atoms: C5_7  and  C6_8 
REMARK    5  A    between atoms: N1_9  and  O3_11 
REMARK    6  A    between atoms: C15_21  and  O4_22 
REMARK    7  A    between atoms: N2_24  and  C16_25 
REMARK    8  A    between atoms: C18_27  and  O5_28 
ROOT
HETATM    1  C4  UNL     1      48.559  61.866  35.739  1.00  0.00     0.103 A 
HETATM    2  C5  UNL     1      49.242  61.243  34.808  1.00  0.00     0.008 A 
HETATM    3  C7  UNL     1      49.288  59.780  35.149  1.00  0.00     0.023 A 
HETATM    4  C8  UNL     1      48.699  58.977  34.054  1.00  0.00     0.019 C 
HETATM    5  C9  UNL     1      49.517  58.003  33.333  1.00  0.00     0.001 C 
HETATM    6  C10 UNL     1      50.842  57.652  33.884  1.00  0.00     0.000 C 
HETATM    7  C11 UNL     1      51.523  58.689  34.664  1.00  0.00     0.001 C 
HETATM    8  C12 UNL     1      50.688  59.486  35.559  1.00  0.00     0.019 C 
HETATM    9  C13 UNL     1      48.440  59.712  36.399  1.00  0.00     0.024 A 
HETATM   10  C14 UNL     1      48.047  60.969  36.737  1.00  0.00     0.061 A 
HETATM   11  C15 UNL     1      47.282  60.910  37.909  1.00  0.00     0.158 A 
HETATM   12  N2  UNL     1      47.224  59.619  38.259  1.00  0.00    -0.307 N 
HETATM   13  C18 UNL     1      47.923  58.852  37.356  1.00  0.00     0.154 A 
ENDROOT
BRANCH   1  14
HETATM   14  O2  UNL     1      48.350  63.273  35.743  1.00  0.00    -0.277 OA
BRANCH  14  15
HETATM   15  C3  UNL     1      47.067  63.743  35.506  1.00  0.00     0.263 C 
HETATM   16  O1  UNL     1      46.453  63.311  34.512  1.00  0.00    -0.265 OA
BRANCH  15  17
HETATM   17  C2  UNL     1      46.399  64.734  36.385  1.00  0.00     0.107 C 
HETATM   18  C1  UNL     1      47.426  65.606  37.070  1.00  0.00     0.015 C 
ENDBRANCH  15  17
ENDBRANCH  14  15
ENDBRANCH   1  14
BRANCH   2  19
HETATM   19  C6  UNL     1      49.863  61.930  33.657  1.00  0.00     0.124 C 
HETATM   20  N1  UNL     1      50.409  63.053  33.799  1.00  0.00    -0.280 N 
ATOM     21  H1  UNL     1      50.395  63.448  34.739  1.00  0.00     0.193 HD
BRANCH  20  22
HETATM   22  O3  UNL     1      51.013  63.795  32.846  1.00  0.00    -0.290 OA
ATOM     23  H3  UNL     1      51.162  63.557  31.939  1.00  0.00     0.244 HD
ENDBRANCH  20  22
ENDBRANCH   2  19
BRANCH  11  24
HETATM   24  O4  UNL     1      46.724  61.995  38.535  1.00  0.00    -0.345 OA
ATOM     25  H4  UNL     1      46.171  61.950  39.305  1.00  0.00     0.219 HD
ENDBRANCH  11  24
BRANCH  13  26
HETATM   26  O5  UNL     1      48.018  57.506  37.488  1.00  0.00    -0.340 OA
HETATM   27  C19 UNL     1      48.771  56.528  36.940  1.00  0.00     0.211 C 
ENDBRANCH  13  26
BRANCH  12  28
HETATM   28  C16 UNL     1      46.542  59.056  39.408  1.00  0.00     0.129 C 
HETATM   29  C17 UNL     1      45.054  59.104  39.298  1.00  0.00     0.027 C 
ENDBRANCH  12  28
TORSDOF 8
ENDMDL
MODEL 5
REMARK VINA RESULT: -5.627462626      9.521     12.295
REMARK  8 active torsions:
REMARK  status: ('A' for Active; 'I' for Inactive)
REMARK    1  A    between atoms: C2_2  and  C3_3 
REMARK    2  A    between atoms: C3_3  and  O2_5 
REMARK    3  A    between atoms: O2_5  and  C4_6 
REMARK    4  A    between atoms: C5_7  and  C6_8 
REMARK    5  A    between atoms: N1_9  and  O3_11 
REMARK    6  A    between atoms: C15_21  and  O4_22 
REMARK    7  A    between atoms: N2_24  and  C16_25 
REMARK    8  A    between atoms: C18_27  and  O5_28 
ROOT
HETATM    1  C4  UNL     1      47.813  60.358  37.374  1.00  0.00     0.103 A 
HETATM    2  C5  UNL     1      48.000  61.364  36.552  1.00  0.00     0.008 A 
HETATM    3  C7  UNL     1      48.671  60.845  35.311  1.00  0.00     0.023 A 
HETATM    4  C8  UNL     1      47.845  61.135  34.119  1.00  0.00     0.019 C 
HETATM    5  C9  UNL     1      48.361  61.998  33.057  1.00  0.00     0.001 C 
HETATM    6  C10 UNL     1      49.795  62.350  33.072  1.00  0.00     0.000 C 
HETATM    7  C11 UNL     1      50.443  62.401  34.385  1.00  0.00     0.001 C 
HETATM    8  C12 UNL     1      50.067  61.362  35.339  1.00  0.00     0.019 C 
HETATM    9  C13 UNL     1      48.748  59.359  35.580  1.00  0.00     0.024 A 
HETATM   10  C14 UNL     1      48.256  59.108  36.823  1.00  0.00     0.061 A 
HETATM   11  C15 UNL     1      48.349  57.735  37.083  1.00  0.00     0.158 A 
HETATM   12  N2  UNL     1      48.893  57.178  35.993  1.00  0.00    -0.307 N 
HETATM   13  C18 UNL     1      49.152  58.144  35.048  1.00  0.00     0.154 A 
ENDROOT
BRANCH   1  14
HETATM   14  O2  UNL     1      47.228  60.503  38.662  1.00  0.00    -0.277 OA
BRANCH  14  15
HETATM   15  C3  UNL     1      45.872  60.246  38.797  1.00  0.00     0.263 C 
HETATM   16  O1  UNL     1      45.065  61.122  38.435  1.00  0.00    -0.265 OA
BRANCH  15  17
HETATM   17  C2  UNL     1      45.347  58.973  39.350  1.00  0.00     0.107 C 
HETATM   18  C1  UNL     1      45.703  58.850  40.814  1.00  0.00     0.015 C 
ENDBRANCH  15  17
ENDBRANCH  14  15
ENDBRANCH   1  14
BRANCH   2  19
HETATM   19  C6  UNL     1      47.619  62.755  36.867  1.00  0.00     0.124 C 
HETATM   20  N1  UNL     1      46.494  63.204  36.530  1.00  0.00    -0.280 N 
ATOM     21  H1  UNL     1      45.879  62.558  36.036  1.00  0.00     0.193 HD
BRANCH  20  22
HETATM   22  O3  UNL     1      46.010  64.445  36.749  1.00  0.00    -0.290 OA
ATOM     23  H3  UNL     1      46.058  65.192  36.165  1.00  0.00     0.244 HD
ENDBRANCH  20  22
ENDBRANCH   2  19
BRANCH  11  24
HETATM   24  O4  UNL     1      47.945  57.129  38.245  1.00  0.00    -0.345 OA
ATOM     25  H4  UNL     1      48.418  56.434  38.686  1.00  0.00     0.219 HD
ENDBRANCH  11  24
BRANCH  13  26
HETATM   26  O5  UNL     1      49.707  57.837  33.851  1.00  0.00    -0.340 OA
HETATM   27  C19 UNL     1      49.514  58.211  32.567  1.00  0.00     0.211 C 
ENDBRANCH  13  26
BRANCH  12  28
HETATM   28  C16 UNL     1      49.189  55.775  35.785  1.00  0.00     0.129 C 
HETATM   29  C17 UNL     1      48.065  55.017  35.162  1.00  0.00     0.027 C 
ENDBRANCH  12  28
TORSDOF 8
ENDMDL
