MODEL 1
REMARK VINA RESULT: -8.954081781      0.000      0.000
REMARK  7 active torsions:
REMARK  status: ('A' for Active; 'I' for Inactive)
REMARK       I    between atoms: C3_3  and  N1_5 
REMARK    1  A    between atoms: N2_7  and  C4_9 
REMARK    2  A    between atoms: C5_10  and  O2_11 
REMARK    3  A    between atoms: C6_13  and  O3_14 
REMARK    4  A    between atoms: N3_16  and  C7_17 
REMARK    5  A    between atoms: C13_23  and  O4_24 
REMARK    6  A    between atoms: O4_24  and  C14_25 
REMARK    7  A    between atoms: C14_25  and  C15_26 
ROOT
HETATM    1  C1  UNL     1      45.171  58.763  40.769  1.00  0.00     0.023 C 
HETATM    2  C2  UNL     1      45.734  59.832  40.861  1.00  0.00    -0.015 C 
HETATM    3  C3  UNL     1      46.412  61.092  40.951  1.00  0.00     0.314 C 
HETATM    4  O1  UNL     1      46.970  61.562  39.927  1.00  0.00    -0.256 OA
HETATM    5  N1  UNL     1      46.482  61.841  42.155  1.00  0.00    -0.258 N 
ATOM      6  H1  UNL     1      45.744  61.712  42.847  1.00  0.00     0.191 HD
HETATM    7  N2  UNL     1      47.408  62.656  42.414  1.00  0.00    -0.291 N 
ATOM      8  H2  UNL     1      48.165  62.813  41.748  1.00  0.00     0.187 HD
ENDROOT
BRANCH   7   9
HETATM    9  C4  UNL     1      47.374  63.349  43.654  1.00  0.00     0.137 A 
HETATM   10  C5  UNL     1      46.709  62.883  44.769  1.00  0.00     0.150 A 
HETATM   11  C6  UNL     1      46.920  63.837  45.744  1.00  0.00     0.181 A 
HETATM   12  N3  UNL     1      47.672  64.841  45.268  1.00  0.00    -0.299 N 
HETATM   13  C13 UNL     1      47.960  64.557  43.986  1.00  0.00     0.179 A 
BRANCH  10  14
HETATM   14  O2  UNL     1      45.976  61.684  44.867  1.00  0.00    -0.355 OA
ATOM     15  H2  UNL     1      46.304  60.806  44.714  1.00  0.00     0.218 HD
ENDBRANCH  10  14
BRANCH  11  16
HETATM   16  O3  UNL     1      46.417  63.755  47.032  1.00  0.00    -0.344 OA
ATOM     17  H3  UNL     1      46.907  63.991  47.810  1.00  0.00     0.219 HD
ENDBRANCH  11  16
BRANCH  12  18
HETATM   18  C7  UNL     1      48.128  66.034  45.940  1.00  0.00     0.094 C 
HETATM   19  C8  UNL     1      49.566  66.387  45.573  1.00  0.00     0.026 C 
HETATM   20  C9  UNL     1      49.976  67.503  46.525  1.00  0.00     0.002 C 
HETATM   21  C10 UNL     1      49.079  68.709  46.390  1.00  0.00     0.000 C 
HETATM   22  C11 UNL     1      47.640  68.302  46.653  1.00  0.00     0.002 C 
HETATM   23  C12 UNL     1      47.301  67.265  45.575  1.00  0.00     0.026 C 
ENDBRANCH  12  18
BRANCH  13  24
HETATM   24  O4  UNL     1      48.707  65.291  43.081  1.00  0.00    -0.327 OA
BRANCH  24  25
HETATM   25  C14 UNL     1      48.100  66.097  42.117  1.00  0.00     0.242 C 
BRANCH  25  26
HETATM   26  C15 UNL     1      49.050  67.006  41.453  1.00  0.00     0.076 A 
HETATM   27  C16 UNL     1      48.653  67.847  40.407  1.00  0.00     0.037 A 
HETATM   28  C17 UNL     1      49.751  68.565  40.001  1.00  0.00     0.027 A 
HETATM   29  C18 UNL     1      50.784  68.135  40.818  1.00  0.00     0.142 A 
HETATM   30  O5  UNL     1      50.309  67.236  41.630  1.00  0.00    -0.325 OA
ENDBRANCH  25  26
ENDBRANCH  24  25
ENDBRANCH  13  24
ENDBRANCH   7   9
TORSDOF 7
ENDMDL
MODEL 2
REMARK VINA RESULT: -8.732357033      0.583      1.108
REMARK  7 active torsions:
REMARK  status: ('A' for Active; 'I' for Inactive)
REMARK       I    between atoms: C3_3  and  N1_5 
REMARK    1  A    between atoms: N2_7  and  C4_9 
REMARK    2  A    between atoms: C5_10  and  O2_11 
REMARK    3  A    between atoms: C6_13  and  O3_14 
REMARK    4  A    between atoms: N3_16  and  C7_17 
REMARK    5  A    between atoms: C13_23  and  O4_24 
REMARK    6  A    between atoms: O4_24  and  C14_25 
REMARK    7  A    between atoms: C14_25  and  C15_26 
ROOT
HETATM    1  C1  UNL     1      44.753  58.315  41.133  1.00  0.00     0.023 C 
HETATM    2  C2  UNL     1      45.371  59.354  41.055  1.00  0.00    -0.015 C 
HETATM    3  C3  UNL     1      46.114  60.576  40.945  1.00  0.00     0.314 C 
HETATM    4  O1  UNL     1      46.672  60.856  39.855  1.00  0.00    -0.256 OA
HETATM    5  N1  UNL     1      46.247  61.492  42.021  1.00  0.00    -0.258 N 
ATOM      6  H1  UNL     1      45.519  61.508  42.735  1.00  0.00     0.191 HD
HETATM    7  N2  UNL     1      47.219  62.286  42.141  1.00  0.00    -0.291 N 
ATOM      8  H2  UNL     1      47.968  62.302  41.449  1.00  0.00     0.187 HD
ENDROOT
BRANCH   7   9
HETATM    9  C4  UNL     1      47.246  63.159  43.262  1.00  0.00     0.137 A 
HETATM   10  C5  UNL     1      46.674  62.853  44.480  1.00  0.00     0.150 A 
HETATM   11  C6  UNL     1      46.919  63.949  45.283  1.00  0.00     0.181 A 
HETATM   12  N3  UNL     1      47.605  64.885  44.610  1.00  0.00    -0.299 N 
HETATM   13  C13 UNL     1      47.814  64.415  43.368  1.00  0.00     0.179 A 
BRANCH  10  14
HETATM   14  O2  UNL     1      45.987  61.667  44.809  1.00  0.00    -0.355 OA
ATOM     15  H2  UNL     1      45.439  61.152  44.229  1.00  0.00     0.218 HD
ENDBRANCH  10  14
BRANCH  11  16
HETATM   16  O3  UNL     1      46.508  64.051  46.601  1.00  0.00    -0.344 OA
ATOM     17  H3  UNL     1      46.908  64.629  47.240  1.00  0.00     0.219 HD
ENDBRANCH  11  16
BRANCH  12  18
HETATM   18  C7  UNL     1      48.067  66.174  45.061  1.00  0.00     0.094 C 
HETATM   19  C8  UNL     1      47.220  66.721  46.206  1.00  0.00     0.026 C 
HETATM   20  C9  UNL     1      47.670  68.163  46.403  1.00  0.00     0.002 C 
HETATM   21  C10 UNL     1      49.140  68.248  46.738  1.00  0.00     0.000 C 
HETATM   22  C11 UNL     1      49.950  67.597  45.631  1.00  0.00     0.002 C 
HETATM   23  C12 UNL     1      49.497  66.131  45.596  1.00  0.00     0.026 C 
ENDBRANCH  12  18
BRANCH  13  24
HETATM   24  O4  UNL     1      48.475  65.020  42.311  1.00  0.00    -0.327 OA
BRANCH  24  25
HETATM   25  C14 UNL     1      48.070  66.258  41.810  1.00  0.00     0.242 C 
BRANCH  25  26
HETATM   26  C15 UNL     1      49.205  67.128  41.458  1.00  0.00     0.076 A 
HETATM   27  C16 UNL     1      49.123  68.055  40.411  1.00  0.00     0.037 A 
HETATM   28  C17 UNL     1      50.327  68.709  40.329  1.00  0.00     0.027 A 
HETATM   29  C18 UNL     1      51.106  68.156  41.333  1.00  0.00     0.142 A 
HETATM   30  O5  UNL     1      50.396  67.252  41.942  1.00  0.00    -0.325 OA
ENDBRANCH  25  26
ENDBRANCH  24  25
ENDBRANCH  13  24
ENDBRANCH   7   9
TORSDOF 7
ENDMDL
MODEL 3
REMARK VINA RESULT: -8.315035538      1.521      6.140
REMARK  7 active torsions:
REMARK  status: ('A' for Active; 'I' for Inactive)
REMARK       I    between atoms: C3_3  and  N1_5 
REMARK    1  A    between atoms: N2_7  and  C4_9 
REMARK    2  A    between atoms: C5_10  and  O2_11 
REMARK    3  A    between atoms: C6_13  and  O3_14 
REMARK    4  A    between atoms: N3_16  and  C7_17 
REMARK    5  A    between atoms: C13_23  and  O4_24 
REMARK    6  A    between atoms: O4_24  and  C14_25 
REMARK    7  A    between atoms: C14_25  and  C15_26 
ROOT
HETATM    1  C1  UNL     1      47.995  69.871  46.764  1.00  0.00     0.023 C 
HETATM    2  C2  UNL     1      48.449  68.757  46.630  1.00  0.00    -0.015 C 
HETATM    3  C3  UNL     1      49.008  67.445  46.475  1.00  0.00     0.314 C 
HETATM    4  O1  UNL     1      50.161  67.215  46.920  1.00  0.00    -0.256 OA
HETATM    5  N1  UNL     1      48.312  66.386  45.836  1.00  0.00    -0.258 N 
ATOM      6  H1  UNL     1      47.292  66.409  45.836  1.00  0.00     0.191 HD
HETATM    7  N2  UNL     1      48.888  65.418  45.269  1.00  0.00    -0.291 N 
ATOM      8  H2  UNL     1      49.906  65.358  45.247  1.00  0.00     0.187 HD
ENDROOT
BRANCH   7   9
HETATM    9  C4  UNL     1      48.087  64.414  44.661  1.00  0.00     0.137 A 
HETATM   10  C5  UNL     1      47.249  63.577  45.369  1.00  0.00     0.150 A 
HETATM   11  C6  UNL     1      46.663  62.762  44.421  1.00  0.00     0.181 A 
HETATM   12  N3  UNL     1      47.107  63.071  43.193  1.00  0.00    -0.299 N 
HETATM   13  C13 UNL     1      47.982  64.083  43.323  1.00  0.00     0.179 A 
BRANCH  10  14
HETATM   14  O2  UNL     1      47.051  63.573  46.764  1.00  0.00    -0.355 OA
ATOM     15  H2  UNL     1      46.226  63.446  47.217  1.00  0.00     0.218 HD
ENDBRANCH  10  14
BRANCH  11  16
HETATM   16  O3  UNL     1      45.745  61.769  44.713  1.00  0.00    -0.344 OA
ATOM     17  H3  UNL     1      44.836  61.933  44.934  1.00  0.00     0.219 HD
ENDBRANCH  11  16
BRANCH  12  18
HETATM   18  C7  UNL     1      46.762  62.477  41.925  1.00  0.00     0.094 C 
HETATM   19  C8  UNL     1      47.995  62.076  41.121  1.00  0.00     0.026 C 
HETATM   20  C9  UNL     1      47.485  61.698  39.737  1.00  0.00     0.002 C 
HETATM   21  C10 UNL     1      46.495  60.560  39.799  1.00  0.00     0.000 C 
HETATM   22  C11 UNL     1      45.333  60.948  40.695  1.00  0.00     0.002 C 
HETATM   23  C12 UNL     1      45.944  61.197  42.080  1.00  0.00     0.026 C 
ENDBRANCH  12  18
BRANCH  13  24
HETATM   24  O4  UNL     1      48.701  64.741  42.339  1.00  0.00    -0.327 OA
BRANCH  24  25
HETATM   25  C14 UNL     1      48.259  65.950  41.798  1.00  0.00     0.242 C 
BRANCH  25  26
HETATM   26  C15 UNL     1      49.119  67.087  42.167  1.00  0.00     0.076 A 
HETATM   27  C16 UNL     1      49.253  68.206  41.336  1.00  0.00     0.037 A 
HETATM   28  C17 UNL     1      50.113  69.086  41.946  1.00  0.00     0.027 A 
HETATM   29  C18 UNL     1      50.475  68.470  43.134  1.00  0.00     0.142 A 
HETATM   30  O5  UNL     1      49.866  67.322  43.194  1.00  0.00    -0.325 OA
ENDBRANCH  25  26
ENDBRANCH  24  25
ENDBRANCH  13  24
ENDBRANCH   7   9
TORSDOF 7
ENDMDL
MODEL 4
REMARK VINA RESULT: -8.119879589      1.072      1.691
REMARK  7 active torsions:
REMARK  status: ('A' for Active; 'I' for Inactive)
REMARK       I    between atoms: C3_3  and  N1_5 
REMARK    1  A    between atoms: N2_7  and  C4_9 
REMARK    2  A    between atoms: C5_10  and  O2_11 
REMARK    3  A    between atoms: C6_13  and  O3_14 
REMARK    4  A    between atoms: N3_16  and  C7_17 
REMARK    5  A    between atoms: C13_23  and  O4_24 
REMARK    6  A    between atoms: O4_24  and  C14_25 
REMARK    7  A    between atoms: C14_25  and  C15_26 
ROOT
HETATM    1  C1  UNL     1      47.316  62.521  37.779  1.00  0.00     0.023 C 
HETATM    2  C2  UNL     1      47.240  62.127  38.923  1.00  0.00    -0.015 C 
HETATM    3  C3  UNL     1      47.140  61.642  40.268  1.00  0.00     0.314 C 
HETATM    4  O1  UNL     1      46.938  60.417  40.464  1.00  0.00    -0.256 OA
HETATM    5  N1  UNL     1      47.260  62.491  41.400  1.00  0.00    -0.258 N 
ATOM      6  H1  UNL     1      47.800  63.350  41.304  1.00  0.00     0.191 HD
HETATM    7  N2  UNL     1      46.733  62.238  42.517  1.00  0.00    -0.291 N 
ATOM      8  H2  UNL     1      46.184  61.389  42.654  1.00  0.00     0.187 HD
ENDROOT
BRANCH   7   9
HETATM    9  C4  UNL     1      46.920  63.163  43.580  1.00  0.00     0.137 A 
HETATM   10  C5  UNL     1      46.399  62.984  44.844  1.00  0.00     0.150 A 
HETATM   11  C6  UNL     1      46.804  64.090  45.565  1.00  0.00     0.181 A 
HETATM   12  N3  UNL     1      47.536  64.912  44.797  1.00  0.00    -0.299 N 
HETATM   13  C13 UNL     1      47.617  64.357  43.575  1.00  0.00     0.179 A 
BRANCH  10  14
HETATM   14  O2  UNL     1      45.620  61.896  45.284  1.00  0.00    -0.355 OA
ATOM     15  H2  UNL     1      45.598  61.534  46.162  1.00  0.00     0.218 HD
ENDBRANCH  10  14
BRANCH  11  16
HETATM   16  O3  UNL     1      46.492  64.307  46.896  1.00  0.00    -0.344 OA
ATOM     17  H3  UNL     1      47.135  64.484  47.572  1.00  0.00     0.219 HD
ENDBRANCH  11  16
BRANCH  12  18
HETATM   18  C7  UNL     1      48.154  66.169  45.141  1.00  0.00     0.094 C 
HETATM   19  C8  UNL     1      47.355  66.934  46.192  1.00  0.00     0.026 C 
HETATM   20  C9  UNL     1      47.988  68.318  46.270  1.00  0.00     0.002 C 
HETATM   21  C10 UNL     1      49.446  68.243  46.655  1.00  0.00     0.000 C 
HETATM   22  C11 UNL     1      50.192  67.385  45.650  1.00  0.00     0.002 C 
HETATM   23  C12 UNL     1      49.549  65.995  45.737  1.00  0.00     0.026 C 
ENDBRANCH  12  18
BRANCH  13  24
HETATM   24  O4  UNL     1      48.265  64.831  42.447  1.00  0.00    -0.327 OA
BRANCH  24  25
HETATM   25  C14 UNL     1      47.845  65.993  41.799  1.00  0.00     0.242 C 
BRANCH  25  26
HETATM   26  C15 UNL     1      48.952  66.928  41.530  1.00  0.00     0.076 A 
HETATM   27  C16 UNL     1      48.864  67.901  40.527  1.00  0.00     0.037 A 
HETATM   28  C17 UNL     1      50.041  68.609  40.521  1.00  0.00     0.027 A 
HETATM   29  C18 UNL     1      50.808  68.041  41.525  1.00  0.00     0.142 A 
HETATM   30  O5  UNL     1      50.119  67.078  42.063  1.00  0.00    -0.325 OA
ENDBRANCH  25  26
ENDBRANCH  24  25
ENDBRANCH  13  24
ENDBRANCH   7   9
TORSDOF 7
ENDMDL
MODEL 5
REMARK VINA RESULT: -7.899658779      1.966      6.313
REMARK  7 active torsions:
REMARK  status: ('A' for Active; 'I' for Inactive)
REMARK       I    between atoms: C3_3  and  N1_5 
REMARK    1  A    between atoms: N2_7  and  C4_9 
REMARK    2  A    between atoms: C5_10  and  O2_11 
REMARK    3  A    between atoms: C6_13  and  O3_14 
REMARK    4  A    between atoms: N3_16  and  C7_17 
REMARK    5  A    between atoms: C13_23  and  O4_24 
REMARK    6  A    between atoms: O4_24  and  C14_25 
REMARK    7  A    between atoms: C14_25  and  C15_26 
ROOT
HETATM    1  C1  UNL     1      47.672  70.657  48.182  1.00  0.00     0.023 C 
HETATM    2  C2  UNL     1      48.222  70.043  47.293  1.00  0.00    -0.015 C 
HETATM    3  C3  UNL     1      48.879  69.336  46.233  1.00  0.00     0.314 C 
HETATM    4  O1  UNL     1      49.778  69.917  45.575  1.00  0.00    -0.256 OA
HETATM    5  N1  UNL     1      48.557  67.997  45.889  1.00  0.00    -0.258 N 
ATOM      6  H1  UNL     1      48.161  67.395  46.612  1.00  0.00     0.191 HD
HETATM    7  N2  UNL     1      48.734  67.513  44.739  1.00  0.00    -0.291 N 
ATOM      8  H2  UNL     1      49.127  68.081  43.989  1.00  0.00     0.187 HD
ENDROOT
BRANCH   7   9
HETATM    9  C4  UNL     1      48.373  66.157  44.511  1.00  0.00     0.137 A 
HETATM   10  C5  UNL     1      48.510  65.163  45.457  1.00  0.00     0.150 A 
HETATM   11  C6  UNL     1      48.054  64.012  44.846  1.00  0.00     0.181 A 
HETATM   12  N3  UNL     1      47.653  64.270  43.592  1.00  0.00    -0.299 N 
HETATM   13  C13 UNL     1      47.843  65.583  43.370  1.00  0.00     0.179 A 
BRANCH  10  14
HETATM   14  O2  UNL     1      49.014  65.315  46.765  1.00  0.00    -0.355 OA
ATOM     15  H2  UNL     1      48.602  65.018  47.567  1.00  0.00     0.218 HD
ENDBRANCH  10  14
BRANCH  11  16
HETATM   16  O3  UNL     1      48.019  62.771  45.458  1.00  0.00    -0.344 OA
ATOM     17  H3  UNL     1      47.724  62.625  46.349  1.00  0.00     0.219 HD
ENDBRANCH  11  16
BRANCH  12  18
HETATM   18  C7  UNL     1      47.113  63.368  42.606  1.00  0.00     0.094 C 
HETATM   19  C8  UNL     1      48.206  62.617  41.851  1.00  0.00     0.026 C 
HETATM   20  C9  UNL     1      47.504  61.902  40.705  1.00  0.00     0.002 C 
HETATM   21  C10 UNL     1      46.448  60.946  41.206  1.00  0.00     0.000 C 
HETATM   22  C11 UNL     1      45.436  61.705  42.045  1.00  0.00     0.002 C 
HETATM   23  C12 UNL     1      46.228  62.286  43.222  1.00  0.00     0.026 C 
ENDBRANCH  12  18
BRANCH  13  24
HETATM   24  O4  UNL     1      47.580  66.316  42.226  1.00  0.00    -0.327 OA
BRANCH  24  25
HETATM   25  C14 UNL     1      48.482  66.356  41.161  1.00  0.00     0.242 C 
BRANCH  25  26
HETATM   26  C15 UNL     1      49.488  67.422  41.307  1.00  0.00     0.076 A 
HETATM   27  C16 UNL     1      49.174  68.766  41.073  1.00  0.00     0.037 A 
HETATM   28  C17 UNL     1      50.308  69.511  41.289  1.00  0.00     0.027 A 
HETATM   29  C18 UNL     1      51.279  68.590  41.648  1.00  0.00     0.142 A 
HETATM   30  O5  UNL     1      50.737  67.407  41.637  1.00  0.00    -0.325 OA
ENDBRANCH  25  26
ENDBRANCH  24  25
ENDBRANCH  13  24
ENDBRANCH   7   9
TORSDOF 7
ENDMDL
