MODEL 1
REMARK VINA RESULT: -7.633210867      0.000      0.000
REMARK  7 active torsions:
REMARK  status: ('A' for Active; 'I' for Inactive)
REMARK    1  A    between atoms: C2_2  and  C3_3 
REMARK    2  A    between atoms: C3_3  and  S1_4 
REMARK    3  A    between atoms: S1_4  and  C4_5 
REMARK    4  A    between atoms: C6_7  and  O1_8 
REMARK    5  A    between atoms: N1_10  and  C7_11 
REMARK    6  A    between atoms: C9_14  and  C10_15 
REMARK    7  A    between atoms: C16_23  and  O2_24 
ROOT
HETATM    1  C4  UNL     1      49.409  66.983  44.914  1.00  0.00     0.056 A 
HETATM    2  C5  UNL     1      49.305  67.305  43.586  1.00  0.00     0.079 A 
HETATM    3  C6  UNL     1      48.638  66.238  42.983  1.00  0.00     0.151 A 
HETATM    4  N1  UNL     1      48.358  65.322  43.920  1.00  0.00    -0.256 N 
HETATM    5  C16 UNL     1      48.817  65.756  45.094  1.00  0.00     0.167 A 
ENDROOT
BRANCH   4   6
HETATM    6  C7  UNL     1      47.666  64.063  43.687  1.00  0.00     0.123 A 
HETATM    7  C8  UNL     1      46.924  63.515  44.712  1.00  0.00     0.100 A 
HETATM    8  S2  UNL     1      46.322  62.091  43.986  1.00  0.00    -0.084 SA
HETATM    9  C9  UNL     1      47.035  62.268  42.446  1.00  0.00     0.056 A 
HETATM   10  N2  UNL     1      47.696  63.405  42.568  1.00  0.00    -0.339 N 
ATOM     11  H2  UNL     1      48.232  63.768  41.780  1.00  0.00     0.168 HD
BRANCH   9  12
HETATM   12  C10 UNL     1      46.948  61.363  41.234  1.00  0.00     0.043 C 
HETATM   13  C11 UNL     1      47.363  62.144  40.030  1.00  0.00     0.011 C 
HETATM   14  C12 UNL     1      46.607  61.611  38.832  1.00  0.00     0.001 C 
HETATM   15  C13 UNL     1      46.352  60.120  38.941  1.00  0.00     0.000 C 
HETATM   16  C14 UNL     1      45.502  59.757  40.120  1.00  0.00     0.001 C 
HETATM   17  C15 UNL     1      45.483  60.981  41.043  1.00  0.00     0.011 C 
ENDBRANCH   9  12
ENDBRANCH   4   6
BRANCH   3  18
HETATM   18  O1  UNL     1      48.322  66.153  41.634  1.00  0.00    -0.346 OA
ATOM     19  H1  UNL     1      48.017  66.875  41.098  1.00  0.00     0.219 HD
ENDBRANCH   3  18
BRANCH   5  20
HETATM   20  O2  UNL     1      48.746  65.125  46.344  1.00  0.00    -0.345 OA
ATOM     21  H2  UNL     1      47.970  65.156  46.891  1.00  0.00     0.219 HD
ENDBRANCH   5  20
BRANCH   1  22
HETATM   22  S1  UNL     1      50.189  68.009  46.180  1.00  0.00    -0.122 SA
BRANCH  22  23
HETATM   23  C3  UNL     1      49.407  69.669  46.135  1.00  0.00     0.119 C 
BRANCH  23  24
HETATM   24  C2  UNL     1      49.183  70.170  47.537  1.00  0.00     0.087 A 
HETATM   25  C1  UNL     1      50.155  69.627  48.573  1.00  0.00     0.049 C 
HETATM   26  C17 UNL     1      47.833  70.457  47.985  1.00  0.00     0.207 A 
HETATM   27  O3  UNL     1      48.824  71.492  47.714  1.00  0.00    -0.375 OA
ENDBRANCH  23  24
ENDBRANCH  22  23
ENDBRANCH   1  22
TORSDOF 7
ENDMDL
MODEL 2
REMARK VINA RESULT: -7.536654042      1.444      1.761
REMARK  7 active torsions:
REMARK  status: ('A' for Active; 'I' for Inactive)
REMARK    1  A    between atoms: C2_2  and  C3_3 
REMARK    2  A    between atoms: C3_3  and  S1_4 
REMARK    3  A    between atoms: S1_4  and  C4_5 
REMARK    4  A    between atoms: C6_7  and  O1_8 
REMARK    5  A    between atoms: N1_10  and  C7_11 
REMARK    6  A    between atoms: C9_14  and  C10_15 
REMARK    7  A    between atoms: C16_23  and  O2_24 
ROOT
HETATM    1  C4  UNL     1      49.052  67.431  45.312  1.00  0.00     0.056 A 
HETATM    2  C5  UNL     1      49.281  67.538  43.965  1.00  0.00     0.079 A 
HETATM    3  C6  UNL     1      48.759  66.378  43.393  1.00  0.00     0.151 A 
HETATM    4  N1  UNL     1      48.240  65.616  44.365  1.00  0.00    -0.256 N 
HETATM    5  C16 UNL     1      48.408  66.237  45.532  1.00  0.00     0.167 A 
ENDROOT
BRANCH   4   6
HETATM    6  C7  UNL     1      47.598  64.323  44.170  1.00  0.00     0.123 A 
HETATM    7  C8  UNL     1      46.917  63.756  45.227  1.00  0.00     0.100 A 
HETATM    8  S2  UNL     1      46.357  62.296  44.539  1.00  0.00    -0.084 SA
HETATM    9  C9  UNL     1      47.009  62.486  42.973  1.00  0.00     0.056 A 
HETATM   10  N2  UNL     1      47.620  63.653  43.059  1.00  0.00    -0.339 N 
ATOM     11  H2  UNL     1      48.112  64.029  42.249  1.00  0.00     0.168 HD
BRANCH   9  12
HETATM   12  C10 UNL     1      46.923  61.562  41.776  1.00  0.00     0.043 C 
HETATM   13  C11 UNL     1      47.579  62.231  40.613  1.00  0.00     0.011 C 
HETATM   14  C12 UNL     1      46.889  61.774  39.346  1.00  0.00     0.001 C 
HETATM   15  C13 UNL     1      46.405  60.340  39.452  1.00  0.00     0.000 C 
HETATM   16  C14 UNL     1      45.386  60.146  40.532  1.00  0.00     0.001 C 
HETATM   17  C15 UNL     1      45.447  61.390  41.425  1.00  0.00     0.011 C 
ENDBRANCH   9  12
ENDBRANCH   4   6
BRANCH   3  18
HETATM   18  O1  UNL     1      48.779  66.076  42.038  1.00  0.00    -0.346 OA
ATOM     19  H1  UNL     1      49.563  66.008  41.505  1.00  0.00     0.219 HD
ENDBRANCH   3  18
BRANCH   5  20
HETATM   20  O2  UNL     1      48.021  65.810  46.810  1.00  0.00    -0.345 OA
ATOM     21  H2  UNL     1      48.598  65.320  47.385  1.00  0.00     0.219 HD
ENDBRANCH   5  20
BRANCH   1  22
HETATM   22  S1  UNL     1      49.522  68.657  46.552  1.00  0.00    -0.122 SA
BRANCH  22  23
HETATM   23  C3  UNL     1      51.026  68.053  47.415  1.00  0.00     0.119 C 
BRANCH  23  24
HETATM   24  C2  UNL     1      50.996  68.480  48.858  1.00  0.00     0.087 A 
HETATM   25  C1  UNL     1      50.176  69.730  49.139  1.00  0.00     0.049 C 
HETATM   26  C17 UNL     1      52.160  68.253  49.695  1.00  0.00     0.207 A 
HETATM   27  O3  UNL     1      50.916  67.504  49.832  1.00  0.00    -0.375 OA
ENDBRANCH  23  24
ENDBRANCH  22  23
ENDBRANCH   1  22
TORSDOF 7
ENDMDL
MODEL 3
REMARK VINA RESULT: -7.534189501      1.520      2.073
REMARK  7 active torsions:
REMARK  status: ('A' for Active; 'I' for Inactive)
REMARK    1  A    between atoms: C2_2  and  C3_3 
REMARK    2  A    between atoms: C3_3  and  S1_4 
REMARK    3  A    between atoms: S1_4  and  C4_5 
REMARK    4  A    between atoms: C6_7  and  O1_8 
REMARK    5  A    between atoms: N1_10  and  C7_11 
REMARK    6  A    between atoms: C9_14  and  C10_15 
REMARK    7  A    between atoms: C16_23  and  O2_24 
ROOT
HETATM    1  C4  UNL     1      48.976  67.345  45.456  1.00  0.00     0.056 A 
HETATM    2  C5  UNL     1      49.355  67.461  44.144  1.00  0.00     0.079 A 
HETATM    3  C6  UNL     1      48.863  66.326  43.500  1.00  0.00     0.151 A 
HETATM    4  N1  UNL     1      48.218  65.568  44.397  1.00  0.00    -0.256 N 
HETATM    5  C16 UNL     1      48.276  66.169  45.585  1.00  0.00     0.167 A 
ENDROOT
BRANCH   4   6
HETATM    6  C7  UNL     1      47.563  64.300  44.112  1.00  0.00     0.123 A 
HETATM    7  C8  UNL     1      47.233  63.474  45.166  1.00  0.00     0.100 A 
HETATM    8  S2  UNL     1      46.512  62.151  44.362  1.00  0.00    -0.084 SA
HETATM    9  C9  UNL     1      46.668  62.712  42.757  1.00  0.00     0.056 A 
HETATM   10  N2  UNL     1      47.263  63.879  42.921  1.00  0.00    -0.339 N 
ATOM     11  H2  UNL     1      47.488  64.453  42.109  1.00  0.00     0.168 HD
BRANCH   9  12
HETATM   12  C10 UNL     1      46.242  62.055  41.461  1.00  0.00     0.043 C 
HETATM   13  C11 UNL     1      45.809  60.657  41.759  1.00  0.00     0.011 C 
HETATM   14  C12 UNL     1      46.116  59.794  40.553  1.00  0.00     0.001 C 
HETATM   15  C13 UNL     1      45.968  60.564  39.255  1.00  0.00     0.000 C 
HETATM   16  C14 UNL     1      46.918  61.718  39.150  1.00  0.00     0.001 C 
HETATM   17  C15 UNL     1      47.469  61.966  40.558  1.00  0.00     0.011 C 
ENDBRANCH   9  12
ENDBRANCH   4   6
BRANCH   3  18
HETATM   18  O1  UNL     1      49.023  66.041  42.151  1.00  0.00    -0.346 OA
ATOM     19  H1  UNL     1      49.663  66.448  41.578  1.00  0.00     0.219 HD
ENDBRANCH   3  18
BRANCH   5  20
HETATM   20  O2  UNL     1      47.739  65.738  46.806  1.00  0.00    -0.345 OA
ATOM     21  H2  UNL     1      47.009  65.132  46.861  1.00  0.00     0.219 HD
ENDBRANCH   5  20
BRANCH   1  22
HETATM   22  S1  UNL     1      49.344  68.540  46.760  1.00  0.00    -0.122 SA
BRANCH  22  23
HETATM   23  C3  UNL     1      50.998  68.144  47.450  1.00  0.00     0.119 C 
BRANCH  23  24
HETATM   24  C2  UNL     1      51.042  68.499  48.913  1.00  0.00     0.087 A 
HETATM   25  C1  UNL     1      50.281  69.760  49.289  1.00  0.00     0.049 C 
HETATM   26  C17 UNL     1      52.230  68.189  49.687  1.00  0.00     0.207 A 
HETATM   27  O3  UNL     1      50.966  67.478  49.841  1.00  0.00    -0.375 OA
ENDBRANCH  23  24
ENDBRANCH  22  23
ENDBRANCH   1  22
TORSDOF 7
ENDMDL
MODEL 4
REMARK VINA RESULT: -7.443519465      2.079      3.863
REMARK  7 active torsions:
REMARK  status: ('A' for Active; 'I' for Inactive)
REMARK    1  A    between atoms: C2_2  and  C3_3 
REMARK    2  A    between atoms: C3_3  and  S1_4 
REMARK    3  A    between atoms: S1_4  and  C4_5 
REMARK    4  A    between atoms: C6_7  and  O1_8 
REMARK    5  A    between atoms: N1_10  and  C7_11 
REMARK    6  A    between atoms: C9_14  and  C10_15 
REMARK    7  A    between atoms: C16_23  and  O2_24 
ROOT
HETATM    1  C4  UNL     1      49.554  67.832  44.234  1.00  0.00     0.056 A 
HETATM    2  C5  UNL     1      49.648  67.620  45.585  1.00  0.00     0.079 A 
HETATM    3  C6  UNL     1      49.013  66.401  45.827  1.00  0.00     0.151 A 
HETATM    4  N1  UNL     1      48.563  65.913  44.664  1.00  0.00    -0.256 N 
HETATM    5  C16 UNL     1      48.881  66.764  43.690  1.00  0.00     0.167 A 
ENDROOT
BRANCH   4   6
HETATM    6  C7  UNL     1      47.846  64.656  44.500  1.00  0.00     0.123 A 
HETATM    7  C8  UNL     1      47.116  64.166  45.562  1.00  0.00     0.100 A 
HETATM    8  S2  UNL     1      46.477  62.722  44.913  1.00  0.00    -0.084 SA
HETATM    9  C9  UNL     1      47.162  62.819  43.352  1.00  0.00     0.056 A 
HETATM   10  N2  UNL     1      47.843  63.949  43.411  1.00  0.00    -0.339 N 
ATOM     11  H2  UNL     1      48.369  64.268  42.598  1.00  0.00     0.168 HD
BRANCH   9  12
HETATM   12  C10 UNL     1      47.037  61.863  42.184  1.00  0.00     0.043 C 
HETATM   13  C11 UNL     1      47.802  62.424  41.030  1.00  0.00     0.011 C 
HETATM   14  C12 UNL     1      47.124  61.986  39.749  1.00  0.00     0.001 C 
HETATM   15  C13 UNL     1      46.500  60.610  39.881  1.00  0.00     0.000 C 
HETATM   16  C14 UNL     1      45.424  60.554  40.921  1.00  0.00     0.001 C 
HETATM   17  C15 UNL     1      45.567  61.820  41.774  1.00  0.00     0.011 C 
ENDBRANCH   9  12
ENDBRANCH   4   6
BRANCH   3  18
HETATM   18  O1  UNL     1      48.879  65.805  47.073  1.00  0.00    -0.346 OA
ATOM     19  H1  UNL     1      48.256  65.120  47.288  1.00  0.00     0.219 HD
ENDBRANCH   3  18
BRANCH   5  20
HETATM   20  O2  UNL     1      48.610  66.660  42.318  1.00  0.00    -0.345 OA
ATOM     21  H2  UNL     1      48.682  65.842  41.841  1.00  0.00     0.219 HD
ENDBRANCH   5  20
BRANCH   1  22
HETATM   22  S1  UNL     1      50.208  69.268  43.354  1.00  0.00    -0.122 SA
BRANCH  22  23
HETATM   23  C3  UNL     1      51.964  68.935  42.939  1.00  0.00     0.119 C 
BRANCH  23  24
HETATM   24  C2  UNL     1      52.072  68.432  41.524  1.00  0.00     0.087 A 
HETATM   25  C1  UNL     1      53.486  68.384  40.967  1.00  0.00     0.049 C 
HETATM   26  C17 UNL     1      51.002  68.710  40.584  1.00  0.00     0.207 A 
HETATM   27  O3  UNL     1      51.260  67.385  41.134  1.00  0.00    -0.375 OA
ENDBRANCH  23  24
ENDBRANCH  22  23
ENDBRANCH   1  22
TORSDOF 7
ENDMDL
MODEL 5
REMARK VINA RESULT: -7.440927603      2.170      3.698
REMARK  7 active torsions:
REMARK  status: ('A' for Active; 'I' for Inactive)
REMARK    1  A    between atoms: C2_2  and  C3_3 
REMARK    2  A    between atoms: C3_3  and  S1_4 
REMARK    3  A    between atoms: S1_4  and  C4_5 
REMARK    4  A    between atoms: C6_7  and  O1_8 
REMARK    5  A    between atoms: N1_10  and  C7_11 
REMARK    6  A    between atoms: C9_14  and  C10_15 
REMARK    7  A    between atoms: C16_23  and  O2_24 
ROOT
HETATM    1  C4  UNL     1      49.149  67.137  44.948  1.00  0.00     0.056 A 
HETATM    2  C5  UNL     1      48.493  67.061  46.148  1.00  0.00     0.079 A 
HETATM    3  C6  UNL     1      47.712  65.906  46.086  1.00  0.00     0.151 A 
HETATM    4  N1  UNL     1      47.902  65.323  44.895  1.00  0.00    -0.256 N 
HETATM    5  C16 UNL     1      48.768  66.054  44.194  1.00  0.00     0.167 A 
ENDROOT
BRANCH   4   6
HETATM    6  C7  UNL     1      47.264  64.093  44.448  1.00  0.00     0.123 A 
HETATM    7  C8  UNL     1      46.784  63.214  45.396  1.00  0.00     0.100 A 
HETATM    8  S2  UNL     1      46.146  61.963  44.424  1.00  0.00    -0.084 SA
HETATM    9  C9  UNL     1      46.520  62.616  42.892  1.00  0.00     0.056 A 
HETATM   10  N2  UNL     1      47.112  63.754  43.204  1.00  0.00    -0.339 N 
ATOM     11  H2  UNL     1      47.452  64.370  42.466  1.00  0.00     0.168 HD
BRANCH   9  12
HETATM   12  C10 UNL     1      46.251  62.051  41.512  1.00  0.00     0.043 C 
HETATM   13  C11 UNL     1      45.691  60.675  41.665  1.00  0.00     0.011 C 
HETATM   14  C12 UNL     1      46.119  59.849  40.471  1.00  0.00     0.001 C 
HETATM   15  C13 UNL     1      46.217  60.687  39.210  1.00  0.00     0.000 C 
HETATM   16  C14 UNL     1      47.243  61.773  39.309  1.00  0.00     0.001 C 
HETATM   17  C15 UNL     1      47.592  61.916  40.795  1.00  0.00     0.011 C 
ENDBRANCH   9  12
ENDBRANCH   4   6
BRANCH   3  18
HETATM   18  O1  UNL     1      46.882  65.448  47.100  1.00  0.00    -0.346 OA
ATOM     19  H1  UNL     1      46.083  65.874  47.386  1.00  0.00     0.219 HD
ENDBRANCH   3  18
BRANCH   5  20
HETATM   20  O2  UNL     1      49.256  65.822  42.900  1.00  0.00    -0.345 OA
ATOM     21  H2  UNL     1      48.693  65.586  42.173  1.00  0.00     0.219 HD
ENDBRANCH   5  20
BRANCH   1  22
HETATM   22  S1  UNL     1      50.305  68.442  44.471  1.00  0.00    -0.122 SA
BRANCH  22  23
HETATM   23  C3  UNL     1      49.872  69.000  42.777  1.00  0.00     0.119 C 
BRANCH  23  24
HETATM   24  C2  UNL     1      50.968  68.624  41.816  1.00  0.00     0.087 A 
HETATM   25  C1  UNL     1      52.339  69.189  42.156  1.00  0.00     0.049 C 
HETATM   26  C17 UNL     1      50.657  68.449  40.410  1.00  0.00     0.207 A 
HETATM   27  O3  UNL     1      50.982  67.342  41.302  1.00  0.00    -0.375 OA
ENDBRANCH  23  24
ENDBRANCH  22  23
ENDBRANCH   1  22
TORSDOF 7
ENDMDL
