MODEL 1
REMARK VINA RESULT: -8.076666117      0.000      0.000
REMARK  7 active torsions:
REMARK  status: ('A' for Active; 'I' for Inactive)
REMARK    1  A    between atoms: C3_3  and  C4_4 
REMARK    2  A    between atoms: C4_4  and  C5_5 
REMARK    3  A    between atoms: C4_4  and  C8_12 
REMARK    4  A    between atoms: C11_15  and  O1_16 
REMARK    5  A    between atoms: C12_18  and  N3_19 
REMARK    6  A    between atoms: N4_21  and  C13_23 
REMARK    7  A    between atoms: C16_26  and  N5_27 
ROOT
HETATM    1  C1  UNL     1      51.367  61.324  36.563  1.00  0.00     0.112 C 
HETATM    2  C2  UNL     1      49.922  61.551  36.715  1.00  0.00    -0.110 C 
HETATM    3  C3  UNL     1      48.737  61.727  36.859  1.00  0.00    -0.090 C 
ENDROOT
BRANCH   3   4
HETATM    4  C4  UNL     1      47.282  61.928  37.056  1.00  0.00     0.165 C 
BRANCH   4   5
HETATM    5  C5  UNL     1      46.945  63.292  36.582  1.00  0.00     0.093 C 
HETATM    6  N1  UNL     1      47.761  64.283  36.477  1.00  0.00    -0.377 N 
HETATM    7  C6  UNL     1      47.089  65.457  35.983  1.00  0.00     0.140 C 
ATOM      8  H1  UNL     1      48.752  64.241  36.713  1.00  0.00     0.160 HD
HETATM    9  C7  UNL     1      45.631  65.157  36.240  1.00  0.00     0.140 C 
HETATM   10  N2  UNL     1      45.642  63.691  36.173  1.00  0.00    -0.377 N 
ATOM     11  H2  UNL     1      44.874  63.082  35.891  1.00  0.00     0.160 HD
ENDBRANCH   4   5
BRANCH   4  12
HETATM   12  C8  UNL     1      46.984  61.708  38.466  1.00  0.00    -0.033 A 
HETATM   13  C9  UNL     1      46.097  60.714  38.816  1.00  0.00     0.012 A 
HETATM   14  C10 UNL     1      45.754  60.432  40.124  1.00  0.00     0.039 A 
HETATM   15  C11 UNL     1      46.310  61.164  41.153  1.00  0.00     0.093 A 
HETATM   16  C12 UNL     1      47.198  62.160  40.806  1.00  0.00     0.081 A 
HETATM   17  C19 UNL     1      47.540  62.440  39.500  1.00  0.00     0.042 A 
BRANCH  15  18
HETATM   18  O1  UNL     1      46.017  60.942  42.489  1.00  0.00    -0.358 OA
ATOM     19  H1  UNL     1      46.030  61.627  43.146  1.00  0.00     0.217 HD
ENDBRANCH  15  18
BRANCH  16  20
HETATM   20  N3  UNL     1      47.777  62.920  41.857  1.00  0.00    -0.298 N 
HETATM   21  N4  UNL     1      47.105  63.893  42.353  1.00  0.00    -0.300 N 
ATOM     22  H4  UNL     1      46.179  64.086  41.972  1.00  0.00     0.187 HD
ATOM     23  H3  UNL     1      48.707  62.695  42.211  1.00  0.00     0.187 HD
BRANCH  21  24
HETATM   24  C13 UNL     1      47.582  64.707  43.391  1.00  0.00     0.048 A 
HETATM   25  C14 UNL     1      47.370  64.410  44.730  1.00  0.00     0.033 A 
HETATM   26  C15 UNL     1      47.853  65.233  45.738  1.00  0.00     0.038 A 
HETATM   27  C16 UNL     1      48.556  66.370  45.447  1.00  0.00     0.103 A 
HETATM   28  C17 UNL     1      48.772  66.676  44.108  1.00  0.00     0.038 A 
HETATM   29  C18 UNL     1      48.300  65.870  43.094  1.00  0.00     0.033 A 
BRANCH  27  30
HETATM   30  N5  UNL     1      49.058  67.226  46.476  1.00  0.00    -0.116 N 
HETATM   31  O2  UNL     1      49.817  66.743  47.326  1.00  0.00    -0.532 OA
HETATM   32  O3  UNL     1      48.688  68.541  46.490  1.00  0.00    -0.532 OA
ENDBRANCH  27  30
ENDBRANCH  21  24
ENDBRANCH  16  20
ENDBRANCH   4  12
ENDBRANCH   3   4
TORSDOF 7
ENDMDL
MODEL 2
REMARK VINA RESULT: -7.617620344      1.849      2.976
REMARK  7 active torsions:
REMARK  status: ('A' for Active; 'I' for Inactive)
REMARK    1  A    between atoms: C3_3  and  C4_4 
REMARK    2  A    between atoms: C4_4  and  C5_5 
REMARK    3  A    between atoms: C4_4  and  C8_12 
REMARK    4  A    between atoms: C11_15  and  O1_16 
REMARK    5  A    between atoms: C12_18  and  N3_19 
REMARK    6  A    between atoms: N4_21  and  C13_23 
REMARK    7  A    between atoms: C16_26  and  N5_27 
ROOT
HETATM    1  C1  UNL     1      46.260  64.765  35.093  1.00  0.00     0.112 C 
HETATM    2  C2  UNL     1      46.998  63.653  35.712  1.00  0.00    -0.110 C 
HETATM    3  C3  UNL     1      47.594  62.746  36.237  1.00  0.00    -0.090 C 
ENDROOT
BRANCH   3   4
HETATM    4  C4  UNL     1      48.319  61.639  36.906  1.00  0.00     0.165 C 
BRANCH   4   5
HETATM    5  C5  UNL     1      48.467  60.536  35.926  1.00  0.00     0.093 C 
HETATM    6  N1  UNL     1      49.090  59.426  36.122  1.00  0.00    -0.377 N 
HETATM    7  C6  UNL     1      49.032  58.587  34.952  1.00  0.00     0.140 C 
ATOM      8  H1  UNL     1      49.562  59.174  36.990  1.00  0.00     0.160 HD
HETATM    9  C7  UNL     1      48.668  59.552  33.850  1.00  0.00     0.140 C 
HETATM   10  N2  UNL     1      47.926  60.564  34.612  1.00  0.00    -0.377 N 
ATOM     11  H2  UNL     1      47.177  61.165  34.269  1.00  0.00     0.160 HD
ENDBRANCH   4   5
BRANCH   4  12
HETATM   12  C8  UNL     1      47.569  61.266  38.099  1.00  0.00    -0.033 A 
HETATM   13  C9  UNL     1      46.778  60.138  38.067  1.00  0.00     0.012 A 
HETATM   14  C10 UNL     1      46.033  59.706  39.146  1.00  0.00     0.039 A 
HETATM   15  C11 UNL     1      46.061  60.416  40.329  1.00  0.00     0.093 A 
HETATM   16  C12 UNL     1      46.851  61.545  40.364  1.00  0.00     0.081 A 
HETATM   17  C19 UNL     1      47.595  61.975  39.286  1.00  0.00     0.042 A 
BRANCH  15  18
HETATM   18  O1  UNL     1      45.342  60.047  41.455  1.00  0.00    -0.358 OA
ATOM     19  H1  UNL     1      45.729  59.972  42.319  1.00  0.00     0.217 HD
ENDBRANCH  15  18
BRANCH  16  20
HETATM   20  N3  UNL     1      46.888  62.284  41.577  1.00  0.00    -0.298 N 
HETATM   21  N4  UNL     1      47.662  63.303  41.652  1.00  0.00    -0.300 N 
ATOM     22  H4  UNL     1      48.223  63.546  40.835  1.00  0.00     0.187 HD
ATOM     23  H3  UNL     1      46.310  62.009  42.372  1.00  0.00     0.187 HD
BRANCH  21  24
HETATM   24  C13 UNL     1      47.776  64.101  42.800  1.00  0.00     0.048 A 
HETATM   25  C14 UNL     1      47.558  63.605  44.077  1.00  0.00     0.033 A 
HETATM   26  C15 UNL     1      47.677  64.418  45.198  1.00  0.00     0.038 A 
HETATM   27  C16 UNL     1      48.014  65.738  45.081  1.00  0.00     0.103 A 
HETATM   28  C17 UNL     1      48.234  66.243  43.804  1.00  0.00     0.038 A 
HETATM   29  C18 UNL     1      48.121  65.452  42.681  1.00  0.00     0.033 A 
BRANCH  27  30
HETATM   30  N5  UNL     1      48.140  66.585  46.226  1.00  0.00    -0.116 N 
HETATM   31  O2  UNL     1      47.305  67.484  46.389  1.00  0.00    -0.532 OA
HETATM   32  O3  UNL     1      49.171  66.379  47.098  1.00  0.00    -0.532 OA
ENDBRANCH  27  30
ENDBRANCH  21  24
ENDBRANCH  16  20
ENDBRANCH   4  12
ENDBRANCH   3   4
TORSDOF 7
ENDMDL
MODEL 3
REMARK VINA RESULT: -7.433907534      5.722     10.442
REMARK  7 active torsions:
REMARK  status: ('A' for Active; 'I' for Inactive)
REMARK    1  A    between atoms: C3_3  and  C4_4 
REMARK    2  A    between atoms: C4_4  and  C5_5 
REMARK    3  A    between atoms: C4_4  and  C8_12 
REMARK    4  A    between atoms: C11_15  and  O1_16 
REMARK    5  A    between atoms: C12_18  and  N3_19 
REMARK    6  A    between atoms: N4_21  and  C13_23 
REMARK    7  A    between atoms: C16_26  and  N5_27 
ROOT
HETATM    1  C1  UNL     1      48.028  63.211  42.685  1.00  0.00     0.112 C 
HETATM    2  C2  UNL     1      47.398  62.581  41.515  1.00  0.00    -0.110 C 
HETATM    3  C3  UNL     1      46.863  62.064  40.566  1.00  0.00    -0.090 C 
ENDROOT
BRANCH   3   4
HETATM    4  C4  UNL     1      46.184  61.425  39.414  1.00  0.00     0.165 C 
BRANCH   4   5
HETATM    5  C5  UNL     1      45.833  60.039  39.806  1.00  0.00     0.093 C 
HETATM    6  N1  UNL     1      45.257  59.161  39.059  1.00  0.00    -0.377 N 
HETATM    7  C6  UNL     1      45.070  57.921  39.767  1.00  0.00     0.140 C 
ATOM      8  H1  UNL     1      44.972  59.323  38.093  1.00  0.00     0.160 HD
HETATM    9  C7  UNL     1      45.206  58.324  41.216  1.00  0.00     0.140 C 
HETATM   10  N2  UNL     1      46.094  59.486  41.090  1.00  0.00    -0.377 N 
ATOM     11  H2  UNL     1      46.760  59.828  41.782  1.00  0.00     0.160 HD
ENDBRANCH   4   5
BRANCH   4  12
HETATM   12  C8  UNL     1      47.080  61.499  38.266  1.00  0.00    -0.033 A 
HETATM   13  C9  UNL     1      47.505  62.734  37.827  1.00  0.00     0.012 A 
HETATM   14  C10 UNL     1      48.353  62.903  36.750  1.00  0.00     0.039 A 
HETATM   15  C11 UNL     1      48.815  61.801  36.060  1.00  0.00     0.093 A 
HETATM   16  C12 UNL     1      48.391  60.564  36.497  1.00  0.00     0.081 A 
HETATM   17  C19 UNL     1      47.545  60.397  37.572  1.00  0.00     0.042 A 
BRANCH  15  18
HETATM   18  O1  UNL     1      49.667  61.889  34.970  1.00  0.00    -0.358 OA
ATOM     19  H1  UNL     1      50.612  61.821  35.041  1.00  0.00     0.217 HD
ENDBRANCH  15  18
BRANCH  16  20
HETATM   20  N3  UNL     1      48.861  59.423  35.793  1.00  0.00    -0.298 N 
HETATM   21  N4  UNL     1      48.548  58.259  36.233  1.00  0.00    -0.300 N 
ATOM     22  H4  UNL     1      47.973  58.197  37.073  1.00  0.00     0.187 HD
ATOM     23  H3  UNL     1      49.434  59.527  34.956  1.00  0.00     0.187 HD
BRANCH  21  24
HETATM   24  C13 UNL     1      48.958  57.068  35.617  1.00  0.00     0.048 A 
HETATM   25  C14 UNL     1      49.982  57.026  34.681  1.00  0.00     0.033 A 
HETATM   26  C15 UNL     1      50.369  55.832  34.086  1.00  0.00     0.038 A 
HETATM   27  C16 UNL     1      49.751  54.653  34.401  1.00  0.00     0.103 A 
HETATM   28  C17 UNL     1      48.724  54.686  35.337  1.00  0.00     0.038 A 
HETATM   29  C18 UNL     1      48.328  55.862  35.939  1.00  0.00     0.033 A 
BRANCH  27  30
HETATM   30  N5  UNL     1      50.139  53.417  33.796  1.00  0.00    -0.116 N 
HETATM   31  O2  UNL     1      51.334  53.246  33.519  1.00  0.00    -0.532 OA
HETATM   32  O3  UNL     1      49.188  52.470  33.542  1.00  0.00    -0.532 OA
ENDBRANCH  27  30
ENDBRANCH  21  24
ENDBRANCH  16  20
ENDBRANCH   4  12
ENDBRANCH   3   4
TORSDOF 7
ENDMDL
MODEL 4
REMARK VINA RESULT: -7.396860339      2.329      3.545
REMARK  7 active torsions:
REMARK  status: ('A' for Active; 'I' for Inactive)
REMARK    1  A    between atoms: C3_3  and  C4_4 
REMARK    2  A    between atoms: C4_4  and  C5_5 
REMARK    3  A    between atoms: C4_4  and  C8_12 
REMARK    4  A    between atoms: C11_15  and  O1_16 
REMARK    5  A    between atoms: C12_18  and  N3_19 
REMARK    6  A    between atoms: N4_21  and  C13_23 
REMARK    7  A    between atoms: C16_26  and  N5_27 
ROOT
HETATM    1  C1  UNL     1      46.138  56.777  39.376  1.00  0.00     0.112 C 
HETATM    2  C2  UNL     1      46.072  58.242  39.261  1.00  0.00    -0.110 C 
HETATM    3  C3  UNL     1      45.999  59.443  39.172  1.00  0.00    -0.090 C 
ENDROOT
BRANCH   3   4
HETATM    4  C4  UNL     1      45.883  60.917  39.068  1.00  0.00     0.165 C 
BRANCH   4   5
HETATM    5  C5  UNL     1      46.787  61.367  37.982  1.00  0.00     0.093 C 
HETATM    6  N1  UNL     1      47.892  60.805  37.632  1.00  0.00    -0.377 N 
HETATM    7  C6  UNL     1      48.509  61.512  36.539  1.00  0.00     0.140 C 
ATOM      8  H1  UNL     1      48.278  59.969  38.070  1.00  0.00     0.160 HD
HETATM    9  C7  UNL     1      47.839  62.865  36.578  1.00  0.00     0.140 C 
HETATM   10  N2  UNL     1      46.543  62.507  37.168  1.00  0.00    -0.377 N 
ATOM     11  H2  UNL     1      45.651  62.979  37.024  1.00  0.00     0.160 HD
ENDBRANCH   4   5
BRANCH   4  12
HETATM   12  C8  UNL     1      46.206  61.486  40.371  1.00  0.00    -0.033 A 
HETATM   13  C9  UNL     1      45.590  60.979  41.495  1.00  0.00     0.012 A 
HETATM   14  C10 UNL     1      45.831  61.454  42.768  1.00  0.00     0.039 A 
HETATM   15  C11 UNL     1      46.729  62.485  42.959  1.00  0.00     0.093 A 
HETATM   16  C12 UNL     1      47.346  62.995  41.837  1.00  0.00     0.081 A 
HETATM   17  C19 UNL     1      47.104  62.520  40.565  1.00  0.00     0.042 A 
BRANCH  15  18
HETATM   18  O1  UNL     1      47.024  63.015  44.205  1.00  0.00    -0.358 OA
ATOM     19  H1  UNL     1      46.369  63.166  44.876  1.00  0.00     0.217 HD
ENDBRANCH  15  18
BRANCH  16  20
HETATM   20  N3  UNL     1      48.271  64.057  42.021  1.00  0.00    -0.298 N 
HETATM   21  N4  UNL     1      47.835  65.183  42.451  1.00  0.00    -0.300 N 
ATOM     22  H4  UNL     1      46.838  65.274  42.646  1.00  0.00     0.187 HD
ATOM     23  H3  UNL     1      49.262  63.926  41.816  1.00  0.00     0.187 HD
BRANCH  21  24
HETATM   24  C13 UNL     1      48.660  66.296  42.667  1.00  0.00     0.048 A 
HETATM   25  C14 UNL     1      49.271  66.986  41.630  1.00  0.00     0.033 A 
HETATM   26  C15 UNL     1      50.084  68.085  41.872  1.00  0.00     0.038 A 
HETATM   27  C16 UNL     1      50.313  68.528  43.146  1.00  0.00     0.103 A 
HETATM   28  C17 UNL     1      49.705  67.843  44.191  1.00  0.00     0.038 A 
HETATM   29  C18 UNL     1      48.894  66.750  43.970  1.00  0.00     0.033 A 
BRANCH  27  30
HETATM   30  N5  UNL     1      51.147  69.659  43.408  1.00  0.00    -0.116 N 
HETATM   31  O2  UNL     1      52.369  69.481  43.505  1.00  0.00    -0.532 OA
HETATM   32  O3  UNL     1      50.577  70.892  43.545  1.00  0.00    -0.532 OA
ENDBRANCH  27  30
ENDBRANCH  21  24
ENDBRANCH  16  20
ENDBRANCH   4  12
ENDBRANCH   3   4
TORSDOF 7
ENDMDL
MODEL 5
REMARK VINA RESULT: -7.360285046      3.604      7.647
REMARK  7 active torsions:
REMARK  status: ('A' for Active; 'I' for Inactive)
REMARK    1  A    between atoms: C3_3  and  C4_4 
REMARK    2  A    between atoms: C4_4  and  C5_5 
REMARK    3  A    between atoms: C4_4  and  C8_12 
REMARK    4  A    between atoms: C11_15  and  O1_16 
REMARK    5  A    between atoms: C12_18  and  N3_19 
REMARK    6  A    between atoms: N4_21  and  C13_23 
REMARK    7  A    between atoms: C16_26  and  N5_27 
ROOT
HETATM    1  C1  UNL     1      53.251  68.773  41.625  1.00  0.00     0.112 C 
HETATM    2  C2  UNL     1      51.880  68.357  41.295  1.00  0.00    -0.110 C 
HETATM    3  C3  UNL     1      50.757  68.026  41.006  1.00  0.00    -0.090 C 
ENDROOT
BRANCH   3   4
HETATM    4  C4  UNL     1      49.378  67.634  40.630  1.00  0.00     0.165 C 
BRANCH   4   5
HETATM    5  C5  UNL     1      48.585  68.875  40.456  1.00  0.00     0.093 C 
HETATM    6  N1  UNL     1      47.414  68.960  39.925  1.00  0.00    -0.377 N 
HETATM    7  C6  UNL     1      46.945  70.322  39.920  1.00  0.00     0.140 C 
ATOM      8  H1  UNL     1      46.889  68.167  39.557  1.00  0.00     0.160 HD
HETATM    9  C7  UNL     1      48.209  71.125  40.113  1.00  0.00     0.140 C 
HETATM   10  N2  UNL     1      49.028  70.164  40.863  1.00  0.00    -0.377 N 
ATOM     11  H2  UNL     1      49.763  70.376  41.536  1.00  0.00     0.160 HD
ENDBRANCH   4   5
BRANCH   4  12
HETATM   12  C8  UNL     1      48.861  66.752  41.670  1.00  0.00    -0.033 A 
HETATM   13  C9  UNL     1      48.845  67.192  42.975  1.00  0.00     0.012 A 
HETATM   14  C10 UNL     1      48.376  66.428  44.025  1.00  0.00     0.039 A 
HETATM   15  C11 UNL     1      47.891  65.158  43.788  1.00  0.00     0.093 A 
HETATM   16  C12 UNL     1      47.906  64.714  42.483  1.00  0.00     0.081 A 
HETATM   17  C19 UNL     1      48.375  65.478  41.435  1.00  0.00     0.042 A 
BRANCH  15  18
HETATM   18  O1  UNL     1      47.403  64.331  44.788  1.00  0.00    -0.358 OA
ATOM     19  H1  UNL     1      47.130  64.650  45.640  1.00  0.00     0.217 HD
ENDBRANCH  15  18
BRANCH  16  20
HETATM   20  N3  UNL     1      47.409  63.408  42.227  1.00  0.00    -0.298 N 
HETATM   21  N4  UNL     1      47.353  63.000  41.013  1.00  0.00    -0.300 N 
ATOM     22  H4  UNL     1      47.669  63.629  40.275  1.00  0.00     0.187 HD
ATOM     23  H3  UNL     1      47.104  62.808  42.993  1.00  0.00     0.187 HD
BRANCH  21  24
HETATM   24  C13 UNL     1      46.880  61.731  40.649  1.00  0.00     0.048 A 
HETATM   25  C14 UNL     1      46.802  61.313  39.328  1.00  0.00     0.033 A 
HETATM   26  C15 UNL     1      46.329  60.050  38.995  1.00  0.00     0.038 A 
HETATM   27  C16 UNL     1      45.922  59.172  39.961  1.00  0.00     0.103 A 
HETATM   28  C17 UNL     1      45.996  59.582  41.287  1.00  0.00     0.038 A 
HETATM   29  C18 UNL     1      46.463  60.831  41.636  1.00  0.00     0.033 A 
BRANCH  27  30
HETATM   30  N5  UNL     1      45.433  57.869  39.632  1.00  0.00    -0.116 N 
HETATM   31  O2  UNL     1      46.218  57.054  39.130  1.00  0.00    -0.532 OA
HETATM   32  O3  UNL     1      44.124  57.565  39.878  1.00  0.00    -0.532 OA
ENDBRANCH  27  30
ENDBRANCH  21  24
ENDBRANCH  16  20
ENDBRANCH   4  12
ENDBRANCH   3   4
TORSDOF 7
ENDMDL
