MODEL 1
REMARK VINA RESULT: -7.674261182      0.000      0.000
REMARK  5 active torsions:
REMARK  status: ('A' for Active; 'I' for Inactive)
REMARK    1  A    between atoms: C2_2  and  O2_4 
REMARK    2  A    between atoms: O2_4  and  C3_5 
REMARK    3  A    between atoms: C3_5  and  C4_6 
REMARK    4  A    between atoms: N1_8  and  C6_10 
REMARK    5  A    between atoms: C13_18  and  C14_20 
ROOT
HETATM    1  C3  UNL     1      22.649  10.701 -10.858  1.00  0.00     0.226 C 
HETATM    2  S1  UNL     1      21.826  12.333 -11.177  1.00  0.00    -0.071 SA
HETATM    3  C12 UNL     1      22.837  11.845 -12.554  1.00  0.00     0.078 C 
HETATM    4  C13 UNL     1      22.742  11.945 -13.871  1.00  0.00     0.082 C 
HETATM    5 CL1  UNL     1      21.345  12.719 -14.571  1.00  0.00    -0.080 Cl
HETATM    6  C18 UNL     1      23.792  11.304 -11.601  1.00  0.00     0.219 C 
HETATM    7  O3  UNL     1      25.040  11.387 -11.546  1.00  0.00    -0.287 OA
ENDROOT
BRANCH   1   8
HETATM    8  O2  UNL     1      21.898   9.733 -11.493  1.00  0.00    -0.284 OA
BRANCH   8   9
HETATM    9  C2  UNL     1      20.547   9.631 -11.555  1.00  0.00     0.257 C 
HETATM   10  C1  UNL     1      19.739   8.942 -10.479  1.00  0.00     0.126 C 
HETATM   11  O1  UNL     1      19.925  10.117 -12.528  1.00  0.00    -0.266 OA
ENDBRANCH   8   9
ENDBRANCH   1   8
BRANCH   1  12
HETATM   12  C4  UNL     1      22.895  10.517  -9.412  1.00  0.00     0.033 C 
HETATM   13  C5  UNL     1      22.678   9.186  -8.714  1.00  0.00     0.068 C 
HETATM   14  N1  UNL     1      23.264  11.424  -8.676  1.00  0.00    -0.389 N 
ATOM     15  H1  UNL     1      23.366  11.054  -7.730  1.00  0.00     0.159 HD
BRANCH  14  16
HETATM   16  C6  UNL     1      23.590  12.752  -8.662  1.00  0.00     0.081 C 
HETATM   17  C7  UNL     1      22.979  13.344  -7.357  1.00  0.00     0.025 C 
HETATM   18  C8  UNL     1      23.182  14.833  -7.308  1.00  0.00     0.002 C 
HETATM   19  C9  UNL     1      24.684  15.111  -7.220  1.00  0.00     0.000 C 
HETATM   20  C10 UNL     1      25.278  14.526  -8.488  1.00  0.00     0.002 C 
HETATM   21  C11 UNL     1      25.083  13.035  -8.545  1.00  0.00     0.025 C 
ENDBRANCH  14  16
ENDBRANCH   1  12
BRANCH   4  22
HETATM   22  C14 UNL     1      23.817  11.415 -14.762  1.00  0.00     0.062 A 
HETATM   23  C15 UNL     1      23.541  11.008 -16.045  1.00  0.00     0.082 A 
HETATM   24  S2  UNL     1      25.084  10.499 -16.581  1.00  0.00    -0.087 SA
HETATM   25  C16 UNL     1      25.970  10.828 -15.161  1.00  0.00     0.047 A 
HETATM   26  C17 UNL     1      27.443  10.621 -14.884  1.00  0.00     0.076 C 
HETATM   27  N2  UNL     1      25.042  11.310 -14.353  1.00  0.00    -0.352 N 
ATOM     28  H2  UNL     1      25.289  11.600 -13.407  1.00  0.00     0.166 HD
ENDBRANCH   4  22
TORSDOF 5
ENDMDL
MODEL 2
REMARK VINA RESULT: -7.022789854      2.506      4.522
REMARK  5 active torsions:
REMARK  status: ('A' for Active; 'I' for Inactive)
REMARK    1  A    between atoms: C2_2  and  O2_4 
REMARK    2  A    between atoms: O2_4  and  C3_5 
REMARK    3  A    between atoms: C3_5  and  C4_6 
REMARK    4  A    between atoms: N1_8  and  C6_10 
REMARK    5  A    between atoms: C13_18  and  C14_20 
ROOT
HETATM    1  C3  UNL     1      25.074  13.203 -11.248  1.00  0.00     0.226 C 
HETATM    2  S1  UNL     1      26.508  14.368 -11.077  1.00  0.00    -0.071 SA
HETATM    3  C12 UNL     1      26.770  13.221 -12.408  1.00  0.00     0.078 C 
HETATM    4  C13 UNL     1      27.321  13.288 -13.611  1.00  0.00     0.082 C 
HETATM    5 CL1  UNL     1      27.995  14.799 -14.159  1.00  0.00    -0.080 Cl
HETATM    6  C18 UNL     1      26.124  12.204 -11.596  1.00  0.00     0.219 C 
HETATM    7  O3  UNL     1      26.433  11.011 -11.369  1.00  0.00    -0.287 OA
ENDROOT
BRANCH   1   8
HETATM    8  O2  UNL     1      24.274  13.685 -12.262  1.00  0.00    -0.284 OA
BRANCH   8   9
HETATM    9  C2  UNL     1      23.553  12.975 -13.167  1.00  0.00     0.257 C 
HETATM   10  C1  UNL     1      22.321  13.538 -13.838  1.00  0.00     0.126 C 
HETATM   11  O1  UNL     1      23.902  11.811 -13.471  1.00  0.00    -0.266 OA
ENDBRANCH   8   9
ENDBRANCH   1   8
BRANCH   1  12
HETATM   12  C4  UNL     1      24.431  12.974  -9.936  1.00  0.00     0.033 C 
HETATM   13  C5  UNL     1      24.746  13.825  -8.718  1.00  0.00     0.068 C 
HETATM   14  N1  UNL     1      23.626  12.073  -9.735  1.00  0.00    -0.389 N 
ATOM     15  H1  UNL     1      23.323  12.120  -8.761  1.00  0.00     0.159 HD
BRANCH  14  16
HETATM   16  C6  UNL     1      22.985  11.028 -10.341  1.00  0.00     0.081 C 
HETATM   17  C7  UNL     1      22.733   9.962  -9.235  1.00  0.00     0.025 C 
HETATM   18  C8  UNL     1      22.135   8.717  -9.830  1.00  0.00     0.002 C 
HETATM   19  C9  UNL     1      20.752   9.065 -10.385  1.00  0.00     0.000 C 
HETATM   20  C10 UNL     1      21.000  10.110 -11.456  1.00  0.00     0.002 C 
HETATM   21  C11 UNL     1      21.595  11.362 -10.871  1.00  0.00     0.025 C 
ENDBRANCH  14  16
ENDBRANCH   1  12
BRANCH   4  22
HETATM   22  C14 UNL     1      27.380  12.088 -14.497  1.00  0.00     0.062 A 
HETATM   23  C15 UNL     1      28.555  11.407 -14.697  1.00  0.00     0.082 A 
HETATM   24  S2  UNL     1      28.059  10.174 -15.774  1.00  0.00    -0.087 SA
HETATM   25  C16 UNL     1      26.411  10.596 -15.904  1.00  0.00     0.047 A 
HETATM   26  C17 UNL     1      25.316   9.936 -16.713  1.00  0.00     0.076 C 
HETATM   27  N2  UNL     1      26.327  11.656 -15.117  1.00  0.00    -0.352 N 
ATOM     28  H2  UNL     1      25.434  12.133 -14.998  1.00  0.00     0.166 HD
ENDBRANCH   4  22
TORSDOF 5
ENDMDL
MODEL 3
REMARK VINA RESULT: -6.889156838      1.072      1.275
REMARK  5 active torsions:
REMARK  status: ('A' for Active; 'I' for Inactive)
REMARK    1  A    between atoms: C2_2  and  O2_4 
REMARK    2  A    between atoms: O2_4  and  C3_5 
REMARK    3  A    between atoms: C3_5  and  C4_6 
REMARK    4  A    between atoms: N1_8  and  C6_10 
REMARK    5  A    between atoms: C13_18  and  C14_20 
ROOT
HETATM    1  C3  UNL     1      22.933  11.034 -10.980  1.00  0.00     0.226 C 
HETATM    2  S1  UNL     1      22.102  12.681 -11.177  1.00  0.00    -0.071 SA
HETATM    3  C12 UNL     1      23.227  12.367 -12.516  1.00  0.00     0.078 C 
HETATM    4  C13 UNL     1      23.232  12.615 -13.817  1.00  0.00     0.082 C 
HETATM    5 CL1  UNL     1      21.876  13.444 -14.534  1.00  0.00    -0.080 Cl
HETATM    6  C18 UNL     1      24.117  11.733 -11.557  1.00  0.00     0.219 C 
HETATM    7  O3  UNL     1      25.355  11.826 -11.395  1.00  0.00    -0.287 OA
ENDROOT
BRANCH   1   8
HETATM    8  O2  UNL     1      22.256  10.136 -11.777  1.00  0.00    -0.284 OA
BRANCH   8   9
HETATM    9  C2  UNL     1      20.925   9.869 -11.791  1.00  0.00     0.257 C 
HETATM   10  C1  UNL     1      19.912  10.844 -12.348  1.00  0.00     0.126 C 
HETATM   11  O1  UNL     1      20.499   8.785 -11.331  1.00  0.00    -0.266 OA
ENDBRANCH   8   9
ENDBRANCH   1   8
BRANCH   1  12
HETATM   12  C4  UNL     1      23.072  10.690  -9.549  1.00  0.00     0.033 C 
HETATM   13  C5  UNL     1      22.814   9.290  -9.021  1.00  0.00     0.068 C 
HETATM   14  N1  UNL     1      23.377  11.510  -8.691  1.00  0.00    -0.389 N 
ATOM     15  H1  UNL     1      23.410  11.037  -7.787  1.00  0.00     0.159 HD
BRANCH  14  16
HETATM   16  C6  UNL     1      23.689  12.828  -8.504  1.00  0.00     0.081 C 
HETATM   17  C7  UNL     1      22.970  13.273  -7.196  1.00  0.00     0.025 C 
HETATM   18  C8  UNL     1      23.155  14.747  -6.968  1.00  0.00     0.002 C 
HETATM   19  C9  UNL     1      24.643  15.013  -6.727  1.00  0.00     0.000 C 
HETATM   20  C10 UNL     1      25.342  14.571  -7.999  1.00  0.00     0.002 C 
HETATM   21  C11 UNL     1      25.165  13.095  -8.236  1.00  0.00     0.025 C 
ENDBRANCH  14  16
ENDBRANCH   1  12
BRANCH   4  22
HETATM   22  C14 UNL     1      24.383  12.203 -14.674  1.00  0.00     0.062 A 
HETATM   23  C15 UNL     1      25.503  12.990 -14.788  1.00  0.00     0.082 A 
HETATM   24  S2  UNL     1      26.459  12.070 -15.869  1.00  0.00    -0.087 SA
HETATM   25  C16 UNL     1      25.390  10.763 -16.107  1.00  0.00     0.047 A 
HETATM   26  C17 UNL     1      25.562   9.531 -16.968  1.00  0.00     0.076 C 
HETATM   27  N2  UNL     1      24.359  11.097 -15.349  1.00  0.00    -0.352 N 
ATOM     28  H2  UNL     1      23.546  10.484 -15.294  1.00  0.00     0.166 HD
ENDBRANCH   4  22
TORSDOF 5
ENDMDL
MODEL 4
REMARK VINA RESULT: -6.863526506      2.307      6.624
REMARK  5 active torsions:
REMARK  status: ('A' for Active; 'I' for Inactive)
REMARK    1  A    between atoms: C2_2  and  O2_4 
REMARK    2  A    between atoms: O2_4  and  C3_5 
REMARK    3  A    between atoms: C3_5  and  C4_6 
REMARK    4  A    between atoms: N1_8  and  C6_10 
REMARK    5  A    between atoms: C13_18  and  C14_20 
ROOT
HETATM    1  C3  UNL     1      23.153  12.726 -12.781  1.00  0.00     0.226 C 
HETATM    2  S1  UNL     1      23.729  10.970 -12.608  1.00  0.00    -0.071 SA
HETATM    3  C12 UNL     1      23.807  11.826 -11.053  1.00  0.00     0.078 C 
HETATM    4  C13 UNL     1      23.584  11.501  -9.789  1.00  0.00     0.082 C 
HETATM    5 CL1  UNL     1      23.088   9.875  -9.400  1.00  0.00    -0.080 Cl
HETATM    6  C18 UNL     1      24.221  13.015 -11.782  1.00  0.00     0.219 C 
HETATM    7  O3  UNL     1      25.124  13.851 -11.550  1.00  0.00    -0.287 OA
ENDROOT
BRANCH   1   8
HETATM    8  O2  UNL     1      21.840  12.769 -12.360  1.00  0.00    -0.284 OA
BRANCH   8   9
HETATM    9  C2  UNL     1      20.838  11.904 -12.660  1.00  0.00     0.257 C 
HETATM   10  C1  UNL     1      20.103  11.120 -11.597  1.00  0.00     0.126 C 
HETATM   11  O1  UNL     1      20.493  11.735 -13.852  1.00  0.00    -0.266 OA
ENDBRANCH   8   9
ENDBRANCH   1   8
BRANCH   1  12
HETATM   12  C4  UNL     1      23.440  13.236 -14.138  1.00  0.00     0.033 C 
HETATM   13  C5  UNL     1      22.831  14.521 -14.669  1.00  0.00     0.068 C 
HETATM   14  N1  UNL     1      24.164  12.649 -14.934  1.00  0.00    -0.389 N 
ATOM     15  H1  UNL     1      24.209  13.194 -15.795  1.00  0.00     0.159 HD
BRANCH  14  16
HETATM   16  C6  UNL     1      24.933  11.528 -15.087  1.00  0.00     0.081 C 
HETATM   17  C7  UNL     1      24.737  11.053 -16.556  1.00  0.00     0.025 C 
HETATM   18  C8  UNL     1      25.453   9.752 -16.790  1.00  0.00     0.002 C 
HETATM   19  C9  UNL     1      26.955   9.996 -16.636  1.00  0.00     0.000 C 
HETATM   20  C10 UNL     1      27.143  10.466 -15.206  1.00  0.00     0.002 C 
HETATM   21  C11 UNL     1      26.432  11.770 -14.962  1.00  0.00     0.025 C 
ENDBRANCH  14  16
ENDBRANCH   1  12
BRANCH   4  22
HETATM   22  C14 UNL     1      23.759  12.501  -8.694  1.00  0.00     0.062 A 
HETATM   23  C15 UNL     1      22.678  13.097  -8.094  1.00  0.00     0.082 A 
HETATM   24  S2  UNL     1      23.439  14.127  -6.960  1.00  0.00    -0.087 SA
HETATM   25  C16 UNL     1      25.062  13.743  -7.315  1.00  0.00     0.047 A 
HETATM   26  C17 UNL     1      26.331  14.285  -6.695  1.00  0.00     0.076 C 
HETATM   27  N2  UNL     1      24.938  12.848  -8.281  1.00  0.00    -0.352 N 
ATOM     28  H2  UNL     1      25.768  12.431  -8.700  1.00  0.00     0.166 HD
ENDBRANCH   4  22
TORSDOF 5
ENDMDL
MODEL 5
REMARK VINA RESULT: -6.845467119      2.681      4.924
REMARK  5 active torsions:
REMARK  status: ('A' for Active; 'I' for Inactive)
REMARK    1  A    between atoms: C2_2  and  O2_4 
REMARK    2  A    between atoms: O2_4  and  C3_5 
REMARK    3  A    between atoms: C3_5  and  C4_6 
REMARK    4  A    between atoms: N1_8  and  C6_10 
REMARK    5  A    between atoms: C13_18  and  C14_20 
ROOT
HETATM    1  C3  UNL     1      25.457  13.341 -12.722  1.00  0.00     0.226 C 
HETATM    2  S1  UNL     1      25.928  12.333 -14.207  1.00  0.00    -0.071 SA
HETATM    3  C12 UNL     1      24.355  11.823 -13.559  1.00  0.00     0.078 C 
HETATM    4  C13 UNL     1      23.213  11.407 -14.085  1.00  0.00     0.082 C 
HETATM    5 CL1  UNL     1      23.066  11.278 -15.817  1.00  0.00    -0.080 Cl
HETATM    6  C18 UNL     1      24.881  12.060 -12.225  1.00  0.00     0.219 C 
HETATM    7  O3  UNL     1      24.805  11.379 -11.176  1.00  0.00    -0.287 OA
ENDROOT
BRANCH   1   8
HETATM    8  O2  UNL     1      24.588  14.322 -13.151  1.00  0.00    -0.284 OA
BRANCH   8   9
HETATM    9  C2  UNL     1      24.723  15.148 -14.220  1.00  0.00     0.257 C 
HETATM   10  C1  UNL     1      23.737  15.151 -15.367  1.00  0.00     0.126 C 
HETATM   11  O1  UNL     1      25.689  15.942 -14.280  1.00  0.00    -0.266 OA
ENDBRANCH   8   9
ENDBRANCH   1   8
BRANCH   1  12
HETATM   12  C4  UNL     1      26.664  13.786 -11.992  1.00  0.00     0.033 C 
HETATM   13  C5  UNL     1      28.055  13.696 -12.592  1.00  0.00     0.068 C 
HETATM   14  N1  UNL     1      26.629  14.230 -10.851  1.00  0.00    -0.389 N 
ATOM     15  H1  UNL     1      27.579  14.467 -10.565  1.00  0.00     0.159 HD
BRANCH  14  16
HETATM   16  C6  UNL     1      25.778  14.522  -9.820  1.00  0.00     0.081 C 
HETATM   17  C7  UNL     1      25.879  13.339  -8.813  1.00  0.00     0.025 C 
HETATM   18  C8  UNL     1      24.887  13.511  -7.696  1.00  0.00     0.002 C 
HETATM   19  C9  UNL     1      25.272  14.761  -6.900  1.00  0.00     0.000 C 
HETATM   20  C10 UNL     1      25.181  15.911  -7.886  1.00  0.00     0.002 C 
HETATM   21  C11 UNL     1      26.172  15.749  -9.006  1.00  0.00     0.025 C 
ENDBRANCH  14  16
ENDBRANCH   1  12
BRANCH   4  22
HETATM   22  C14 UNL     1      22.055  11.040 -13.216  1.00  0.00     0.062 A 
HETATM   23  C15 UNL     1      20.823  11.623 -13.388  1.00  0.00     0.082 A 
HETATM   24  S2  UNL     1      19.910  10.865 -12.156  1.00  0.00    -0.087 SA
HETATM   25  C16 UNL     1      21.134   9.870 -11.506  1.00  0.00     0.047 A 
HETATM   26  C17 UNL     1      21.062   8.894 -10.352  1.00  0.00     0.076 C 
HETATM   27  N2  UNL     1      22.175  10.168 -12.265  1.00  0.00    -0.352 N 
ATOM     28  H2  UNL     1      23.073   9.713 -12.102  1.00  0.00     0.166 HD
ENDBRANCH   4  22
TORSDOF 5
ENDMDL
