MODEL 1
REMARK VINA RESULT: -6.989657361      0.000      0.000
REMARK  8 active torsions:
REMARK  status: ('A' for Active; 'I' for Inactive)
REMARK    1  A    between atoms: C2_2  and  C4_4 
REMARK    2  A    between atoms: C2_2  and  O1_10 
REMARK    3  A    between atoms: C5_5  and  C6_6 
REMARK    4  A    between atoms: O1_10  and  C9_11 
REMARK    5  A    between atoms: C9_11  and  O3_13 
REMARK    6  A    between atoms: O3_13  and  C10_14 
REMARK    7  A    between atoms: C14_19  and  C15_20 
REMARK    8  A    between atoms: C19_24  and  N2_25 
ROOT
HETATM    1  C6  UNL     1      27.434  10.858 -14.357  1.00  0.00     0.001 C 
HETATM    2  C7  UNL     1      28.602  10.522 -14.289  1.00  0.00     0.027 C 
HETATM    3  C8  UNL     1      29.968  10.149 -14.194  1.00  0.00     0.153 C 
HETATM    4  N1  UNL     1      31.084   9.857 -14.102  1.00  0.00    -0.182 NA
ENDROOT
BRANCH   1   5
HETATM    5  C5  UNL     1      26.079  11.270 -14.423  1.00  0.00    -0.011 C 
HETATM    6  C4  UNL     1      24.918  11.630 -14.498  1.00  0.00    -0.054 C 
BRANCH   6   7
HETATM    7  C2  UNL     1      23.516  12.076 -14.611  1.00  0.00     0.129 C 
HETATM    8  C1  UNL     1      23.234  12.234 -16.092  1.00  0.00     0.061 C 
HETATM    9  C3  UNL     1      23.395  13.397 -13.913  1.00  0.00     0.061 C 
BRANCH   7  10
HETATM   10  O1  UNL     1      22.646  11.079 -14.068  1.00  0.00    -0.274 OA
BRANCH  10  11
HETATM   11  C9  UNL     1      21.479  11.501 -13.422  1.00  0.00     0.408 C 
HETATM   12  O2  UNL     1      20.501  11.953 -14.070  1.00  0.00    -0.229 OA
BRANCH  11  13
HETATM   13  O3  UNL     1      21.348  11.440 -12.041  1.00  0.00    -0.291 OA
BRANCH  13  14
HETATM   14  C10 UNL     1      21.986  10.400 -11.315  1.00  0.00     0.152 C 
HETATM   15  C11 UNL     1      21.176   9.164 -11.464  1.00  0.00     0.035 C 
HETATM   16  C12 UNL     1      20.271   8.836 -10.302  1.00  0.00     0.013 C 
HETATM   17  C13 UNL     1      21.052   8.331  -9.107  1.00  0.00     0.075 C 
HETATM   18  S1  UNL     1      22.599   9.304  -8.923  1.00  0.00    -0.157 SA
HETATM   19  C14 UNL     1      22.315  10.807  -9.914  1.00  0.00     0.109 C 
BRANCH  19  20
HETATM   20  C15 UNL     1      23.587  11.572  -9.907  1.00  0.00    -0.039 A 
HETATM   21  C16 UNL     1      24.522  11.481 -10.905  1.00  0.00     0.008 A 
HETATM   22  C17 UNL     1      25.692  12.193 -10.884  1.00  0.00     0.003 A 
HETATM   23  C18 UNL     1      25.951  13.030  -9.834  1.00  0.00     0.036 A 
HETATM   24  C19 UNL     1      25.033  13.161  -8.790  1.00  0.00     0.103 A 
HETATM   25  C20 UNL     1      23.886  12.433  -8.857  1.00  0.00     0.044 A 
BRANCH  24  26
HETATM   26  N2  UNL     1      25.343  14.042  -7.717  1.00  0.00    -0.116 N 
HETATM   27  O4  UNL     1      24.852  15.174  -7.660  1.00  0.00    -0.532 OA
HETATM   28  O5  UNL     1      26.217  13.563  -6.751  1.00  0.00    -0.532 OA
ENDBRANCH  24  26
ENDBRANCH  19  20
ENDBRANCH  13  14
ENDBRANCH  11  13
ENDBRANCH  10  11
ENDBRANCH   7  10
ENDBRANCH   6   7
ENDBRANCH   1   5
TORSDOF 8
ENDMDL
MODEL 2
REMARK VINA RESULT: -6.922978567      3.985      7.700
REMARK  8 active torsions:
REMARK  status: ('A' for Active; 'I' for Inactive)
REMARK    1  A    between atoms: C2_2  and  C4_4 
REMARK    2  A    between atoms: C2_2  and  O1_10 
REMARK    3  A    between atoms: C5_5  and  C6_6 
REMARK    4  A    between atoms: O1_10  and  C9_11 
REMARK    5  A    between atoms: C9_11  and  O3_13 
REMARK    6  A    between atoms: O3_13  and  C10_14 
REMARK    7  A    between atoms: C14_19  and  C15_20 
REMARK    8  A    between atoms: C19_24  and  N2_25 
ROOT
HETATM    1  C6  UNL     1      28.667  13.934  -4.335  1.00  0.00     0.001 C 
HETATM    2  C7  UNL     1      29.606  13.756  -3.581  1.00  0.00     0.027 C 
HETATM    3  C8  UNL     1      30.711  13.567  -2.711  1.00  0.00     0.153 C 
HETATM    4  N1  UNL     1      31.620  13.431  -2.007  1.00  0.00    -0.182 NA
ENDROOT
BRANCH   1   5
HETATM    5  C5  UNL     1      27.587  14.160  -5.225  1.00  0.00    -0.011 C 
HETATM    6  C4  UNL     1      26.652  14.337  -5.984  1.00  0.00    -0.054 C 
BRANCH   6   7
HETATM    7  C2  UNL     1      25.512  14.528  -6.901  1.00  0.00     0.129 C 
HETATM    8  C1  UNL     1      26.015  15.391  -8.039  1.00  0.00     0.061 C 
HETATM    9  C3  UNL     1      24.427  15.236  -6.147  1.00  0.00     0.061 C 
BRANCH   7  10
HETATM   10  O1  UNL     1      25.092  13.262  -7.419  1.00  0.00    -0.274 OA
BRANCH  10  11
HETATM   11  C9  UNL     1      23.827  13.177  -8.011  1.00  0.00     0.408 C 
HETATM   12  O2  UNL     1      22.812  12.857  -7.342  1.00  0.00    -0.229 OA
BRANCH  11  13
HETATM   13  O3  UNL     1      23.636  13.442  -9.360  1.00  0.00    -0.291 OA
BRANCH  13  14
HETATM   14  C10 UNL     1      24.209  12.587 -10.339  1.00  0.00     0.152 C 
HETATM   15  C11 UNL     1      25.315  13.320 -11.007  1.00  0.00     0.035 C 
HETATM   16  C12 UNL     1      24.978  13.920 -12.350  1.00  0.00     0.013 C 
HETATM   17  C13 UNL     1      24.862  12.859 -13.425  1.00  0.00     0.075 C 
HETATM   18  S1  UNL     1      24.004  11.383 -12.748  1.00  0.00    -0.157 SA
HETATM   19  C14 UNL     1      23.178  11.985 -11.239  1.00  0.00     0.109 C 
BRANCH  19  20
HETATM   20  C15 UNL     1      22.575  10.801 -10.579  1.00  0.00    -0.039 A 
HETATM   21  C16 UNL     1      23.195  10.107  -9.572  1.00  0.00     0.008 A 
HETATM   22  C17 UNL     1      22.626   9.015  -8.973  1.00  0.00     0.003 A 
HETATM   23  C18 UNL     1      21.393   8.588  -9.383  1.00  0.00     0.036 A 
HETATM   24  C19 UNL     1      20.716   9.259 -10.405  1.00  0.00     0.103 A 
HETATM   25  C20 UNL     1      21.324  10.338 -10.968  1.00  0.00     0.044 A 
BRANCH  24  26
HETATM   26  N2  UNL     1      19.436   8.781 -10.801  1.00  0.00    -0.116 N 
HETATM   27  O4  UNL     1      18.715   8.160 -10.014  1.00  0.00    -0.532 OA
HETATM   28  O5  UNL     1      19.049   9.050 -12.107  1.00  0.00    -0.532 OA
ENDBRANCH  24  26
ENDBRANCH  19  20
ENDBRANCH  13  14
ENDBRANCH  11  13
ENDBRANCH  10  11
ENDBRANCH   7  10
ENDBRANCH   6   7
ENDBRANCH   1   5
TORSDOF 8
ENDMDL
MODEL 3
REMARK VINA RESULT: -6.879774305      2.802      5.980
REMARK  8 active torsions:
REMARK  status: ('A' for Active; 'I' for Inactive)
REMARK    1  A    between atoms: C2_2  and  C4_4 
REMARK    2  A    between atoms: C2_2  and  O1_10 
REMARK    3  A    between atoms: C5_5  and  C6_6 
REMARK    4  A    between atoms: O1_10  and  C9_11 
REMARK    5  A    between atoms: C9_11  and  O3_13 
REMARK    6  A    between atoms: O3_13  and  C10_14 
REMARK    7  A    between atoms: C14_19  and  C15_20 
REMARK    8  A    between atoms: C19_24  and  N2_25 
ROOT
HETATM    1  C6  UNL     1      20.541   9.805 -11.310  1.00  0.00     0.001 C 
HETATM    2  C7  UNL     1      19.986   9.103 -10.486  1.00  0.00     0.027 C 
HETATM    3  C8  UNL     1      19.332   8.269  -9.541  1.00  0.00     0.153 C 
HETATM    4  N1  UNL     1      18.794   7.576  -8.786  1.00  0.00    -0.182 NA
ENDROOT
BRANCH   1   5
HETATM    5  C5  UNL     1      21.177  10.610 -12.289  1.00  0.00    -0.011 C 
HETATM    6  C4  UNL     1      21.733  11.285 -13.136  1.00  0.00    -0.054 C 
BRANCH   6   7
HETATM    7  C2  UNL     1      22.425  12.085 -14.164  1.00  0.00     0.129 C 
HETATM    8  C1  UNL     1      22.806  13.395 -13.505  1.00  0.00     0.061 C 
HETATM    9  C3  UNL     1      21.461  12.325 -15.287  1.00  0.00     0.061 C 
BRANCH   7  10
HETATM   10  O1  UNL     1      23.611  11.407 -14.587  1.00  0.00    -0.274 OA
BRANCH  10  11
HETATM   11  C9  UNL     1      24.535  12.113 -15.365  1.00  0.00     0.408 C 
HETATM   12  O2  UNL     1      24.564  11.990 -16.616  1.00  0.00    -0.229 OA
BRANCH  11  13
HETATM   13  O3  UNL     1      25.457  12.979 -14.794  1.00  0.00    -0.291 OA
BRANCH  13  14
HETATM   14  C10 UNL     1      26.597  12.460 -14.125  1.00  0.00     0.152 C 
HETATM   15  C11 UNL     1      27.570  12.004 -15.150  1.00  0.00     0.035 C 
HETATM   16  C12 UNL     1      27.585  10.518 -15.417  1.00  0.00     0.013 C 
HETATM   17  C13 UNL     1      28.228   9.751 -14.281  1.00  0.00     0.075 C 
HETATM   18  S1  UNL     1      27.708  10.471 -12.674  1.00  0.00    -0.157 SA
HETATM   19  C14 UNL     1      26.231  11.462 -13.073  1.00  0.00     0.109 C 
BRANCH  19  20
HETATM   20  C15 UNL     1      25.844  12.174 -11.830  1.00  0.00    -0.039 A 
HETATM   21  C16 UNL     1      26.451  13.327 -11.406  1.00  0.00     0.008 A 
HETATM   22  C17 UNL     1      26.082  13.972 -10.255  1.00  0.00     0.003 A 
HETATM   23  C18 UNL     1      25.072  13.458  -9.489  1.00  0.00     0.036 A 
HETATM   24  C19 UNL     1      24.419  12.285  -9.875  1.00  0.00     0.103 A 
HETATM   25  C20 UNL     1      24.822  11.682 -11.026  1.00  0.00     0.044 A 
BRANCH  24  26
HETATM   26  N2  UNL     1      23.375  11.785  -9.049  1.00  0.00    -0.116 N 
HETATM   27  O4  UNL     1      23.075  10.587  -9.056  1.00  0.00    -0.532 OA
HETATM   28  O5  UNL     1      22.721  12.708  -8.245  1.00  0.00    -0.532 OA
ENDBRANCH  24  26
ENDBRANCH  19  20
ENDBRANCH  13  14
ENDBRANCH  11  13
ENDBRANCH  10  11
ENDBRANCH   7  10
ENDBRANCH   6   7
ENDBRANCH   1   5
TORSDOF 8
ENDMDL
MODEL 4
REMARK VINA RESULT: -6.717289185      2.939      5.736
REMARK  8 active torsions:
REMARK  status: ('A' for Active; 'I' for Inactive)
REMARK    1  A    between atoms: C2_2  and  C4_4 
REMARK    2  A    between atoms: C2_2  and  O1_10 
REMARK    3  A    between atoms: C5_5  and  C6_6 
REMARK    4  A    between atoms: O1_10  and  C9_11 
REMARK    5  A    between atoms: C9_11  and  O3_13 
REMARK    6  A    between atoms: O3_13  and  C10_14 
REMARK    7  A    between atoms: C14_19  and  C15_20 
REMARK    8  A    between atoms: C19_24  and  N2_25 
ROOT
HETATM    1  C6  UNL     1      20.662  11.003 -12.520  1.00  0.00     0.001 C 
HETATM    2  C7  UNL     1      20.205  10.228 -11.701  1.00  0.00     0.027 C 
HETATM    3  C8  UNL     1      19.694   9.314 -10.743  1.00  0.00     0.153 C 
HETATM    4  N1  UNL     1      19.296   8.563  -9.959  1.00  0.00    -0.182 NA
ENDROOT
BRANCH   1   5
HETATM    5  C5  UNL     1      21.217  11.894 -13.475  1.00  0.00    -0.011 C 
HETATM    6  C4  UNL     1      21.698  12.643 -14.305  1.00  0.00    -0.054 C 
BRANCH   6   7
HETATM    7  C2  UNL     1      22.291  13.531 -15.324  1.00  0.00     0.129 C 
HETATM    8  C1  UNL     1      22.376  14.907 -14.697  1.00  0.00     0.061 C 
HETATM    9  C3  UNL     1      21.374  13.551 -16.508  1.00  0.00     0.061 C 
BRANCH   7  10
HETATM   10  O1  UNL     1      23.609  13.078 -15.650  1.00  0.00    -0.274 OA
BRANCH  10  11
HETATM   11  C9  UNL     1      23.874  11.706 -15.574  1.00  0.00     0.408 C 
HETATM   12  O2  UNL     1      23.477  10.914 -16.467  1.00  0.00    -0.229 OA
BRANCH  11  13
HETATM   13  O3  UNL     1      24.584  11.159 -14.515  1.00  0.00    -0.291 OA
BRANCH  13  14
HETATM   14  C10 UNL     1      25.913  11.588 -14.257  1.00  0.00     0.152 C 
HETATM   15  C11 UNL     1      26.738  11.294 -15.457  1.00  0.00     0.035 C 
HETATM   16  C12 UNL     1      27.582  10.045 -15.375  1.00  0.00     0.013 C 
HETATM   17  C13 UNL     1      28.767  10.229 -14.450  1.00  0.00     0.075 C 
HETATM   18  S1  UNL     1      28.253  11.185 -12.968  1.00  0.00    -0.157 SA
HETATM   19  C14 UNL     1      26.435  11.067 -12.956  1.00  0.00     0.109 C 
BRANCH  19  20
HETATM   20  C15 UNL     1      25.957  11.933 -11.850  1.00  0.00    -0.039 A 
HETATM   21  C16 UNL     1      26.539  13.133 -11.531  1.00  0.00     0.008 A 
HETATM   22  C17 UNL     1      26.086  13.921 -10.506  1.00  0.00     0.003 A 
HETATM   23  C18 UNL     1      25.014  13.509  -9.764  1.00  0.00     0.036 A 
HETATM   24  C19 UNL     1      24.382  12.296 -10.045  1.00  0.00     0.103 A 
HETATM   25  C20 UNL     1      24.870  11.549 -11.073  1.00  0.00     0.044 A 
BRANCH  24  26
HETATM   26  N2  UNL     1      23.271  11.905  -9.247  1.00  0.00    -0.116 N 
HETATM   27  O4  UNL     1      22.698  12.716  -8.512  1.00  0.00    -0.532 OA
HETATM   28  O5  UNL     1      22.873  10.579  -9.342  1.00  0.00    -0.532 OA
ENDBRANCH  24  26
ENDBRANCH  19  20
ENDBRANCH  13  14
ENDBRANCH  11  13
ENDBRANCH  10  11
ENDBRANCH   7  10
ENDBRANCH   6   7
ENDBRANCH   1   5
TORSDOF 8
ENDMDL
MODEL 5
REMARK VINA RESULT: -6.709591630      3.386      7.045
REMARK  8 active torsions:
REMARK  status: ('A' for Active; 'I' for Inactive)
REMARK    1  A    between atoms: C2_2  and  C4_4 
REMARK    2  A    between atoms: C2_2  and  O1_10 
REMARK    3  A    between atoms: C5_5  and  C6_6 
REMARK    4  A    between atoms: O1_10  and  C9_11 
REMARK    5  A    between atoms: C9_11  and  O3_13 
REMARK    6  A    between atoms: O3_13  and  C10_14 
REMARK    7  A    between atoms: C14_19  and  C15_20 
REMARK    8  A    between atoms: C19_24  and  N2_25 
ROOT
HETATM    1  C6  UNL     1      22.616   9.894  -9.613  1.00  0.00     0.001 C 
HETATM    2  C7  UNL     1      21.798   9.098  -9.191  1.00  0.00     0.027 C 
HETATM    3  C8  UNL     1      20.834   8.186  -8.686  1.00  0.00     0.153 C 
HETATM    4  N1  UNL     1      20.039   7.459  -8.265  1.00  0.00    -0.182 NA
ENDROOT
BRANCH   1   5
HETATM    5  C5  UNL     1      23.561  10.839 -10.088  1.00  0.00    -0.011 C 
HETATM    6  C4  UNL     1      24.385  11.644 -10.482  1.00  0.00    -0.054 C 
BRANCH   6   7
HETATM    7  C2  UNL     1      25.398  12.614 -10.939  1.00  0.00     0.129 C 
HETATM    8  C1  UNL     1      26.074  13.148  -9.693  1.00  0.00     0.061 C 
HETATM    9  C3  UNL     1      24.686  13.717 -11.662  1.00  0.00     0.061 C 
BRANCH   7  10
HETATM   10  O1  UNL     1      26.368  11.950 -11.756  1.00  0.00    -0.274 OA
BRANCH  10  11
HETATM   11  C9  UNL     1      27.074  12.712 -12.693  1.00  0.00     0.408 C 
HETATM   12  O2  UNL     1      27.945  13.545 -12.334  1.00  0.00    -0.229 OA
BRANCH  11  13
HETATM   13  O3  UNL     1      26.849  12.581 -14.056  1.00  0.00    -0.291 OA
BRANCH  13  14
HETATM   14  C10 UNL     1      26.124  11.465 -14.551  1.00  0.00     0.152 C 
HETATM   15  C11 UNL     1      27.096  10.405 -14.921  1.00  0.00     0.035 C 
HETATM   16  C12 UNL     1      27.417  10.303 -16.392  1.00  0.00     0.013 C 
HETATM   17  C13 UNL     1      26.270   9.701 -17.176  1.00  0.00     0.075 C 
HETATM   18  S1  UNL     1      24.676  10.361 -16.546  1.00  0.00    -0.157 SA
HETATM   19  C14 UNL     1      25.137  11.852 -15.606  1.00  0.00     0.109 C 
BRANCH  19  20
HETATM   20  C15 UNL     1      23.897  12.354 -14.964  1.00  0.00    -0.039 A 
HETATM   21  C16 UNL     1      23.433  13.634 -15.128  1.00  0.00     0.008 A 
HETATM   22  C17 UNL     1      22.286  14.083 -14.528  1.00  0.00     0.003 A 
HETATM   23  C18 UNL     1      21.567  13.235 -13.732  1.00  0.00     0.036 A 
HETATM   24  C19 UNL     1      21.995  11.921 -13.529  1.00  0.00     0.103 A 
HETATM   25  C20 UNL     1      23.140  11.523 -14.148  1.00  0.00     0.044 A 
BRANCH  24  26
HETATM   26  N2  UNL     1      21.218  11.073 -12.692  1.00  0.00    -0.116 N 
HETATM   27  O4  UNL     1      21.378   9.848 -12.700  1.00  0.00    -0.532 OA
HETATM   28  O5  UNL     1      20.281  11.693 -11.878  1.00  0.00    -0.532 OA
ENDBRANCH  24  26
ENDBRANCH  19  20
ENDBRANCH  13  14
ENDBRANCH  11  13
ENDBRANCH  10  11
ENDBRANCH   7  10
ENDBRANCH   6   7
ENDBRANCH   1   5
TORSDOF 8
ENDMDL
