MODEL 1
REMARK VINA RESULT: -8.652606925      0.000      0.000
REMARK  3 active torsions:
REMARK  status: ('A' for Active; 'I' for Inactive)
REMARK    1  A    between atoms: N4_13  and  C7_14 
REMARK    2  A    between atoms: C13_22  and  C14_23 
REMARK    3  A    between atoms: C14_23  and  C15_24 
ROOT
HETATM    1  C7  UNL     1      21.660  10.017 -11.284  1.00  0.00     0.092 C 
HETATM    2  C8  UNL     1      22.911  10.903 -11.478  1.00  0.00     0.031 C 
HETATM    3  C9  UNL     1      23.058  11.111 -12.946  1.00  0.00     0.073 C 
HETATM    4  C10 UNL     1      21.876  11.743 -13.590  1.00  0.00     0.200 C 
HETATM    5  C11 UNL     1      20.569  11.426 -13.029  1.00  0.00     0.073 C 
HETATM    6  C12 UNL     1      20.497  10.847 -11.662  1.00  0.00     0.031 C 
HETATM    7  O1  UNL     1      21.887  11.367 -14.939  1.00  0.00    -0.198 OA
HETATM    8  O2  UNL     1      22.605  12.243 -15.568  1.00  0.00    -0.204 OA
HETATM    9  C13 UNL     1      22.095  13.450 -14.993  1.00  0.00     0.313 C 
HETATM   10  O3  UNL     1      22.134  13.140 -13.674  1.00  0.00    -0.318 OA
ENDROOT
BRANCH   9  11
HETATM   11  C14 UNL     1      22.997  14.581 -15.455  1.00  0.00     0.040 A 
HETATM   12  C21 UNL     1      23.903  15.298 -14.550  1.00  0.00     0.020 A 
HETATM   13  C22 UNL     1      24.438  14.285 -15.500  1.00  0.00     0.020 A 
BRANCH  11  14
HETATM   14  C15 UNL     1      22.316  15.347 -16.537  1.00  0.00    -0.042 A 
HETATM   15  C16 UNL     1      22.615  16.677 -16.699  1.00  0.00     0.008 A 
HETATM   16  C17 UNL     1      21.975  17.431 -17.664  1.00  0.00     0.004 A 
HETATM   17  C18 UNL     1      21.024  16.860 -18.475  1.00  0.00     0.042 A 
HETATM   18  C19 UNL     1      20.709  15.542 -18.331  1.00  0.00     0.117 A 
HETATM   19  F1  UNL     1      19.786  14.951 -19.116  1.00  0.00    -0.206 F 
HETATM   20  C20 UNL     1      21.369  14.782 -17.348  1.00  0.00     0.050 A 
ENDBRANCH  11  14
ENDBRANCH   9  11
BRANCH   1  21
HETATM   21  N4  UNL     1      21.653   9.551  -9.918  1.00  0.00    -0.323 N 
HETATM   22  C4  UNL     1      20.768   8.849  -9.213  1.00  0.00     0.139 A 
HETATM   23  N2  UNL     1      19.588   8.309  -9.557  1.00  0.00    -0.336 N 
HETATM   24  C5  UNL     1      21.213   8.681  -7.888  1.00  0.00     0.100 A 
HETATM   25  C3  UNL     1      18.891   7.640  -8.631  1.00  0.00     0.182 A 
ATOM     26  H2  UNL     1      19.229   8.407 -10.507  1.00  0.00     0.168 HD
HETATM   27  N1  UNL     1      19.311   7.473  -7.347  1.00  0.00    -0.354 N 
HETATM   28  C2  UNL     1      20.480   7.991  -6.951  1.00  0.00     0.037 A 
ATOM     29  H1  UNL     1      18.735   6.952  -6.686  1.00  0.00     0.166 HD
HETATM   30  C1  UNL     1      20.969   7.853  -5.572  1.00  0.00     0.070 C 
HETATM   31  N3  UNL     1      22.407   9.326  -7.866  1.00  0.00    -0.348 N 
HETATM   32  C6  UNL     1      22.665   9.840  -9.071  1.00  0.00     0.185 A 
ATOM     33  H3  UNL     1      23.017   9.405  -7.051  1.00  0.00     0.167 HD
ENDBRANCH   1  21
TORSDOF 3
ENDMDL
MODEL 2
REMARK VINA RESULT: -8.577241264      0.852      1.212
REMARK  3 active torsions:
REMARK  status: ('A' for Active; 'I' for Inactive)
REMARK    1  A    between atoms: N4_13  and  C7_14 
REMARK    2  A    between atoms: C13_22  and  C14_23 
REMARK    3  A    between atoms: C14_23  and  C15_24 
ROOT
HETATM    1  C7  UNL     1      21.675  10.003 -11.259  1.00  0.00     0.092 C 
HETATM    2  C8  UNL     1      22.922  10.896 -11.447  1.00  0.00     0.031 C 
HETATM    3  C9  UNL     1      23.078  11.099 -12.914  1.00  0.00     0.073 C 
HETATM    4  C10 UNL     1      21.897  11.722 -13.570  1.00  0.00     0.200 C 
HETATM    5  C11 UNL     1      20.588  11.399 -13.017  1.00  0.00     0.073 C 
HETATM    6  C12 UNL     1      20.509  10.825 -11.648  1.00  0.00     0.031 C 
HETATM    7  O1  UNL     1      21.920  11.342 -14.917  1.00  0.00    -0.198 OA
HETATM    8  O2  UNL     1      22.637  12.220 -15.544  1.00  0.00    -0.204 OA
HETATM    9  C13 UNL     1      22.115  13.425 -14.977  1.00  0.00     0.313 C 
HETATM   10  O3  UNL     1      22.148  13.120 -13.656  1.00  0.00    -0.318 OA
ENDROOT
BRANCH   9  11
HETATM   11  C14 UNL     1      23.014  14.560 -15.437  1.00  0.00     0.040 A 
HETATM   12  C21 UNL     1      23.961  15.239 -14.544  1.00  0.00     0.020 A 
HETATM   13  C22 UNL     1      24.449  14.250 -15.543  1.00  0.00     0.020 A 
BRANCH  11  14
HETATM   14  C15 UNL     1      22.303  15.367 -16.469  1.00  0.00    -0.042 A 
HETATM   15  C16 UNL     1      21.381  14.750 -17.276  1.00  0.00     0.008 A 
HETATM   16  C17 UNL     1      20.731  15.454 -18.271  1.00  0.00     0.004 A 
HETATM   17  C18 UNL     1      21.003  16.786 -18.471  1.00  0.00     0.042 A 
HETATM   18  C19 UNL     1      21.917  17.420 -17.684  1.00  0.00     0.117 A 
HETATM   19  F1  UNL     1      22.202  18.727 -17.850  1.00  0.00    -0.206 F 
HETATM   20  C20 UNL     1      22.570  16.694 -16.670  1.00  0.00     0.050 A 
ENDBRANCH  11  14
ENDBRANCH   9  11
BRANCH   1  21
HETATM   21  N4  UNL     1      21.661   9.541  -9.891  1.00  0.00    -0.323 N 
HETATM   22  C4  UNL     1      20.773   8.841  -9.189  1.00  0.00     0.139 A 
HETATM   23  N2  UNL     1      19.595   8.299  -9.537  1.00  0.00    -0.336 N 
HETATM   24  C5  UNL     1      21.211   8.678  -7.861  1.00  0.00     0.100 A 
HETATM   25  C3  UNL     1      18.894   7.633  -8.612  1.00  0.00     0.182 A 
ATOM     26  H2  UNL     1      19.241   8.394 -10.489  1.00  0.00     0.168 HD
HETATM   27  N1  UNL     1      19.307   7.470  -7.325  1.00  0.00    -0.354 N 
HETATM   28  C2  UNL     1      20.474   7.991  -6.925  1.00  0.00     0.037 A 
ATOM     29  H1  UNL     1      18.728   6.952  -6.666  1.00  0.00     0.166 HD
HETATM   30  C1  UNL     1      20.956   7.858  -5.543  1.00  0.00     0.070 C 
HETATM   31  N3  UNL     1      22.405   9.324  -7.834  1.00  0.00    -0.348 N 
HETATM   32  C6  UNL     1      22.668   9.834  -9.040  1.00  0.00     0.185 A 
ATOM     33  H3  UNL     1      23.010   9.407  -7.016  1.00  0.00     0.167 HD
ENDBRANCH   1  21
TORSDOF 3
ENDMDL
MODEL 3
REMARK VINA RESULT: -8.473157464      1.931      3.202
REMARK  3 active torsions:
REMARK  status: ('A' for Active; 'I' for Inactive)
REMARK    1  A    between atoms: N4_13  and  C7_14 
REMARK    2  A    between atoms: C13_22  and  C14_23 
REMARK    3  A    between atoms: C14_23  and  C15_24 
ROOT
HETATM    1  C7  UNL     1      21.586  10.129 -11.212  1.00  0.00     0.092 C 
HETATM    2  C8  UNL     1      22.924  10.864 -11.446  1.00  0.00     0.031 C 
HETATM    3  C9  UNL     1      23.012  11.123 -12.911  1.00  0.00     0.073 C 
HETATM    4  C10 UNL     1      21.884  11.925 -13.454  1.00  0.00     0.200 C 
HETATM    5  C11 UNL     1      20.582  11.743 -12.826  1.00  0.00     0.073 C 
HETATM    6  C12 UNL     1      20.515  11.112 -11.482  1.00  0.00     0.031 C 
HETATM    7  O1  UNL     1      21.771  11.617 -14.815  1.00  0.00    -0.198 OA
HETATM    8  O2  UNL     1      22.556  12.427 -15.452  1.00  0.00    -0.204 OA
HETATM    9  C13 UNL     1      22.234  13.658 -14.797  1.00  0.00     0.313 C 
HETATM   10  O3  UNL     1      22.309  13.282 -13.497  1.00  0.00    -0.318 OA
ENDROOT
BRANCH   9  11
HETATM   11  C14 UNL     1      23.242  14.692 -15.268  1.00  0.00     0.040 A 
HETATM   12  C21 UNL     1      23.115  15.405 -16.544  1.00  0.00     0.020 A 
HETATM   13  C22 UNL     1      22.786  16.092 -15.265  1.00  0.00     0.020 A 
BRANCH  11  14
HETATM   14  C15 UNL     1      24.603  14.306 -14.799  1.00  0.00    -0.042 A 
HETATM   15  C16 UNL     1      25.019  14.716 -13.557  1.00  0.00     0.008 A 
HETATM   16  C17 UNL     1      26.288  14.413 -13.103  1.00  0.00     0.004 A 
HETATM   17  C18 UNL     1      27.156  13.699 -13.893  1.00  0.00     0.042 A 
HETATM   18  C19 UNL     1      26.767  13.284 -15.130  1.00  0.00     0.117 A 
HETATM   19  F1  UNL     1      27.593  12.576 -15.926  1.00  0.00    -0.206 F 
HETATM   20  C20 UNL     1      25.470  13.594 -15.582  1.00  0.00     0.050 A 
ENDBRANCH  11  14
ENDBRANCH   9  11
BRANCH   1  21
HETATM   21  N4  UNL     1      21.598   9.601  -9.868  1.00  0.00    -0.323 N 
HETATM   22  C4  UNL     1      20.726   8.863  -9.185  1.00  0.00     0.139 A 
HETATM   23  N2  UNL     1      19.545   8.332  -9.538  1.00  0.00    -0.336 N 
HETATM   24  C5  UNL     1      21.188   8.639  -7.874  1.00  0.00     0.100 A 
HETATM   25  C3  UNL     1      18.864   7.618  -8.635  1.00  0.00     0.182 A 
ATOM     26  H2  UNL     1      19.173   8.471 -10.478  1.00  0.00     0.168 HD
HETATM   27  N1  UNL     1      19.300   7.395  -7.365  1.00  0.00    -0.354 N 
HETATM   28  C2  UNL     1      20.471   7.902  -6.960  1.00  0.00     0.037 A 
ATOM     29  H1  UNL     1      18.735   6.842  -6.722  1.00  0.00     0.166 HD
HETATM   30  C1  UNL     1      20.978   7.706  -5.595  1.00  0.00     0.070 C 
HETATM   31  N3  UNL     1      22.379   9.289  -7.837  1.00  0.00    -0.348 N 
HETATM   32  C6  UNL     1      22.619   9.858  -9.021  1.00  0.00     0.185 A 
ATOM     33  H3  UNL     1      22.998   9.335  -7.027  1.00  0.00     0.167 HD
ENDBRANCH   1  21
TORSDOF 3
ENDMDL
MODEL 4
REMARK VINA RESULT: -8.444774157      2.132      3.387
REMARK  3 active torsions:
REMARK  status: ('A' for Active; 'I' for Inactive)
REMARK    1  A    between atoms: N4_13  and  C7_14 
REMARK    2  A    between atoms: C13_22  and  C14_23 
REMARK    3  A    between atoms: C14_23  and  C15_24 
ROOT
HETATM    1  C7  UNL     1      21.632  10.128 -11.228  1.00  0.00     0.092 C 
HETATM    2  C8  UNL     1      22.957  10.892 -11.446  1.00  0.00     0.031 C 
HETATM    3  C9  UNL     1      23.061  11.146 -12.910  1.00  0.00     0.073 C 
HETATM    4  C10 UNL     1      21.924  11.920 -13.475  1.00  0.00     0.200 C 
HETATM    5  C11 UNL     1      20.617  11.712 -12.865  1.00  0.00     0.073 C 
HETATM    6  C12 UNL     1      20.544  11.086 -11.519  1.00  0.00     0.031 C 
HETATM    7  O1  UNL     1      21.839  11.603 -14.836  1.00  0.00    -0.198 OA
HETATM    8  O2  UNL     1      22.615  12.428 -15.464  1.00  0.00    -0.204 OA
HETATM    9  C13 UNL     1      22.256  13.654 -14.820  1.00  0.00     0.313 C 
HETATM   10  O3  UNL     1      22.320  13.286 -13.517  1.00  0.00    -0.318 OA
ENDROOT
BRANCH   9  11
HETATM   11  C14 UNL     1      23.248  14.708 -15.281  1.00  0.00     0.040 A 
HETATM   12  C21 UNL     1      23.141  15.391 -16.576  1.00  0.00     0.020 A 
HETATM   13  C22 UNL     1      22.751  16.093 -15.322  1.00  0.00     0.020 A 
BRANCH  11  14
HETATM   14  C15 UNL     1      24.604  14.373 -14.761  1.00  0.00    -0.042 A 
HETATM   15  C16 UNL     1      25.477  13.692 -15.573  1.00  0.00     0.008 A 
HETATM   16  C17 UNL     1      26.728  13.328 -15.114  1.00  0.00     0.004 A 
HETATM   17  C18 UNL     1      27.116  13.638 -13.833  1.00  0.00     0.042 A 
HETATM   18  C19 UNL     1      26.266  14.310 -13.008  1.00  0.00     0.117 A 
HETATM   19  F1  UNL     1      26.619  14.635 -11.748  1.00  0.00    -0.206 F 
HETATM   20  C20 UNL     1      24.995  14.681 -13.487  1.00  0.00     0.050 A 
ENDBRANCH  11  14
ENDBRANCH   9  11
BRANCH   1  21
HETATM   21  N4  UNL     1      21.635   9.607  -9.881  1.00  0.00    -0.323 N 
HETATM   22  C4  UNL     1      20.758   8.872  -9.201  1.00  0.00     0.139 A 
HETATM   23  N2  UNL     1      19.580   8.338  -9.560  1.00  0.00    -0.336 N 
HETATM   24  C5  UNL     1      21.212   8.654  -7.886  1.00  0.00     0.100 A 
HETATM   25  C3  UNL     1      18.893   7.628  -8.658  1.00  0.00     0.182 A 
ATOM     26  H2  UNL     1      19.215   8.472 -10.503  1.00  0.00     0.168 HD
HETATM   27  N1  UNL     1      19.321   7.412  -7.384  1.00  0.00    -0.354 N 
HETATM   28  C2  UNL     1      20.489   7.922  -6.973  1.00  0.00     0.037 A 
ATOM     29  H1  UNL     1      18.752   6.861  -6.742  1.00  0.00     0.166 HD
HETATM   30  C1  UNL     1      20.987   7.732  -5.604  1.00  0.00     0.070 C 
HETATM   31  N3  UNL     1      22.402   9.305  -7.844  1.00  0.00    -0.348 N 
HETATM   32  C6  UNL     1      22.649   9.869  -9.029  1.00  0.00     0.185 A 
ATOM     33  H3  UNL     1      23.015   9.356  -7.030  1.00  0.00     0.167 HD
ENDBRANCH   1  21
TORSDOF 3
ENDMDL
MODEL 5
REMARK VINA RESULT: -8.256433618      6.556      8.983
REMARK  3 active torsions:
REMARK  status: ('A' for Active; 'I' for Inactive)
REMARK    1  A    between atoms: N4_13  and  C7_14 
REMARK    2  A    between atoms: C13_22  and  C14_23 
REMARK    3  A    between atoms: C14_23  and  C15_24 
ROOT
HETATM    1  C7  UNL     1      26.076  15.574  -7.454  1.00  0.00     0.092 C 
HETATM    2  C8  UNL     1      25.040  15.750  -8.586  1.00  0.00     0.031 C 
HETATM    3  C9  UNL     1      25.332  14.694  -9.595  1.00  0.00     0.073 C 
HETATM    4  C10 UNL     1      25.274  13.309  -9.058  1.00  0.00     0.200 C 
HETATM    5  C11 UNL     1      25.680  13.121  -7.671  1.00  0.00     0.073 C 
HETATM    6  C12 UNL     1      25.740  14.305  -6.774  1.00  0.00     0.031 C 
HETATM    7  O1  UNL     1      26.085  12.511  -9.874  1.00  0.00    -0.198 OA
HETATM    8  O2  UNL     1      25.340  12.086 -10.845  1.00  0.00    -0.204 OA
HETATM    9  C13 UNL     1      24.171  11.700 -10.117  1.00  0.00     0.313 C 
HETATM   10  O3  UNL     1      23.977  12.796  -9.344  1.00  0.00    -0.318 OA
ENDROOT
BRANCH   9  11
HETATM   11  C14 UNL     1      23.091  11.386 -11.139  1.00  0.00     0.040 A 
HETATM   12  C21 UNL     1      22.553  12.392 -12.062  1.00  0.00     0.020 A 
HETATM   13  C22 UNL     1      23.518  11.368 -12.548  1.00  0.00     0.020 A 
BRANCH  11  14
HETATM   14  C15 UNL     1      22.165  10.360 -10.582  1.00  0.00    -0.042 A 
HETATM   15  C16 UNL     1      22.524   9.690  -9.440  1.00  0.00     0.008 A 
HETATM   16  C17 UNL     1      21.712   8.703  -8.916  1.00  0.00     0.004 A 
HETATM   17  C18 UNL     1      20.530   8.375  -9.535  1.00  0.00     0.042 A 
HETATM   18  C19 UNL     1      20.152   9.025 -10.671  1.00  0.00     0.117 A 
HETATM   19  F1  UNL     1      18.996   8.732 -11.298  1.00  0.00    -0.206 F 
HETATM   20  C20 UNL     1      20.986  10.032 -11.195  1.00  0.00     0.050 A 
ENDBRANCH  11  14
ENDBRANCH   9  11
BRANCH   1  21
HETATM   21  N4  UNL     1      26.019  16.745  -6.612  1.00  0.00    -0.323 N 
HETATM   22  C4  UNL     1      25.185  17.114  -5.643  1.00  0.00     0.139 A 
HETATM   23  N2  UNL     1      24.125  16.494  -5.101  1.00  0.00    -0.336 N 
HETATM   24  C5  UNL     1      25.536  18.384  -5.146  1.00  0.00     0.100 A 
HETATM   25  C3  UNL     1      23.453  17.106  -4.119  1.00  0.00     0.182 A 
ATOM     26  H2  UNL     1      23.836  15.573  -5.432  1.00  0.00     0.168 HD
HETATM   27  N1  UNL     1      23.783  18.334  -3.632  1.00  0.00    -0.354 N 
HETATM   28  C2  UNL     1      24.830  18.997  -4.137  1.00  0.00     0.037 A 
ATOM     29  H1  UNL     1      23.231  18.749  -2.881  1.00  0.00     0.166 HD
HETATM   30  C1  UNL     1      25.217  20.331  -3.657  1.00  0.00     0.070 C 
HETATM   31  N3  UNL     1      26.623  18.729  -5.883  1.00  0.00    -0.348 N 
HETATM   32  C6  UNL     1      26.906  17.754  -6.751  1.00  0.00     0.185 A 
ATOM     33  H3  UNL     1      27.144  19.601  -5.788  1.00  0.00     0.167 HD
ENDBRANCH   1  21
TORSDOF 3
ENDMDL
