MODEL 1
REMARK VINA RESULT: -7.411658404      0.000      0.000
REMARK  3 active torsions:
REMARK  status: ('A' for Active; 'I' for Inactive)
REMARK    1  A    between atoms: O1_2  and  C2_3 
REMARK    2  A    between atoms: C3_6  and  N2_7 
REMARK    3  A    between atoms: C10_15  and  N3_16 
ROOT
HETATM    1  C2  UNL     1      24.943  13.993 -13.184  1.00  0.00     0.225 A 
HETATM    2  N1  UNL     1      24.613  13.469 -14.368  1.00  0.00    -0.307 N 
ATOM      3  H1  UNL     1      24.974  13.885 -15.227  1.00  0.00     0.171 HD
HETATM    4  C3  UNL     1      23.794  12.378 -14.431  1.00  0.00     0.118 A 
HETATM    5  C6  UNL     1      23.343  11.871 -13.221  1.00  0.00     0.037 A 
HETATM    6  C7  UNL     1      22.507  10.776 -13.221  1.00  0.00     0.021 A 
HETATM    7  C8  UNL     1      22.050  10.269 -12.017  1.00  0.00     0.046 A 
HETATM    8  C9  UNL     1      22.429  10.857 -10.835  1.00  0.00     0.145 A 
HETATM    9  F1  UNL     1      21.949  10.315  -9.691  1.00  0.00    -0.204 F 
HETATM   10  C10 UNL     1      23.263  11.955 -10.787  1.00  0.00     0.097 A 
HETATM   11  C22 UNL     1      23.700  12.434 -12.003  1.00  0.00     0.079 A 
HETATM   12  N4  UNL     1      24.507  13.501 -12.021  1.00  0.00    -0.319 N 
ATOM     13  H4  UNL     1      24.790  13.940 -11.145  1.00  0.00     0.169 HD
ENDROOT
BRANCH  10  14
HETATM   14  N3  UNL     1      23.640  12.543  -9.550  1.00  0.00    -0.376 N 
HETATM   15  C11 UNL     1      22.615  13.037  -8.658  1.00  0.00     0.126 C 
HETATM   16  C12 UNL     1      23.140  13.313  -7.274  1.00  0.00     0.061 C 
HETATM   17  C13 UNL     1      24.398  14.114  -7.256  1.00  0.00     0.102 C 
HETATM   18  C14 UNL     1      25.133  14.107  -8.576  1.00  0.00     0.061 C 
HETATM   19  C16 UNL     1      24.070  15.520  -6.798  1.00  0.00     0.082 C 
HETATM   20  O3  UNL     1      25.307  13.701  -6.280  1.00  0.00    -0.229 OA
HETATM   21  C15 UNL     1      25.010  12.681  -9.123  1.00  0.00     0.126 C 
HETATM   22  C17 UNL     1      25.082  15.696  -5.670  1.00  0.00     0.099 C 
HETATM   23  C18 UNL     1      25.567  17.102  -5.624  1.00  0.00     0.041 C 
HETATM   24  C21 UNL     1      24.501  15.419  -4.324  1.00  0.00     0.041 C 
HETATM   25  O2  UNL     1      26.060  14.780  -6.041  1.00  0.00    -0.229 OA
HETATM   26  C19 UNL     1      24.502  17.791  -4.793  1.00  0.00     0.003 C 
HETATM   27  C20 UNL     1      24.002  16.743  -3.849  1.00  0.00     0.003 C 
ENDBRANCH  10  14
BRANCH   4  28
HETATM   28  N2  UNL     1      23.463  11.815 -15.688  1.00  0.00    -0.375 N 
HETATM   29  C4  UNL     1      24.224  10.742 -16.272  1.00  0.00     0.150 C 
HETATM   30  C5  UNL     1      22.325  12.341 -16.400  1.00  0.00     0.150 C 
ENDBRANCH   4  28
BRANCH   1  31
HETATM   31  O1  UNL     1      25.786  15.118 -13.090  1.00  0.00    -0.327 OA
HETATM   32  C1  UNL     1      26.671  15.196 -12.014  1.00  0.00     0.213 C 
ENDBRANCH   1  31
TORSDOF 3
ENDMDL
MODEL 2
REMARK VINA RESULT: -7.249714679      2.733      4.307
REMARK  3 active torsions:
REMARK  status: ('A' for Active; 'I' for Inactive)
REMARK    1  A    between atoms: O1_2  and  C2_3 
REMARK    2  A    between atoms: C3_6  and  N2_7 
REMARK    3  A    between atoms: C10_15  and  N3_16 
ROOT
HETATM    1  C2  UNL     1      23.860  11.667  -9.648  1.00  0.00     0.225 A 
HETATM    2  N1  UNL     1      24.247  11.264 -10.862  1.00  0.00    -0.307 N 
ATOM      3  H1  UNL     1      23.860  10.409 -11.262  1.00  0.00     0.171 HD
HETATM    4  C3  UNL     1      25.159  11.995 -11.568  1.00  0.00     0.118 A 
HETATM    5  C6  UNL     1      25.640  13.144 -10.958  1.00  0.00     0.037 A 
HETATM    6  C7  UNL     1      26.569  13.918 -11.618  1.00  0.00     0.021 A 
HETATM    7  C8  UNL     1      27.055  15.062 -11.011  1.00  0.00     0.046 A 
HETATM    8  C9  UNL     1      26.614  15.418  -9.761  1.00  0.00     0.145 A 
HETATM    9  F1  UNL     1      27.128  16.549  -9.221  1.00  0.00    -0.204 F 
HETATM   10  C10 UNL     1      25.687  14.674  -9.062  1.00  0.00     0.097 A 
HETATM   11  C22 UNL     1      25.222  13.542  -9.694  1.00  0.00     0.079 A 
HETATM   12  N4  UNL     1      24.325  12.775  -9.064  1.00  0.00    -0.319 N 
ATOM     13  H4  UNL     1      23.995  13.037  -8.135  1.00  0.00     0.169 HD
ENDROOT
BRANCH  10  14
HETATM   14  N3  UNL     1      25.247  15.066  -7.769  1.00  0.00    -0.376 N 
HETATM   15  C11 UNL     1      23.993  15.774  -7.631  1.00  0.00     0.126 C 
HETATM   16  C12 UNL     1      23.511  15.817  -6.206  1.00  0.00     0.061 C 
HETATM   17  C13 UNL     1      24.555  16.236  -5.228  1.00  0.00     0.102 C 
HETATM   18  C14 UNL     1      25.963  16.098  -5.758  1.00  0.00     0.061 C 
HETATM   19  C16 UNL     1      24.256  17.650  -4.776  1.00  0.00     0.082 C 
HETATM   20  O3  UNL     1      24.503  15.534  -4.022  1.00  0.00    -0.229 OA
HETATM   21  C15 UNL     1      25.989  14.795  -6.563  1.00  0.00     0.126 C 
HETATM   22  C17 UNL     1      24.280  17.476  -3.261  1.00  0.00     0.099 C 
HETATM   23  C18 UNL     1      24.846  18.689  -2.609  1.00  0.00     0.041 C 
HETATM   24  C21 UNL     1      22.918  17.298  -2.679  1.00  0.00     0.041 C 
HETATM   25  O2  UNL     1      25.081  16.347  -3.132  1.00  0.00    -0.229 OA
HETATM   26  C19 UNL     1      23.638  19.598  -2.498  1.00  0.00     0.003 C 
HETATM   27  C20 UNL     1      22.468  18.679  -2.338  1.00  0.00     0.003 C 
ENDBRANCH  10  14
BRANCH   4  28
HETATM   28  N2  UNL     1      25.551  11.574 -12.863  1.00  0.00    -0.375 N 
HETATM   29  C4  UNL     1      26.816  10.934 -13.111  1.00  0.00     0.150 C 
HETATM   30  C5  UNL     1      24.647  11.799 -13.964  1.00  0.00     0.150 C 
ENDBRANCH   4  28
BRANCH   1  31
HETATM   31  O1  UNL     1      22.920  10.933  -8.897  1.00  0.00    -0.327 OA
HETATM   32  C1  UNL     1      22.763   9.575  -9.175  1.00  0.00     0.213 C 
ENDBRANCH   1  31
TORSDOF 3
ENDMDL
MODEL 3
REMARK VINA RESULT: -7.161628679      2.896      8.998
REMARK  3 active torsions:
REMARK  status: ('A' for Active; 'I' for Inactive)
REMARK    1  A    between atoms: O1_2  and  C2_3 
REMARK    2  A    between atoms: C3_6  and  N2_7 
REMARK    3  A    between atoms: C10_15  and  N3_16 
ROOT
HETATM    1  C2  UNL     1      23.462  11.812  -9.008  1.00  0.00     0.225 A 
HETATM    2  N1  UNL     1      23.533  12.453  -7.838  1.00  0.00    -0.307 N 
ATOM      3  H1  UNL     1      22.985  12.123  -7.043  1.00  0.00     0.171 HD
HETATM    4  C3  UNL     1      24.338  13.547  -7.703  1.00  0.00     0.118 A 
HETATM    5  C6  UNL     1      25.052  13.935  -8.828  1.00  0.00     0.037 A 
HETATM    6  C7  UNL     1      25.875  15.037  -8.754  1.00  0.00     0.021 A 
HETATM    7  C8  UNL     1      26.585  15.431  -9.875  1.00  0.00     0.046 A 
HETATM    8  C9  UNL     1      26.466  14.726 -11.048  1.00  0.00     0.145 A 
HETATM    9  F1  UNL     1      27.186  15.162 -12.109  1.00  0.00    -0.204 F 
HETATM   10  C10 UNL     1      25.653  13.618 -11.168  1.00  0.00     0.097 A 
HETATM   11  C22 UNL     1      24.961  13.253 -10.034  1.00  0.00     0.079 A 
HETATM   12  N4  UNL     1      24.152  12.189 -10.089  1.00  0.00    -0.319 N 
ATOM     13  H4  UNL     1      24.061  11.663 -10.958  1.00  0.00     0.169 HD
ENDROOT
BRANCH  10  14
HETATM   14  N3  UNL     1      25.548  12.907 -12.393  1.00  0.00    -0.376 N 
HETATM   15  C11 UNL     1      26.630  12.040 -12.804  1.00  0.00     0.126 C 
HETATM   16  C12 UNL     1      26.234  11.117 -13.925  1.00  0.00     0.061 C 
HETATM   17  C13 UNL     1      25.542  11.802 -15.055  1.00  0.00     0.102 C 
HETATM   18  C14 UNL     1      24.977  13.153 -14.681  1.00  0.00     0.061 C 
HETATM   19  C16 UNL     1      26.498  11.892 -16.225  1.00  0.00     0.082 C 
HETATM   20  O3  UNL     1      24.494  11.058 -15.600  1.00  0.00    -0.229 OA
HETATM   21  C15 UNL     1      24.407  12.999 -13.268  1.00  0.00     0.126 C 
HETATM   22  C17 UNL     1      25.646  11.291 -17.337  1.00  0.00     0.099 C 
HETATM   23  C18 UNL     1      25.923  11.975 -18.630  1.00  0.00     0.041 C 
HETATM   24  C21 UNL     1      25.934   9.846 -17.570  1.00  0.00     0.041 C 
HETATM   25  O2  UNL     1      24.364  11.519 -16.848  1.00  0.00    -0.229 OA
HETATM   26  C19 UNL     1      27.139  11.230 -19.143  1.00  0.00     0.003 C 
HETATM   27  C20 UNL     1      26.997   9.836 -18.617  1.00  0.00     0.003 C 
ENDBRANCH  10  14
BRANCH   4  28
HETATM   28  N2  UNL     1      24.425  14.211  -6.454  1.00  0.00    -0.375 N 
HETATM   29  C4  UNL     1      25.366  13.816  -5.440  1.00  0.00     0.150 C 
HETATM   30  C5  UNL     1      23.535  15.316  -6.198  1.00  0.00     0.150 C 
ENDBRANCH   4  28
BRANCH   1  31
HETATM   31  O1  UNL     1      22.640  10.680  -9.176  1.00  0.00    -0.327 OA
HETATM   32  C1  UNL     1      22.285  10.303 -10.471  1.00  0.00     0.213 C 
ENDBRANCH   1  31
TORSDOF 3
ENDMDL
MODEL 4
REMARK VINA RESULT: -7.130226777      5.309      7.948
REMARK  3 active torsions:
REMARK  status: ('A' for Active; 'I' for Inactive)
REMARK    1  A    between atoms: O1_2  and  C2_3 
REMARK    2  A    between atoms: C3_6  and  N2_7 
REMARK    3  A    between atoms: C10_15  and  N3_16 
ROOT
HETATM    1  C2  UNL     1      20.038  11.762 -18.786  1.00  0.00     0.225 A 
HETATM    2  N1  UNL     1      20.148  12.111 -20.071  1.00  0.00    -0.307 N 
ATOM      3  H1  UNL     1      19.424  11.838 -20.736  1.00  0.00     0.171 HD
HETATM    4  C3  UNL     1      21.226  12.834 -20.495  1.00  0.00     0.118 A 
HETATM    5  C6  UNL     1      22.168  13.167 -19.532  1.00  0.00     0.037 A 
HETATM    6  C7  UNL     1      23.281  13.888 -19.902  1.00  0.00     0.021 A 
HETATM    7  C8  UNL     1      24.226  14.219 -18.946  1.00  0.00     0.046 A 
HETATM    8  C9  UNL     1      24.050  13.827 -17.641  1.00  0.00     0.145 A 
HETATM    9  F1  UNL     1      25.009  14.181 -16.753  1.00  0.00    -0.204 F 
HETATM   10  C10 UNL     1      22.952  13.103 -17.226  1.00  0.00     0.097 A 
HETATM   11  C22 UNL     1      22.031  12.792 -18.202  1.00  0.00     0.079 A 
HETATM   12  N4  UNL     1      20.947  12.085 -17.861  1.00  0.00    -0.319 N 
ATOM     13  H4  UNL     1      20.813  11.794 -16.893  1.00  0.00     0.169 HD
ENDROOT
BRANCH  10  14
HETATM   14  N3  UNL     1      22.794  12.712 -15.869  1.00  0.00    -0.376 N 
HETATM   15  C11 UNL     1      23.432  11.500 -15.402  1.00  0.00     0.126 C 
HETATM   16  C12 UNL     1      23.454  11.404 -13.900  1.00  0.00     0.061 C 
HETATM   17  C13 UNL     1      22.137  11.684 -13.258  1.00  0.00     0.102 C 
HETATM   18  C14 UNL     1      21.179  12.432 -14.156  1.00  0.00     0.061 C 
HETATM   19  C16 UNL     1      21.550  10.378 -12.767  1.00  0.00     0.082 C 
HETATM   20  O3  UNL     1      22.239  12.414 -12.072  1.00  0.00    -0.229 OA
HETATM   21  C15 UNL     1      22.023  13.464 -14.912  1.00  0.00     0.126 C 
HETATM   22  C17 UNL     1      21.244  10.730 -11.316  1.00  0.00     0.099 C 
HETATM   23  C18 UNL     1      19.997  10.050 -10.870  1.00  0.00     0.041 C 
HETATM   24  C21 UNL     1      22.312  10.283 -10.375  1.00  0.00     0.041 C 
HETATM   25  O2  UNL     1      21.128  12.113 -11.393  1.00  0.00    -0.229 OA
HETATM   26  C19 UNL     1      20.500   8.684 -10.445  1.00  0.00     0.003 C 
HETATM   27  C20 UNL     1      21.893   8.916  -9.949  1.00  0.00     0.003 C 
ENDBRANCH  10  14
BRANCH   4  28
HETATM   28  N2  UNL     1      21.328  13.218 -21.855  1.00  0.00    -0.375 N 
HETATM   29  C4  UNL     1      22.068  12.445 -22.817  1.00  0.00     0.150 C 
HETATM   30  C5  UNL     1      20.667  14.427 -22.280  1.00  0.00     0.150 C 
ENDBRANCH   4  28
BRANCH   1  31
HETATM   31  O1  UNL     1      18.936  11.017 -18.320  1.00  0.00    -0.327 OA
HETATM   32  C1  UNL     1      17.782  10.981 -19.103  1.00  0.00     0.213 C 
ENDBRANCH   1  31
TORSDOF 3
ENDMDL
MODEL 5
REMARK VINA RESULT: -7.038808690      1.122      1.351
REMARK  3 active torsions:
REMARK  status: ('A' for Active; 'I' for Inactive)
REMARK    1  A    between atoms: O1_2  and  C2_3 
REMARK    2  A    between atoms: C3_6  and  N2_7 
REMARK    3  A    between atoms: C10_15  and  N3_16 
ROOT
HETATM    1  C2  UNL     1      25.633  14.230 -12.257  1.00  0.00     0.225 A 
HETATM    2  N1  UNL     1      25.386  13.616 -13.417  1.00  0.00    -0.307 N 
ATOM      3  H1  UNL     1      25.797  13.973 -14.280  1.00  0.00     0.171 HD
HETATM    4  C3  UNL     1      24.585  12.510 -13.451  1.00  0.00     0.118 A 
HETATM    5  C6  UNL     1      24.063  12.085 -12.237  1.00  0.00     0.037 A 
HETATM    6  C7  UNL     1      23.241  10.980 -12.209  1.00  0.00     0.021 A 
HETATM    7  C8  UNL     1      22.714  10.556 -11.002  1.00  0.00     0.046 A 
HETATM    8  C9  UNL     1      23.009  11.234  -9.846  1.00  0.00     0.145 A 
HETATM    9  F1  UNL     1      22.462  10.770  -8.697  1.00  0.00    -0.204 F 
HETATM   10  C10 UNL     1      23.826  12.346  -9.826  1.00  0.00     0.097 A 
HETATM   11  C22 UNL     1      24.335  12.742 -11.044  1.00  0.00     0.079 A 
HETATM   12  N4  UNL     1      25.129  13.817 -11.090  1.00  0.00    -0.319 N 
ATOM     13  H4  UNL     1      25.351  14.323 -10.233  1.00  0.00     0.169 HD
ENDROOT
BRANCH  10  14
HETATM   14  N3  UNL     1      24.116  13.029  -8.615  1.00  0.00    -0.376 N 
HETATM   15  C11 UNL     1      23.031  13.584  -7.836  1.00  0.00     0.126 C 
HETATM   16  C12 UNL     1      23.459  13.969  -6.445  1.00  0.00     0.061 C 
HETATM   17  C13 UNL     1      24.713  14.775  -6.401  1.00  0.00     0.102 C 
HETATM   18  C14 UNL     1      25.538  14.670  -7.662  1.00  0.00     0.061 C 
HETATM   19  C16 UNL     1      24.354  16.210  -6.075  1.00  0.00     0.082 C 
HETATM   20  O3  UNL     1      25.552  14.442  -5.335  1.00  0.00    -0.229 OA
HETATM   21  C15 UNL     1      25.453  13.207  -8.105  1.00  0.00     0.126 C 
HETATM   22  C17 UNL     1      25.285  16.477  -4.898  1.00  0.00     0.099 C 
HETATM   23  C18 UNL     1      25.766  17.885  -4.925  1.00  0.00     0.041 C 
HETATM   24  C21 UNL     1      24.611  16.301  -3.578  1.00  0.00     0.041 C 
HETATM   25  O2  UNL     1      26.286  15.540  -5.127  1.00  0.00    -0.229 OA
HETATM   26  C19 UNL     1      24.646  18.630  -4.226  1.00  0.00     0.003 C 
HETATM   27  C20 UNL     1      24.081  17.654  -3.241  1.00  0.00     0.003 C 
ENDBRANCH  10  14
BRANCH   4  28
HETATM   28  N2  UNL     1      24.342  11.851 -14.681  1.00  0.00    -0.375 N 
HETATM   29  C4  UNL     1      23.127  12.044 -15.427  1.00  0.00     0.150 C 
HETATM   30  C5  UNL     1      25.350  10.956 -15.194  1.00  0.00     0.150 C 
ENDBRANCH   4  28
BRANCH   1  31
HETATM   31  O1  UNL     1      26.457  15.372 -12.192  1.00  0.00    -0.327 OA
HETATM   32  C1  UNL     1      27.210  15.583 -11.037  1.00  0.00     0.213 C 
ENDBRANCH   1  31
TORSDOF 3
ENDMDL
