MODEL 1
REMARK VINA RESULT: -8.891428304      0.000      0.000
REMARK  3 active torsions:
REMARK  status: ('A' for Active; 'I' for Inactive)
REMARK    1  A    between atoms: C2_2  and  C4_4 
REMARK    2  A    between atoms: C4_4  and  C5_5 
REMARK    3  A    between atoms: C14_20  and  C15_21 
ROOT
HETATM    1  C5  UNL     1      29.955  14.012  -2.480  1.00  0.00     0.134 C 
HETATM    2  C6  UNL     1      30.183  15.470  -2.764  1.00  0.00     0.062 C 
HETATM    3  C7  UNL     1      29.571  15.824  -4.053  1.00  0.00     0.017 C 
HETATM    4  C8  UNL     1      28.509  15.160  -4.522  1.00  0.00     0.124 A 
HETATM    5  O1  UNL     1      27.750  15.278  -5.674  1.00  0.00    -0.265 OA
HETATM    6  C9  UNL     1      26.743  14.303  -5.639  1.00  0.00     0.437 A 
HETATM    7  N1  UNL     1      26.953  13.608  -4.415  1.00  0.00    -0.284 N 
ATOM      8  H1  UNL     1      26.375  12.829  -4.100  1.00  0.00     0.169 HD
HETATM    9  C10 UNL     1      27.942  14.064  -3.757  1.00  0.00     0.179 A 
HETATM   10  O2  UNL     1      28.554  13.746  -2.530  1.00  0.00    -0.328 OA
HETATM   11  O3  UNL     1      25.522  15.019  -5.637  1.00  0.00    -0.144 OA
HETATM   12  O4  UNL     1      25.343  15.377  -6.912  1.00  0.00    -0.191 OA
HETATM   13  C11 UNL     1      24.836  14.205  -7.524  1.00  0.00     0.230 C 
HETATM   14  C12 UNL     1      25.043  14.223  -9.006  1.00  0.00     0.075 C 
HETATM   15  C13 UNL     1      24.524  12.918  -9.559  1.00  0.00     0.015 C 
HETATM   16  C14 UNL     1      23.037  12.858  -9.297  1.00  0.00     0.019 C 
HETATM   17  C21 UNL     1      22.724  12.921  -7.816  1.00  0.00     0.015 C 
HETATM   18  C22 UNL     1      23.371  14.156  -7.227  1.00  0.00     0.075 C 
HETATM   19  O5  UNL     1      25.510  13.080  -7.006  1.00  0.00    -0.191 OA
HETATM   20  O6  UNL     1      26.754  13.476  -6.757  1.00  0.00    -0.144 OA
ENDROOT
BRANCH   1  21
HETATM   21  C4  UNL     1      30.737  13.185  -3.457  1.00  0.00     0.036 C 
BRANCH  21  22
HETATM   22  C2  UNL     1      32.196  13.525  -3.422  1.00  0.00    -0.020 C 
HETATM   23  C1  UNL     1      32.962  12.425  -2.720  1.00  0.00     0.009 C 
HETATM   24  C3  UNL     1      32.702  13.532  -4.858  1.00  0.00     0.009 C 
ENDBRANCH  21  22
ENDBRANCH   1  21
BRANCH  16  25
HETATM   25  C15 UNL     1      22.481  11.586  -9.813  1.00  0.00    -0.051 A 
HETATM   26  C16 UNL     1      22.793  10.351  -9.286  1.00  0.00     0.007 A 
HETATM   27  C17 UNL     1      22.238   9.195  -9.816  1.00  0.00     0.004 A 
HETATM   28  C18 UNL     1      21.362   9.276 -10.881  1.00  0.00     0.042 A 
HETATM   29  C19 UNL     1      21.053  10.509 -11.404  1.00  0.00     0.116 A 
HETATM   30  F1  UNL     1      20.197  10.602 -12.449  1.00  0.00    -0.206 F 
HETATM   31  C20 UNL     1      21.609  11.641 -10.871  1.00  0.00     0.049 A 
ENDBRANCH  16  25
TORSDOF 3
ENDMDL
MODEL 2
REMARK VINA RESULT: -8.598193696      3.947      9.470
REMARK  3 active torsions:
REMARK  status: ('A' for Active; 'I' for Inactive)
REMARK    1  A    between atoms: C2_2  and  C4_4 
REMARK    2  A    between atoms: C4_4  and  C5_5 
REMARK    3  A    between atoms: C14_20  and  C15_21 
ROOT
HETATM    1  C5  UNL     1      21.005   8.382 -10.047  1.00  0.00     0.134 C 
HETATM    2  C6  UNL     1      20.674   9.099 -11.326  1.00  0.00     0.062 C 
HETATM    3  C7  UNL     1      20.913  10.539 -11.161  1.00  0.00     0.017 C 
HETATM    4  C8  UNL     1      21.829  10.997 -10.299  1.00  0.00     0.124 A 
HETATM    5  O1  UNL     1      22.251  12.268  -9.951  1.00  0.00    -0.265 OA
HETATM    6  C9  UNL     1      23.254  12.148  -8.980  1.00  0.00     0.437 A 
HETATM    7  N1  UNL     1      23.394  10.747  -8.774  1.00  0.00    -0.284 N 
ATOM      8  H1  UNL     1      24.054  10.334  -8.114  1.00  0.00     0.169 HD
HETATM    9  C10 UNL     1      22.605  10.065  -9.501  1.00  0.00     0.179 A 
HETATM   10  O2  UNL     1      22.348   8.691  -9.679  1.00  0.00    -0.328 OA
HETATM   11  O3  UNL     1      24.415  12.715  -9.560  1.00  0.00    -0.144 OA
HETATM   12  O4  UNL     1      24.239  14.034  -9.435  1.00  0.00    -0.191 OA
HETATM   13  C11 UNL     1      24.594  14.296  -8.090  1.00  0.00     0.230 C 
HETATM   14  C12 UNL     1      24.001  15.581  -7.603  1.00  0.00     0.075 C 
HETATM   15  C13 UNL     1      24.386  15.745  -6.152  1.00  0.00     0.015 C 
HETATM   16  C14 UNL     1      25.889  15.870  -6.080  1.00  0.00     0.019 C 
HETATM   17  C21 UNL     1      26.583  14.642  -6.634  1.00  0.00     0.015 C 
HETATM   18  C22 UNL     1      26.086  14.387  -8.041  1.00  0.00     0.075 C 
HETATM   19  O5  UNL     1      24.110  13.256  -7.269  1.00  0.00    -0.191 OA
HETATM   20  O6  UNL     1      22.967  12.854  -7.816  1.00  0.00    -0.144 OA
ENDROOT
BRANCH   1  21
HETATM   21  C4  UNL     1      20.012   8.764  -8.989  1.00  0.00     0.036 C 
BRANCH  21  22
HETATM   22  C2  UNL     1      20.024   7.794  -7.847  1.00  0.00    -0.020 C 
HETATM   23  C1  UNL     1      20.770   8.392  -6.674  1.00  0.00     0.009 C 
HETATM   24  C3  UNL     1      18.586   7.617  -7.378  1.00  0.00     0.009 C 
ENDBRANCH  21  22
ENDBRANCH   1  21
BRANCH  16  25
HETATM   25  C15 UNL     1      26.319  16.023  -4.671  1.00  0.00    -0.051 A 
HETATM   26  C16 UNL     1      26.328  17.230  -4.007  1.00  0.00     0.007 A 
HETATM   27  C17 UNL     1      26.744  17.307  -2.685  1.00  0.00     0.004 A 
HETATM   28  C18 UNL     1      27.152  16.165  -2.023  1.00  0.00     0.042 A 
HETATM   29  C19 UNL     1      27.142  14.963  -2.689  1.00  0.00     0.116 A 
HETATM   30  F1  UNL     1      27.541  13.837  -2.051  1.00  0.00    -0.206 F 
HETATM   31  C20 UNL     1      26.730  14.902  -3.993  1.00  0.00     0.049 A 
ENDBRANCH  16  25
TORSDOF 3
ENDMDL
MODEL 3
REMARK VINA RESULT: -8.594413610      0.874      1.225
REMARK  3 active torsions:
REMARK  status: ('A' for Active; 'I' for Inactive)
REMARK    1  A    between atoms: C2_2  and  C4_4 
REMARK    2  A    between atoms: C4_4  and  C5_5 
REMARK    3  A    between atoms: C14_20  and  C15_21 
ROOT
HETATM    1  C5  UNL     1      29.939  13.898  -2.426  1.00  0.00     0.134 C 
HETATM    2  C6  UNL     1      30.144  15.376  -2.610  1.00  0.00     0.062 C 
HETATM    3  C7  UNL     1      29.531  15.807  -3.874  1.00  0.00     0.017 C 
HETATM    4  C8  UNL     1      28.482  15.159  -4.393  1.00  0.00     0.124 A 
HETATM    5  O1  UNL     1      27.726  15.342  -5.538  1.00  0.00    -0.265 OA
HETATM    6  C9  UNL     1      26.736  14.351  -5.575  1.00  0.00     0.437 A 
HETATM    7  N1  UNL     1      26.953  13.577  -4.401  1.00  0.00    -0.284 N 
ATOM      8  H1  UNL     1      26.386  12.769  -4.142  1.00  0.00     0.169 HD
HETATM    9  C10 UNL     1      27.931  14.003  -3.708  1.00  0.00     0.179 A 
HETATM   10  O2  UNL     1      28.544  13.613  -2.502  1.00  0.00    -0.328 OA
HETATM   11  O3  UNL     1      25.502  15.044  -5.531  1.00  0.00    -0.144 OA
HETATM   12  O4  UNL     1      25.323  15.485  -6.780  1.00  0.00    -0.191 OA
HETATM   13  C11 UNL     1      24.838  14.350  -7.472  1.00  0.00     0.230 C 
HETATM   14  C12 UNL     1      25.050  14.473  -8.949  1.00  0.00     0.075 C 
HETATM   15  C13 UNL     1      24.556  13.200  -9.592  1.00  0.00     0.015 C 
HETATM   16  C14 UNL     1      23.070  13.098  -9.342  1.00  0.00     0.019 C 
HETATM   17  C21 UNL     1      22.750  13.054  -7.862  1.00  0.00     0.015 C 
HETATM   18  C22 UNL     1      23.373  14.256  -7.186  1.00  0.00     0.075 C 
HETATM   19  O5  UNL     1      25.529  13.204  -7.029  1.00  0.00    -0.191 OA
HETATM   20  O6  UNL     1      26.765  13.602  -6.747  1.00  0.00    -0.144 OA
ENDROOT
BRANCH   1  21
HETATM   21  C4  UNL     1      30.739  13.153  -3.454  1.00  0.00     0.036 C 
BRANCH  21  22
HETATM   22  C2  UNL     1      32.189  13.529  -3.402  1.00  0.00    -0.020 C 
HETATM   23  C1  UNL     1      32.970  12.457  -2.675  1.00  0.00     0.009 C 
HETATM   24  C3  UNL     1      32.716  13.531  -4.831  1.00  0.00     0.009 C 
ENDBRANCH  21  22
ENDBRANCH   1  21
BRANCH  16  25
HETATM   25  C15 UNL     1      22.537  11.855  -9.947  1.00  0.00    -0.051 A 
HETATM   26  C16 UNL     1      21.851  11.825 -11.142  1.00  0.00     0.007 A 
HETATM   27  C17 UNL     1      21.376  10.626 -11.655  1.00  0.00     0.004 A 
HETATM   28  C18 UNL     1      21.592   9.448 -10.968  1.00  0.00     0.042 A 
HETATM   29  C19 UNL     1      22.278   9.481  -9.777  1.00  0.00     0.116 A 
HETATM   30  F1  UNL     1      22.495   8.333  -9.092  1.00  0.00    -0.206 F 
HETATM   31  C20 UNL     1      22.740  10.671  -9.282  1.00  0.00     0.049 A 
ENDBRANCH  16  25
TORSDOF 3
ENDMDL
MODEL 4
REMARK VINA RESULT: -8.199497423      8.374     13.518
REMARK  3 active torsions:
REMARK  status: ('A' for Active; 'I' for Inactive)
REMARK    1  A    between atoms: C2_2  and  C4_4 
REMARK    2  A    between atoms: C4_4  and  C5_5 
REMARK    3  A    between atoms: C14_20  and  C15_21 
ROOT
HETATM    1  C5  UNL     1      19.067  12.473 -20.951  1.00  0.00     0.134 C 
HETATM    2  C6  UNL     1      19.594  13.863 -21.172  1.00  0.00     0.062 C 
HETATM    3  C7  UNL     1      19.998  14.449 -19.886  1.00  0.00     0.017 C 
HETATM    4  C8  UNL     1      20.409  13.679 -18.871  1.00  0.00     0.124 A 
HETATM    5  O1  UNL     1      20.837  13.956 -17.585  1.00  0.00    -0.265 OA
HETATM    6  C9  UNL     1      21.149  12.743 -16.954  1.00  0.00     0.437 A 
HETATM    7  N1  UNL     1      20.877  11.746 -17.932  1.00  0.00    -0.284 N 
ATOM      8  H1  UNL     1      21.005  10.746 -17.772  1.00  0.00     0.169 HD
HETATM    9  C10 UNL     1      20.457  12.237 -19.028  1.00  0.00     0.179 A 
HETATM   10  O2  UNL     1      20.059  11.707 -20.270  1.00  0.00    -0.328 OA
HETATM   11  O3  UNL     1      22.529  12.819 -16.646  1.00  0.00    -0.144 OA
HETATM   12  O4  UNL     1      22.583  13.579 -15.548  1.00  0.00    -0.191 OA
HETATM   13  C11 UNL     1      22.239  12.689 -14.503  1.00  0.00     0.230 C 
HETATM   14  C12 UNL     1      21.752  13.421 -13.292  1.00  0.00     0.075 C 
HETATM   15  C13 UNL     1      21.359  12.393 -12.259  1.00  0.00     0.015 C 
HETATM   16  C14 UNL     1      22.600  11.625 -11.871  1.00  0.00     0.019 C 
HETATM   17  C21 UNL     1      23.216  10.914 -13.058  1.00  0.00     0.015 C 
HETATM   18  C22 UNL     1      23.475  11.922 -14.157  1.00  0.00     0.075 C 
HETATM   19  O5  UNL     1      21.204  11.837 -14.939  1.00  0.00    -0.191 OA
HETATM   20  O6  UNL     1      20.453  12.559 -15.765  1.00  0.00    -0.144 OA
ENDROOT
BRANCH   1  21
HETATM   21  C4  UNL     1      17.772  12.545 -20.197  1.00  0.00     0.036 C 
BRANCH  21  22
HETATM   22  C2  UNL     1      17.225  11.179 -19.911  1.00  0.00    -0.020 C 
HETATM   23  C1  UNL     1      15.921  11.297 -19.154  1.00  0.00     0.009 C 
HETATM   24  C3  UNL     1      16.875  10.534 -21.245  1.00  0.00     0.009 C 
ENDBRANCH  21  22
ENDBRANCH   1  21
BRANCH  16  25
HETATM   25  C15 UNL     1      22.263  10.592 -10.863  1.00  0.00    -0.051 A 
HETATM   26  C16 UNL     1      23.057  10.307  -9.774  1.00  0.00     0.007 A 
HETATM   27  C17 UNL     1      22.685   9.326  -8.865  1.00  0.00     0.004 A 
HETATM   28  C18 UNL     1      21.509   8.626  -9.048  1.00  0.00     0.042 A 
HETATM   29  C19 UNL     1      20.719   8.914 -10.136  1.00  0.00     0.116 A 
HETATM   30  F1  UNL     1      19.563   8.235 -10.327  1.00  0.00    -0.206 F 
HETATM   31  C20 UNL     1      21.098   9.884 -11.024  1.00  0.00     0.049 A 
ENDBRANCH  16  25
TORSDOF 3
ENDMDL
MODEL 5
REMARK VINA RESULT: -8.121664793      3.685      5.369
REMARK  3 active torsions:
REMARK  status: ('A' for Active; 'I' for Inactive)
REMARK    1  A    between atoms: C2_2  and  C4_4 
REMARK    2  A    between atoms: C4_4  and  C5_5 
REMARK    3  A    between atoms: C14_20  and  C15_21 
ROOT
HETATM    1  C5  UNL     1      24.968  18.002  -3.722  1.00  0.00     0.134 C 
HETATM    2  C6  UNL     1      25.732  16.993  -2.911  1.00  0.00     0.062 C 
HETATM    3  C7  UNL     1      25.564  15.657  -3.498  1.00  0.00     0.017 C 
HETATM    4  C8  UNL     1      25.333  15.497  -4.806  1.00  0.00     0.124 A 
HETATM    5  O1  UNL     1      25.140  14.384  -5.606  1.00  0.00    -0.265 OA
HETATM    6  C9  UNL     1      24.939  14.819  -6.923  1.00  0.00     0.437 A 
HETATM    7  N1  UNL     1      25.018  16.238  -6.853  1.00  0.00    -0.284 N 
ATOM      8  H1  UNL     1      24.910  16.851  -7.661  1.00  0.00     0.169 HD
HETATM    9  C10 UNL     1      25.239  16.657  -5.673  1.00  0.00     0.179 A 
HETATM   10  O2  UNL     1      25.400  17.924  -5.079  1.00  0.00    -0.328 OA
HETATM   11  O3  UNL     1      26.006  14.266  -7.672  1.00  0.00    -0.144 OA
HETATM   12  O4  UNL     1      25.647  12.995  -7.875  1.00  0.00    -0.191 OA
HETATM   13  C11 UNL     1      24.728  13.070  -8.947  1.00  0.00     0.230 C 
HETATM   14  C12 UNL     1      23.840  11.866  -8.999  1.00  0.00     0.075 C 
HETATM   15  C13 UNL     1      22.863  12.062 -10.133  1.00  0.00     0.015 C 
HETATM   16  C14 UNL     1      23.649  12.117 -11.422  1.00  0.00     0.019 C 
HETATM   17  C21 UNL     1      24.641  13.262 -11.428  1.00  0.00     0.015 C 
HETATM   18  C22 UNL     1      25.530  13.151 -10.207  1.00  0.00     0.075 C 
HETATM   19  O5  UNL     1      23.908  14.205  -8.779  1.00  0.00    -0.191 OA
HETATM   20  O6  UNL     1      23.747  14.355  -7.469  1.00  0.00    -0.144 OA
ENDROOT
BRANCH   1  21
HETATM   21  C4  UNL     1      23.496  17.754  -3.568  1.00  0.00     0.036 C 
BRANCH  21  22
HETATM   22  C2  UNL     1      23.047  17.971  -2.155  1.00  0.00    -0.020 C 
HETATM   23  C1  UNL     1      22.378  19.322  -2.031  1.00  0.00     0.009 C 
HETATM   24  C3  UNL     1      21.965  16.943  -1.852  1.00  0.00     0.009 C 
ENDBRANCH  21  22
ENDBRANCH   1  21
BRANCH  16  25
HETATM   25  C15 UNL     1      22.732  12.320 -12.568  1.00  0.00    -0.051 A 
HETATM   26  C16 UNL     1      21.634  11.525 -12.812  1.00  0.00     0.007 A 
HETATM   27  C17 UNL     1      20.814  11.768 -13.905  1.00  0.00     0.004 A 
HETATM   28  C18 UNL     1      21.095  12.816 -14.759  1.00  0.00     0.042 A 
HETATM   29  C19 UNL     1      22.191  13.607 -14.512  1.00  0.00     0.116 A 
HETATM   30  F1  UNL     1      22.478  14.638 -15.342  1.00  0.00    -0.206 F 
HETATM   31  C20 UNL     1      22.992  13.356 -13.430  1.00  0.00     0.049 A 
ENDBRANCH  16  25
TORSDOF 3
ENDMDL
