MODEL 1
REMARK VINA RESULT: -7.348271419      0.000      0.000
REMARK  4 active torsions:
REMARK  status: ('A' for Active; 'I' for Inactive)
REMARK    1  A    between atoms: C2_2  and  C3_3 
REMARK    2  A    between atoms: C3_3  and  S1_4 
REMARK    3  A    between atoms: S1_4  and  C4_5 
REMARK    4  A    between atoms: C5_6  and  N1_7 
ROOT
HETATM    1  C4  UNL     1      21.070   9.132  -9.655  1.00  0.00     0.085 C 
HETATM    2  C5  UNL     1      20.220   9.512 -10.595  1.00  0.00     0.128 C 
HETATM    3  C6  UNL     1      20.085  10.671 -11.448  1.00  0.00     0.051 C 
HETATM    4  C7  UNL     1      21.234  11.359 -12.002  1.00  0.00    -0.011 A 
HETATM    5  C8  UNL     1      21.045  11.626 -13.371  1.00  0.00     0.014 A 
HETATM    6  C9  UNL     1      21.940  12.278 -14.139  1.00  0.00     0.020 A 
HETATM    7  C10 UNL     1      23.115  12.715 -13.583  1.00  0.00     0.012 A 
HETATM    8 BR1  UNL     1      24.362  13.646 -14.672  1.00  0.00    -0.051 Br
HETATM    9  C11 UNL     1      23.358  12.481 -12.242  1.00  0.00     0.044 A 
HETATM   10  C12 UNL     1      22.414  11.807 -11.463  1.00  0.00     0.081 A 
HETATM   11  S2  UNL     1      23.025  11.707  -9.826  1.00  0.00     0.236 S 
HETATM   12  O3  UNL     1      24.541  11.824  -9.882  1.00  0.00    -0.211 OA
HETATM   13  O4  UNL     1      22.463  12.783  -8.934  1.00  0.00    -0.211 OA
HETATM   14  S3  UNL     1      22.575   9.856  -9.059  1.00  0.00     0.018 SA
ENDROOT
BRANCH   1  15
HETATM   15  S1  UNL     1      20.578   7.640  -8.822  1.00  0.00    -0.119 SA
BRANCH  15  16
HETATM   16  C3  UNL     1      19.950   7.828  -7.178  1.00  0.00     0.080 C 
BRANCH  16  17
HETATM   17  C2  UNL     1      20.996   7.907  -6.133  1.00  0.00     0.006 C 
HETATM   18  C1  UNL     1      21.148   9.220  -5.498  1.00  0.00     0.006 C 
ENDBRANCH  16  17
ENDBRANCH  15  16
ENDBRANCH   1  15
BRANCH   2  19
HETATM   19  N1  UNL     1      19.093   8.600 -10.735  1.00  0.00    -0.114 N 
HETATM   20  O1  UNL     1      18.474   8.150  -9.768  1.00  0.00    -0.532 OA
HETATM   21  O2  UNL     1      18.780   8.305 -12.030  1.00  0.00    -0.532 OA
ENDBRANCH   2  19
TORSDOF 4
ENDMDL
MODEL 2
REMARK VINA RESULT: -7.101843841      4.008      7.127
REMARK  4 active torsions:
REMARK  status: ('A' for Active; 'I' for Inactive)
REMARK    1  A    between atoms: C2_2  and  C3_3 
REMARK    2  A    between atoms: C3_3  and  S1_4 
REMARK    3  A    between atoms: S1_4  and  C4_5 
REMARK    4  A    between atoms: C5_6  and  N1_7 
ROOT
HETATM    1  C4  UNL     1      24.282  11.455 -13.025  1.00  0.00     0.085 C 
HETATM    2  C5  UNL     1      24.732  11.412 -11.782  1.00  0.00     0.128 C 
HETATM    3  C6  UNL     1      24.126  11.314 -10.473  1.00  0.00     0.051 C 
HETATM    4  C7  UNL     1      22.945  10.510 -10.230  1.00  0.00    -0.011 A 
HETATM    5  C8  UNL     1      23.102   9.733  -9.066  1.00  0.00     0.014 A 
HETATM    6  C9  UNL     1      22.152   8.908  -8.582  1.00  0.00     0.020 A 
HETATM    7  C10 UNL     1      20.955   8.794  -9.243  1.00  0.00     0.012 A 
HETATM    8 BR1  UNL     1      19.619   7.640  -8.541  1.00  0.00    -0.051 Br
HETATM    9  C11 UNL     1      20.744   9.533 -10.393  1.00  0.00     0.044 A 
HETATM   10  C12 UNL     1      21.740  10.386 -10.874  1.00  0.00     0.081 A 
HETATM   11  S2  UNL     1      21.136  11.177 -12.314  1.00  0.00     0.236 S 
HETATM   12  O3  UNL     1      20.038  10.303 -12.904  1.00  0.00    -0.211 OA
HETATM   13  O4  UNL     1      20.594  12.554 -12.032  1.00  0.00    -0.211 OA
HETATM   14  S3  UNL     1      22.649  11.288 -13.697  1.00  0.00     0.018 SA
ENDROOT
BRANCH   1  15
HETATM   15  S1  UNL     1      25.554  11.775 -14.225  1.00  0.00    -0.119 SA
BRANCH  15  16
HETATM   16  C3  UNL     1      25.374  10.974 -15.794  1.00  0.00     0.080 C 
BRANCH  16  17
HETATM   17  C2  UNL     1      26.542  10.158 -16.197  1.00  0.00     0.006 C 
HETATM   18  C1  UNL     1      27.675  10.185 -15.266  1.00  0.00     0.006 C 
ENDBRANCH  16  17
ENDBRANCH  15  16
ENDBRANCH   1  15
BRANCH   2  19
HETATM   19  N1  UNL     1      26.172  11.618 -11.700  1.00  0.00    -0.114 N 
HETATM   20  O1  UNL     1      26.987  10.709 -11.875  1.00  0.00    -0.532 OA
HETATM   21  O2  UNL     1      26.531  12.905 -11.427  1.00  0.00    -0.532 OA
ENDBRANCH   2  19
TORSDOF 4
ENDMDL
MODEL 3
REMARK VINA RESULT: -6.999024916      3.833      5.960
REMARK  4 active torsions:
REMARK  status: ('A' for Active; 'I' for Inactive)
REMARK    1  A    between atoms: C2_2  and  C3_3 
REMARK    2  A    between atoms: C3_3  and  S1_4 
REMARK    3  A    between atoms: S1_4  and  C4_5 
REMARK    4  A    between atoms: C5_6  and  N1_7 
ROOT
HETATM    1  C4  UNL     1      23.048  11.793 -12.345  1.00  0.00     0.085 C 
HETATM    2  C5  UNL     1      22.483  11.314 -11.248  1.00  0.00     0.128 C 
HETATM    3  C6  UNL     1      22.822  11.297  -9.842  1.00  0.00     0.051 C 
HETATM    4  C7  UNL     1      23.478  12.416  -9.195  1.00  0.00    -0.011 A 
HETATM    5  C8  UNL     1      22.852  12.720  -7.970  1.00  0.00     0.014 A 
HETATM    6  C9  UNL     1      23.265  13.698  -7.140  1.00  0.00     0.020 A 
HETATM    7  C10 UNL     1      24.352  14.461  -7.483  1.00  0.00     0.012 A 
HETATM    8 BR1  UNL     1      24.934  15.826  -6.297  1.00  0.00    -0.051 Br
HETATM    9  C11 UNL     1      25.007  14.209  -8.675  1.00  0.00     0.044 A 
HETATM   10  C12 UNL     1      24.565  13.187  -9.519  1.00  0.00     0.081 A 
HETATM   11  S2  UNL     1      25.625  13.127 -10.910  1.00  0.00     0.236 S 
HETATM   12  O3  UNL     1      26.274  14.495 -11.065  1.00  0.00    -0.211 OA
HETATM   13  O4  UNL     1      26.690  12.070 -10.779  1.00  0.00    -0.211 OA
HETATM   14  S3  UNL     1      24.499  12.783 -12.591  1.00  0.00     0.018 SA
ENDROOT
BRANCH   1  15
HETATM   15  S1  UNL     1      22.207  11.316 -13.836  1.00  0.00    -0.119 SA
BRANCH  15  16
HETATM   16  C3  UNL     1      21.138  12.528 -14.558  1.00  0.00     0.080 C 
BRANCH  16  17
HETATM   17  C2  UNL     1      21.796  13.403 -15.554  1.00  0.00     0.006 C 
HETATM   18  C1  UNL     1      22.350  14.652 -15.019  1.00  0.00     0.006 C 
ENDBRANCH  16  17
ENDBRANCH  15  16
ENDBRANCH   1  15
BRANCH   2  19
HETATM   19  N1  UNL     1      21.291  10.526 -11.529  1.00  0.00    -0.114 N 
HETATM   20  O1  UNL     1      21.336   9.339 -11.857  1.00  0.00    -0.532 OA
HETATM   21  O2  UNL     1      20.125  11.219 -11.381  1.00  0.00    -0.532 OA
ENDBRANCH   2  19
TORSDOF 4
ENDMDL
MODEL 4
REMARK VINA RESULT: -6.983797417      3.791      7.034
REMARK  4 active torsions:
REMARK  status: ('A' for Active; 'I' for Inactive)
REMARK    1  A    between atoms: C2_2  and  C3_3 
REMARK    2  A    between atoms: C3_3  and  S1_4 
REMARK    3  A    between atoms: S1_4  and  C4_5 
REMARK    4  A    between atoms: C5_6  and  N1_7 
ROOT
HETATM    1  C4  UNL     1      24.167  11.505 -12.997  1.00  0.00     0.085 C 
HETATM    2  C5  UNL     1      24.628  11.472 -11.758  1.00  0.00     0.128 C 
HETATM    3  C6  UNL     1      24.034  11.359 -10.444  1.00  0.00     0.051 C 
HETATM    4  C7  UNL     1      22.874  10.527 -10.193  1.00  0.00    -0.011 A 
HETATM    5  C8  UNL     1      23.058   9.752  -9.031  1.00  0.00     0.014 A 
HETATM    6  C9  UNL     1      22.132   8.904  -8.541  1.00  0.00     0.020 A 
HETATM    7  C10 UNL     1      20.933   8.763  -9.192  1.00  0.00     0.012 A 
HETATM    8 BR1  UNL     1      19.631   7.577  -8.482  1.00  0.00    -0.051 Br
HETATM    9  C11 UNL     1      20.695   9.498 -10.340  1.00  0.00     0.044 A 
HETATM   10  C12 UNL     1      21.668  10.375 -10.828  1.00  0.00     0.081 A 
HETATM   11  S2  UNL     1      21.034  11.152 -12.263  1.00  0.00     0.236 S 
HETATM   12  O3  UNL     1      19.953  10.253 -12.846  1.00  0.00    -0.211 OA
HETATM   13  O4  UNL     1      20.462  12.515 -11.975  1.00  0.00    -0.211 OA
HETATM   14  S3  UNL     1      22.533  11.300 -13.657  1.00  0.00     0.018 SA
ENDROOT
BRANCH   1  15
HETATM   15  S1  UNL     1      25.422  11.856 -14.207  1.00  0.00    -0.119 SA
BRANCH  15  16
HETATM   16  C3  UNL     1      25.469  13.510 -14.834  1.00  0.00     0.080 C 
BRANCH  16  17
HETATM   17  C2  UNL     1      24.632  14.470 -14.078  1.00  0.00     0.006 C 
HETATM   18  C1  UNL     1      23.405  14.900 -14.757  1.00  0.00     0.006 C 
ENDBRANCH  16  17
ENDBRANCH  15  16
ENDBRANCH   1  15
BRANCH   2  19
HETATM   19  N1  UNL     1      26.063  11.711 -11.686  1.00  0.00    -0.114 N 
HETATM   20  O1  UNL     1      26.899  10.828 -11.891  1.00  0.00    -0.532 OA
HETATM   21  O2  UNL     1      26.393  13.001 -11.386  1.00  0.00    -0.532 OA
ENDBRANCH   2  19
TORSDOF 4
ENDMDL
MODEL 5
REMARK VINA RESULT: -6.801936118      3.897      6.043
REMARK  4 active torsions:
REMARK  status: ('A' for Active; 'I' for Inactive)
REMARK    1  A    between atoms: C2_2  and  C3_3 
REMARK    2  A    between atoms: C3_3  and  S1_4 
REMARK    3  A    between atoms: S1_4  and  C4_5 
REMARK    4  A    between atoms: C5_6  and  N1_7 
ROOT
HETATM    1  C4  UNL     1      23.056  11.891 -12.384  1.00  0.00     0.085 C 
HETATM    2  C5  UNL     1      22.481  11.389 -11.304  1.00  0.00     0.128 C 
HETATM    3  C6  UNL     1      22.806  11.340  -9.895  1.00  0.00     0.051 C 
HETATM    4  C7  UNL     1      23.457  12.443  -9.217  1.00  0.00    -0.011 A 
HETATM    5  C8  UNL     1      22.821  12.721  -7.992  1.00  0.00     0.014 A 
HETATM    6  C9  UNL     1      23.228  13.680  -7.137  1.00  0.00     0.020 A 
HETATM    7  C10 UNL     1      24.319  14.448  -7.452  1.00  0.00     0.012 A 
HETATM    8 BR1  UNL     1      24.891  15.785  -6.231  1.00  0.00    -0.051 Br
HETATM    9  C11 UNL     1      24.985  14.222  -8.644  1.00  0.00     0.044 A 
HETATM   10  C12 UNL     1      24.549  13.219  -9.514  1.00  0.00     0.081 A 
HETATM   11  S2  UNL     1      25.622  13.189 -10.896  1.00  0.00     0.236 S 
HETATM   12  O3  UNL     1      26.274  14.559 -11.015  1.00  0.00    -0.211 OA
HETATM   13  O4  UNL     1      26.684  12.127 -10.778  1.00  0.00    -0.211 OA
HETATM   14  S3  UNL     1      24.511  12.884 -12.595  1.00  0.00     0.018 SA
ENDROOT
BRANCH   1  15
HETATM   15  S1  UNL     1      22.228  11.448 -13.894  1.00  0.00    -0.119 SA
BRANCH  15  16
HETATM   16  C3  UNL     1      23.004  11.968 -15.397  1.00  0.00     0.080 C 
BRANCH  16  17
HETATM   17  C2  UNL     1      23.780  10.908 -16.079  1.00  0.00     0.006 C 
HETATM   18  C1  UNL     1      25.214  10.885 -15.770  1.00  0.00     0.006 C 
ENDBRANCH  16  17
ENDBRANCH  15  16
ENDBRANCH   1  15
BRANCH   2  19
HETATM   19  N1  UNL     1      21.290  10.609 -11.613  1.00  0.00    -0.114 N 
HETATM   20  O1  UNL     1      21.332   9.414 -11.913  1.00  0.00    -0.532 OA
HETATM   21  O2  UNL     1      20.128  11.319 -11.526  1.00  0.00    -0.532 OA
ENDBRANCH   2  19
TORSDOF 4
ENDMDL
