MODEL 1
REMARK VINA RESULT: -7.611593824      0.000      0.000
REMARK  5 active torsions:
REMARK  status: ('A' for Active; 'I' for Inactive)
REMARK    1  A    between atoms: C2_3  and  C3_4 
REMARK    2  A    between atoms: C5_7  and  N2_8 
REMARK    3  A    between atoms: N2_8  and  N3_10 
REMARK    4  A    between atoms: C6_12  and  C7_13 
REMARK    5  A    between atoms: C12_20  and  O1_21 
ROOT
HETATM    1  C3  UNL     1      14.358  12.832  18.223  1.00  0.00     0.060 A 
HETATM    2  C4  UNL     1      13.069  12.700  18.684  1.00  0.00     0.084 A 
HETATM    3  S1  UNL     1      13.023  13.768  20.007  1.00  0.00    -0.062 SA
HETATM    4  C5  UNL     1      14.628  14.332  19.921  1.00  0.00     0.163 A 
HETATM    5  N4  UNL     1      15.133  13.675  18.878  1.00  0.00    -0.334 N 
ATOM      6  H4  UNL     1      16.101  13.822  18.591  1.00  0.00     0.168 HD
ENDROOT
BRANCH   4   7
HETATM    7  N2  UNL     1      15.207  15.206  20.706  1.00  0.00    -0.280 N 
ATOM      8  H2  UNL     1      15.272  15.018  21.706  1.00  0.00     0.189 HD
BRANCH   7   9
HETATM    9  N3  UNL     1      15.725  16.368  20.204  1.00  0.00    -0.309 N 
HETATM   10  C6  UNL     1      15.999  17.412  20.896  1.00  0.00     0.123 C 
ATOM     11  H3  UNL     1      15.907  16.407  19.202  1.00  0.00     0.186 HD
BRANCH  10  12
HETATM   12  C7  UNL     1      16.546  18.644  20.379  1.00  0.00     0.037 A 
HETATM   13  C8  UNL     1      15.877  19.831  20.570  1.00  0.00     0.048 A 
HETATM   14 CL1  UNL     1      14.366  19.940  21.425  1.00  0.00    -0.083 Cl
HETATM   15  C9  UNL     1      16.430  21.000  20.054  1.00  0.00     0.026 A 
HETATM   16  C10 UNL     1      17.626  20.976  19.365  1.00  0.00     0.024 A 
HETATM   17  C11 UNL     1      18.294  19.794  19.175  1.00  0.00     0.045 A 
HETATM   18 BR1  UNL     1      19.945  19.722  18.229  1.00  0.00    -0.048 Br
HETATM   19  C12 UNL     1      17.736  18.628  19.693  1.00  0.00     0.096 A 
BRANCH  19  20
HETATM   20  O1  UNL     1      18.422  17.442  19.493  1.00  0.00    -0.358 OA
ATOM     21  H1  UNL     1      19.153  17.203  20.050  1.00  0.00     0.217 HD
ENDBRANCH  19  20
ENDBRANCH  10  12
ENDBRANCH   7   9
ENDBRANCH   4   7
BRANCH   1  22
HETATM   22  C2  UNL     1      14.804  12.029  17.033  1.00  0.00     0.058 A 
HETATM   23  C1  UNL     1      15.576  12.336  15.977  1.00  0.00     0.084 A 
HETATM   24  N1  UNL     1      16.191  13.640  15.800  1.00  0.00    -0.099 NA
HETATM   25  C16 UNL     1      15.781  11.352  15.037  1.00  0.00     0.047 A 
HETATM   26  C13 UNL     1      15.215  10.167  15.218  1.00  0.00     0.025 A 
HETATM   27  S3  UNL     1      16.626  11.102  13.523  1.00  0.00    -0.099 SA
HETATM   28  S2  UNL     1      14.373  10.410  16.727  1.00  0.00    -0.085 SA
HETATM   29  C14 UNL     1      15.414   9.179  14.289  1.00  0.00     0.027 A 
HETATM   30  C15 UNL     1      16.193   9.483  13.223  1.00  0.00     0.052 A 
ENDBRANCH   1  22
TORSDOF 5
ENDMDL
MODEL 2
REMARK VINA RESULT: -7.348920842      5.943      8.658
REMARK  5 active torsions:
REMARK  status: ('A' for Active; 'I' for Inactive)
REMARK    1  A    between atoms: C2_3  and  C3_4 
REMARK    2  A    between atoms: C5_7  and  N2_8 
REMARK    3  A    between atoms: N2_8  and  N3_10 
REMARK    4  A    between atoms: C6_12  and  C7_13 
REMARK    5  A    between atoms: C12_20  and  O1_21 
ROOT
HETATM    1  C3  UNL     1      11.900  12.650  19.429  1.00  0.00     0.060 A 
HETATM    2  C4  UNL     1      12.271  13.036  20.696  1.00  0.00     0.084 A 
HETATM    3  S1  UNL     1      13.927  13.383  20.523  1.00  0.00    -0.062 SA
HETATM    4  C5  UNL     1      14.079  13.027  18.864  1.00  0.00     0.163 A 
HETATM    5  N4  UNL     1      12.849  12.655  18.512  1.00  0.00    -0.334 N 
ATOM      6  H4  UNL     1      12.644  12.380  17.551  1.00  0.00     0.168 HD
ENDROOT
BRANCH   4   7
HETATM    7  N2  UNL     1      15.159  13.108  18.129  1.00  0.00    -0.280 N 
ATOM      8  H2  UNL     1      15.985  13.579  18.499  1.00  0.00     0.189 HD
BRANCH   7   9
HETATM    9  N3  UNL     1      15.198  12.569  16.872  1.00  0.00    -0.309 N 
HETATM   10  C6  UNL     1      15.621  11.394  16.586  1.00  0.00     0.123 C 
ATOM     11  H3  UNL     1      14.865  13.150  16.102  1.00  0.00     0.186 HD
BRANCH  10  12
HETATM   12  C7  UNL     1      15.667  10.813  15.265  1.00  0.00     0.037 A 
HETATM   13  C8  UNL     1      16.528  11.318  14.319  1.00  0.00     0.048 A 
HETATM   14 CL1  UNL     1      17.600  12.653  14.629  1.00  0.00    -0.083 Cl
HETATM   15  C9  UNL     1      16.543  10.738  13.052  1.00  0.00     0.026 A 
HETATM   16  C10 UNL     1      15.714   9.678  12.746  1.00  0.00     0.024 A 
HETATM   17  C11 UNL     1      14.856   9.174  13.690  1.00  0.00     0.045 A 
HETATM   18 BR1  UNL     1      13.696   7.713  13.304  1.00  0.00    -0.048 Br
HETATM   19  C12 UNL     1      14.845   9.758  14.954  1.00  0.00     0.096 A 
BRANCH  19  20
HETATM   20  O1  UNL     1      13.972   9.238  15.895  1.00  0.00    -0.358 OA
ATOM     21  H1  UNL     1      13.056   9.102  15.685  1.00  0.00     0.217 HD
ENDBRANCH  19  20
ENDBRANCH  10  12
ENDBRANCH   7   9
ENDBRANCH   4   7
BRANCH   1  22
HETATM   22  C2  UNL     1      10.475  12.252  19.164  1.00  0.00     0.058 A 
HETATM   23  C1  UNL     1       9.862  11.777  18.068  1.00  0.00     0.084 A 
HETATM   24  N1  UNL     1      10.557  11.525  16.818  1.00  0.00    -0.099 NA
HETATM   25  C16 UNL     1       8.512  11.521  18.160  1.00  0.00     0.047 A 
HETATM   26  C13 UNL     1       7.894  11.753  19.310  1.00  0.00     0.025 A 
HETATM   27  S3  UNL     1       7.191  10.929  17.174  1.00  0.00    -0.099 SA
HETATM   28  S2  UNL     1       9.207  12.341  20.298  1.00  0.00    -0.085 SA
HETATM   29  C14 UNL     1       6.551  11.500  19.414  1.00  0.00     0.027 A 
HETATM   30  C15 UNL     1       5.928  11.020  18.312  1.00  0.00     0.052 A 
ENDBRANCH   1  22
TORSDOF 5
ENDMDL
MODEL 3
REMARK VINA RESULT: -7.340820867      7.627      9.908
REMARK  5 active torsions:
REMARK  status: ('A' for Active; 'I' for Inactive)
REMARK    1  A    between atoms: C2_3  and  C3_4 
REMARK    2  A    between atoms: C5_7  and  N2_8 
REMARK    3  A    between atoms: N2_8  and  N3_10 
REMARK    4  A    between atoms: C6_12  and  C7_13 
REMARK    5  A    between atoms: C12_20  and  O1_21 
ROOT
HETATM    1  C3  UNL     1       7.334   9.522  17.408  1.00  0.00     0.060 A 
HETATM    2  C4  UNL     1       7.250  10.100  16.162  1.00  0.00     0.084 A 
HETATM    3  S1  UNL     1       8.697  10.988  16.053  1.00  0.00    -0.062 SA
HETATM    4  C5  UNL     1       9.341  10.593  17.580  1.00  0.00     0.163 A 
HETATM    5  N4  UNL     1       8.417   9.794  18.110  1.00  0.00    -0.334 N 
ATOM      6  H4  UNL     1       8.544   9.400  19.042  1.00  0.00     0.168 HD
ENDROOT
BRANCH   4   7
HETATM    7  N2  UNL     1      10.480  10.992  18.089  1.00  0.00    -0.280 N 
ATOM      8  H2  UNL     1      10.566  11.106  19.099  1.00  0.00     0.189 HD
BRANCH   7   9
HETATM    9  N3  UNL     1      11.555  11.257  17.288  1.00  0.00    -0.309 N 
HETATM   10  C6  UNL     1      12.743  11.500  17.704  1.00  0.00     0.123 C 
ATOM     11  H3  UNL     1      11.400  11.262  16.279  1.00  0.00     0.186 HD
BRANCH  10  12
HETATM   12  C7  UNL     1      13.887  11.781  16.869  1.00  0.00     0.037 A 
HETATM   13  C8  UNL     1      14.428  13.046  16.841  1.00  0.00     0.048 A 
HETATM   14 CL1  UNL     1      13.799  14.366  17.783  1.00  0.00    -0.083 Cl
HETATM   15  C9  UNL     1      15.528  13.284  16.021  1.00  0.00     0.026 A 
HETATM   16  C10 UNL     1      16.070  12.276  15.250  1.00  0.00     0.024 A 
HETATM   17  C11 UNL     1      15.531  11.015  15.277  1.00  0.00     0.045 A 
HETATM   18 BR1  UNL     1      16.251   9.600  14.225  1.00  0.00    -0.048 Br
HETATM   19  C12 UNL     1      14.432  10.783  16.099  1.00  0.00     0.096 A 
BRANCH  19  20
HETATM   20  O1  UNL     1      13.899   9.505  16.115  1.00  0.00    -0.358 OA
ATOM     21  H1  UNL     1      13.616   9.086  15.312  1.00  0.00     0.217 HD
ENDBRANCH  19  20
ENDBRANCH  10  12
ENDBRANCH   7   9
ENDBRANCH   4   7
BRANCH   1  22
HETATM   22  C2  UNL     1       6.217   8.639  17.890  1.00  0.00     0.058 A 
HETATM   23  C1  UNL     1       5.483   8.648  19.014  1.00  0.00     0.084 A 
HETATM   24  N1  UNL     1       5.655   9.638  20.064  1.00  0.00    -0.099 NA
HETATM   25  C16 UNL     1       4.527   7.668  19.153  1.00  0.00     0.047 A 
HETATM   26  C13 UNL     1       4.381   6.775  18.183  1.00  0.00     0.025 A 
HETATM   27  S3  UNL     1       3.305   7.139  20.292  1.00  0.00    -0.099 SA
HETATM   28  S2  UNL     1       5.594   7.299  17.043  1.00  0.00    -0.085 SA
HETATM   29  C14 UNL     1       3.431   5.796  18.310  1.00  0.00     0.027 A 
HETATM   30  C15 UNL     1       2.686   5.802  19.441  1.00  0.00     0.052 A 
ENDBRANCH   1  22
TORSDOF 5
ENDMDL
MODEL 4
REMARK VINA RESULT: -7.256304701      7.393      9.727
REMARK  5 active torsions:
REMARK  status: ('A' for Active; 'I' for Inactive)
REMARK    1  A    between atoms: C2_3  and  C3_4 
REMARK    2  A    between atoms: C5_7  and  N2_8 
REMARK    3  A    between atoms: N2_8  and  N3_10 
REMARK    4  A    between atoms: C6_12  and  C7_13 
REMARK    5  A    between atoms: C12_20  and  O1_21 
ROOT
HETATM    1  C3  UNL     1       7.583  10.123  17.843  1.00  0.00     0.060 A 
HETATM    2  C4  UNL     1       7.383  11.046  16.842  1.00  0.00     0.084 A 
HETATM    3  S1  UNL     1       8.892  11.821  16.727  1.00  0.00    -0.062 SA
HETATM    4  C5  UNL     1       9.707  10.950  17.944  1.00  0.00     0.163 A 
HETATM    5  N4  UNL     1       8.784  10.099  18.388  1.00  0.00    -0.334 N 
ATOM      6  H4  UNL     1       9.002   9.439  19.135  1.00  0.00     0.168 HD
ENDROOT
BRANCH   4   7
HETATM    7  N2  UNL     1      10.949  11.099  18.332  1.00  0.00    -0.280 N 
ATOM      8  H2  UNL     1      11.170  11.076  19.327  1.00  0.00     0.189 HD
BRANCH   7   9
HETATM    9  N3  UNL     1      11.953  11.285  17.423  1.00  0.00    -0.309 N 
HETATM   10  C6  UNL     1      13.179  11.515  17.716  1.00  0.00     0.123 C 
ATOM     11  H3  UNL     1      11.706  11.237  16.434  1.00  0.00     0.186 HD
BRANCH  10  12
HETATM   12  C7  UNL     1      14.249  11.713  16.767  1.00  0.00     0.037 A 
HETATM   13  C8  UNL     1      14.849  12.945  16.649  1.00  0.00     0.048 A 
HETATM   14 CL1  UNL     1      14.385  14.321  17.607  1.00  0.00    -0.083 Cl
HETATM   15  C9  UNL     1      15.874  13.103  15.719  1.00  0.00     0.026 A 
HETATM   16  C10 UNL     1      16.286  12.049  14.930  1.00  0.00     0.024 A 
HETATM   17  C11 UNL     1      15.688  10.820  15.046  1.00  0.00     0.045 A 
HETATM   18 BR1  UNL     1      16.227   9.342  13.972  1.00  0.00    -0.048 Br
HETATM   19  C12 UNL     1      14.663  10.668  15.977  1.00  0.00     0.096 A 
BRANCH  19  20
HETATM   20  O1  UNL     1      14.070   9.421  16.083  1.00  0.00    -0.358 OA
ATOM     21  H1  UNL     1      13.686   9.000  15.324  1.00  0.00     0.217 HD
ENDBRANCH  19  20
ENDBRANCH  10  12
ENDBRANCH   7   9
ENDBRANCH   4   7
BRANCH   1  22
HETATM   22  C2  UNL     1       6.454   9.219  18.253  1.00  0.00     0.058 A 
HETATM   23  C1  UNL     1       5.955   8.097  17.707  1.00  0.00     0.084 A 
HETATM   24  N1  UNL     1       6.497   7.495  16.502  1.00  0.00    -0.099 NA
HETATM   25  C16 UNL     1       4.883   7.509  18.340  1.00  0.00     0.047 A 
HETATM   26  C13 UNL     1       4.404   8.072  19.442  1.00  0.00     0.025 A 
HETATM   27  S3  UNL     1       3.824   6.124  18.174  1.00  0.00    -0.099 SA
HETATM   28  S2  UNL     1       5.458   9.451  19.615  1.00  0.00    -0.085 SA
HETATM   29  C14 UNL     1       3.339   7.494  20.082  1.00  0.00     0.027 A 
HETATM   30  C15 UNL     1       2.833   6.362  19.537  1.00  0.00     0.052 A 
ENDBRANCH   1  22
TORSDOF 5
ENDMDL
MODEL 5
REMARK VINA RESULT: -7.003371014      6.480      8.595
REMARK  5 active torsions:
REMARK  status: ('A' for Active; 'I' for Inactive)
REMARK    1  A    between atoms: C2_3  and  C3_4 
REMARK    2  A    between atoms: C5_7  and  N2_8 
REMARK    3  A    between atoms: N2_8  and  N3_10 
REMARK    4  A    between atoms: C6_12  and  C7_13 
REMARK    5  A    between atoms: C12_20  and  O1_21 
ROOT
HETATM    1  C3  UNL     1       7.912  11.939  18.782  1.00  0.00     0.060 A 
HETATM    2  C4  UNL     1       7.583  12.551  19.969  1.00  0.00     0.084 A 
HETATM    3  S1  UNL     1       9.067  12.606  20.797  1.00  0.00    -0.062 SA
HETATM    4  C5  UNL     1      10.035  11.856  19.613  1.00  0.00     0.163 A 
HETATM    5  N4  UNL     1       9.176  11.595  18.629  1.00  0.00    -0.334 N 
ATOM      6  H4  UNL     1       9.490  11.137  17.773  1.00  0.00     0.168 HD
ENDROOT
BRANCH   4   7
HETATM    7  N2  UNL     1      11.319  11.608  19.676  1.00  0.00    -0.280 N 
ATOM      8  H2  UNL     1      11.728  11.295  20.557  1.00  0.00     0.189 HD
BRANCH   7   9
HETATM    9  N3  UNL     1      12.121  11.761  18.579  1.00  0.00    -0.309 N 
HETATM   10  C6  UNL     1      13.364  12.071  18.612  1.00  0.00     0.123 C 
ATOM     11  H3  UNL     1      11.696  11.617  17.663  1.00  0.00     0.186 HD
BRANCH  10  12
HETATM   12  C7  UNL     1      14.222  12.235  17.463  1.00  0.00     0.037 A 
HETATM   13  C8  UNL     1      14.695  13.482  17.126  1.00  0.00     0.048 A 
HETATM   14 CL1  UNL     1      14.313  14.917  18.033  1.00  0.00    -0.083 Cl
HETATM   15  C9  UNL     1      15.516  13.606  16.008  1.00  0.00     0.026 A 
HETATM   16  C10 UNL     1      15.853  12.504  15.248  1.00  0.00     0.024 A 
HETATM   17  C11 UNL     1      15.382  11.260  15.583  1.00  0.00     0.045 A 
HETATM   18 BR1  UNL     1      15.824   9.717  14.558  1.00  0.00    -0.048 Br
HETATM   19  C12 UNL     1      14.561  11.143  16.703  1.00  0.00     0.096 A 
BRANCH  19  20
HETATM   20  O1  UNL     1      14.094   9.880  17.027  1.00  0.00    -0.358 OA
ATOM     21  H1  UNL     1      13.324   9.523  16.602  1.00  0.00     0.217 HD
ENDBRANCH  19  20
ENDBRANCH  10  12
ENDBRANCH   7   9
ENDBRANCH   4   7
BRANCH   1  22
HETATM   22  C2  UNL     1       6.844  11.701  17.751  1.00  0.00     0.058 A 
HETATM   23  C1  UNL     1       6.835  11.835  16.415  1.00  0.00     0.084 A 
HETATM   24  N1  UNL     1       7.995  12.268  15.656  1.00  0.00    -0.099 NA
HETATM   25  C16 UNL     1       5.662  11.540  15.758  1.00  0.00     0.047 A 
HETATM   26  C13 UNL     1       4.614  11.142  16.467  1.00  0.00     0.025 A 
HETATM   27  S3  UNL     1       5.010  11.502  14.132  1.00  0.00    -0.099 SA
HETATM   28  S2  UNL     1       5.259  11.175  18.088  1.00  0.00    -0.085 SA
HETATM   29  C14 UNL     1       3.442  10.843  15.823  1.00  0.00     0.027 A 
HETATM   30  C15 UNL     1       3.428  10.976  14.475  1.00  0.00     0.052 A 
ENDBRANCH   1  22
TORSDOF 5
ENDMDL
