MODEL 1
REMARK VINA RESULT: -7.486449559      0.000      0.000
REMARK  9 active torsions:
REMARK  status: ('A' for Active; 'I' for Inactive)
REMARK    1  A    between atoms: S1_2  and  C2_3 
REMARK    2  A    between atoms: C2_3  and  N1_4 
REMARK    3  A    between atoms: C2_3  and  C7_12 
REMARK    4  A    between atoms: N1_4  and  S2_5 
REMARK    5  A    between atoms: S2_5  and  C3_8 
REMARK    6  A    between atoms: C10_15  and  N2_16 
REMARK    7  A    between atoms: N3_18  and  N4_20 
REMARK    8  A    between atoms: N4_20  and  C11_22 
REMARK    9  A    between atoms: C12_25  and  O3_26 
ROOT
HETATM    1  C7  UNL     1       9.992  11.784  17.788  1.00  0.00     0.036 A 
HETATM    2  C8  UNL     1      10.595  11.869  16.547  1.00  0.00     0.019 A 
HETATM    3  C9  UNL     1      11.963  12.064  16.431  1.00  0.00     0.034 A 
HETATM    4  C10 UNL     1      12.781  12.179  17.534  1.00  0.00     0.073 A 
HETATM    5  C14 UNL     1      12.180  12.094  18.772  1.00  0.00     0.084 A 
HETATM    6 CL1  UNL     1      13.213  12.239  20.189  1.00  0.00    -0.080 Cl
HETATM    7  C15 UNL     1      10.818  11.900  18.884  1.00  0.00     0.072 A 
HETATM    8 CL2  UNL     1      10.080  11.795  20.466  1.00  0.00    -0.081 Cl
ENDROOT
BRANCH   4   9
HETATM    9  N2  UNL     1      14.191  12.380  17.416  1.00  0.00    -0.285 N 
HETATM   10  N3  UNL     1      14.987  11.470  17.064  1.00  0.00    -0.240 N 
ATOM     11  H3  UNL     1      15.985  11.671  16.996  1.00  0.00     0.208 HD
ATOM     12  H2  UNL     1      14.570  13.303  17.628  1.00  0.00     0.188 HD
BRANCH  10  13
HETATM   13  N4  UNL     1      14.525  10.209  16.768  1.00  0.00    -0.265 N 
ATOM     14  H4  UNL     1      14.072   9.646  17.487  1.00  0.00     0.190 HD
BRANCH  13  15
HETATM   15  C11 UNL     1      14.675   9.739  15.550  1.00  0.00     0.166 A 
HETATM   16  N5  UNL     1      13.866   8.926  14.876  1.00  0.00    -0.316 N 
HETATM   17  C12 UNL     1      14.194   8.572  13.669  1.00  0.00     0.148 A 
ATOM     18  H5  UNL     1      13.002   8.586  15.299  1.00  0.00     0.170 HD
HETATM   19  C13 UNL     1      15.367   9.061  13.156  1.00  0.00     0.109 A 
HETATM   20  S3  UNL     1      15.946  10.017  14.447  1.00  0.00    -0.060 SA
BRANCH  17  21
HETATM   21  O3  UNL     1      13.404   7.707  12.857  1.00  0.00    -0.346 OA
ATOM     22  H3  UNL     1      13.687   7.373  12.014  1.00  0.00     0.219 HD
ENDBRANCH  17  21
ENDBRANCH  13  15
ENDBRANCH  10  13
ENDBRANCH   4   9
BRANCH   1  23
HETATM   23  C2  UNL     1       8.542  11.578  17.921  1.00  0.00     0.169 C 
BRANCH  23  24
HETATM   24  S1  UNL     1       7.671  12.751  18.974  1.00  0.00    -0.100 SA
HETATM   25  C1  UNL     1       6.617  13.765  17.906  1.00  0.00     0.098 C 
ENDBRANCH  23  24
BRANCH  23  26
HETATM   26  N1  UNL     1       7.980  10.703  17.378  1.00  0.00    -0.314 NA
BRANCH  26  27
HETATM   27  S2  UNL     1       7.204   9.546  16.592  1.00  0.00     0.300 S 
HETATM   28  O1  UNL     1       6.585  10.085  15.293  1.00  0.00    -0.191 OA
HETATM   29  O2  UNL     1       8.133   8.399  16.176  1.00  0.00    -0.191 OA
BRANCH  27  30
HETATM   30  C3  UNL     1       5.845   8.750  17.429  1.00  0.00     0.084 C 
HETATM   31  C4  UNL     1       5.809   7.275  17.199  1.00  0.00     0.034 C 
HETATM   32  C5  UNL     1       5.900   9.026  18.913  1.00  0.00     0.034 C 
HETATM   33  C6  UNL     1       4.573   9.352  16.869  1.00  0.00     0.034 C 
ENDBRANCH  27  30
ENDBRANCH  26  27
ENDBRANCH  23  26
ENDBRANCH   1  23
TORSDOF 9
ENDMDL
MODEL 2
REMARK VINA RESULT: -7.409894284      0.895      1.232
REMARK  9 active torsions:
REMARK  status: ('A' for Active; 'I' for Inactive)
REMARK    1  A    between atoms: S1_2  and  C2_3 
REMARK    2  A    between atoms: C2_3  and  N1_4 
REMARK    3  A    between atoms: C2_3  and  C7_12 
REMARK    4  A    between atoms: N1_4  and  S2_5 
REMARK    5  A    between atoms: S2_5  and  C3_8 
REMARK    6  A    between atoms: C10_15  and  N2_16 
REMARK    7  A    between atoms: N3_18  and  N4_20 
REMARK    8  A    between atoms: N4_20  and  C11_22 
REMARK    9  A    between atoms: C12_25  and  O3_26 
ROOT
HETATM    1  C7  UNL     1       9.639  11.807  17.544  1.00  0.00     0.036 A 
HETATM    2  C8  UNL     1      10.365  11.826  16.369  1.00  0.00     0.019 A 
HETATM    3  C9  UNL     1      11.747  11.956  16.386  1.00  0.00     0.034 A 
HETATM    4  C10 UNL     1      12.455  12.070  17.562  1.00  0.00     0.073 A 
HETATM    5  C14 UNL     1      11.731  12.051  18.734  1.00  0.00     0.084 A 
HETATM    6 CL1  UNL     1      12.624  12.196  20.244  1.00  0.00    -0.080 Cl
HETATM    7  C15 UNL     1      10.357  11.922  18.714  1.00  0.00     0.072 A 
HETATM    8 CL2  UNL     1       9.462  11.900  20.217  1.00  0.00    -0.081 Cl
ENDROOT
BRANCH   4   9
HETATM    9  N2  UNL     1      13.878  12.204  17.581  1.00  0.00    -0.285 N 
HETATM   10  N3  UNL     1      14.660  11.275  17.247  1.00  0.00    -0.240 N 
ATOM     11  H3  UNL     1      15.668  11.427  17.280  1.00  0.00     0.208 HD
ATOM     12  H2  UNL     1      14.279  13.093  17.879  1.00  0.00     0.188 HD
BRANCH  10  13
HETATM   13  N4  UNL     1      14.169  10.057  16.839  1.00  0.00    -0.265 N 
ATOM     14  H4  UNL     1      13.607   9.490  17.472  1.00  0.00     0.190 HD
BRANCH  13  15
HETATM   15  C11 UNL     1      14.432   9.634  15.622  1.00  0.00     0.166 A 
HETATM   16  N5  UNL     1      13.687   8.853  14.843  1.00  0.00    -0.316 N 
HETATM   17  C12 UNL     1      14.127   8.544  13.659  1.00  0.00     0.148 A 
ATOM     18  H5  UNL     1      12.786   8.504  15.168  1.00  0.00     0.170 HD
HETATM   19  C13 UNL     1      15.345   9.045  13.279  1.00  0.00     0.109 A 
HETATM   20  S3  UNL     1      15.802   9.946  14.656  1.00  0.00    -0.060 SA
BRANCH  17  21
HETATM   21  O3  UNL     1      13.415   7.717  12.743  1.00  0.00    -0.346 OA
ATOM     22  H3  UNL     1      13.819   7.020  12.241  1.00  0.00     0.219 HD
ENDBRANCH  17  21
ENDBRANCH  13  15
ENDBRANCH  10  13
ENDBRANCH   4   9
BRANCH   1  23
HETATM   23  C2  UNL     1       8.175  11.670  17.537  1.00  0.00     0.169 C 
BRANCH  23  24
HETATM   24  S1  UNL     1       7.238  13.206  17.624  1.00  0.00    -0.100 SA
HETATM   25  C1  UNL     1       6.108  13.076  19.034  1.00  0.00     0.098 C 
ENDBRANCH  23  24
BRANCH  23  26
HETATM   26  N1  UNL     1       7.643  10.626  17.478  1.00  0.00    -0.314 NA
BRANCH  26  27
HETATM   27  S2  UNL     1       6.866   9.230  17.400  1.00  0.00     0.300 S 
HETATM   28  O1  UNL     1       7.452   8.337  16.295  1.00  0.00    -0.191 OA
HETATM   29  O2  UNL     1       6.980   8.426  18.701  1.00  0.00    -0.191 OA
BRANCH  27  30
HETATM   30  C3  UNL     1       5.119   9.279  17.046  1.00  0.00     0.084 C 
HETATM   31  C4  UNL     1       4.784  10.193  15.914  1.00  0.00     0.034 C 
HETATM   32  C5  UNL     1       4.598   7.893  16.744  1.00  0.00     0.034 C 
HETATM   33  C6  UNL     1       4.434   9.795  18.294  1.00  0.00     0.034 C 
ENDBRANCH  27  30
ENDBRANCH  26  27
ENDBRANCH  23  26
ENDBRANCH   1  23
TORSDOF 9
ENDMDL
MODEL 3
REMARK VINA RESULT: -7.389786878      1.951      2.754
REMARK  9 active torsions:
REMARK  status: ('A' for Active; 'I' for Inactive)
REMARK    1  A    between atoms: S1_2  and  C2_3 
REMARK    2  A    between atoms: C2_3  and  N1_4 
REMARK    3  A    between atoms: C2_3  and  C7_12 
REMARK    4  A    between atoms: N1_4  and  S2_5 
REMARK    5  A    between atoms: S2_5  and  C3_8 
REMARK    6  A    between atoms: C10_15  and  N2_16 
REMARK    7  A    between atoms: N3_18  and  N4_20 
REMARK    8  A    between atoms: N4_20  and  C11_22 
REMARK    9  A    between atoms: C12_25  and  O3_26 
ROOT
HETATM    1  C7  UNL     1       9.882  11.567  17.802  1.00  0.00     0.036 A 
HETATM    2  C8  UNL     1      10.442  11.587  16.538  1.00  0.00     0.019 A 
HETATM    3  C9  UNL     1      11.782  11.896  16.356  1.00  0.00     0.034 A 
HETATM    4  C10 UNL     1      12.614  12.192  17.414  1.00  0.00     0.073 A 
HETATM    5  C14 UNL     1      12.056  12.172  18.675  1.00  0.00     0.084 A 
HETATM    6 CL1  UNL     1      13.107  12.548  20.035  1.00  0.00    -0.080 Cl
HETATM    7  C15 UNL     1      10.722  11.865  18.852  1.00  0.00     0.072 A 
HETATM    8 CL2  UNL     1      10.039  11.845  20.463  1.00  0.00    -0.081 Cl
ENDROOT
BRANCH   4   9
HETATM    9  N2  UNL     1      13.995  12.510  17.229  1.00  0.00    -0.285 N 
HETATM   10  N3  UNL     1      14.860  11.652  16.914  1.00  0.00    -0.240 N 
ATOM     11  H3  UNL     1      15.833  11.935  16.795  1.00  0.00     0.208 HD
ATOM     12  H2  UNL     1      14.293  13.477  17.357  1.00  0.00     0.188 HD
BRANCH  10  13
HETATM   13  N4  UNL     1      14.509  10.335  16.731  1.00  0.00    -0.265 N 
ATOM     14  H4  UNL     1      14.139   9.787  17.507  1.00  0.00     0.190 HD
BRANCH  13  15
HETATM   15  C11 UNL     1      14.657   9.791  15.543  1.00  0.00     0.166 A 
HETATM   16  N5  UNL     1      13.825   8.971  14.904  1.00  0.00    -0.316 N 
HETATM   17  C12 UNL     1      14.155   8.536  13.724  1.00  0.00     0.148 A 
ATOM     18  H5  UNL     1      12.943   8.689  15.333  1.00  0.00     0.170 HD
HETATM   19  C13 UNL     1      15.352   8.951  13.202  1.00  0.00     0.109 A 
HETATM   20  S3  UNL     1      15.951   9.957  14.445  1.00  0.00    -0.060 SA
BRANCH  17  21
HETATM   21  O3  UNL     1      13.342   7.657  12.951  1.00  0.00    -0.346 OA
ATOM     22  H3  UNL     1      13.643   7.220  12.163  1.00  0.00     0.219 HD
ENDBRANCH  17  21
ENDBRANCH  13  15
ENDBRANCH  10  13
ENDBRANCH   4   9
BRANCH   1  23
HETATM   23  C2  UNL     1       8.463  11.242  18.005  1.00  0.00     0.169 C 
BRANCH  23  24
HETATM   24  S1  UNL     1       8.058   9.488  18.085  1.00  0.00    -0.100 SA
HETATM   25  C1  UNL     1       7.838   8.900  16.387  1.00  0.00     0.098 C 
ENDBRANCH  23  24
BRANCH  23  26
HETATM   26  N1  UNL     1       7.638  12.070  18.107  1.00  0.00    -0.314 NA
BRANCH  26  27
HETATM   27  S2  UNL     1       6.482  13.170  18.207  1.00  0.00     0.300 S 
HETATM   28  O1  UNL     1       6.143  13.479  19.674  1.00  0.00    -0.191 OA
HETATM   29  O2  UNL     1       6.893  14.507  17.576  1.00  0.00    -0.191 OA
BRANCH  27  30
HETATM   30  C3  UNL     1       4.908  12.781  17.464  1.00  0.00     0.084 C 
HETATM   31  C4  UNL     1       4.088  11.854  18.300  1.00  0.00     0.034 C 
HETATM   32  C5  UNL     1       4.121  14.042  17.193  1.00  0.00     0.034 C 
HETATM   33  C6  UNL     1       5.204  12.099  16.145  1.00  0.00     0.034 C 
ENDBRANCH  27  30
ENDBRANCH  26  27
ENDBRANCH  23  26
ENDBRANCH   1  23
TORSDOF 9
ENDMDL
MODEL 4
REMARK VINA RESULT: -7.336028496      1.792      3.036
REMARK  9 active torsions:
REMARK  status: ('A' for Active; 'I' for Inactive)
REMARK    1  A    between atoms: S1_2  and  C2_3 
REMARK    2  A    between atoms: C2_3  and  N1_4 
REMARK    3  A    between atoms: C2_3  and  C7_12 
REMARK    4  A    between atoms: N1_4  and  S2_5 
REMARK    5  A    between atoms: S2_5  and  C3_8 
REMARK    6  A    between atoms: C10_15  and  N2_16 
REMARK    7  A    between atoms: N3_18  and  N4_20 
REMARK    8  A    between atoms: N4_20  and  C11_22 
REMARK    9  A    between atoms: C12_25  and  O3_26 
ROOT
HETATM    1  C7  UNL     1       9.843  11.584  17.803  1.00  0.00     0.036 A 
HETATM    2  C8  UNL     1      10.390  11.613  16.535  1.00  0.00     0.019 A 
HETATM    3  C9  UNL     1      11.730  11.918  16.343  1.00  0.00     0.034 A 
HETATM    4  C10 UNL     1      12.573  12.202  17.396  1.00  0.00     0.073 A 
HETATM    5  C14 UNL     1      12.027  12.173  18.661  1.00  0.00     0.084 A 
HETATM    6 CL1  UNL     1      13.092  12.534  20.015  1.00  0.00    -0.080 Cl
HETATM    7  C15 UNL     1      10.693  11.870  18.848  1.00  0.00     0.072 A 
HETATM    8 CL2  UNL     1      10.025  11.839  20.465  1.00  0.00    -0.081 Cl
ENDROOT
BRANCH   4   9
HETATM    9  N2  UNL     1      13.953  12.517  17.200  1.00  0.00    -0.285 N 
HETATM   10  N3  UNL     1      14.815  11.655  16.885  1.00  0.00    -0.240 N 
ATOM     11  H3  UNL     1      15.787  11.936  16.758  1.00  0.00     0.208 HD
ATOM     12  H2  UNL     1      14.254  13.484  17.321  1.00  0.00     0.188 HD
BRANCH  10  13
HETATM   13  N4  UNL     1      14.461  10.338  16.711  1.00  0.00    -0.265 N 
ATOM     14  H4  UNL     1      14.079   9.800  17.489  1.00  0.00     0.190 HD
BRANCH  13  15
HETATM   15  C11 UNL     1      14.619   9.781  15.531  1.00  0.00     0.166 A 
HETATM   16  N5  UNL     1      13.782   8.975  14.882  1.00  0.00    -0.316 N 
HETATM   17  C12 UNL     1      14.126   8.523  13.712  1.00  0.00     0.148 A 
ATOM     18  H5  UNL     1      12.886   8.716  15.295  1.00  0.00     0.170 HD
HETATM   19  C13 UNL     1      15.342   8.906  13.211  1.00  0.00     0.109 A 
HETATM   20  S3  UNL     1      15.939   9.908  14.459  1.00  0.00    -0.060 SA
BRANCH  17  21
HETATM   21  O3  UNL     1      13.309   7.656  12.930  1.00  0.00    -0.346 OA
ATOM     22  H3  UNL     1      13.605   6.818  12.592  1.00  0.00     0.219 HD
ENDBRANCH  17  21
ENDBRANCH  13  15
ENDBRANCH  10  13
ENDBRANCH   4   9
BRANCH   1  23
HETATM   23  C2  UNL     1       8.424  11.262  18.016  1.00  0.00     0.169 C 
BRANCH  23  24
HETATM   24  S1  UNL     1       8.025   9.512  18.170  1.00  0.00    -0.100 SA
HETATM   25  C1  UNL     1       7.905   8.832  16.496  1.00  0.00     0.098 C 
ENDBRANCH  23  24
BRANCH  23  26
HETATM   26  N1  UNL     1       7.596  12.091  18.083  1.00  0.00    -0.314 NA
BRANCH  26  27
HETATM   27  S2  UNL     1       6.468  13.225  18.114  1.00  0.00     0.300 S 
HETATM   28  O1  UNL     1       6.943  14.492  17.387  1.00  0.00    -0.191 OA
HETATM   29  O2  UNL     1       5.181  12.786  17.406  1.00  0.00    -0.191 OA
BRANCH  27  30
HETATM   30  C3  UNL     1       5.932  13.809  19.712  1.00  0.00     0.084 C 
HETATM   31  C4  UNL     1       4.608  13.249  20.117  1.00  0.00     0.034 C 
HETATM   32  C5  UNL     1       6.960  13.485  20.770  1.00  0.00     0.034 C 
HETATM   33  C6  UNL     1       5.801  15.314  19.605  1.00  0.00     0.034 C 
ENDBRANCH  27  30
ENDBRANCH  26  27
ENDBRANCH  23  26
ENDBRANCH   1  23
TORSDOF 9
ENDMDL
MODEL 5
REMARK VINA RESULT: -7.238015933      4.956      6.185
REMARK  9 active torsions:
REMARK  status: ('A' for Active; 'I' for Inactive)
REMARK    1  A    between atoms: S1_2  and  C2_3 
REMARK    2  A    between atoms: C2_3  and  N1_4 
REMARK    3  A    between atoms: C2_3  and  C7_12 
REMARK    4  A    between atoms: N1_4  and  S2_5 
REMARK    5  A    between atoms: S2_5  and  C3_8 
REMARK    6  A    between atoms: C10_15  and  N2_16 
REMARK    7  A    between atoms: N3_18  and  N4_20 
REMARK    8  A    between atoms: N4_20  and  C11_22 
REMARK    9  A    between atoms: C12_25  and  O3_26 
ROOT
HETATM    1  C7  UNL     1      12.937  12.672  21.043  1.00  0.00     0.036 A 
HETATM    2  C8  UNL     1      14.054  13.483  21.103  1.00  0.00     0.019 A 
HETATM    3  C9  UNL     1      14.619  14.007  19.949  1.00  0.00     0.034 A 
HETATM    4  C10 UNL     1      14.099  13.747  18.699  1.00  0.00     0.073 A 
HETATM    5  C14 UNL     1      12.985  12.938  18.639  1.00  0.00     0.084 A 
HETATM    6 CL1  UNL     1      12.310  12.599  17.050  1.00  0.00    -0.080 Cl
HETATM    7  C15 UNL     1      12.426  12.419  19.790  1.00  0.00     0.072 A 
HETATM    8 CL2  UNL     1      11.011  11.395  19.686  1.00  0.00    -0.081 Cl
ENDROOT
BRANCH   4   9
HETATM    9  N2  UNL     1      14.679  14.285  17.509  1.00  0.00    -0.285 N 
HETATM   10  N3  UNL     1      15.425  13.617  16.746  1.00  0.00    -0.240 N 
ATOM     11  H3  UNL     1      15.811  14.052  15.908  1.00  0.00     0.208 HD
ATOM     12  H2  UNL     1      14.479  15.256  17.266  1.00  0.00     0.188 HD
BRANCH  10  13
HETATM   13  N4  UNL     1      15.724  12.305  17.029  1.00  0.00    -0.265 N 
ATOM     14  H4  UNL     1      15.950  12.023  17.983  1.00  0.00     0.190 HD
BRANCH  13  15
HETATM   15  C11 UNL     1      15.717  11.420  16.057  1.00  0.00     0.166 A 
HETATM   16  N5  UNL     1      16.391  11.452  14.910  1.00  0.00    -0.316 N 
HETATM   17  C12 UNL     1      16.247  10.470  14.070  1.00  0.00     0.148 A 
ATOM     18  H5  UNL     1      17.011  12.233  14.694  1.00  0.00     0.170 HD
HETATM   19  C13 UNL     1      15.400   9.450  14.417  1.00  0.00     0.109 A 
HETATM   20  S3  UNL     1      14.847   9.957  15.952  1.00  0.00    -0.060 SA
BRANCH  17  21
HETATM   21  O3  UNL     1      16.918  10.401  12.815  1.00  0.00    -0.346 OA
ATOM     22  H3  UNL     1      16.468  10.388  11.978  1.00  0.00     0.219 HD
ENDBRANCH  17  21
ENDBRANCH  13  15
ENDBRANCH  10  13
ENDBRANCH   4   9
BRANCH   1  23
HETATM   23  C2  UNL     1      12.332  12.112  22.261  1.00  0.00     0.169 C 
BRANCH  23  24
HETATM   24  S1  UNL     1      13.074  10.594  22.886  1.00  0.00    -0.100 SA
HETATM   25  C1  UNL     1      14.240  11.054  24.193  1.00  0.00     0.098 C 
ENDBRANCH  23  24
BRANCH  23  26
HETATM   26  N1  UNL     1      11.421  12.619  22.798  1.00  0.00    -0.314 NA
BRANCH  26  27
HETATM   27  S2  UNL     1      10.142  13.272  23.502  1.00  0.00     0.300 S 
HETATM   28  O1  UNL     1       8.875  13.039  22.665  1.00  0.00    -0.191 OA
HETATM   29  O2  UNL     1       9.859  12.661  24.880  1.00  0.00    -0.191 OA
BRANCH  27  30
HETATM   30  C3  UNL     1      10.165  15.033  23.782  1.00  0.00     0.084 C 
HETATM   31  C4  UNL     1      10.305  15.387  25.226  1.00  0.00     0.034 C 
HETATM   32  C5  UNL     1      11.279  15.683  22.995  1.00  0.00     0.034 C 
HETATM   33  C6  UNL     1       8.840  15.573  23.285  1.00  0.00     0.034 C 
ENDBRANCH  27  30
ENDBRANCH  26  27
ENDBRANCH  23  26
ENDBRANCH   1  23
TORSDOF 9
ENDMDL
