MODEL 1
REMARK VINA RESULT: -7.692788017      0.000      0.000
REMARK  4 active torsions:
REMARK  status: ('A' for Active; 'I' for Inactive)
REMARK    1  A    between atoms: C10_11  and  O1_12 
REMARK    2  A    between atoms: O1_12  and  C11_13 
REMARK    3  A    between atoms: C15_22  and  C16_23 
REMARK       I    between atoms: C16_23  and  N4_25 
REMARK    4  A    between atoms: N4_25  and  C17_27 
ROOT
HETATM    1  C11 UNL     1       7.982  11.555  18.213  1.00  0.00     0.168 A 
HETATM    2  N1  UNL     1       7.759  12.845  17.915  1.00  0.00    -0.332 N 
ATOM      3  H1  UNL     1       8.456  13.570  18.090  1.00  0.00     0.168 HD
HETATM    4  C12 UNL     1       6.559  13.123  17.372  1.00  0.00     0.183 A 
HETATM    5  N2  UNL     1       5.623  12.209  17.127  1.00  0.00    -0.350 N 
ATOM      6  H2  UNL     1       4.742  12.510  16.712  1.00  0.00     0.166 HD
HETATM    7  C13 UNL     1       5.799  10.874  17.412  1.00  0.00     0.080 A 
HETATM    8  C14 UNL     1       4.931   9.853  17.214  1.00  0.00     0.097 A 
HETATM    9  N3  UNL     1       3.606  10.056  16.630  1.00  0.00    -0.098 NA
HETATM   10  C15 UNL     1       5.347   8.609  17.586  1.00  0.00     0.100 A 
HETATM   11  S1  UNL     1       6.915   8.881  18.194  1.00  0.00    -0.076 SA
HETATM   12  C20 UNL     1       7.008  10.570  17.965  1.00  0.00     0.086 A 
ENDROOT
BRANCH   1  13
HETATM   13  O1  UNL     1       9.153  11.088  18.775  1.00  0.00    -0.291 OA
BRANCH  13  14
HETATM   14  C10 UNL     1      10.342  11.744  18.883  1.00  0.00     0.101 A 
HETATM   15  C9  UNL     1      10.750  12.481  19.954  1.00  0.00     0.068 A 
HETATM   16  C8  UNL     1      11.998  13.105  19.933  1.00  0.00     0.037 A 
HETATM   17 CL1  UNL     1       9.706  12.651  21.341  1.00  0.00    -0.081 Cl
HETATM   18  C7  UNL     1      12.835  12.992  18.844  1.00  0.00    -0.022 A 
HETATM   19  C4  UNL     1      14.173  13.630  18.762  1.00  0.00    -0.016 C 
HETATM   20  C22 UNL     1      12.418  12.246  17.762  1.00  0.00     0.038 A 
HETATM   21  C3  UNL     1      15.112  12.563  18.199  1.00  0.00     0.038 C 
HETATM   22  C5  UNL     1      14.681  14.001  20.140  1.00  0.00     0.020 C 
HETATM   23  C6  UNL     1      14.173  14.863  17.906  1.00  0.00     0.020 C 
HETATM   24  C2  UNL     1      14.756  12.226  16.768  1.00  0.00     0.078 C 
HETATM   25  C1  UNL     1      15.293  10.835  16.493  1.00  0.00     0.032 C 
HETATM   26  N5  UNL     1      13.315  12.149  16.645  1.00  0.00    -0.385 N 
ATOM     27  H5  UNL     1      12.917  12.021  15.715  1.00  0.00     0.160 HD
HETATM   28  C21 UNL     1      11.202  11.639  17.784  1.00  0.00     0.069 A 
ENDBRANCH  13  14
ENDBRANCH   1  13
BRANCH  10  29
HETATM   29  C16 UNL     1       4.630   7.331  17.491  1.00  0.00     0.262 C 
HETATM   30  O2  UNL     1       5.036   6.391  18.208  1.00  0.00    -0.267 OA
HETATM   31  N4  UNL     1       3.540   7.155  16.641  1.00  0.00    -0.334 N 
ATOM     32  H4  UNL     1       3.219   7.929  16.061  1.00  0.00     0.164 HD
BRANCH  31  33
HETATM   33  C17 UNL     1       2.869   5.892  16.579  1.00  0.00     0.103 C 
HETATM   34  C18 UNL     1       1.616   5.958  15.740  1.00  0.00     0.056 C 
HETATM   35  C19 UNL     1       3.758   4.804  16.006  1.00  0.00     0.056 C 
HETATM   36 CL2  UNL     1       2.369   5.354  18.217  1.00  0.00    -0.096 Cl
ENDBRANCH  31  33
ENDBRANCH  10  29
TORSDOF 4
ENDMDL
MODEL 2
REMARK VINA RESULT: -7.633527082      1.560      2.371
REMARK  4 active torsions:
REMARK  status: ('A' for Active; 'I' for Inactive)
REMARK    1  A    between atoms: C10_11  and  O1_12 
REMARK    2  A    between atoms: O1_12  and  C11_13 
REMARK    3  A    between atoms: C15_22  and  C16_23 
REMARK       I    between atoms: C16_23  and  N4_25 
REMARK    4  A    between atoms: N4_25  and  C17_27 
ROOT
HETATM    1  C11 UNL     1       8.095  11.299  18.491  1.00  0.00     0.168 A 
HETATM    2  N1  UNL     1       7.834  12.607  18.644  1.00  0.00    -0.332 N 
ATOM      3  H1  UNL     1       8.571  13.290  18.823  1.00  0.00     0.168 HD
HETATM    4  C12 UNL     1       6.539  12.963  18.546  1.00  0.00     0.183 A 
HETATM    5  N2  UNL     1       5.547  12.107  18.313  1.00  0.00    -0.350 N 
ATOM      6  H2  UNL     1       4.594  12.466  18.255  1.00  0.00     0.166 HD
HETATM    7  C13 UNL     1       5.758  10.757  18.149  1.00  0.00     0.080 A 
HETATM    8  C14 UNL     1       4.842   9.788  17.910  1.00  0.00     0.097 A 
HETATM    9  N3  UNL     1       3.413  10.077  17.787  1.00  0.00    -0.098 NA
HETATM   10  C15 UNL     1       5.308   8.514  17.786  1.00  0.00     0.100 A 
HETATM   11  S1  UNL     1       6.990   8.686  18.001  1.00  0.00    -0.076 SA
HETATM   12  C20 UNL     1       7.063  10.374  18.245  1.00  0.00     0.086 A 
ENDROOT
BRANCH   1  13
HETATM   13  O1  UNL     1       9.361  10.756  18.560  1.00  0.00    -0.291 OA
BRANCH  13  14
HETATM   14  C10 UNL     1      10.538  11.346  18.213  1.00  0.00     0.101 A 
HETATM   15  C9  UNL     1      10.942  11.631  16.943  1.00  0.00     0.068 A 
HETATM   16  C8  UNL     1      12.179  12.240  16.726  1.00  0.00     0.037 A 
HETATM   17 CL1  UNL     1       9.913  11.226  15.593  1.00  0.00    -0.081 Cl
HETATM   18  C7  UNL     1      13.011  12.560  17.777  1.00  0.00    -0.022 A 
HETATM   19  C4  UNL     1      14.337  13.207  17.612  1.00  0.00    -0.016 C 
HETATM   20  C22 UNL     1      12.600  12.268  19.060  1.00  0.00     0.038 A 
HETATM   21  C3  UNL     1      14.401  14.306  18.672  1.00  0.00     0.038 C 
HETATM   22  C5  UNL     1      14.448  13.875  16.257  1.00  0.00     0.020 C 
HETATM   23  C6  UNL     1      15.474  12.238  17.761  1.00  0.00     0.020 C 
HETATM   24  C2  UNL     1      14.428  13.718  20.065  1.00  0.00     0.078 C 
HETATM   25  C1  UNL     1      13.914  14.786  21.009  1.00  0.00     0.032 C 
HETATM   26  N5  UNL     1      13.492  12.615  20.131  1.00  0.00    -0.385 N 
ATOM     27  H5  UNL     1      13.465  12.056  20.983  1.00  0.00     0.160 HD
HETATM   28  C21 UNL     1      11.395  11.676  19.270  1.00  0.00     0.069 A 
ENDBRANCH  13  14
ENDBRANCH   1  13
BRANCH  10  29
HETATM   29  C16 UNL     1       4.558   7.277  17.528  1.00  0.00     0.262 C 
HETATM   30  O2  UNL     1       4.952   6.238  18.100  1.00  0.00    -0.267 OA
HETATM   31  N4  UNL     1       3.451   7.246  16.684  1.00  0.00    -0.334 N 
ATOM     32  H4  UNL     1       3.140   8.101  16.223  1.00  0.00     0.164 HD
BRANCH  31  33
HETATM   33  C17 UNL     1       2.748   6.020  16.459  1.00  0.00     0.103 C 
HETATM   34  C18 UNL     1       2.082   5.511  17.714  1.00  0.00     0.056 C 
HETATM   35  C19 UNL     1       1.681   6.165  15.390  1.00  0.00     0.056 C 
HETATM   36 CL2  UNL     1       3.871   4.732  15.909  1.00  0.00    -0.096 Cl
ENDBRANCH  31  33
ENDBRANCH  10  29
TORSDOF 4
ENDMDL
MODEL 3
REMARK VINA RESULT: -7.568552895      3.539      4.413
REMARK  4 active torsions:
REMARK  status: ('A' for Active; 'I' for Inactive)
REMARK    1  A    between atoms: C10_11  and  O1_12 
REMARK    2  A    between atoms: O1_12  and  C11_13 
REMARK    3  A    between atoms: C15_22  and  C16_23 
REMARK       I    between atoms: C16_23  and  N4_25 
REMARK    4  A    between atoms: N4_25  and  C17_27 
ROOT
HETATM    1  C11 UNL     1       8.609  10.876  17.632  1.00  0.00     0.168 A 
HETATM    2  N1  UNL     1       9.095  10.090  16.659  1.00  0.00    -0.332 N 
ATOM      3  H1  UNL     1      10.006   9.637  16.733  1.00  0.00     0.168 HD
HETATM    4  C12 UNL     1       8.307   9.939  15.578  1.00  0.00     0.183 A 
HETATM    5  N2  UNL     1       7.114  10.511  15.440  1.00  0.00    -0.350 N 
ATOM      6  H2  UNL     1       6.584  10.341  14.586  1.00  0.00     0.166 HD
HETATM    7  C13 UNL     1       6.568  11.325  16.406  1.00  0.00     0.080 A 
HETATM    8  C14 UNL     1       5.373  11.964  16.388  1.00  0.00     0.097 A 
HETATM    9  N3  UNL     1       4.449  11.860  15.258  1.00  0.00    -0.098 NA
HETATM   10  C15 UNL     1       5.059  12.719  17.478  1.00  0.00     0.100 A 
HETATM   11  S1  UNL     1       6.414  12.529  18.494  1.00  0.00    -0.076 SA
HETATM   12  C20 UNL     1       7.350  11.494  17.510  1.00  0.00     0.086 A 
ENDROOT
BRANCH   1  13
HETATM   13  O1  UNL     1       9.278  11.144  18.809  1.00  0.00    -0.291 OA
BRANCH  13  14
HETATM   14  C10 UNL     1      10.442  11.833  18.964  1.00  0.00     0.101 A 
HETATM   15  C9  UNL     1      10.815  12.528  20.075  1.00  0.00     0.068 A 
HETATM   16  C8  UNL     1      12.041  13.194  20.101  1.00  0.00     0.037 A 
HETATM   17 CL1  UNL     1       9.751  12.591  21.457  1.00  0.00    -0.081 Cl
HETATM   18  C7  UNL     1      12.892  13.165  19.018  1.00  0.00    -0.022 A 
HETATM   19  C4  UNL     1      14.208  13.852  18.984  1.00  0.00    -0.016 C 
HETATM   20  C22 UNL     1      12.511  12.462  17.895  1.00  0.00     0.038 A 
HETATM   21  C3  UNL     1      15.188  12.847  18.378  1.00  0.00     0.038 C 
HETATM   22  C5  UNL     1      14.689  14.168  20.384  1.00  0.00     0.020 C 
HETATM   23  C6  UNL     1      14.173  15.126  18.191  1.00  0.00     0.020 C 
HETATM   24  C2  UNL     1      14.858  12.572  16.928  1.00  0.00     0.078 C 
HETATM   25  C1  UNL     1      15.445  11.216  16.589  1.00  0.00     0.032 C 
HETATM   26  N5  UNL     1      13.422  12.453  16.784  1.00  0.00    -0.385 N 
ATOM     27  H5  UNL     1      13.037  12.359  15.845  1.00  0.00     0.160 HD
HETATM   28  C21 UNL     1      11.317  11.814  17.871  1.00  0.00     0.069 A 
ENDBRANCH  13  14
ENDBRANCH   1  13
BRANCH  10  29
HETATM   29  C16 UNL     1       3.850  13.513  17.733  1.00  0.00     0.262 C 
HETATM   30  O2  UNL     1       3.366  13.467  18.885  1.00  0.00    -0.267 OA
HETATM   31  N4  UNL     1       3.252  14.290  16.744  1.00  0.00    -0.334 N 
ATOM     32  H4  UNL     1       3.656  14.318  15.808  1.00  0.00     0.164 HD
BRANCH  31  33
HETATM   33  C17 UNL     1       2.074  15.048  17.034  1.00  0.00     0.103 C 
HETATM   34  C18 UNL     1       1.722  15.997  15.915  1.00  0.00     0.056 C 
HETATM   35  C19 UNL     1       0.872  14.157  17.285  1.00  0.00     0.056 C 
HETATM   36 CL2  UNL     1       2.305  16.047  18.507  1.00  0.00    -0.096 Cl
ENDBRANCH  31  33
ENDBRANCH  10  29
TORSDOF 4
ENDMDL
MODEL 4
REMARK VINA RESULT: -7.475518745      3.222      4.461
REMARK  4 active torsions:
REMARK  status: ('A' for Active; 'I' for Inactive)
REMARK    1  A    between atoms: C10_11  and  O1_12 
REMARK    2  A    between atoms: O1_12  and  C11_13 
REMARK    3  A    between atoms: C15_22  and  C16_23 
REMARK       I    between atoms: C16_23  and  N4_25 
REMARK    4  A    between atoms: N4_25  and  C17_27 
ROOT
HETATM    1  C11 UNL     1       8.539  10.499  17.906  1.00  0.00     0.168 A 
HETATM    2  N1  UNL     1       8.808   9.685  16.872  1.00  0.00    -0.332 N 
ATOM      3  H1  UNL     1       9.684   9.166  16.805  1.00  0.00     0.168 HD
HETATM    4  C12 UNL     1       7.852   9.598  15.929  1.00  0.00     0.183 A 
HETATM    5  N2  UNL     1       6.697  10.257  15.977  1.00  0.00    -0.350 N 
ATOM      6  H2  UNL     1       6.028  10.130  15.217  1.00  0.00     0.166 HD
HETATM    7  C13 UNL     1       6.369  11.103  17.012  1.00  0.00     0.080 A 
HETATM    8  C14 UNL     1       5.236  11.827  17.178  1.00  0.00     0.097 A 
HETATM    9  N3  UNL     1       4.142  11.797  16.208  1.00  0.00    -0.098 NA
HETATM   10  C15 UNL     1       5.153  12.597  18.299  1.00  0.00     0.100 A 
HETATM   11  S1  UNL     1       6.633  12.302  19.091  1.00  0.00    -0.076 SA
HETATM   12  C20 UNL     1       7.325  11.207  17.979  1.00  0.00     0.086 A 
ENDROOT
BRANCH   1  13
HETATM   13  O1  UNL     1       9.403  10.711  18.961  1.00  0.00    -0.291 OA
BRANCH  13  14
HETATM   14  C10 UNL     1      10.528  11.477  18.973  1.00  0.00     0.101 A 
HETATM   15  C9  UNL     1      10.891  12.344  19.959  1.00  0.00     0.068 A 
HETATM   16  C8  UNL     1      12.076  13.072  19.844  1.00  0.00     0.037 A 
HETATM   17 CL1  UNL     1       9.866  12.548  21.357  1.00  0.00    -0.081 Cl
HETATM   18  C7  UNL     1      12.895  12.934  18.745  1.00  0.00    -0.022 A 
HETATM   19  C4  UNL     1      14.166  13.679  18.564  1.00  0.00    -0.016 C 
HETATM   20  C22 UNL     1      12.524  12.056  17.748  1.00  0.00     0.038 A 
HETATM   21  C3  UNL     1      15.186  12.653  18.072  1.00  0.00     0.038 C 
HETATM   22  C5  UNL     1      14.669  14.220  19.887  1.00  0.00     0.020 C 
HETATM   23  C6  UNL     1      14.033  14.822  17.600  1.00  0.00     0.020 C 
HETATM   24  C2  UNL     1      14.831  12.153  16.689  1.00  0.00     0.078 C 
HETATM   25  C1  UNL     1      15.487  10.797  16.524  1.00  0.00     0.032 C 
HETATM   26  N5  UNL     1      13.401  11.938  16.617  1.00  0.00    -0.385 N 
ATOM     27  H5  UNL     1      12.995  11.688  15.715  1.00  0.00     0.160 HD
HETATM   28  C21 UNL     1      11.370  11.348  17.862  1.00  0.00     0.069 A 
ENDBRANCH  13  14
ENDBRANCH   1  13
BRANCH  10  29
HETATM   29  C16 UNL     1       4.060  13.475  18.737  1.00  0.00     0.262 C 
HETATM   30  O2  UNL     1       3.774  13.472  19.954  1.00  0.00    -0.267 OA
HETATM   31  N4  UNL     1       3.360  14.285  17.846  1.00  0.00    -0.334 N 
ATOM     32  H4  UNL     1       3.603  14.278  16.855  1.00  0.00     0.164 HD
BRANCH  31  33
HETATM   33  C17 UNL     1       2.301  15.126  18.313  1.00  0.00     0.103 C 
HETATM   34  C18 UNL     1       2.778  16.117  19.345  1.00  0.00     0.056 C 
HETATM   35  C19 UNL     1       1.653  15.904  17.182  1.00  0.00     0.056 C 
HETATM   36 CL2  UNL     1       1.008  14.151  19.088  1.00  0.00    -0.096 Cl
ENDBRANCH  31  33
ENDBRANCH  10  29
TORSDOF 4
ENDMDL
MODEL 5
REMARK VINA RESULT: -7.400242343      3.083      9.254
REMARK  4 active torsions:
REMARK  status: ('A' for Active; 'I' for Inactive)
REMARK    1  A    between atoms: C10_11  and  O1_12 
REMARK    2  A    between atoms: O1_12  and  C11_13 
REMARK    3  A    between atoms: C15_22  and  C16_23 
REMARK       I    between atoms: C16_23  and  N4_25 
REMARK    4  A    between atoms: N4_25  and  C17_27 
ROOT
HETATM    1  C11 UNL     1       8.247  11.278  16.865  1.00  0.00     0.168 A 
HETATM    2  N1  UNL     1       8.640  10.960  15.621  1.00  0.00    -0.332 N 
ATOM      3  H1  UNL     1       7.971  10.766  14.875  1.00  0.00     0.168 HD
HETATM    4  C12 UNL     1       9.970  10.914  15.419  1.00  0.00     0.183 A 
HETATM    5  N2  UNL     1      10.875  11.160  16.363  1.00  0.00    -0.350 N 
ATOM      6  H2  UNL     1      11.864  11.102  16.120  1.00  0.00     0.166 HD
HETATM    7  C13 UNL     1      10.529  11.489  17.653  1.00  0.00     0.080 A 
HETATM    8  C14 UNL     1      11.348  11.760  18.699  1.00  0.00     0.097 A 
HETATM    9  N3  UNL     1      12.805  11.734  18.577  1.00  0.00    -0.098 NA
HETATM   10  C15 UNL     1      10.753  12.062  19.887  1.00  0.00     0.100 A 
HETATM   11  S1  UNL     1       9.089  11.964  19.532  1.00  0.00    -0.076 SA
HETATM   12  C20 UNL     1       9.185  11.542  17.881  1.00  0.00     0.086 A 
ENDROOT
BRANCH   1  13
HETATM   13  O1  UNL     1       6.926  11.371  17.254  1.00  0.00    -0.291 OA
BRANCH  13  14
HETATM   14  C10 UNL     1       6.225  10.501  18.031  1.00  0.00     0.101 A 
HETATM   15  C9  UNL     1       5.488  10.829  19.129  1.00  0.00     0.068 A 
HETATM   16  C8  UNL     1       4.816   9.833  19.839  1.00  0.00     0.037 A 
HETATM   17 CL1  UNL     1       5.396  12.493  19.648  1.00  0.00    -0.081 Cl
HETATM   18  C7  UNL     1       4.883   8.512  19.453  1.00  0.00    -0.022 A 
HETATM   19  C4  UNL     1       4.192   7.408  20.165  1.00  0.00    -0.016 C 
HETATM   20  C22 UNL     1       5.631   8.184  18.342  1.00  0.00     0.038 A 
HETATM   21  C3  UNL     1       3.553   6.544  19.079  1.00  0.00     0.038 C 
HETATM   22  C5  UNL     1       3.074   7.942  21.036  1.00  0.00     0.020 C 
HETATM   23  C6  UNL     1       5.124   6.604  21.025  1.00  0.00     0.020 C 
HETATM   24  C2  UNL     1       4.608   5.861  18.237  1.00  0.00     0.078 C 
HETATM   25  C1  UNL     1       3.968   5.532  16.903  1.00  0.00     0.032 C 
HETATM   26  N5  UNL     1       5.679   6.798  17.968  1.00  0.00    -0.385 N 
ATOM     27  H5  UNL     1       6.511   6.455  17.488  1.00  0.00     0.160 HD
HETATM   28  C21 UNL     1       6.285   9.154  17.651  1.00  0.00     0.069 A 
ENDBRANCH  13  14
ENDBRANCH   1  13
BRANCH  10  29
HETATM   29  C16 UNL     1      11.378  12.393  21.174  1.00  0.00     0.262 C 
HETATM   30  O2  UNL     1      11.128  13.517  21.661  1.00  0.00    -0.267 OA
HETATM   31  N4  UNL     1      12.219  11.504  21.839  1.00  0.00    -0.334 N 
ATOM     32  H4  UNL     1      12.416  10.590  21.431  1.00  0.00     0.164 HD
BRANCH  31  33
HETATM   33  C17 UNL     1      12.809  11.866  23.091  1.00  0.00     0.103 C 
HETATM   34  C18 UNL     1      13.708  10.780  23.629  1.00  0.00     0.056 C 
HETATM   35  C19 UNL     1      13.628  13.140  22.986  1.00  0.00     0.056 C 
HETATM   36 CL2  UNL     1      11.545  12.156  24.332  1.00  0.00    -0.096 Cl
ENDBRANCH  31  33
ENDBRANCH  10  29
TORSDOF 4
ENDMDL
