MODEL 1
REMARK VINA RESULT: -7.882119435      0.000      0.000
REMARK  3 active torsions:
REMARK  status: ('A' for Active; 'I' for Inactive)
REMARK    1  A    between atoms: C4_8  and  S1_9 
REMARK    2  A    between atoms: S1_9  and  C5_10 
REMARK    3  A    between atoms: C11_26  and  C12_27 
ROOT
HETATM    1  C1  UNL     1      14.593  11.602  16.576  1.00  0.00     0.063 C 
HETATM    2  C2  UNL     1      13.340  11.807  17.423  1.00  0.00    -0.015 C 
HETATM    3  N1  UNL     1      12.320  11.067  17.208  1.00  0.00    -0.349 N 
ATOM      4  H1  UNL     1      12.337  10.352  16.481  1.00  0.00     0.167 HD
HETATM    5  C3  UNL     1      11.140  11.270  18.020  1.00  0.00     0.115 A 
HETATM    6  N2  UNL     1      10.046  10.518  17.763  1.00  0.00    -0.335 N 
ATOM      7  H2  UNL     1      10.077   9.809  17.030  1.00  0.00     0.168 HD
HETATM    8  C4  UNL     1       8.929  10.699  18.460  1.00  0.00     0.101 A 
HETATM    9  C7  UNL     1       8.881  11.650  19.446  1.00  0.00     0.105 A 
HETATM   10  C8  UNL     1       7.666  11.839  20.195  1.00  0.00     0.104 C 
HETATM   11  N5  UNL     1       6.704  12.009  20.790  1.00  0.00    -0.191 NA
HETATM   12  C9  UNL     1       9.956  12.429  19.741  1.00  0.00     0.060 A 
HETATM   13  N6  UNL     1       9.951  13.340  20.665  1.00  0.00    -0.397 N 
ATOM     14  H61 UNL     1      10.757  13.924  20.886  1.00  0.00     0.156 HD
ATOM     15  H62 UNL     1       9.101  13.489  21.207  1.00  0.00     0.156 HD
HETATM   16  C10 UNL     1      11.138  12.221  18.987  1.00  0.00     0.023 A 
HETATM   17  C11 UNL     1      12.314  13.012  19.311  1.00  0.00     0.063 C 
HETATM   18  C19 UNL     1      13.444  12.889  18.405  1.00  0.00     0.066 C 
ENDROOT
BRANCH   8  19
HETATM   19  S1  UNL     1       7.508   9.663  18.065  1.00  0.00    -0.044 SA
BRANCH  19  20
HETATM   20  C5  UNL     1       6.727  10.424  16.623  1.00  0.00     0.135 A 
HETATM   21  N3  UNL     1       7.240  11.305  15.777  1.00  0.00    -0.286 N 
HETATM   22  N4  UNL     1       6.546  11.741  14.809  1.00  0.00    -0.283 N 
ATOM     23  H3  UNL     1       8.197  11.635  15.906  1.00  0.00     0.188 HD
HETATM   24  C6  UNL     1       5.295  11.292  14.664  1.00  0.00     0.159 A 
ATOM     25  H4  UNL     1       6.936  12.419  14.154  1.00  0.00     0.188 HD
HETATM   26  S2  UNL     1       4.203  11.707  13.490  1.00  0.00    -0.051 SA
HETATM   27  S3  UNL     1       5.155  10.213  15.983  1.00  0.00    -0.033 SA
ENDBRANCH  19  20
ENDBRANCH   8  19
BRANCH  17  28
HETATM   28  C12 UNL     1      12.678  12.936  20.754  1.00  0.00    -0.041 A 
HETATM   29  C13 UNL     1      12.756  11.735  21.405  1.00  0.00     0.034 A 
HETATM   30  C14 UNL     1      13.084  11.608  22.741  1.00  0.00     0.056 A 
HETATM   31 CL1  UNL     1      13.172  10.035  23.534  1.00  0.00    -0.083 Cl
HETATM   32  C15 UNL     1      13.339  12.777  23.420  1.00  0.00     0.056 A 
HETATM   33 CL2  UNL     1      13.760  12.673  25.115  1.00  0.00    -0.083 Cl
HETATM   34  C16 UNL     1      13.267  13.990  22.787  1.00  0.00     0.033 A 
HETATM   35  C17 UNL     1      12.934  14.085  21.441  1.00  0.00    -0.053 A 
HETATM   36  C18 UNL     1      12.886  15.440  20.840  1.00  0.00     0.049 C 
ENDBRANCH  17  28
TORSDOF 3
ENDMDL
MODEL 2
REMARK VINA RESULT: -7.749210925      4.127      6.826
REMARK  3 active torsions:
REMARK  status: ('A' for Active; 'I' for Inactive)
REMARK    1  A    between atoms: C4_8  and  S1_9 
REMARK    2  A    between atoms: S1_9  and  C5_10 
REMARK    3  A    between atoms: C11_26  and  C12_27 
ROOT
HETATM    1  C1  UNL     1       7.448   9.079  16.124  1.00  0.00     0.063 C 
HETATM    2  C2  UNL     1       8.143   9.949  17.166  1.00  0.00    -0.015 C 
HETATM    3  N1  UNL     1       9.373  10.255  16.998  1.00  0.00    -0.349 N 
ATOM      4  H1  UNL     1       9.887   9.922  16.182  1.00  0.00     0.167 HD
HETATM    5  C3  UNL     1      10.019  11.084  17.993  1.00  0.00     0.115 A 
HETATM    6  N2  UNL     1      11.332  11.370  17.837  1.00  0.00    -0.335 N 
ATOM      7  H2  UNL     1      11.833  11.027  17.017  1.00  0.00     0.168 HD
HETATM    8  C4  UNL     1      11.972  12.095  18.748  1.00  0.00     0.101 A 
HETATM    9  C7  UNL     1      11.303  12.558  19.852  1.00  0.00     0.105 A 
HETATM   10  C8  UNL     1      12.007  13.342  20.833  1.00  0.00     0.104 C 
HETATM   11  N5  UNL     1      12.555  13.957  21.628  1.00  0.00    -0.191 NA
HETATM   12  C9  UNL     1       9.984  12.297  20.051  1.00  0.00     0.060 A 
HETATM   13  N6  UNL     1       9.316  12.716  21.080  1.00  0.00    -0.397 N 
ATOM     14  H61 UNL     1       8.326  12.519  21.230  1.00  0.00     0.156 HD
ATOM     15  H62 UNL     1       9.795  13.273  21.787  1.00  0.00     0.156 HD
HETATM   16  C10 UNL     1       9.318  11.522  19.068  1.00  0.00     0.023 A 
HETATM   17  C11 UNL     1       7.897  11.264  19.236  1.00  0.00     0.063 C 
HETATM   18  C19 UNL     1       7.297  10.326  18.301  1.00  0.00     0.066 C 
ENDROOT
BRANCH   8  19
HETATM   19  S1  UNL     1      13.720  12.439  18.479  1.00  0.00    -0.044 SA
BRANCH  19  20
HETATM   20  C5  UNL     1      14.244  11.331  17.150  1.00  0.00     0.135 A 
HETATM   21  N3  UNL     1      13.786  10.123  16.856  1.00  0.00    -0.286 N 
HETATM   22  N4  UNL     1      14.271   9.475  15.879  1.00  0.00    -0.283 N 
ATOM     23  H3  UNL     1      13.040   9.712  17.418  1.00  0.00     0.188 HD
HETATM   24  C6  UNL     1      15.248  10.037  15.160  1.00  0.00     0.159 A 
ATOM     25  H4  UNL     1      13.923   8.545  15.648  1.00  0.00     0.188 HD
HETATM   26  S2  UNL     1      16.034   9.397  13.851  1.00  0.00    -0.051 SA
HETATM   27  S3  UNL     1      15.442  11.542  15.948  1.00  0.00    -0.033 SA
ENDBRANCH  19  20
ENDBRANCH   8  19
BRANCH  17  28
HETATM   28  C12 UNL     1       7.107  12.510  19.442  1.00  0.00    -0.041 A 
HETATM   29  C13 UNL     1       6.494  12.773  20.637  1.00  0.00     0.034 A 
HETATM   30  C14 UNL     1       5.747  13.908  20.882  1.00  0.00     0.056 A 
HETATM   31 CL1  UNL     1       4.976  14.200  22.441  1.00  0.00    -0.083 Cl
HETATM   32  C15 UNL     1       5.637  14.801  19.841  1.00  0.00     0.056 A 
HETATM   33 CL2  UNL     1       4.701  16.258  20.097  1.00  0.00    -0.083 Cl
HETATM   34  C16 UNL     1       6.243  14.558  18.637  1.00  0.00     0.033 A 
HETATM   35  C17 UNL     1       6.988  13.406  18.421  1.00  0.00    -0.053 A 
HETATM   36  C18 UNL     1       7.612  13.230  17.087  1.00  0.00     0.049 C 
ENDBRANCH  17  28
TORSDOF 3
ENDMDL
MODEL 3
REMARK VINA RESULT: -7.571976596      3.057      4.615
REMARK  3 active torsions:
REMARK  status: ('A' for Active; 'I' for Inactive)
REMARK    1  A    between atoms: C4_8  and  S1_9 
REMARK    2  A    between atoms: S1_9  and  C5_10 
REMARK    3  A    between atoms: C11_26  and  C12_27 
ROOT
HETATM    1  C1  UNL     1      12.526  12.628  23.630  1.00  0.00     0.063 C 
HETATM    2  C2  UNL     1      11.964  12.349  22.240  1.00  0.00    -0.015 C 
HETATM    3  N1  UNL     1      10.729  12.585  22.012  1.00  0.00    -0.349 N 
ATOM      4  H1  UNL     1      10.123  12.951  22.746  1.00  0.00     0.167 HD
HETATM    5  C3  UNL     1      10.210  12.320  20.688  1.00  0.00     0.115 A 
HETATM    6  N2  UNL     1       8.893  12.527  20.459  1.00  0.00    -0.335 N 
ATOM      7  H2  UNL     1       8.299  12.890  21.205  1.00  0.00     0.168 HD
HETATM    8  C4  UNL     1       8.369  12.259  19.268  1.00  0.00     0.101 A 
HETATM    9  C7  UNL     1       9.162  11.770  18.262  1.00  0.00     0.105 A 
HETATM   10  C8  UNL     1       8.584  11.482  16.976  1.00  0.00     0.104 C 
HETATM   11  N5  UNL     1       8.136  11.237  15.951  1.00  0.00    -0.191 NA
HETATM   12  C9  UNL     1      10.491  11.547  18.444  1.00  0.00     0.060 A 
HETATM   13  N6  UNL     1      11.275  11.085  17.520  1.00  0.00    -0.397 N 
ATOM     14  H61 UNL     1      12.272  10.917  17.656  1.00  0.00     0.156 HD
ATOM     15  H62 UNL     1      10.886  10.875  16.602  1.00  0.00     0.156 HD
HETATM   16  C10 UNL     1      11.032  11.839  19.722  1.00  0.00     0.023 A 
HETATM   17  C11 UNL     1      12.458  11.649  19.929  1.00  0.00     0.063 C 
HETATM   18  C19 UNL     1      12.936  11.794  21.294  1.00  0.00     0.066 C 
ENDROOT
BRANCH   8  19
HETATM   19  S1  UNL     1       6.608  12.558  19.032  1.00  0.00    -0.044 SA
BRANCH  19  20
HETATM   20  C5  UNL     1       5.845  10.926  18.875  1.00  0.00     0.135 A 
HETATM   21  N3  UNL     1       5.443  10.308  17.775  1.00  0.00    -0.286 N 
HETATM   22  N4  UNL     1       4.923   9.153  17.845  1.00  0.00    -0.283 N 
ATOM     23  H3  UNL     1       5.552  10.762  16.868  1.00  0.00     0.188 HD
HETATM   24  C6  UNL     1       4.791   8.581  19.046  1.00  0.00     0.159 A 
ATOM     25  H4  UNL     1       4.611   8.671  17.001  1.00  0.00     0.188 HD
HETATM   26  S2  UNL     1       4.149   7.093  19.391  1.00  0.00    -0.051 SA
HETATM   27  S3  UNL     1       5.449   9.775  20.076  1.00  0.00    -0.033 SA
ENDBRANCH  19  20
ENDBRANCH   8  19
BRANCH  17  28
HETATM   28  C12 UNL     1      13.287  12.356  18.914  1.00  0.00    -0.041 A 
HETATM   29  C13 UNL     1      13.963  11.667  17.944  1.00  0.00     0.034 A 
HETATM   30  C14 UNL     1      14.748  12.271  16.981  1.00  0.00     0.056 A 
HETATM   31 CL1  UNL     1      15.600  11.337  15.751  1.00  0.00    -0.083 Cl
HETATM   32  C15 UNL     1      14.829  13.644  17.034  1.00  0.00     0.056 A 
HETATM   33 CL2  UNL     1      15.810  14.460  15.837  1.00  0.00    -0.083 Cl
HETATM   34  C16 UNL     1      14.160  14.353  17.996  1.00  0.00     0.033 A 
HETATM   35  C17 UNL     1      13.377  13.716  18.951  1.00  0.00    -0.053 A 
HETATM   36  C18 UNL     1      12.686  14.565  19.951  1.00  0.00     0.049 C 
ENDBRANCH  17  28
TORSDOF 3
ENDMDL
MODEL 4
REMARK VINA RESULT: -7.516535510      3.655      5.375
REMARK  3 active torsions:
REMARK  status: ('A' for Active; 'I' for Inactive)
REMARK    1  A    between atoms: C4_8  and  S1_9 
REMARK    2  A    between atoms: S1_9  and  C5_10 
REMARK    3  A    between atoms: C11_26  and  C12_27 
ROOT
HETATM    1  C1  UNL     1      12.400  12.474  23.704  1.00  0.00     0.063 C 
HETATM    2  C2  UNL     1      11.808  12.269  22.313  1.00  0.00    -0.015 C 
HETATM    3  N1  UNL     1      10.585  12.581  22.108  1.00  0.00    -0.349 N 
ATOM      4  H1  UNL     1      10.009  12.958  22.860  1.00  0.00     0.167 HD
HETATM    5  C3  UNL     1      10.038  12.385  20.783  1.00  0.00     0.115 A 
HETATM    6  N2  UNL     1       8.732  12.673  20.578  1.00  0.00    -0.335 N 
ATOM      7  H2  UNL     1       8.168  13.046  21.341  1.00  0.00     0.168 HD
HETATM    8  C4  UNL     1       8.181  12.471  19.386  1.00  0.00     0.101 A 
HETATM    9  C7  UNL     1       8.935  11.969  18.356  1.00  0.00     0.105 A 
HETATM   10  C8  UNL     1       8.327  11.753  17.069  1.00  0.00     0.104 C 
HETATM   11  N5  UNL     1       7.855  11.565  16.043  1.00  0.00    -0.191 NA
HETATM   12  C9  UNL     1      10.250  11.666  18.514  1.00  0.00     0.060 A 
HETATM   13  N6  UNL     1      10.997  11.190  17.567  1.00  0.00    -0.397 N 
ATOM     14  H61 UNL     1      11.984  10.962  17.686  1.00  0.00     0.156 HD
ATOM     15  H62 UNL     1      10.586  11.030  16.648  1.00  0.00     0.156 HD
HETATM   16  C10 UNL     1      10.821  11.889  19.793  1.00  0.00     0.023 A 
HETATM   17  C11 UNL     1      12.236  11.613  19.977  1.00  0.00     0.063 C 
HETATM   18  C19 UNL     1      12.737  11.690  21.340  1.00  0.00     0.066 C 
ENDROOT
BRANCH   8  19
HETATM   19  S1  UNL     1       6.437  12.875  19.181  1.00  0.00    -0.044 SA
BRANCH  19  20
HETATM   20  C5  UNL     1       6.206  14.486  19.970  1.00  0.00     0.135 A 
HETATM   21  N3  UNL     1       6.124  15.678  19.399  1.00  0.00    -0.286 N 
HETATM   22  N4  UNL     1       5.960  16.717  20.108  1.00  0.00    -0.283 N 
ATOM     23  H3  UNL     1       6.193  15.762  18.384  1.00  0.00     0.188 HD
HETATM   24  C6  UNL     1       5.873  16.580  21.436  1.00  0.00     0.159 A 
ATOM     25  H4  UNL     1       5.896  17.638  19.675  1.00  0.00     0.188 HD
HETATM   26  S2  UNL     1       5.661  17.774  22.563  1.00  0.00    -0.051 SA
HETATM   27  S3  UNL     1       6.037  14.888  21.624  1.00  0.00    -0.033 SA
ENDBRANCH  19  20
ENDBRANCH   8  19
BRANCH  17  28
HETATM   28  C12 UNL     1      13.092  12.303  18.972  1.00  0.00    -0.041 A 
HETATM   29  C13 UNL     1      13.730  11.606  17.983  1.00  0.00     0.034 A 
HETATM   30  C14 UNL     1      14.538  12.194  17.029  1.00  0.00     0.056 A 
HETATM   31 CL1  UNL     1      15.339  11.249  15.773  1.00  0.00    -0.083 Cl
HETATM   32  C15 UNL     1      14.684  13.560  17.112  1.00  0.00     0.056 A 
HETATM   33 CL2  UNL     1      15.697  14.356  15.928  1.00  0.00    -0.083 Cl
HETATM   34  C16 UNL     1      14.054  14.277  18.095  1.00  0.00     0.033 A 
HETATM   35  C17 UNL     1      13.247  13.656  19.040  1.00  0.00    -0.053 A 
HETATM   36  C18 UNL     1      12.602  14.514  20.063  1.00  0.00     0.049 C 
ENDBRANCH  17  28
TORSDOF 3
ENDMDL
MODEL 5
REMARK VINA RESULT: -7.412834322      4.374      7.004
REMARK  3 active torsions:
REMARK  status: ('A' for Active; 'I' for Inactive)
REMARK    1  A    between atoms: C4_8  and  S1_9 
REMARK    2  A    between atoms: S1_9  and  C5_10 
REMARK    3  A    between atoms: C11_26  and  C12_27 
ROOT
HETATM    1  C1  UNL     1       7.507   8.658  16.339  1.00  0.00     0.063 C 
HETATM    2  C2  UNL     1       8.148   9.617  17.338  1.00  0.00    -0.015 C 
HETATM    3  N1  UNL     1       9.350  10.003  17.143  1.00  0.00    -0.349 N 
ATOM      4  H1  UNL     1       9.879   9.676  16.334  1.00  0.00     0.167 HD
HETATM    5  C3  UNL     1       9.944  10.915  18.096  1.00  0.00     0.115 A 
HETATM    6  N2  UNL     1      11.231  11.289  17.913  1.00  0.00    -0.335 N 
ATOM      7  H2  UNL     1      11.748  10.950  17.101  1.00  0.00     0.168 HD
HETATM    8  C4  UNL     1      11.826  12.094  18.787  1.00  0.00     0.101 A 
HETATM    9  C7  UNL     1      11.136  12.552  19.880  1.00  0.00     0.105 A 
HETATM   10  C8  UNL     1      11.790  13.423  20.821  1.00  0.00     0.104 C 
HETATM   11  N5  UNL     1      12.300  14.107  21.584  1.00  0.00    -0.191 NA
HETATM   12  C9  UNL     1       9.841  12.205  20.105  1.00  0.00     0.060 A 
HETATM   13  N6  UNL     1       9.154  12.615  21.126  1.00  0.00    -0.397 N 
ATOM     14  H61 UNL     1       8.182  12.354  21.295  1.00  0.00     0.156 HD
ATOM     15  H62 UNL     1       9.598  13.233  21.804  1.00  0.00     0.156 HD
HETATM   16  C10 UNL     1       9.223  11.345  19.162  1.00  0.00     0.023 A 
HETATM   17  C11 UNL     1       7.826  10.993  19.357  1.00  0.00     0.063 C 
HETATM   18  C19 UNL     1       7.287   9.977  18.468  1.00  0.00     0.066 C 
ENDROOT
BRANCH   8  19
HETATM   19  S1  UNL     1      13.542  12.551  18.483  1.00  0.00    -0.044 SA
BRANCH  19  20
HETATM   20  C5  UNL     1      14.135  11.423  17.201  1.00  0.00     0.135 A 
HETATM   21  N3  UNL     1      13.726  10.192  16.934  1.00  0.00    -0.286 N 
HETATM   22  N4  UNL     1      14.257   9.533  15.989  1.00  0.00    -0.283 N 
ATOM     23  H3  UNL     1      12.982   9.772  17.491  1.00  0.00     0.188 HD
HETATM   24  C6  UNL     1      15.232  10.107  15.275  1.00  0.00     0.159 A 
ATOM     25  H4  UNL     1      13.947   8.584  15.778  1.00  0.00     0.188 HD
HETATM   26  S2  UNL     1      16.071   9.456  14.004  1.00  0.00    -0.051 SA
HETATM   27  S3  UNL     1      15.354  11.640  16.021  1.00  0.00    -0.033 SA
ENDBRANCH  19  20
ENDBRANCH   8  19
BRANCH  17  28
HETATM   28  C12 UNL     1       6.951  12.186  19.524  1.00  0.00    -0.041 A 
HETATM   29  C13 UNL     1       7.021  13.246  18.661  1.00  0.00     0.034 A 
HETATM   30  C14 UNL     1       6.237  14.377  18.772  1.00  0.00     0.056 A 
HETATM   31 CL1  UNL     1       6.367  15.718  17.633  1.00  0.00    -0.083 Cl
HETATM   32  C15 UNL     1       5.347  14.402  19.821  1.00  0.00     0.056 A 
HETATM   33 CL2  UNL     1       4.328  15.813  20.008  1.00  0.00    -0.083 Cl
HETATM   34  C16 UNL     1       5.260  13.352  20.696  1.00  0.00     0.033 A 
HETATM   35  C17 UNL     1       6.063  12.226  20.559  1.00  0.00    -0.053 A 
HETATM   36  C18 UNL     1       5.895  11.136  21.550  1.00  0.00     0.049 C 
ENDBRANCH  17  28
TORSDOF 3
ENDMDL
