MODEL 1
REMARK VINA RESULT: -7.101082817      0.000      0.000
REMARK  5 active torsions:
REMARK  status: ('A' for Active; 'I' for Inactive)
REMARK    1  A    between atoms: C2_2  and  O1_3 
REMARK    2  A    between atoms: O1_3  and  C3_4 
REMARK    3  A    between atoms: C3_4  and  C4_6 
REMARK    4  A    between atoms: C7_13  and  C8_14 
REMARK    5  A    between atoms: C9_15  and  C10_16 
ROOT
HETATM    1  C4  UNL     1      18.207  11.255  -0.074  1.00  0.00     0.120 A 
HETATM    2  N1  UNL     1      19.417  10.766   0.381  1.00  0.00    -0.347 N 
ATOM      3  H1  UNL     1      20.283  11.172   0.026  1.00  0.00     0.167 HD
HETATM    4  C5  UNL     1      19.483   9.781   1.269  1.00  0.00     0.180 A 
HETATM    5  N2  UNL     1      18.345   9.254   1.729  1.00  0.00    -0.361 N 
ATOM      6  H2  UNL     1      18.408   8.497   2.411  1.00  0.00     0.166 HD
HETATM    7  C6  UNL     1      17.134   9.658   1.351  1.00  0.00     0.102 A 
HETATM    8  C7  UNL     1      17.039  10.696   0.416  1.00  0.00     0.012 A 
ENDROOT
BRANCH   8   9
HETATM    9  C8  UNL     1      15.748  11.147  -0.005  1.00  0.00     0.012 C 
HETATM   10  C9  UNL     1      14.999  10.449  -0.830  1.00  0.00    -0.020 C 
BRANCH  10  11
HETATM   11  C10 UNL     1      13.628  10.956  -1.259  1.00  0.00     0.022 C 
HETATM   12  C11 UNL     1      13.840  12.378  -1.691  1.00  0.00     0.083 C 
HETATM   13  S1  UNL     1      12.250  13.169  -1.226  1.00  0.00    -0.163 SA
HETATM   14  C12 UNL     1      11.531  11.741  -0.321  1.00  0.00     0.052 C 
HETATM   15  C13 UNL     1      10.947  12.169   0.999  1.00  0.00     0.015 C 
HETATM   16  C17 UNL     1      12.795  10.962  -0.018  1.00  0.00     0.008 C 
HETATM   17  C14 UNL     1      10.998  10.934   1.908  1.00  0.00     0.001 C 
HETATM   18  C15 UNL     1      11.041   9.662   1.054  1.00  0.00     0.000 C 
HETATM   19  C16 UNL     1      12.397   9.568   0.344  1.00  0.00     0.006 C 
ENDBRANCH  10  11
ENDBRANCH   8   9
BRANCH   1  20
HETATM   20  C3  UNL     1      18.226  12.325  -1.036  1.00  0.00     0.310 C 
HETATM   21  O2  UNL     1      18.292  13.514  -0.814  1.00  0.00    -0.258 OA
BRANCH  20  22
HETATM   22  O1  UNL     1      18.156  11.963  -2.403  1.00  0.00    -0.317 OA
BRANCH  22  23
HETATM   23  C2  UNL     1      17.274  12.677  -3.278  1.00  0.00     0.175 C 
HETATM   24  C1  UNL     1      16.521  11.666  -4.110  1.00  0.00     0.034 C 
ENDBRANCH  22  23
ENDBRANCH  20  22
ENDBRANCH   1  20
TORSDOF 5
ENDMDL
MODEL 2
REMARK VINA RESULT: -6.716108684      1.173      1.479
REMARK  5 active torsions:
REMARK  status: ('A' for Active; 'I' for Inactive)
REMARK    1  A    between atoms: C2_2  and  O1_3 
REMARK    2  A    between atoms: O1_3  and  C3_4 
REMARK    3  A    between atoms: C3_4  and  C4_6 
REMARK    4  A    between atoms: C7_13  and  C8_14 
REMARK    5  A    between atoms: C9_15  and  C10_16 
ROOT
HETATM    1  C4  UNL     1      19.058  10.261  -0.398  1.00  0.00     0.120 A 
HETATM    2  N1  UNL     1      20.155   9.908   0.366  1.00  0.00    -0.347 N 
ATOM      3  H1  UNL     1      21.084  10.203   0.067  1.00  0.00     0.167 HD
HETATM    4  C5  UNL     1      20.031   9.195   1.479  1.00  0.00     0.180 A 
HETATM    5  N2  UNL     1      18.810   8.812   1.864  1.00  0.00    -0.361 N 
ATOM      6  H2  UNL     1      18.727   8.264   2.720  1.00  0.00     0.166 HD
HETATM    7  C6  UNL     1      17.696   9.103   1.195  1.00  0.00     0.102 A 
HETATM    8  C7  UNL     1      17.802   9.854   0.018  1.00  0.00     0.012 A 
ENDROOT
BRANCH   8   9
HETATM    9  C8  UNL     1      16.618  10.179  -0.716  1.00  0.00     0.012 C 
HETATM   10  C9  UNL     1      15.617  10.837  -0.173  1.00  0.00    -0.020 C 
BRANCH  10  11
HETATM   11  C10 UNL     1      14.370  11.167  -0.983  1.00  0.00     0.022 C 
HETATM   12  C11 UNL     1      14.559  12.576  -1.462  1.00  0.00     0.083 C 
HETATM   13  S1  UNL     1      12.839  13.215  -1.492  1.00  0.00    -0.163 SA
HETATM   14  C12 UNL     1      12.036  11.770  -0.689  1.00  0.00     0.052 C 
HETATM   15  C13 UNL     1      11.086  12.207   0.395  1.00  0.00     0.015 C 
HETATM   16  C17 UNL     1      13.239  11.152  -0.005  1.00  0.00     0.008 C 
HETATM   17  C14 UNL     1      11.005  11.039   1.386  1.00  0.00     0.001 C 
HETATM   18  C15 UNL     1      11.387   9.733   0.680  1.00  0.00     0.000 C 
HETATM   19  C16 UNL     1      12.887   9.746   0.356  1.00  0.00     0.006 C 
ENDBRANCH  10  11
ENDBRANCH   8   9
BRANCH   1  20
HETATM   20  C3  UNL     1      19.281  11.035  -1.589  1.00  0.00     0.310 C 
HETATM   21  O2  UNL     1      19.289  10.639  -2.735  1.00  0.00    -0.258 OA
BRANCH  20  22
HETATM   22  O1  UNL     1      19.523  12.420  -1.422  1.00  0.00    -0.317 OA
BRANCH  22  23
HETATM   23  C2  UNL     1      18.429  13.295  -1.117  1.00  0.00     0.175 C 
HETATM   24  C1  UNL     1      17.914  13.871  -2.415  1.00  0.00     0.034 C 
ENDBRANCH  22  23
ENDBRANCH  20  22
ENDBRANCH   1  20
TORSDOF 5
ENDMDL
MODEL 3
REMARK VINA RESULT: -6.650317214      1.080      1.171
REMARK  5 active torsions:
REMARK  status: ('A' for Active; 'I' for Inactive)
REMARK    1  A    between atoms: C2_2  and  O1_3 
REMARK    2  A    between atoms: O1_3  and  C3_4 
REMARK    3  A    between atoms: C3_4  and  C4_6 
REMARK    4  A    between atoms: C7_13  and  C8_14 
REMARK    5  A    between atoms: C9_15  and  C10_16 
ROOT
HETATM    1  C4  UNL     1      18.364  10.900  -0.467  1.00  0.00     0.120 A 
HETATM    2  N1  UNL     1      19.603  10.516   0.010  1.00  0.00    -0.347 N 
ATOM      3  H1  UNL     1      20.259  11.232   0.321  1.00  0.00     0.167 HD
HETATM    4  C5  UNL     1      19.962   9.239   0.074  1.00  0.00     0.180 A 
HETATM    5  N2  UNL     1      19.097   8.308  -0.336  1.00  0.00    -0.361 N 
ATOM      6  H2  UNL     1      19.384   7.330  -0.283  1.00  0.00     0.166 HD
HETATM    7  C6  UNL     1      17.883   8.579  -0.810  1.00  0.00     0.102 A 
HETATM    8  C7  UNL     1      17.481   9.919  -0.887  1.00  0.00     0.012 A 
ENDROOT
BRANCH   8   9
HETATM    9  C8  UNL     1      16.181  10.234  -1.393  1.00  0.00     0.012 C 
HETATM   10  C9  UNL     1      15.139  10.376  -0.603  1.00  0.00    -0.020 C 
BRANCH  10  11
HETATM   11  C10 UNL     1      13.767  10.712  -1.173  1.00  0.00     0.022 C 
HETATM   12  C11 UNL     1      13.923  12.046  -1.842  1.00  0.00     0.083 C 
HETATM   13  S1  UNL     1      12.270  12.804  -1.594  1.00  0.00    -0.163 SA
HETATM   14  C12 UNL     1      11.583  11.515  -0.481  1.00  0.00     0.052 C 
HETATM   15  C13 UNL     1      10.907  12.130   0.716  1.00  0.00     0.015 C 
HETATM   16  C17 UNL     1      12.870  10.883   0.010  1.00  0.00     0.008 C 
HETATM   17  C14 UNL     1      10.978  11.081   1.832  1.00  0.00     0.001 C 
HETATM   18  C15 UNL     1      11.135   9.684   1.221  1.00  0.00     0.000 C 
HETATM   19  C16 UNL     1      12.531   9.552   0.598  1.00  0.00     0.006 C 
ENDBRANCH  10  11
ENDBRANCH   8   9
BRANCH   1  20
HETATM   20  C3  UNL     1      18.055  12.304  -0.502  1.00  0.00     0.310 C 
HETATM   21  O2  UNL     1      17.400  12.935   0.299  1.00  0.00    -0.258 OA
BRANCH  20  22
HETATM   22  O1  UNL     1      18.565  13.049  -1.592  1.00  0.00    -0.317 OA
BRANCH  22  23
HETATM   23  C2  UNL     1      17.665  13.807  -2.412  1.00  0.00     0.175 C 
HETATM   24  C1  UNL     1      17.208  12.921  -3.547  1.00  0.00     0.034 C 
ENDBRANCH  22  23
ENDBRANCH  20  22
ENDBRANCH   1  20
TORSDOF 5
ENDMDL
MODEL 4
REMARK VINA RESULT: -6.517267256      1.383      1.655
REMARK  5 active torsions:
REMARK  status: ('A' for Active; 'I' for Inactive)
REMARK    1  A    between atoms: C2_2  and  O1_3 
REMARK    2  A    between atoms: O1_3  and  C3_4 
REMARK    3  A    between atoms: C3_4  and  C4_6 
REMARK    4  A    between atoms: C7_13  and  C8_14 
REMARK    5  A    between atoms: C9_15  and  C10_16 
ROOT
HETATM    1  C4  UNL     1      18.443  10.826  -0.293  1.00  0.00     0.120 A 
HETATM    2  N1  UNL     1      19.598  10.429   0.354  1.00  0.00    -0.347 N 
ATOM      3  H1  UNL     1      20.193  11.135   0.787  1.00  0.00     0.167 HD
HETATM    4  C5  UNL     1      19.953   9.152   0.427  1.00  0.00     0.180 A 
HETATM    5  N2  UNL     1      19.168   8.233  -0.143  1.00  0.00    -0.361 N 
ATOM      6  H2  UNL     1      19.452   7.255  -0.082  1.00  0.00     0.166 HD
HETATM    7  C6  UNL     1      18.039   8.519  -0.787  1.00  0.00     0.102 A 
HETATM    8  C7  UNL     1      17.643   9.859  -0.877  1.00  0.00     0.012 A 
ENDROOT
BRANCH   8   9
HETATM    9  C8  UNL     1      16.432  10.189  -1.564  1.00  0.00     0.012 C 
HETATM   10  C9  UNL     1      15.279  10.285  -0.941  1.00  0.00    -0.020 C 
BRANCH  10  11
HETATM   11  C10 UNL     1      14.007  10.639  -1.701  1.00  0.00     0.022 C 
HETATM   12  C11 UNL     1      14.455  11.441  -2.888  1.00  0.00     0.083 C 
HETATM   13  S1  UNL     1      13.050  12.596  -3.133  1.00  0.00    -0.163 SA
HETATM   14  C12 UNL     1      12.117  12.160  -1.611  1.00  0.00     0.052 C 
HETATM   15  C13 UNL     1      11.665  13.394  -0.875  1.00  0.00     0.015 C 
HETATM   16  C17 UNL     1      13.231  11.537  -0.794  1.00  0.00     0.008 C 
HETATM   17  C14 UNL     1      11.525  12.985   0.596  1.00  0.00     0.001 C 
HETATM   18  C15 UNL     1      11.310  11.471   0.696  1.00  0.00     0.000 C 
HETATM   19  C16 UNL     1      12.602  10.743   0.305  1.00  0.00     0.006 C 
ENDBRANCH  10  11
ENDBRANCH   8   9
BRANCH   1  20
HETATM   20  C3  UNL     1      18.132  12.230  -0.325  1.00  0.00     0.310 C 
HETATM   21  O2  UNL     1      17.379  12.835   0.408  1.00  0.00    -0.258 OA
BRANCH  20  22
HETATM   22  O1  UNL     1      18.767  13.009  -1.322  1.00  0.00    -0.317 OA
BRANCH  22  23
HETATM   23  C2  UNL     1      17.969  13.721  -2.276  1.00  0.00     0.175 C 
HETATM   24  C1  UNL     1      17.893  12.891  -3.536  1.00  0.00     0.034 C 
ENDBRANCH  22  23
ENDBRANCH  20  22
ENDBRANCH   1  20
TORSDOF 5
ENDMDL
MODEL 5
REMARK VINA RESULT: -6.426254406      3.340      5.936
REMARK  5 active torsions:
REMARK  status: ('A' for Active; 'I' for Inactive)
REMARK    1  A    between atoms: C2_2  and  O1_3 
REMARK    2  A    between atoms: O1_3  and  C3_4 
REMARK    3  A    between atoms: C3_4  and  C4_6 
REMARK    4  A    between atoms: C7_13  and  C8_14 
REMARK    5  A    between atoms: C9_15  and  C10_16 
ROOT
HETATM    1  C4  UNL     1      12.446  11.388  -0.621  1.00  0.00     0.120 A 
HETATM    2  N1  UNL     1      11.128  11.249  -0.229  1.00  0.00    -0.347 N 
ATOM      3  H1  UNL     1      10.423  11.869  -0.627  1.00  0.00     0.167 HD
HETATM    4  C5  UNL     1      10.755  10.330   0.653  1.00  0.00     0.180 A 
HETATM    5  N2  UNL     1      11.685   9.521   1.171  1.00  0.00    -0.361 N 
ATOM      6  H2  UNL     1      11.387   8.819   1.849  1.00  0.00     0.166 HD
HETATM    7  C6  UNL     1      12.977   9.579   0.855  1.00  0.00     0.102 A 
HETATM    8  C7  UNL     1      13.394  10.540  -0.074  1.00  0.00     0.012 A 
ENDROOT
BRANCH   8   9
HETATM    9  C8  UNL     1      14.778  10.620  -0.429  1.00  0.00     0.012 C 
HETATM   10  C9  UNL     1      15.647  11.292   0.294  1.00  0.00    -0.020 C 
BRANCH  10  11
HETATM   11  C10 UNL     1      17.114  11.357  -0.111  1.00  0.00     0.022 C 
HETATM   12  C11 UNL     1      17.119  11.812  -1.541  1.00  0.00     0.083 C 
HETATM   13  S1  UNL     1      18.594  10.954  -2.219  1.00  0.00    -0.163 SA
HETATM   14  C12 UNL     1      18.959   9.914  -0.750  1.00  0.00     0.052 C 
HETATM   15  C13 UNL     1      19.222   8.484  -1.143  1.00  0.00     0.015 C 
HETATM   16  C17 UNL     1      17.607   9.947  -0.066  1.00  0.00     0.008 C 
HETATM   17  C14 UNL     1      18.856   7.632   0.078  1.00  0.00     0.001 C 
HETATM   18  C15 UNL     1      18.939   8.484   1.349  1.00  0.00     0.000 C 
HETATM   19  C16 UNL     1      17.801   9.513   1.351  1.00  0.00     0.006 C 
ENDBRANCH  10  11
ENDBRANCH   8   9
BRANCH   1  20
HETATM   20  C3  UNL     1      12.764  12.409  -1.583  1.00  0.00     0.310 C 
HETATM   21  O2  UNL     1      13.069  13.561  -1.361  1.00  0.00    -0.258 OA
BRANCH  20  22
HETATM   22  O1  UNL     1      12.719  12.044  -2.950  1.00  0.00    -0.317 OA
BRANCH  22  23
HETATM   23  C2  UNL     1      13.924  12.061  -3.726  1.00  0.00     0.175 C 
HETATM   24  C1  UNL     1      14.306  10.631  -4.027  1.00  0.00     0.034 C 
ENDBRANCH  22  23
ENDBRANCH  20  22
ENDBRANCH   1  20
TORSDOF 5
ENDMDL
