MODEL 1
REMARK VINA RESULT: -7.138304322      0.000      0.000
REMARK  4 active torsions:
REMARK  status: ('A' for Active; 'I' for Inactive)
REMARK    1  A    between atoms: C2_2  and  C3_3 
REMARK    2  A    between atoms: C3_3  and  C4_4 
REMARK    3  A    between atoms: C4_4  and  N1_5 
REMARK    4  A    between atoms: C6_7  and  C7_8 
ROOT
HETATM    1  N1  UNL     1      13.083  10.903  -0.066  1.00  0.00    -0.388 N 
HETATM    2  C5  UNL     1      12.819  12.196  -0.607  1.00  0.00     0.101 C 
HETATM    3  C6  UNL     1      13.577  12.655  -1.623  1.00  0.00     0.055 C 
HETATM    4  C10 UNL     1      14.605  11.726  -2.069  1.00  0.00     0.206 C 
HETATM    5  O2  UNL     1      15.424  12.111  -3.070  1.00  0.00    -0.348 OA
HETATM    6  C11 UNL     1      15.229  11.310  -4.193  1.00  0.00     0.198 C 
HETATM    7  C12 UNL     1      14.473  10.144  -3.668  1.00  0.00     0.198 C 
HETATM    8  O3  UNL     1      13.958  10.530  -2.469  1.00  0.00    -0.348 OA
HETATM    9  C13 UNL     1      15.385  11.280  -0.822  1.00  0.00     0.037 C 
HETATM   10  C14 UNL     1      16.395  10.247  -1.319  1.00  0.00     0.017 C 
HETATM   11  C15 UNL     1      17.443  10.355  -0.202  1.00  0.00     0.001 C 
HETATM   12  C16 UNL     1      17.647  11.865  -0.181  1.00  0.00     0.001 C 
HETATM   13  C17 UNL     1      16.199  12.369  -0.217  1.00  0.00     0.017 C 
HETATM   14  C18 UNL     1      14.481  10.550   0.141  1.00  0.00     0.137 C 
ENDROOT
BRANCH   3  15
HETATM   15  C7  UNL     1      13.268  13.960  -2.125  1.00  0.00     0.105 A 
HETATM   16  C8  UNL     1      12.051  14.599  -2.156  1.00  0.00     0.127 A 
HETATM   17  N2  UNL     1      12.206  15.813  -2.713  1.00  0.00    -0.354 N 
HETATM   18  C9  UNL     1      13.493  15.912  -3.015  1.00  0.00     0.233 A 
ATOM     19  H2  UNL     1      11.482  16.514  -2.871  1.00  0.00     0.166 HD
HETATM   20  O1  UNL     1      14.104  14.834  -2.671  1.00  0.00    -0.304 OA
ENDBRANCH   3  15
BRANCH   1  21
HETATM   21  C4  UNL     1      12.015   9.998   0.258  1.00  0.00     0.122 C 
BRANCH  21  22
HETATM   22  C3  UNL     1      10.717  10.664   0.609  1.00  0.00     0.019 C 
BRANCH  22  23
HETATM   23  C2  UNL     1      10.670  10.778   2.126  1.00  0.00    -0.003 C 
HETATM   24  C1  UNL     1      10.711   9.409   2.766  1.00  0.00     0.005 C 
ENDBRANCH  22  23
ENDBRANCH  21  22
ENDBRANCH   1  21
TORSDOF 4
ENDMDL
MODEL 2
REMARK VINA RESULT: -7.072773778      1.945      4.622
REMARK  4 active torsions:
REMARK  status: ('A' for Active; 'I' for Inactive)
REMARK    1  A    between atoms: C2_2  and  C3_3 
REMARK    2  A    between atoms: C3_3  and  C4_4 
REMARK    3  A    between atoms: C4_4  and  N1_5 
REMARK    4  A    between atoms: C6_7  and  C7_8 
ROOT
HETATM    1  N1  UNL     1      13.010  12.192  -1.426  1.00  0.00    -0.388 N 
HETATM    2  C5  UNL     1      14.019  11.392  -0.815  1.00  0.00     0.101 C 
HETATM    3  C6  UNL     1      15.209  11.242  -1.432  1.00  0.00     0.055 C 
HETATM    4  C10 UNL     1      15.321  11.959  -2.694  1.00  0.00     0.206 C 
HETATM    5  O2  UNL     1      16.472  11.849  -3.391  1.00  0.00    -0.348 OA
HETATM    6  C11 UNL     1      17.117  13.082  -3.460  1.00  0.00     0.198 C 
HETATM    7  C12 UNL     1      16.067  14.054  -3.059  1.00  0.00     0.198 C 
HETATM    8  O3  UNL     1      15.101  13.334  -2.428  1.00  0.00    -0.348 OA
HETATM    9  C13 UNL     1      14.093  11.585  -3.540  1.00  0.00     0.037 C 
HETATM   10  C14 UNL     1      14.206  12.418  -4.815  1.00  0.00     0.017 C 
HETATM   11  C15 UNL     1      13.361  11.555  -5.762  1.00  0.00     0.001 C 
HETATM   12  C16 UNL     1      14.008  10.195  -5.524  1.00  0.00     0.001 C 
HETATM   13  C17 UNL     1      14.103  10.167  -3.992  1.00  0.00     0.017 C 
HETATM   14  C18 UNL     1      12.822  12.029  -2.861  1.00  0.00     0.137 C 
ENDROOT
BRANCH   3  15
HETATM   15  C7  UNL     1      16.183  10.426  -0.774  1.00  0.00     0.105 A 
HETATM   16  C8  UNL     1      16.468  10.349   0.570  1.00  0.00     0.127 A 
HETATM   17  N2  UNL     1      17.456   9.456   0.758  1.00  0.00    -0.354 N 
HETATM   18  C9  UNL     1      17.768   8.999  -0.446  1.00  0.00     0.233 A 
ATOM     19  H2  UNL     1      17.879   9.187   1.646  1.00  0.00     0.166 HD
HETATM   20  O1  UNL     1      17.026   9.565  -1.331  1.00  0.00    -0.304 OA
ENDBRANCH   3  15
BRANCH   1  21
HETATM   21  C4  UNL     1      12.219  13.112  -0.656  1.00  0.00     0.122 C 
BRANCH  21  22
HETATM   22  C3  UNL     1      12.142  12.794   0.809  1.00  0.00     0.019 C 
BRANCH  22  23
HETATM   23  C2  UNL     1      10.819  12.081   1.042  1.00  0.00    -0.003 C 
HETATM   24  C1  UNL     1      11.046  10.620   1.355  1.00  0.00     0.005 C 
ENDBRANCH  22  23
ENDBRANCH  21  22
ENDBRANCH   1  21
TORSDOF 4
ENDMDL
MODEL 3
REMARK VINA RESULT: -7.028924269      0.908      1.064
REMARK  4 active torsions:
REMARK  status: ('A' for Active; 'I' for Inactive)
REMARK    1  A    between atoms: C2_2  and  C3_3 
REMARK    2  A    between atoms: C3_3  and  C4_4 
REMARK    3  A    between atoms: C4_4  and  N1_5 
REMARK    4  A    between atoms: C6_7  and  C7_8 
ROOT
HETATM    1  N1  UNL     1      12.699  11.665  -0.380  1.00  0.00    -0.388 N 
HETATM    2  C5  UNL     1      12.821  12.938  -1.010  1.00  0.00     0.101 C 
HETATM    3  C6  UNL     1      13.787  13.130  -1.931  1.00  0.00     0.055 C 
HETATM    4  C10 UNL     1      14.612  11.958  -2.184  1.00  0.00     0.206 C 
HETATM    5  O2  UNL     1      15.618  12.066  -3.078  1.00  0.00    -0.348 OA
HETATM    6  C11 UNL     1      15.380  11.246  -4.179  1.00  0.00     0.198 C 
HETATM    7  C12 UNL     1      14.308  10.329  -3.712  1.00  0.00     0.198 C 
HETATM    8  O3  UNL     1      13.754  10.915  -2.616  1.00  0.00    -0.348 OA
HETATM    9  C13 UNL     1      15.100  11.442  -0.822  1.00  0.00     0.037 C 
HETATM   10  C14 UNL     1      15.889  10.170  -1.125  1.00  0.00     0.017 C 
HETATM   11  C15 UNL     1      16.784  10.120   0.122  1.00  0.00     0.001 C 
HETATM   12  C16 UNL     1      17.339  11.540   0.102  1.00  0.00     0.001 C 
HETATM   13  C17 UNL     1      16.068  12.359  -0.160  1.00  0.00     0.017 C 
HETATM   14  C18 UNL     1      13.935  11.017   0.037  1.00  0.00     0.137 C 
ENDROOT
BRANCH   3  15
HETATM   15  C7  UNL     1      13.864  14.428  -2.530  1.00  0.00     0.105 A 
HETATM   16  C8  UNL     1      14.924  15.005  -3.190  1.00  0.00     0.127 A 
HETATM   17  N2  UNL     1      14.571  16.237  -3.595  1.00  0.00    -0.354 N 
HETATM   18  C9  UNL     1      13.321  16.409  -3.190  1.00  0.00     0.233 A 
ATOM     19  H2  UNL     1      15.148  16.903  -4.109  1.00  0.00     0.166 HD
HETATM   20  O1  UNL     1      12.916  15.356  -2.573  1.00  0.00    -0.304 OA
ENDBRANCH   3  15
BRANCH   1  21
HETATM   21  C4  UNL     1      11.415  11.058  -0.167  1.00  0.00     0.122 C 
BRANCH  21  22
HETATM   22  C3  UNL     1      11.424   9.895   0.783  1.00  0.00     0.019 C 
BRANCH  22  23
HETATM   23  C2  UNL     1      10.690  10.341   2.039  1.00  0.00    -0.003 C 
HETATM   24  C1  UNL     1      10.639   9.221   3.054  1.00  0.00     0.005 C 
ENDBRANCH  22  23
ENDBRANCH  21  22
ENDBRANCH   1  21
TORSDOF 4
ENDMDL
MODEL 4
REMARK VINA RESULT: -6.817917680      1.370      1.666
REMARK  4 active torsions:
REMARK  status: ('A' for Active; 'I' for Inactive)
REMARK    1  A    between atoms: C2_2  and  C3_3 
REMARK    2  A    between atoms: C3_3  and  C4_4 
REMARK    3  A    between atoms: C4_4  and  N1_5 
REMARK    4  A    between atoms: C6_7  and  C7_8 
ROOT
HETATM    1  N1  UNL     1      12.656  12.161  -0.904  1.00  0.00    -0.388 N 
HETATM    2  C5  UNL     1      12.850  13.506  -1.332  1.00  0.00     0.101 C 
HETATM    3  C6  UNL     1      13.614  13.751  -2.416  1.00  0.00     0.055 C 
HETATM    4  C10 UNL     1      14.156  12.556  -3.047  1.00  0.00     0.206 C 
HETATM    5  O2  UNL     1      14.949  12.709  -4.129  1.00  0.00    -0.348 OA
HETATM    6  C11 UNL     1      14.345  12.156  -5.256  1.00  0.00     0.198 C 
HETATM    7  C12 UNL     1      13.261  11.308  -4.696  1.00  0.00     0.198 C 
HETATM    8  O3  UNL     1      13.063  11.734  -3.419  1.00  0.00    -0.348 OA
HETATM    9  C13 UNL     1      14.833  11.728  -1.944  1.00  0.00     0.037 C 
HETATM   10  C14 UNL     1      15.313  10.450  -2.629  1.00  0.00     0.017 C 
HETATM   11  C15 UNL     1      16.434  10.046  -1.661  1.00  0.00     0.001 C 
HETATM   12  C16 UNL     1      17.202  11.361  -1.587  1.00  0.00     0.001 C 
HETATM   13  C17 UNL     1      16.060  12.369  -1.398  1.00  0.00     0.017 C 
HETATM   14  C18 UNL     1      13.826  11.294  -0.908  1.00  0.00     0.137 C 
ENDROOT
BRANCH   3  15
HETATM   15  C7  UNL     1      13.776  15.121  -2.800  1.00  0.00     0.105 A 
HETATM   16  C8  UNL     1      14.895  15.742  -3.302  1.00  0.00     0.127 A 
HETATM   17  N2  UNL     1      14.614  17.037  -3.529  1.00  0.00    -0.354 N 
HETATM   18  C9  UNL     1      13.348  17.202  -3.172  1.00  0.00     0.233 A 
ATOM     19  H2  UNL     1      15.246  17.747  -3.899  1.00  0.00     0.166 HD
HETATM   20  O1  UNL     1      12.867  16.087  -2.750  1.00  0.00    -0.304 OA
ENDBRANCH   3  15
BRANCH   1  21
HETATM   21  C4  UNL     1      11.364  11.690  -0.486  1.00  0.00     0.122 C 
BRANCH  21  22
HETATM   22  C3  UNL     1      11.398  10.484   0.408  1.00  0.00     0.019 C 
BRANCH  22  23
HETATM   23  C2  UNL     1      10.660  10.855   1.685  1.00  0.00    -0.003 C 
HETATM   24  C1  UNL     1      10.643   9.692   2.651  1.00  0.00     0.005 C 
ENDBRANCH  22  23
ENDBRANCH  21  22
ENDBRANCH   1  21
TORSDOF 4
ENDMDL
MODEL 5
REMARK VINA RESULT: -6.816622055      2.009      5.088
REMARK  4 active torsions:
REMARK  status: ('A' for Active; 'I' for Inactive)
REMARK    1  A    between atoms: C2_2  and  C3_3 
REMARK    2  A    between atoms: C3_3  and  C4_4 
REMARK    3  A    between atoms: C4_4  and  N1_5 
REMARK    4  A    between atoms: C6_7  and  C7_8 
ROOT
HETATM    1  N1  UNL     1      15.409  11.880  -1.115  1.00  0.00    -0.388 N 
HETATM    2  C5  UNL     1      15.103  11.287  -2.375  1.00  0.00     0.101 C 
HETATM    3  C6  UNL     1      13.939  11.590  -2.984  1.00  0.00     0.055 C 
HETATM    4  C10 UNL     1      13.111  12.537  -2.251  1.00  0.00     0.206 C 
HETATM    5  O2  UNL     1      11.917  12.883  -2.778  1.00  0.00    -0.348 OA
HETATM    6  C11 UNL     1      11.908  14.236  -3.112  1.00  0.00     0.198 C 
HETATM    7  C12 UNL     1      13.085  14.786  -2.393  1.00  0.00     0.198 C 
HETATM    8  O3  UNL     1      13.870  13.722  -2.072  1.00  0.00    -0.348 OA
HETATM    9  C13 UNL     1      12.979  12.008  -0.814  1.00  0.00     0.037 C 
HETATM   10  C14 UNL     1      12.177  13.067  -0.061  1.00  0.00     0.017 C 
HETATM   11  C15 UNL     1      11.610  12.201   1.073  1.00  0.00     0.001 C 
HETATM   12  C16 UNL     1      11.027  11.052   0.257  1.00  0.00     0.001 C 
HETATM   13  C17 UNL     1      12.173  10.761  -0.720  1.00  0.00     0.017 C 
HETATM   14  C18 UNL     1      14.328  11.948  -0.141  1.00  0.00     0.137 C 
ENDROOT
BRANCH   3  15
HETATM   15  C7  UNL     1      13.684  10.965  -4.246  1.00  0.00     0.105 A 
HETATM   16  C8  UNL     1      13.239  11.541  -5.412  1.00  0.00     0.127 A 
HETATM   17  N2  UNL     1      13.134  10.592  -6.359  1.00  0.00    -0.354 N 
HETATM   18  C9  UNL     1      13.509   9.459  -5.781  1.00  0.00     0.233 A 
ATOM     19  H2  UNL     1      12.829  10.718  -7.324  1.00  0.00     0.166 HD
HETATM   20  O1  UNL     1      13.827   9.682  -4.555  1.00  0.00    -0.304 OA
ENDBRANCH   3  15
BRANCH   1  21
HETATM   21  C4  UNL     1      16.724  12.382  -0.826  1.00  0.00     0.122 C 
BRANCH  21  22
HETATM   22  C3  UNL     1      17.545  11.501   0.070  1.00  0.00     0.019 C 
BRANCH  22  23
HETATM   23  C2  UNL     1      18.390  10.614  -0.831  1.00  0.00    -0.003 C 
HETATM   24  C1  UNL     1      17.855   9.200  -0.844  1.00  0.00     0.005 C 
ENDBRANCH  22  23
ENDBRANCH  21  22
ENDBRANCH   1  21
TORSDOF 4
ENDMDL
