MODEL 1
REMARK VINA RESULT: -7.210493758      0.000      0.000
REMARK  3 active torsions:
REMARK  status: ('A' for Active; 'I' for Inactive)
REMARK    1  A    between atoms: C2_3  and  O2_5 
REMARK    2  A    between atoms: O2_5  and  C3_6 
REMARK    3  A    between atoms: C3_6  and  C4_7 
ROOT
HETATM    1  N1  UNL     1     -13.458   7.215  -3.956  1.00  0.00    -0.186 NA
HETATM    2  C1  UNL     1     -12.452   7.806  -3.993  1.00  0.00     0.170 C 
HETATM    3  C2  UNL     1     -11.223   8.535  -4.058  1.00  0.00     0.365 C 
HETATM    4  O1  UNL     1     -10.825   8.893  -5.191  1.00  0.00    -0.247 OA
ENDROOT
BRANCH   3   5
HETATM    5  O2  UNL     1     -10.469   8.855  -2.938  1.00  0.00    -0.309 OA
BRANCH   5   6
HETATM    6  C3  UNL     1     -10.506  10.171  -2.471  1.00  0.00     0.184 C 
BRANCH   6   7
HETATM    7  C4  UNL     1     -10.767  10.304  -1.010  1.00  0.00     0.010 C 
HETATM    8  C5  UNL     1     -11.422  11.499  -0.555  1.00  0.00     0.007 C 
HETATM    9  C6  UNL     1     -11.126  12.908  -0.550  1.00  0.00     0.000 C 
HETATM   10  C7  UNL     1     -12.451  13.481   0.017  1.00  0.00     0.000 C 
HETATM   11  C8  UNL     1     -13.129  12.670   1.058  1.00  0.00     0.000 C 
HETATM   12  C9  UNL     1     -14.128  11.645   0.687  1.00  0.00     0.000 C 
HETATM   13  C10 UNL     1     -13.786  10.193   0.707  1.00  0.00     0.000 C 
HETATM   14  C11 UNL     1     -13.189   9.549  -0.486  1.00  0.00     0.000 C 
HETATM   15  C12 UNL     1     -11.738   9.209  -0.505  1.00  0.00     0.007 C 
ENDBRANCH   6   7
ENDBRANCH   5   6
ENDBRANCH   3   5
TORSDOF 3
ENDMDL
MODEL 2
REMARK VINA RESULT: -6.879031907      1.461      2.892
REMARK  3 active torsions:
REMARK  status: ('A' for Active; 'I' for Inactive)
REMARK    1  A    between atoms: C2_3  and  O2_5 
REMARK    2  A    between atoms: O2_5  and  C3_6 
REMARK    3  A    between atoms: C3_6  and  C4_7 
ROOT
HETATM    1  N1  UNL     1     -11.292   7.828  -4.338  1.00  0.00    -0.186 NA
HETATM    2  C1  UNL     1     -10.952   8.657  -3.589  1.00  0.00     0.170 C 
HETATM    3  C2  UNL     1     -10.530   9.685  -2.689  1.00  0.00     0.365 C 
HETATM    4  O1  UNL     1      -9.816  10.603  -3.156  1.00  0.00    -0.247 OA
ENDROOT
BRANCH   3   5
HETATM    5  O2  UNL     1     -10.872   9.705  -1.345  1.00  0.00    -0.309 OA
BRANCH   5   6
HETATM    6  C3  UNL     1     -10.711  10.901  -0.640  1.00  0.00     0.184 C 
BRANCH   6   7
HETATM    7  C4  UNL     1     -11.906  11.793  -0.649  1.00  0.00     0.010 C 
HETATM    8  C5  UNL     1     -13.038  11.399   0.144  1.00  0.00     0.007 C 
HETATM    9  C6  UNL     1     -13.960  10.294   0.159  1.00  0.00     0.000 C 
HETATM   10  C7  UNL     1     -14.777  10.615   1.438  1.00  0.00     0.000 C 
HETATM   11  C8  UNL     1     -15.040  12.050   1.710  1.00  0.00     0.000 C 
HETATM   12  C9  UNL     1     -14.098  12.852   2.520  1.00  0.00     0.000 C 
HETATM   13  C10 UNL     1     -13.160  13.818   1.880  1.00  0.00     0.000 C 
HETATM   14  C11 UNL     1     -11.831  13.369   1.405  1.00  0.00     0.000 C 
HETATM   15  C12 UNL     1     -11.581  13.183  -0.052  1.00  0.00     0.007 C 
ENDBRANCH   6   7
ENDBRANCH   5   6
ENDBRANCH   3   5
TORSDOF 3
ENDMDL
MODEL 3
REMARK VINA RESULT: -6.656759693      2.277      3.807
REMARK  3 active torsions:
REMARK  status: ('A' for Active; 'I' for Inactive)
REMARK    1  A    between atoms: C2_3  and  O2_5 
REMARK    2  A    between atoms: O2_5  and  C3_6 
REMARK    3  A    between atoms: C3_6  and  C4_7 
ROOT
HETATM    1  N1  UNL     1     -10.064   9.974  -3.462  1.00  0.00    -0.186 NA
HETATM    2  C1  UNL     1     -10.437  10.112  -2.365  1.00  0.00     0.170 C 
HETATM    3  C2  UNL     1     -10.898  10.261  -1.019  1.00  0.00     0.365 C 
HETATM    4  O1  UNL     1     -11.442   9.267  -0.483  1.00  0.00    -0.247 OA
ENDROOT
BRANCH   3   5
HETATM    5  O2  UNL     1     -10.767  11.438  -0.296  1.00  0.00    -0.309 OA
BRANCH   5   6
HETATM    6  C3  UNL     1     -11.434  12.575  -0.760  1.00  0.00     0.184 C 
BRANCH   6   7
HETATM    7  C4  UNL     1     -12.528  13.058   0.129  1.00  0.00     0.010 C 
HETATM    8  C5  UNL     1     -13.410  12.076   0.697  1.00  0.00     0.007 C 
HETATM    9  C6  UNL     1     -14.353  11.112   0.192  1.00  0.00     0.000 C 
HETATM   10  C7  UNL     1     -14.753  10.384   1.503  1.00  0.00     0.000 C 
HETATM   11  C8  UNL     1     -14.845  11.225   2.722  1.00  0.00     0.000 C 
HETATM   12  C9  UNL     1     -13.667  11.425   3.594  1.00  0.00     0.000 C 
HETATM   13  C10 UNL     1     -12.895  12.700   3.565  1.00  0.00     0.000 C 
HETATM   14  C11 UNL     1     -11.784  12.881   2.603  1.00  0.00     0.000 C 
HETATM   15  C12 UNL     1     -11.968  13.741   1.400  1.00  0.00     0.007 C 
ENDBRANCH   6   7
ENDBRANCH   5   6
ENDBRANCH   3   5
TORSDOF 3
ENDMDL
MODEL 4
REMARK VINA RESULT: -6.641900053      3.832      5.279
REMARK  3 active torsions:
REMARK  status: ('A' for Active; 'I' for Inactive)
REMARK    1  A    between atoms: C2_3  and  O2_5 
REMARK    2  A    between atoms: O2_5  and  C3_6 
REMARK    3  A    between atoms: C3_6  and  C4_7 
ROOT
HETATM    1  N1  UNL     1     -18.807   7.033  -1.267  1.00  0.00    -0.186 NA
HETATM    2  C1  UNL     1     -18.434   8.104  -0.988  1.00  0.00     0.170 C 
HETATM    3  C2  UNL     1     -17.994   9.424  -0.655  1.00  0.00     0.365 C 
HETATM    4  O1  UNL     1     -18.622  10.385  -1.159  1.00  0.00    -0.247 OA
ENDROOT
BRANCH   3   5
HETATM    5  O2  UNL     1     -16.922   9.678   0.188  1.00  0.00    -0.309 OA
BRANCH   5   6
HETATM    6  C3  UNL     1     -15.846  10.414  -0.316  1.00  0.00     0.184 C 
BRANCH   6   7
HETATM    7  C4  UNL     1     -14.676  10.510   0.603  1.00  0.00     0.010 C 
HETATM    8  C5  UNL     1     -13.370  10.297   0.044  1.00  0.00     0.007 C 
HETATM    9  C6  UNL     1     -12.679   9.208  -0.594  1.00  0.00     0.000 C 
HETATM   10  C7  UNL     1     -11.351   9.902  -0.997  1.00  0.00     0.000 C 
HETATM   11  C8  UNL     1     -10.820  10.910  -0.046  1.00  0.00     0.000 C 
HETATM   12  C9  UNL     1     -11.204  12.334  -0.161  1.00  0.00     0.000 C 
HETATM   13  C10 UNL     1     -12.200  12.941   0.768  1.00  0.00     0.000 C 
HETATM   14  C11 UNL     1     -13.647  12.882   0.457  1.00  0.00     0.000 C 
HETATM   15  C12 UNL     1     -14.532  11.934   1.191  1.00  0.00     0.007 C 
ENDBRANCH   6   7
ENDBRANCH   5   6
ENDBRANCH   3   5
TORSDOF 3
ENDMDL
MODEL 5
REMARK VINA RESULT: -6.603871877      3.722      5.580
REMARK  3 active torsions:
REMARK  status: ('A' for Active; 'I' for Inactive)
REMARK    1  A    between atoms: C2_3  and  O2_5 
REMARK    2  A    between atoms: O2_5  and  C3_6 
REMARK    3  A    between atoms: C3_6  and  C4_7 
ROOT
HETATM    1  N1  UNL     1     -16.900  14.022   0.658  1.00  0.00    -0.186 NA
HETATM    2  C1  UNL     1     -16.838  12.913   0.300  1.00  0.00     0.170 C 
HETATM    3  C2  UNL     1     -16.782  11.556  -0.149  1.00  0.00     0.365 C 
HETATM    4  O1  UNL     1     -17.829  11.064  -0.630  1.00  0.00    -0.247 OA
ENDROOT
BRANCH   3   5
HETATM    5  O2  UNL     1     -15.635  10.778  -0.074  1.00  0.00    -0.309 OA
BRANCH   5   6
HETATM    6  C3  UNL     1     -15.189  10.378   1.188  1.00  0.00     0.184 C 
BRANCH   6   7
HETATM    7  C4  UNL     1     -13.738  10.610   1.436  1.00  0.00     0.010 C 
HETATM    8  C5  UNL     1     -12.821  10.297   0.375  1.00  0.00     0.007 C 
HETATM    9  C6  UNL     1     -12.429   9.111  -0.342  1.00  0.00     0.000 C 
HETATM   10  C7  UNL     1     -11.482   9.718  -1.410  1.00  0.00     0.000 C 
HETATM   11  C8  UNL     1     -10.643  10.861  -0.974  1.00  0.00     0.000 C 
HETATM   12  C9  UNL     1     -11.130  12.252  -1.109  1.00  0.00     0.000 C 
HETATM   13  C10 UNL     1     -11.627  13.011   0.074  1.00  0.00     0.000 C 
HETATM   14  C11 UNL     1     -13.049  12.917   0.480  1.00  0.00     0.000 C 
HETATM   15  C12 UNL     1     -13.435  12.110   1.672  1.00  0.00     0.007 C 
ENDBRANCH   6   7
ENDBRANCH   5   6
ENDBRANCH   3   5
TORSDOF 3
ENDMDL
