MODEL 1
REMARK VINA RESULT: -6.040704695      0.000      0.000
REMARK  3 active torsions:
REMARK  status: ('A' for Active; 'I' for Inactive)
REMARK    1  A    between atoms: C2_3  and  N2_4 
REMARK    2  A    between atoms: N3_10  and  N4_11 
REMARK    3  A    between atoms: C5_13  and  C6_14 
ROOT
HETATM    1  N1  UNL     1     -19.200   6.674  -1.159  1.00  0.00    -0.194 NA
HETATM    2  C1  UNL     1     -19.250   7.747  -0.680  1.00  0.00     0.103 C 
HETATM    3  C2  UNL     1     -19.327   9.075  -0.105  1.00  0.00     0.231 C 
HETATM    4  C3  UNL     1     -18.546   9.154   1.158  1.00  0.00     0.045 C 
HETATM    5  C4  UNL     1     -17.250   9.486   1.100  1.00  0.00     0.109 C 
HETATM    6  N3  UNL     1     -16.595   9.766  -0.115  1.00  0.00    -0.304 N 
HETATM    7  C11 UNL     1     -17.314   9.661  -1.360  1.00  0.00     0.152 C 
HETATM    8  C12 UNL     1     -18.754  10.053  -1.126  1.00  0.00     0.080 C 
ENDROOT
BRANCH   3   9
HETATM    9  N2  UNL     1     -20.708   9.456   0.127  1.00  0.00    -0.054 N 
ATOM     10  H23 UNL     1     -20.775  10.336   0.639  1.00  0.00     0.276 HD
ATOM     11  H22 UNL     1     -21.171   9.744  -0.735  1.00  0.00     0.276 HD
ATOM     12  H21 UNL     1     -21.217   8.707   0.596  1.00  0.00     0.276 HD
ENDBRANCH   3   9
BRANCH   6  13
HETATM   13  N4  UNL     1     -15.256  10.145  -0.127  1.00  0.00    -0.314 N 
HETATM   14  C5  UNL     1     -14.595  10.523   0.900  1.00  0.00     0.085 C 
ATOM     15  H4  UNL     1     -14.765  10.119  -1.021  1.00  0.00     0.185 HD
BRANCH  14  16
HETATM   16  C6  UNL     1     -13.184  10.898   0.756  1.00  0.00     0.025 C 
HETATM   17  C7  UNL     1     -13.060  12.294   0.152  1.00  0.00     0.010 C 
HETATM   18  C8  UNL     1     -11.692  12.311  -0.464  1.00  0.00     0.001 C 
HETATM   19  C9  UNL     1     -11.158  10.903  -0.425  1.00  0.00     0.001 C 
HETATM   20  C10 UNL     1     -12.432  10.068  -0.245  1.00  0.00     0.010 C 
ENDBRANCH  14  16
ENDBRANCH   6  13
TORSDOF 3
ENDMDL
MODEL 2
REMARK VINA RESULT: -5.971132965      0.985      1.024
REMARK  3 active torsions:
REMARK  status: ('A' for Active; 'I' for Inactive)
REMARK    1  A    between atoms: C2_3  and  N2_4 
REMARK    2  A    between atoms: N3_10  and  N4_11 
REMARK    3  A    between atoms: C5_13  and  C6_14 
ROOT
HETATM    1  N1  UNL     1     -19.770   7.390   0.647  1.00  0.00    -0.194 NA
HETATM    2  C1  UNL     1     -19.576   8.549   0.609  1.00  0.00     0.103 C 
HETATM    3  C2  UNL     1     -19.355   9.980   0.546  1.00  0.00     0.231 C 
HETATM    4  C3  UNL     1     -18.454  10.427   1.641  1.00  0.00     0.045 C 
HETATM    5  C4  UNL     1     -17.131  10.428   1.435  1.00  0.00     0.109 C 
HETATM    6  N3  UNL     1     -16.556  10.020   0.215  1.00  0.00    -0.304 N 
HETATM    7  C11 UNL     1     -17.398   9.545  -0.853  1.00  0.00     0.152 C 
HETATM    8  C12 UNL     1     -18.713  10.287  -0.805  1.00  0.00     0.080 C 
ENDROOT
BRANCH   3   9
HETATM    9  N2  UNL     1     -20.613  10.700   0.597  1.00  0.00    -0.054 N 
ATOM     10  H23 UNL     1     -21.025  10.806  -0.330  1.00  0.00     0.276 HD
ATOM     11  H22 UNL     1     -21.350  10.142   1.030  1.00  0.00     0.276 HD
ATOM     12  H21 UNL     1     -20.498  11.599   1.064  1.00  0.00     0.276 HD
ENDBRANCH   3   9
BRANCH   6  13
HETATM   13  N4  UNL     1     -15.178  10.072   0.030  1.00  0.00    -0.314 N 
HETATM   14  C5  UNL     1     -14.339  10.495   0.898  1.00  0.00     0.085 C 
ATOM     15  H4  UNL     1     -14.809   9.749  -0.865  1.00  0.00     0.185 HD
BRANCH  14  16
HETATM   16  C6  UNL     1     -12.907  10.500   0.580  1.00  0.00     0.025 C 
HETATM   17  C7  UNL     1     -12.531  11.771  -0.176  1.00  0.00     0.010 C 
HETATM   18  C8  UNL     1     -11.281  11.403  -0.920  1.00  0.00     0.001 C 
HETATM   19  C9  UNL     1     -11.092   9.914  -0.785  1.00  0.00     0.001 C 
HETATM   20  C10 UNL     1     -12.496   9.434  -0.397  1.00  0.00     0.010 C 
ENDBRANCH  14  16
ENDBRANCH   6  13
TORSDOF 3
ENDMDL
MODEL 3
REMARK VINA RESULT: -5.942142067      2.089      6.760
REMARK  3 active torsions:
REMARK  status: ('A' for Active; 'I' for Inactive)
REMARK    1  A    between atoms: C2_3  and  N2_4 
REMARK    2  A    between atoms: N3_10  and  N4_11 
REMARK    3  A    between atoms: C5_13  and  C6_14 
ROOT
HETATM    1  N1  UNL     1     -12.781  12.053   3.738  1.00  0.00    -0.194 NA
HETATM    2  C1  UNL     1     -12.646  12.193   2.578  1.00  0.00     0.103 C 
HETATM    3  C2  UNL     1     -12.478  12.388   1.152  1.00  0.00     0.231 C 
HETATM    4  C3  UNL     1     -12.209  11.096   0.467  1.00  0.00     0.045 C 
HETATM    5  C4  UNL     1     -13.242  10.365   0.029  1.00  0.00     0.109 C 
HETATM    6  N3  UNL     1     -14.580  10.773   0.193  1.00  0.00    -0.304 N 
HETATM    7  C11 UNL     1     -14.877  12.001   0.887  1.00  0.00     0.152 C 
HETATM    8  C12 UNL     1     -13.772  12.994   0.615  1.00  0.00     0.080 C 
ENDROOT
BRANCH   3   9
HETATM    9  N2  UNL     1     -11.415  13.337   0.883  1.00  0.00    -0.054 N 
ATOM     10  H23 UNL     1     -11.417  14.106   1.552  1.00  0.00     0.276 HD
ATOM     11  H22 UNL     1     -10.497  12.948   1.099  1.00  0.00     0.276 HD
ATOM     12  H21 UNL     1     -11.464  13.674  -0.079  1.00  0.00     0.276 HD
ENDBRANCH   3   9
BRANCH   6  13
HETATM   13  N4  UNL     1     -15.623  10.001  -0.310  1.00  0.00    -0.314 N 
HETATM   14  C5  UNL     1     -16.826  10.027   0.123  1.00  0.00     0.085 C 
ATOM     15  H4  UNL     1     -15.412   9.367  -1.081  1.00  0.00     0.185 HD
BRANCH  14  16
HETATM   16  C6  UNL     1     -17.837   9.161  -0.494  1.00  0.00     0.025 C 
HETATM   17  C7  UNL     1     -19.036   9.984  -0.956  1.00  0.00     0.010 C 
HETATM   18  C8  UNL     1     -20.166   8.998  -1.004  1.00  0.00     0.001 C 
HETATM   19  C9  UNL     1     -19.685   7.723  -0.360  1.00  0.00     0.001 C 
HETATM   20  C10 UNL     1     -18.482   8.199   0.464  1.00  0.00     0.010 C 
ENDBRANCH  14  16
ENDBRANCH   6  13
TORSDOF 3
ENDMDL
MODEL 4
REMARK VINA RESULT: -5.875090790      1.378      1.744
REMARK  3 active torsions:
REMARK  status: ('A' for Active; 'I' for Inactive)
REMARK    1  A    between atoms: C2_3  and  N2_4 
REMARK    2  A    between atoms: N3_10  and  N4_11 
REMARK    3  A    between atoms: C5_13  and  C6_14 
ROOT
HETATM    1  N1  UNL     1     -19.345   7.982   0.797  1.00  0.00    -0.194 NA
HETATM    2  C1  UNL     1     -18.944   9.071   0.991  1.00  0.00     0.103 C 
HETATM    3  C2  UNL     1     -18.467  10.420   1.218  1.00  0.00     0.231 C 
HETATM    4  C3  UNL     1     -17.334  10.428   2.181  1.00  0.00     0.045 C 
HETATM    5  C4  UNL     1     -16.086  10.294   1.716  1.00  0.00     0.109 C 
HETATM    6  N3  UNL     1     -15.802  10.144   0.344  1.00  0.00    -0.304 N 
HETATM    7  C11 UNL     1     -16.880  10.093  -0.611  1.00  0.00     0.152 C 
HETATM    8  C12 UNL     1     -18.005  10.977  -0.126  1.00  0.00     0.080 C 
ENDROOT
BRANCH   3   9
HETATM    9  N2  UNL     1     -19.541  11.274   1.690  1.00  0.00    -0.054 N 
ATOM     10  H23 UNL     1     -19.911  10.955   2.585  1.00  0.00     0.276 HD
ATOM     11  H22 UNL     1     -19.197  12.188   1.982  1.00  0.00     0.276 HD
ATOM     12  H21 UNL     1     -20.275  11.355   0.987  1.00  0.00     0.276 HD
ENDBRANCH   3   9
BRANCH   6  13
HETATM   13  N4  UNL     1     -14.487  10.045  -0.100  1.00  0.00    -0.314 N 
HETATM   14  C5  UNL     1     -13.461  10.416   0.567  1.00  0.00     0.085 C 
ATOM     15  H4  UNL     1     -14.330   9.647  -1.027  1.00  0.00     0.185 HD
BRANCH  14  16
HETATM   16  C6  UNL     1     -12.123  10.259  -0.015  1.00  0.00     0.025 C 
HETATM   17  C7  UNL     1     -11.642  11.576  -0.616  1.00  0.00     0.010 C 
HETATM   18  C8  UNL     1     -10.619  11.168  -1.634  1.00  0.00     0.001 C 
HETATM   19  C9  UNL     1     -10.693   9.669  -1.778  1.00  0.00     0.001 C 
HETATM   20  C10 UNL     1     -12.081   9.349  -1.210  1.00  0.00     0.010 C 
ENDBRANCH  14  16
ENDBRANCH   6  13
TORSDOF 3
ENDMDL
MODEL 5
REMARK VINA RESULT: -5.823802695      6.078      8.551
REMARK  3 active torsions:
REMARK  status: ('A' for Active; 'I' for Inactive)
REMARK    1  A    between atoms: C2_3  and  N2_4 
REMARK    2  A    between atoms: N3_10  and  N4_11 
REMARK    3  A    between atoms: C5_13  and  C6_14 
ROOT
HETATM    1  N1  UNL     1     -11.687  16.820   6.901  1.00  0.00    -0.194 NA
HETATM    2  C1  UNL     1     -12.269  17.000   5.894  1.00  0.00     0.103 C 
HETATM    3  C2  UNL     1     -13.004  17.223   4.666  1.00  0.00     0.231 C 
HETATM    4  C3  UNL     1     -12.080  17.517   3.538  1.00  0.00     0.045 C 
HETATM    5  C4  UNL     1     -11.597  16.500   2.814  1.00  0.00     0.109 C 
HETATM    6  N3  UNL     1     -11.930  15.156   3.078  1.00  0.00    -0.304 N 
HETATM    7  C11 UNL     1     -12.792  14.836   4.187  1.00  0.00     0.152 C 
HETATM    8  C12 UNL     1     -13.794  15.952   4.366  1.00  0.00     0.080 C 
ENDROOT
BRANCH   3   9
HETATM    9  N2  UNL     1     -13.965  18.298   4.828  1.00  0.00    -0.054 N 
ATOM     10  H23 UNL     1     -14.190  18.458   5.809  1.00  0.00     0.276 HD
ATOM     11  H22 UNL     1     -13.555  19.207   4.614  1.00  0.00     0.276 HD
ATOM     12  H21 UNL     1     -14.802  18.123   4.273  1.00  0.00     0.276 HD
ENDBRANCH   3   9
BRANCH   6  13
HETATM   13  N4  UNL     1     -11.435  14.133   2.277  1.00  0.00    -0.314 N 
HETATM   14  C5  UNL     1     -12.154  13.266   1.672  1.00  0.00     0.085 C 
ATOM     15  H4  UNL     1     -10.423  14.069   2.163  1.00  0.00     0.185 HD
BRANCH  14  16
HETATM   16  C6  UNL     1     -11.510  12.233   0.854  1.00  0.00     0.025 C 
HETATM   17  C7  UNL     1     -11.175  12.779  -0.532  1.00  0.00     0.010 C 
HETATM   18  C8  UNL     1     -11.092  11.558  -1.401  1.00  0.00     0.001 C 
HETATM   19  C9  UNL     1     -11.599  10.390  -0.595  1.00  0.00     0.001 C 
HETATM   20  C10 UNL     1     -12.407  11.076   0.513  1.00  0.00     0.010 C 
ENDBRANCH  14  16
ENDBRANCH   6  13
TORSDOF 3
ENDMDL
