MODEL 1
REMARK VINA RESULT: -5.622023388      0.000      0.000
REMARK  2 active torsions:
REMARK  status: ('A' for Active; 'I' for Inactive)
REMARK    1  A    between atoms: O1_2  and  C2_3 
REMARK    2  A    between atoms: N1_11  and  N2_13 
ROOT
HETATM    1  C2  UNL     1     -12.859  12.643   1.728  1.00  0.00     0.191 C 
HETATM    2  C3  UNL     1     -13.859  12.077   2.747  1.00  0.00     0.206 C 
HETATM    3  O2  UNL     1     -15.081  12.171   2.082  1.00  0.00    -0.378 OA
HETATM    4  C4  UNL     1     -15.211  11.303   1.043  1.00  0.00     0.059 C 
HETATM    5  C5  UNL     1     -15.903  10.044   1.586  1.00  0.00     0.046 C 
HETATM    6  C6  UNL     1     -16.203  11.927   0.050  1.00  0.00     0.046 C 
HETATM    7  C7  UNL     1     -14.004  10.912   0.308  1.00  0.00     0.094 C 
HETATM    8  C8  UNL     1     -12.745  11.549   0.726  1.00  0.00     0.037 C 
HETATM    9  N1  UNL     1     -11.640  11.156   0.234  1.00  0.00    -0.306 N 
ATOM     10  H1  UNL     1     -10.773  11.602   0.530  1.00  0.00     0.186 HD
ENDROOT
BRANCH   1  11
HETATM   11  O1  UNL     1     -11.681  13.013   2.291  1.00  0.00    -0.383 OA
HETATM   12  C1  UNL     1     -11.885  14.174   3.031  1.00  0.00     0.202 C 
ENDBRANCH   1  11
BRANCH   9  13
HETATM   13  N2  UNL     1     -11.595  10.131  -0.697  1.00  0.00    -0.310 N 
HETATM   14  C9  UNL     1     -10.839  10.232  -1.726  1.00  0.00    -0.004 C 
HETATM   15  C10 UNL     1     -10.020  11.450  -1.903  1.00  0.00     0.064 C 
HETATM   16  C11 UNL     1     -10.820   9.111  -2.699  1.00  0.00     0.064 C 
ATOM     17  H2  UNL     1     -12.165   9.296  -0.563  1.00  0.00     0.186 HD
ENDBRANCH   9  13
TORSDOF 2
ENDMDL
MODEL 2
REMARK VINA RESULT: -5.595816151      2.259      4.664
REMARK  2 active torsions:
REMARK  status: ('A' for Active; 'I' for Inactive)
REMARK    1  A    between atoms: O1_2  and  C2_3 
REMARK    2  A    between atoms: N1_11  and  N2_13 
ROOT
HETATM    1  C2  UNL     1     -13.450  11.176   2.659  1.00  0.00     0.191 C 
HETATM    2  C3  UNL     1     -12.788  12.508   2.279  1.00  0.00     0.206 C 
HETATM    3  O2  UNL     1     -11.715  12.117   1.479  1.00  0.00    -0.378 OA
HETATM    4  C4  UNL     1     -12.083  11.625   0.266  1.00  0.00     0.059 C 
HETATM    5  C5  UNL     1     -12.053  12.796  -0.728  1.00  0.00     0.046 C 
HETATM    6  C6  UNL     1     -10.975  10.664  -0.191  1.00  0.00     0.046 C 
HETATM    7  C7  UNL     1     -13.371  10.932   0.157  1.00  0.00     0.094 C 
HETATM    8  C8  UNL     1     -14.138  10.772   1.403  1.00  0.00     0.037 C 
HETATM    9  N1  UNL     1     -15.323  10.312   1.364  1.00  0.00    -0.306 N 
ATOM     10  H1  UNL     1     -15.847  10.205   2.232  1.00  0.00     0.186 HD
ENDROOT
BRANCH   1  11
HETATM   11  O1  UNL     1     -14.266  11.279   3.737  1.00  0.00    -0.383 OA
HETATM   12  C1  UNL     1     -13.933  10.279   4.647  1.00  0.00     0.202 C 
ENDBRANCH   1  11
BRANCH   9  13
HETATM   13  N2  UNL     1     -15.913   9.952   0.164  1.00  0.00    -0.310 N 
HETATM   14  C9  UNL     1     -17.186   9.839   0.084  1.00  0.00    -0.004 C 
HETATM   15  C10 UNL     1     -18.011  10.096   1.284  1.00  0.00     0.064 C 
HETATM   16  C11 UNL     1     -17.778   9.452  -1.222  1.00  0.00     0.064 C 
ATOM     17  H2  UNL     1     -15.333   9.777  -0.657  1.00  0.00     0.186 HD
ENDBRANCH   9  13
TORSDOF 2
ENDMDL
MODEL 3
REMARK VINA RESULT: -5.324347829      2.029      4.495
REMARK  2 active torsions:
REMARK  status: ('A' for Active; 'I' for Inactive)
REMARK    1  A    between atoms: O1_2  and  C2_3 
REMARK    2  A    between atoms: N1_11  and  N2_13 
ROOT
HETATM    1  C2  UNL     1     -12.808  11.971   2.300  1.00  0.00     0.191 C 
HETATM    2  C3  UNL     1     -11.768  12.895   1.649  1.00  0.00     0.206 C 
HETATM    3  O2  UNL     1     -10.970  12.016   0.919  1.00  0.00    -0.378 OA
HETATM    4  C4  UNL     1     -11.591  11.477  -0.164  1.00  0.00     0.059 C 
HETATM    5  C5  UNL     1     -11.254  12.365  -1.370  1.00  0.00     0.046 C 
HETATM    6  C6  UNL     1     -10.922  10.123  -0.445  1.00  0.00     0.046 C 
HETATM    7  C7  UNL     1     -13.042  11.273  -0.104  1.00  0.00     0.094 C 
HETATM    8  C8  UNL     1     -13.702  11.618   1.165  1.00  0.00     0.037 C 
HETATM    9  N1  UNL     1     -14.971  11.604   1.245  1.00  0.00    -0.306 N 
ATOM     10  H1  UNL     1     -15.420  11.845   2.128  1.00  0.00     0.186 HD
ENDROOT
BRANCH   1  11
HETATM   11  O1  UNL     1     -13.439  12.545   3.355  1.00  0.00    -0.383 OA
HETATM   12  C1  UNL     1     -13.250  11.745   4.478  1.00  0.00     0.202 C 
ENDBRANCH   1  11
BRANCH   9  13
HETATM   13  N2  UNL     1     -15.754  11.267   0.153  1.00  0.00    -0.310 N 
HETATM   14  C9  UNL     1     -16.656  10.365   0.265  1.00  0.00    -0.004 C 
HETATM   15  C10 UNL     1     -16.848   9.693   1.568  1.00  0.00     0.064 C 
HETATM   16  C11 UNL     1     -17.473  10.033  -0.930  1.00  0.00     0.064 C 
ATOM     17  H2  UNL     1     -15.612  11.737  -0.741  1.00  0.00     0.186 HD
ENDBRANCH   9  13
TORSDOF 2
ENDMDL
MODEL 4
REMARK VINA RESULT: -5.208300236      1.889      2.459
REMARK  2 active torsions:
REMARK  status: ('A' for Active; 'I' for Inactive)
REMARK    1  A    between atoms: O1_2  and  C2_3 
REMARK    2  A    between atoms: N1_11  and  N2_13 
ROOT
HETATM    1  C2  UNL     1     -12.984  13.685   3.530  1.00  0.00     0.191 C 
HETATM    2  C3  UNL     1     -13.262  12.901   4.820  1.00  0.00     0.206 C 
HETATM    3  O2  UNL     1     -14.474  12.265   4.554  1.00  0.00    -0.378 OA
HETATM    4  C4  UNL     1     -14.384  11.271   3.629  1.00  0.00     0.059 C 
HETATM    5  C5  UNL     1     -14.167   9.957   4.394  1.00  0.00     0.046 C 
HETATM    6  C6  UNL     1     -15.763  11.142   2.964  1.00  0.00     0.046 C 
HETATM    7  C7  UNL     1     -13.371  11.391   2.576  1.00  0.00     0.094 C 
HETATM    8  C8  UNL     1     -12.568  12.624   2.573  1.00  0.00     0.037 C 
HETATM    9  N1  UNL     1     -11.578  12.736   1.783  1.00  0.00    -0.306 N 
ATOM     10  H1  UNL     1     -11.027  13.594   1.789  1.00  0.00     0.186 HD
ENDROOT
BRANCH   1  11
HETATM   11  O1  UNL     1     -12.074  14.676   3.699  1.00  0.00    -0.383 OA
HETATM   12  C1  UNL     1     -12.734  15.817   4.148  1.00  0.00     0.202 C 
ENDBRANCH   1  11
BRANCH   9  13
HETATM   13  N2  UNL     1     -11.237  11.713   0.913  1.00  0.00    -0.310 N 
HETATM   14  C9  UNL     1     -11.289  11.903  -0.352  1.00  0.00    -0.004 C 
HETATM   15  C10 UNL     1     -11.716  13.222  -0.867  1.00  0.00     0.064 C 
HETATM   16  C11 UNL     1     -10.915  10.781  -1.249  1.00  0.00     0.064 C 
ATOM     17  H2  UNL     1     -10.944  10.808   1.282  1.00  0.00     0.186 HD
ENDBRANCH   9  13
TORSDOF 2
ENDMDL
MODEL 5
REMARK VINA RESULT: -5.199022009      1.252      1.470
REMARK  2 active torsions:
REMARK  status: ('A' for Active; 'I' for Inactive)
REMARK    1  A    between atoms: O1_2  and  C2_3 
REMARK    2  A    between atoms: N1_11  and  N2_13 
ROOT
HETATM    1  C2  UNL     1     -12.738  13.356   2.191  1.00  0.00     0.191 C 
HETATM    2  C3  UNL     1     -12.931  12.851   3.629  1.00  0.00     0.206 C 
HETATM    3  O2  UNL     1     -14.248  12.393   3.633  1.00  0.00    -0.378 OA
HETATM    4  C4  UNL     1     -14.441  11.260   2.905  1.00  0.00     0.059 C 
HETATM    5  C5  UNL     1     -14.304  10.071   3.867  1.00  0.00     0.046 C 
HETATM    6  C6  UNL     1     -15.907  11.257   2.447  1.00  0.00     0.046 C 
HETATM    7  C7  UNL     1     -13.589  11.034   1.732  1.00  0.00     0.094 C 
HETATM    8  C8  UNL     1     -12.626  12.098   1.405  1.00  0.00     0.037 C 
HETATM    9  N1  UNL     1     -11.759  11.911   0.493  1.00  0.00    -0.306 N 
ATOM     10  H1  UNL     1     -11.095  12.653   0.274  1.00  0.00     0.186 HD
ENDROOT
BRANCH   1  11
HETATM   11  O1  UNL     1     -11.680  14.194   2.063  1.00  0.00    -0.383 OA
HETATM   12  C1  UNL     1     -11.900  15.316   2.857  1.00  0.00     0.202 C 
ENDBRANCH   1  11
BRANCH   9  13
HETATM   13  N2  UNL     1     -11.702  10.717  -0.207  1.00  0.00    -0.310 N 
HETATM   14  C9  UNL     1     -10.962  10.619  -1.248  1.00  0.00    -0.004 C 
HETATM   15  C10 UNL     1     -10.175  11.791  -1.688  1.00  0.00     0.064 C 
HETATM   16  C11 UNL     1     -10.929   9.321  -1.969  1.00  0.00     0.064 C 
ATOM     17  H2  UNL     1     -12.250   9.916   0.107  1.00  0.00     0.186 HD
ENDBRANCH   9  13
TORSDOF 2
ENDMDL
