MODEL 1
REMARK VINA RESULT: -6.544890088      0.000      0.000
REMARK  3 active torsions:
REMARK  status: ('A' for Active; 'I' for Inactive)
REMARK    1  A    between atoms: C2_2  and  C3_3 
REMARK    2  A    between atoms: C3_3  and  N1_4 
REMARK    3  A    between atoms: N2_14  and  O2_16 
ROOT
HETATM    1  N1  UNL     1     -11.863  10.003  -1.387  1.00  0.00     0.096 N 
HETATM    2  C4  UNL     1     -12.600   9.491  -0.286  1.00  0.00     0.276 C 
HETATM    3  C5  UNL     1     -13.925  10.239  -0.105  1.00  0.00     0.067 C 
HETATM    4  C6  UNL     1     -13.779  11.188   1.060  1.00  0.00     0.056 C 
HETATM    5  C7  UNL     1     -14.768  12.297   0.961  1.00  0.00     0.045 C 
HETATM    6  C8  UNL     1     -13.973  10.377   2.332  1.00  0.00     0.045 C 
HETATM    7  O1  UNL     1     -12.447  11.643   1.023  1.00  0.00    -0.374 OA
HETATM    8  C9  UNL     1     -12.160  12.156  -0.234  1.00  0.00     0.146 C 
HETATM    9  C10 UNL     1     -11.413  13.462  -0.012  1.00  0.00     0.041 C 
HETATM   10  C11 UNL     1     -11.221  11.236  -0.964  1.00  0.00     0.304 C 
ENDROOT
BRANCH   1  11
HETATM   11  C3  UNL     1     -10.909   9.137  -1.975  1.00  0.00     0.326 C 
BRANCH  11  12
HETATM   12  C2  UNL     1     -11.150   8.646  -3.335  1.00  0.00     0.034 C 
HETATM   13  C1  UNL     1     -12.305   7.835  -3.704  1.00  0.00     0.067 C 
HETATM   14  N2  UNL     1     -10.268   8.944  -4.226  1.00  0.00    -0.276 N 
ATOM     15  H2  UNL     1      -9.449   9.508  -4.000  1.00  0.00     0.193 HD
BRANCH  14  16
HETATM   16  O2  UNL     1     -10.486   8.463  -5.506  1.00  0.00    -0.290 OA
ATOM     17  H2  UNL     1     -10.140   8.981  -6.223  1.00  0.00     0.244 HD
ENDBRANCH  14  16
ENDBRANCH  11  12
ENDBRANCH   1  11
TORSDOF 3
ENDMDL
MODEL 2
REMARK VINA RESULT: -6.314457911      4.223      5.581
REMARK  3 active torsions:
REMARK  status: ('A' for Active; 'I' for Inactive)
REMARK    1  A    between atoms: C2_2  and  C3_3 
REMARK    2  A    between atoms: C3_3  and  N1_4 
REMARK    3  A    between atoms: N2_14  and  O2_16 
ROOT
HETATM    1  N1  UNL     1     -16.869  10.515   0.191  1.00  0.00     0.096 N 
HETATM    2  C4  UNL     1     -15.527  10.478  -0.271  1.00  0.00     0.276 C 
HETATM    3  C5  UNL     1     -14.533  10.526   0.894  1.00  0.00     0.067 C 
HETATM    4  C6  UNL     1     -13.956  11.919   0.970  1.00  0.00     0.056 C 
HETATM    5  C7  UNL     1     -13.438  12.199   2.338  1.00  0.00     0.045 C 
HETATM    6  C8  UNL     1     -12.855  12.010  -0.075  1.00  0.00     0.045 C 
HETATM    7  O1  UNL     1     -14.997  12.790   0.594  1.00  0.00    -0.374 OA
HETATM    8  C9  UNL     1     -16.121  12.541   1.369  1.00  0.00     0.146 C 
HETATM    9  C10 UNL     1     -16.662  13.896   1.800  1.00  0.00     0.041 C 
HETATM   10  C11 UNL     1     -17.189  11.890   0.535  1.00  0.00     0.304 C 
ENDROOT
BRANCH   1  11
HETATM   11  C3  UNL     1     -17.858   9.990  -0.677  1.00  0.00     0.326 C 
BRANCH  11  12
HETATM   12  C2  UNL     1     -18.224   8.576  -0.550  1.00  0.00     0.034 C 
HETATM   13  C1  UNL     1     -18.873   8.017   0.630  1.00  0.00     0.067 C 
HETATM   14  N2  UNL     1     -17.926   7.807  -1.540  1.00  0.00    -0.276 N 
ATOM     15  H2  UNL     1     -17.471   8.167  -2.379  1.00  0.00     0.193 HD
BRANCH  14  16
HETATM   16  O2  UNL     1     -18.253   6.468  -1.411  1.00  0.00    -0.290 OA
ATOM     17  H2  UNL     1     -17.534   5.861  -1.283  1.00  0.00     0.244 HD
ENDBRANCH  14  16
ENDBRANCH  11  12
ENDBRANCH   1  11
TORSDOF 3
ENDMDL
MODEL 3
REMARK VINA RESULT: -6.036732510      3.158      4.952
REMARK  3 active torsions:
REMARK  status: ('A' for Active; 'I' for Inactive)
REMARK    1  A    between atoms: C2_2  and  C3_3 
REMARK    2  A    between atoms: C3_3  and  N1_4 
REMARK    3  A    between atoms: N2_14  and  O2_16 
ROOT
HETATM    1  N1  UNL     1     -14.961  10.835   0.450  1.00  0.00     0.096 N 
HETATM    2  C4  UNL     1     -14.518  11.821   1.371  1.00  0.00     0.276 C 
HETATM    3  C5  UNL     1     -13.715  12.921   0.669  1.00  0.00     0.067 C 
HETATM    4  C6  UNL     1     -12.250  12.695   0.952  1.00  0.00     0.056 C 
HETATM    5  C7  UNL     1     -11.408  13.345  -0.090  1.00  0.00     0.045 C 
HETATM    6  C8  UNL     1     -11.964  13.261   2.335  1.00  0.00     0.045 C 
HETATM    7  O1  UNL     1     -12.076  11.299   1.000  1.00  0.00    -0.374 OA
HETATM    8  C9  UNL     1     -12.580  10.723  -0.158  1.00  0.00     0.146 C 
HETATM    9  C10 UNL     1     -11.550   9.703  -0.620  1.00  0.00     0.041 C 
HETATM   10  C11 UNL     1     -13.840   9.962   0.151  1.00  0.00     0.304 C 
ENDROOT
BRANCH   1  11
HETATM   11  C3  UNL     1     -16.087  10.065   0.831  1.00  0.00     0.326 C 
BRANCH  11  12
HETATM   12  C2  UNL     1     -17.231   9.992  -0.083  1.00  0.00     0.034 C 
HETATM   13  C1  UNL     1     -18.411  10.841   0.036  1.00  0.00     0.067 C 
HETATM   14  N2  UNL     1     -17.172   9.108  -1.019  1.00  0.00    -0.276 N 
ATOM     15  H2  UNL     1     -16.362   8.498  -1.128  1.00  0.00     0.193 HD
BRANCH  14  16
HETATM   16  O2  UNL     1     -18.261   9.025  -1.869  1.00  0.00    -0.290 OA
ATOM     17  H2  UNL     1     -18.639   8.163  -1.998  1.00  0.00     0.244 HD
ENDBRANCH  14  16
ENDBRANCH  11  12
ENDBRANCH   1  11
TORSDOF 3
ENDMDL
MODEL 4
REMARK VINA RESULT: -6.006697943      1.732      2.090
REMARK  3 active torsions:
REMARK  status: ('A' for Active; 'I' for Inactive)
REMARK    1  A    between atoms: C2_2  and  C3_3 
REMARK    2  A    between atoms: C3_3  and  N1_4 
REMARK    3  A    between atoms: N2_14  and  O2_16 
ROOT
HETATM    1  N1  UNL     1     -12.345  10.889  -0.191  1.00  0.00     0.096 N 
HETATM    2  C4  UNL     1     -13.513  10.322   0.382  1.00  0.00     0.276 C 
HETATM    3  C5  UNL     1     -14.723  11.249   0.219  1.00  0.00     0.067 C 
HETATM    4  C6  UNL     1     -14.988  11.922   1.543  1.00  0.00     0.056 C 
HETATM    5  C7  UNL     1     -15.746  13.189   1.346  1.00  0.00     0.045 C 
HETATM    6  C8  UNL     1     -15.762  10.936   2.405  1.00  0.00     0.045 C 
HETATM    7  O1  UNL     1     -13.726  12.129   2.132  1.00  0.00    -0.374 OA
HETATM    8  C9  UNL     1     -12.900  12.807   1.247  1.00  0.00     0.146 C 
HETATM    9  C10 UNL     1     -12.200  13.893   2.049  1.00  0.00     0.041 C 
HETATM   10  C11 UNL     1     -11.829  11.886   0.732  1.00  0.00     0.304 C 
ENDROOT
BRANCH   1  11
HETATM   11  C3  UNL     1     -11.314   9.991  -0.560  1.00  0.00     0.326 C 
BRANCH  11  12
HETATM   12  C2  UNL     1     -10.579  10.238  -1.804  1.00  0.00     0.034 C 
HETATM   13  C1  UNL     1      -9.879  11.485  -2.089  1.00  0.00     0.067 C 
HETATM   14  N2  UNL     1     -10.587   9.295  -2.682  1.00  0.00    -0.276 N 
ATOM     15  H2  UNL     1     -11.069   8.412  -2.514  1.00  0.00     0.193 HD
BRANCH  14  16
HETATM   16  O2  UNL     1      -9.910   9.537  -3.865  1.00  0.00    -0.290 OA
ATOM     17  H2  UNL     1     -10.364  10.051  -4.522  1.00  0.00     0.244 HD
ENDBRANCH  14  16
ENDBRANCH  11  12
ENDBRANCH   1  11
TORSDOF 3
ENDMDL
MODEL 5
REMARK VINA RESULT: -5.992579722      4.534      5.897
REMARK  3 active torsions:
REMARK  status: ('A' for Active; 'I' for Inactive)
REMARK    1  A    between atoms: C2_2  and  C3_3 
REMARK    2  A    between atoms: C3_3  and  N1_4 
REMARK    3  A    between atoms: N2_14  and  O2_16 
ROOT
HETATM    1  N1  UNL     1     -16.850  10.062   0.503  1.00  0.00     0.096 N 
HETATM    2  C4  UNL     1     -15.842  10.878  -0.077  1.00  0.00     0.276 C 
HETATM    3  C5  UNL     1     -14.498  10.698   0.637  1.00  0.00     0.067 C 
HETATM    4  C6  UNL     1     -14.270  11.893   1.529  1.00  0.00     0.056 C 
HETATM    5  C7  UNL     1     -13.316  11.558   2.623  1.00  0.00     0.045 C 
HETATM    6  C8  UNL     1     -13.742  13.019   0.652  1.00  0.00     0.045 C 
HETATM    7  O1  UNL     1     -15.540  12.265   2.010  1.00  0.00    -0.374 OA
HETATM    8  C9  UNL     1     -16.162  11.168   2.590  1.00  0.00     0.146 C 
HETATM    9  C10 UNL     1     -16.770  11.653   3.898  1.00  0.00     0.041 C 
HETATM   10  C11 UNL     1     -17.302  10.705   1.725  1.00  0.00     0.304 C 
ENDROOT
BRANCH   1  11
HETATM   11  C3  UNL     1     -17.960   9.741  -0.315  1.00  0.00     0.326 C 
BRANCH  11  12
HETATM   12  C2  UNL     1     -18.417   8.349  -0.366  1.00  0.00     0.034 C 
HETATM   13  C1  UNL     1     -19.336   7.769   0.607  1.00  0.00     0.067 C 
HETATM   14  N2  UNL     1     -17.948   7.617  -1.317  1.00  0.00    -0.276 N 
ATOM     15  H2  UNL     1     -17.302   7.992  -2.012  1.00  0.00     0.193 HD
BRANCH  14  16
HETATM   16  O2  UNL     1     -18.363   6.297  -1.352  1.00  0.00    -0.290 OA
ATOM     17  H2  UNL     1     -19.285   6.132  -1.193  1.00  0.00     0.244 HD
ENDBRANCH  14  16
ENDBRANCH  11  12
ENDBRANCH   1  11
TORSDOF 3
ENDMDL
