MODEL 1
REMARK VINA RESULT: -9.136543191      0.000      0.000
REMARK  13 active torsions:
REMARK  status: ('A' for Active; 'I' for Inactive)
REMARK    1  A    between atoms: C4_6  and  C5_7 
REMARK    2  A    between atoms: C5_7  and  O3_8 
REMARK    3  A    between atoms: C5_7  and  C6_10 
REMARK    4  A    between atoms: C6_10  and  C7_11 
REMARK    5  A    between atoms: C7_11  and  O4_12 
REMARK    6  A    between atoms: C7_11  and  C8_14 
REMARK    7  A    between atoms: C8_14  and  O5_15 
REMARK    8  A    between atoms: C8_14  and  N1_17 
REMARK    9  A    between atoms: N1_17  and  C9_19 
REMARK   10  A    between atoms: C18_41  and  N7_42 
REMARK   11  A    between atoms: N7_42  and  C19_45 
REMARK   12  A    between atoms: C19_45  and  N8_46 
REMARK   13  A    between atoms: C19_45  and  O10_50 
ROOT
HETATM    1  C7  UNL     1     -15.609  21.785 -14.142  1.00  0.00     0.168 C 
ENDROOT
BRANCH   1   2
HETATM    2  C6  UNL     1     -16.689  21.151 -14.941  1.00  0.00     0.071 C 
BRANCH   2   3
HETATM    3  C5  UNL     1     -16.710  21.559 -16.370  1.00  0.00     0.159 C 
BRANCH   3   4
HETATM    4  C4  UNL     1     -17.590  22.676 -16.769  1.00  0.00     0.252 C 
HETATM    5  O2  UNL     1     -18.503  23.146 -15.831  1.00  0.00    -0.303 OA
HETATM    6  C3  UNL     1     -19.492  24.105 -16.067  1.00  0.00     0.267 C 
HETATM    7  C2  UNL     1     -19.736  25.034 -17.188  1.00  0.00     0.132 C 
HETATM    8  O1  UNL     1     -20.328  24.182 -15.134  1.00  0.00    -0.265 OA
HETATM    9  C1  UNL     1     -18.705  26.163 -17.160  1.00  0.00     0.024 C 
HETATM   10  C18 UNL     1     -19.772  24.409 -18.538  1.00  0.00     0.305 C 
HETATM   11  N6  UNL     1     -19.433  23.025 -18.589  1.00  0.00    -0.330 N 
HETATM   12  C17 UNL     1     -18.388  22.299 -17.993  1.00  0.00     0.251 C 
ATOM     13  H6  UNL     1     -20.061  22.462 -19.162  1.00  0.00     0.164 HD
HETATM   14  O9  UNL     1     -18.093  21.212 -18.551  1.00  0.00    -0.270 OA
BRANCH  10  15
HETATM   15  N7  UNL     1     -18.941  25.207 -19.436  1.00  0.00    -0.002 N 
ATOM     16  H72 UNL     1     -18.530  26.009 -18.957  1.00  0.00     0.284 HD
ATOM     17  H71 UNL     1     -18.080  24.720 -19.687  1.00  0.00     0.284 HD
BRANCH  15  18
HETATM   18  C19 UNL     1     -19.694  25.611 -20.612  1.00  0.00     0.521 C 
BRANCH  18  19
HETATM   19  N8  UNL     1     -19.099  25.202 -21.845  1.00  0.00    -0.027 N 
ATOM     20  H83 UNL     1     -18.177  25.622 -21.955  1.00  0.00     0.279 HD
ATOM     21  H82 UNL     1     -18.835  24.218 -21.808  1.00  0.00     0.279 HD
ATOM     22  H81 UNL     1     -19.680  25.389 -22.662  1.00  0.00     0.279 HD
ENDBRANCH  18  19
BRANCH  18  23
HETATM   23  O10 UNL     1     -20.957  25.005 -20.509  1.00  0.00    -0.349 OA
ATOM     24  H10 UNL     1     -21.571  25.578 -20.952  1.00  0.00     0.213 HD
ENDBRANCH  18  23
ENDBRANCH  15  18
ENDBRANCH  10  15
ENDBRANCH   3   4
BRANCH   3  25
HETATM   25  O3  UNL     1     -15.379  21.941 -16.725  1.00  0.00    -0.392 OA
ATOM     26  H3  UNL     1     -14.899  22.044 -15.911  1.00  0.00     0.210 HD
ENDBRANCH   3  25
ENDBRANCH   2   3
ENDBRANCH   1   2
BRANCH   1  27
HETATM   27  O4  UNL     1     -16.084  22.809 -13.320  1.00  0.00    -0.391 OA
ATOM     28  H4  UNL     1     -15.862  22.673 -12.406  1.00  0.00     0.210 HD
ENDBRANCH   1  27
BRANCH   1  29
HETATM   29  C8  UNL     1     -14.994  20.760 -13.152  1.00  0.00     0.243 C 
BRANCH  29  30
HETATM   30  O5  UNL     1     -13.636  21.096 -13.103  1.00  0.00    -0.374 OA
ATOM     31  H5  UNL     1     -13.442  21.155 -12.175  1.00  0.00     0.212 HD
ENDBRANCH  29  30
BRANCH  29  32
HETATM   32  N1  UNL     1     -15.671  20.948 -11.923  1.00  0.00    -0.384 N 
ATOM     33  H1  UNL     1     -15.524  21.787 -11.362  1.00  0.00     0.156 HD
BRANCH  32  34
HETATM   34  C9  UNL     1     -16.568  19.918 -11.497  1.00  0.00     0.150 C 
HETATM   35  C10 UNL     1     -16.207  18.529 -11.919  1.00  0.00     0.052 C 
HETATM   36  C11 UNL     1     -16.776  17.583 -10.852  1.00  0.00     0.125 C 
HETATM   37  N2  UNL     1     -18.063  17.068 -11.231  1.00  0.00    -0.360 N 
HETATM   38  C12 UNL     1     -19.014  17.354 -12.235  1.00  0.00     0.235 C 
ATOM     39  H2  UNL     1     -18.365  16.306 -10.623  1.00  0.00     0.162 HD
HETATM   40  O6  UNL     1     -19.874  16.422 -12.415  1.00  0.00    -0.272 OA
HETATM   41  C13 UNL     1     -19.274  18.498 -13.158  1.00  0.00     0.236 C 
HETATM   42  N3  UNL     1     -19.020  19.744 -12.441  1.00  0.00    -0.287 N 
HETATM   43  C14 UNL     1     -17.962  20.264 -11.807  1.00  0.00     0.124 A 
HETATM   44  C16 UNL     1     -20.187  20.420 -12.510  1.00  0.00     0.319 A 
HETATM   45  N4  UNL     1     -18.111  21.492 -11.239  1.00  0.00    -0.284 N 
HETATM   46  N5  UNL     1     -19.240  22.164 -11.297  1.00  0.00    -0.260 N 
ATOM     47  H4  UNL     1     -17.317  21.907 -10.751  1.00  0.00     0.188 HD
HETATM   48  C15 UNL     1     -20.328  21.659 -11.935  1.00  0.00     0.328 A 
ATOM     49  H5  UNL     1     -19.301  23.081 -10.854  1.00  0.00     0.190 HD
HETATM   50  O7  UNL     1     -21.397  22.333 -11.970  1.00  0.00    -0.261 OA
HETATM   51  O8  UNL     1     -21.171  19.916 -13.110  1.00  0.00    -0.262 OA
ENDBRANCH  32  34
ENDBRANCH  29  32
ENDBRANCH   1  29
TORSDOF 13
ENDMDL
MODEL 2
REMARK VINA RESULT: -8.927641483      1.389      1.962
REMARK  13 active torsions:
REMARK  status: ('A' for Active; 'I' for Inactive)
REMARK    1  A    between atoms: C4_6  and  C5_7 
REMARK    2  A    between atoms: C5_7  and  O3_8 
REMARK    3  A    between atoms: C5_7  and  C6_10 
REMARK    4  A    between atoms: C6_10  and  C7_11 
REMARK    5  A    between atoms: C7_11  and  O4_12 
REMARK    6  A    between atoms: C7_11  and  C8_14 
REMARK    7  A    between atoms: C8_14  and  O5_15 
REMARK    8  A    between atoms: C8_14  and  N1_17 
REMARK    9  A    between atoms: N1_17  and  C9_19 
REMARK   10  A    between atoms: C18_41  and  N7_42 
REMARK   11  A    between atoms: N7_42  and  C19_45 
REMARK   12  A    between atoms: C19_45  and  N8_46 
REMARK   13  A    between atoms: C19_45  and  O10_50 
ROOT
HETATM    1  C7  UNL     1     -15.140  21.636 -13.618  1.00  0.00     0.168 C 
ENDROOT
BRANCH   1   2
HETATM    2  C6  UNL     1     -15.766  21.078 -14.844  1.00  0.00     0.071 C 
BRANCH   2   3
HETATM    3  C5  UNL     1     -17.058  21.713 -15.211  1.00  0.00     0.159 C 
BRANCH   3   4
HETATM    4  C4  UNL     1     -17.064  22.719 -16.293  1.00  0.00     0.252 C 
HETATM    5  O2  UNL     1     -15.936  23.518 -16.440  1.00  0.00    -0.303 OA
HETATM    6  C3  UNL     1     -15.809  24.596 -17.320  1.00  0.00     0.267 C 
HETATM    7  C2  UNL     1     -16.635  25.064 -18.450  1.00  0.00     0.132 C 
HETATM    8  O1  UNL     1     -14.790  25.291 -17.094  1.00  0.00    -0.265 OA
HETATM    9  C1  UNL     1     -16.463  24.122 -19.643  1.00  0.00     0.024 C 
HETATM   10  C18 UNL     1     -18.081  25.251 -18.150  1.00  0.00     0.305 C 
HETATM   11  N6  UNL     1     -18.505  24.825 -16.858  1.00  0.00    -0.330 N 
HETATM   12  C17 UNL     1     -18.235  23.657 -16.125  1.00  0.00     0.251 C 
ATOM     13  H6  UNL     1     -19.114  25.488 -16.379  1.00  0.00     0.164 HD
HETATM   14  O9  UNL     1     -19.070  23.370 -15.231  1.00  0.00    -0.270 OA
BRANCH  10  15
HETATM   15  N7  UNL     1     -18.856  24.617 -19.214  1.00  0.00    -0.002 N 
ATOM     16  H72 UNL     1     -18.286  24.440 -20.042  1.00  0.00     0.284 HD
ATOM     17  H71 UNL     1     -19.095  23.652 -18.984  1.00  0.00     0.284 HD
BRANCH  15  18
HETATM   18  C19 UNL     1     -20.037  25.404 -19.531  1.00  0.00     0.521 C 
BRANCH  18  19
HETATM   19  N8  UNL     1     -20.638  25.063 -20.780  1.00  0.00    -0.027 N 
ATOM     20  H83 UNL     1     -21.251  24.255 -20.676  1.00  0.00     0.279 HD
ATOM     21  H82 UNL     1     -21.325  25.765 -21.053  1.00  0.00     0.279 HD
ATOM     22  H81 UNL     1     -19.964  24.908 -21.531  1.00  0.00     0.279 HD
ENDBRANCH  18  19
BRANCH  18  23
HETATM   23  O10 UNL     1     -20.970  25.158 -18.510  1.00  0.00    -0.349 OA
ATOM     24  H10 UNL     1     -21.317  24.288 -18.662  1.00  0.00     0.213 HD
ENDBRANCH  18  23
ENDBRANCH  15  18
ENDBRANCH  10  15
ENDBRANCH   3   4
BRANCH   3  25
HETATM   25  O3  UNL     1     -17.947  20.670 -15.618  1.00  0.00    -0.392 OA
ATOM     26  H3  UNL     1     -18.559  20.540 -14.903  1.00  0.00     0.210 HD
ENDBRANCH   3  25
ENDBRANCH   2   3
ENDBRANCH   1   2
BRANCH   1  27
HETATM   27  O4  UNL     1     -15.996  22.492 -12.923  1.00  0.00    -0.391 OA
ATOM     28  H4  UNL     1     -16.495  23.057 -13.503  1.00  0.00     0.210 HD
ENDBRANCH   1  27
BRANCH   1  29
HETATM   29  C8  UNL     1     -14.834  20.502 -12.602  1.00  0.00     0.243 C 
BRANCH  29  30
HETATM   30  O5  UNL     1     -13.488  20.690 -12.267  1.00  0.00    -0.374 OA
ATOM     31  H5  UNL     1     -13.250  19.899 -11.799  1.00  0.00     0.212 HD
ENDBRANCH  29  30
BRANCH  29  32
HETATM   32  N1  UNL     1     -15.722  20.699 -11.517  1.00  0.00    -0.384 N 
ATOM     33  H1  UNL     1     -15.689  21.549 -10.955  1.00  0.00     0.156 HD
BRANCH  32  34
HETATM   34  C9  UNL     1     -16.667  19.662 -11.239  1.00  0.00     0.150 C 
HETATM   35  C10 UNL     1     -16.310  18.304 -11.756  1.00  0.00     0.052 C 
HETATM   36  C11 UNL     1     -16.967  17.286 -10.812  1.00  0.00     0.125 C 
HETATM   37  N2  UNL     1     -18.238  16.841 -11.314  1.00  0.00    -0.360 N 
HETATM   38  C12 UNL     1     -19.115  17.237 -12.347  1.00  0.00     0.235 C 
ATOM     39  H2  UNL     1     -18.595  16.039 -10.795  1.00  0.00     0.162 HD
HETATM   40  O6  UNL     1     -19.982  16.348 -12.660  1.00  0.00    -0.272 OA
HETATM   41  C13 UNL     1     -19.291  18.462 -13.182  1.00  0.00     0.236 C 
HETATM   42  N3  UNL     1     -19.056  19.635 -12.345  1.00  0.00    -0.287 N 
HETATM   43  C14 UNL     1     -18.030  20.071 -11.604  1.00  0.00     0.124 A 
HETATM   44  C16 UNL     1     -20.201  20.346 -12.428  1.00  0.00     0.319 A 
HETATM   45  N4  UNL     1     -18.188  21.249 -10.942  1.00  0.00    -0.284 N 
HETATM   46  N5  UNL     1     -19.297  21.954 -11.011  1.00  0.00    -0.260 N 
ATOM     47  H4  UNL     1     -17.419  21.599 -10.371  1.00  0.00     0.188 HD
HETATM   48  C15 UNL     1     -20.352  21.536 -11.757  1.00  0.00     0.328 A 
ATOM     49  H5  UNL     1     -19.366  22.831 -10.495  1.00  0.00     0.190 HD
HETATM   50  O7  UNL     1     -21.401  22.239 -11.801  1.00  0.00    -0.261 OA
HETATM   51  O8  UNL     1     -21.155  19.922 -13.130  1.00  0.00    -0.262 OA
ENDBRANCH  32  34
ENDBRANCH  29  32
ENDBRANCH   1  29
TORSDOF 13
ENDMDL
MODEL 3
REMARK VINA RESULT: -8.853400759      2.398      8.579
REMARK  13 active torsions:
REMARK  status: ('A' for Active; 'I' for Inactive)
REMARK    1  A    between atoms: C4_6  and  C5_7 
REMARK    2  A    between atoms: C5_7  and  O3_8 
REMARK    3  A    between atoms: C5_7  and  C6_10 
REMARK    4  A    between atoms: C6_10  and  C7_11 
REMARK    5  A    between atoms: C7_11  and  O4_12 
REMARK    6  A    between atoms: C7_11  and  C8_14 
REMARK    7  A    between atoms: C8_14  and  O5_15 
REMARK    8  A    between atoms: C8_14  and  N1_17 
REMARK    9  A    between atoms: N1_17  and  C9_19 
REMARK   10  A    between atoms: C18_41  and  N7_42 
REMARK   11  A    between atoms: N7_42  and  C19_45 
REMARK   12  A    between atoms: C19_45  and  N8_46 
REMARK   13  A    between atoms: C19_45  and  O10_50 
ROOT
HETATM    1  C7  UNL     1     -15.046  22.988 -19.022  1.00  0.00     0.168 C 
ENDROOT
BRANCH   1   2
HETATM    2  C6  UNL     1     -15.412  23.832 -17.856  1.00  0.00     0.071 C 
BRANCH   2   3
HETATM    3  C5  UNL     1     -16.744  23.524 -17.276  1.00  0.00     0.159 C 
BRANCH   3   4
HETATM    4  C4  UNL     1     -16.800  22.850 -15.963  1.00  0.00     0.252 C 
HETATM    5  O2  UNL     1     -15.600  22.633 -15.296  1.00  0.00    -0.303 OA
HETATM    6  C3  UNL     1     -15.445  21.908 -14.112  1.00  0.00     0.267 C 
HETATM    7  C2  UNL     1     -16.412  21.383 -13.128  1.00  0.00     0.132 C 
HETATM    8  O1  UNL     1     -14.244  21.662 -13.845  1.00  0.00    -0.265 OA
HETATM    9  C1  UNL     1     -16.985  22.536 -12.299  1.00  0.00     0.024 C 
HETATM   10  C18 UNL     1     -17.518  20.563 -13.694  1.00  0.00     0.305 C 
HETATM   11  N6  UNL     1     -17.578  20.502 -15.116  1.00  0.00    -0.330 N 
HETATM   12  C17 UNL     1     -17.465  21.502 -16.098  1.00  0.00     0.251 C 
ATOM     13  H6  UNL     1     -17.730  19.565 -15.489  1.00  0.00     0.164 HD
HETATM   14  O9  UNL     1     -17.980  21.231 -17.212  1.00  0.00    -0.270 OA
BRANCH  10  15
HETATM   15  N7  UNL     1     -18.776  21.026 -13.114  1.00  0.00    -0.002 N 
ATOM     16  H72 UNL     1     -18.620  21.644 -12.317  1.00  0.00     0.284 HD
ATOM     17  H71 UNL     1     -19.255  21.686 -13.729  1.00  0.00     0.284 HD
BRANCH  15  18
HETATM   18  C19 UNL     1     -19.628  19.900 -12.765  1.00  0.00     0.521 C 
BRANCH  18  19
HETATM   19  N8  UNL     1     -20.986  20.263 -12.512  1.00  0.00    -0.027 N 
ATOM     20  H83 UNL     1     -21.032  21.097 -11.927  1.00  0.00     0.279 HD
ATOM     21  H82 UNL     1     -21.426  20.623 -13.359  1.00  0.00     0.279 HD
ATOM     22  H81 UNL     1     -21.543  19.510 -12.109  1.00  0.00     0.279 HD
ENDBRANCH  18  19
BRANCH  18  23
HETATM   23  O10 UNL     1     -19.602  19.021 -13.860  1.00  0.00    -0.349 OA
ATOM     24  H10 UNL     1     -20.153  19.405 -14.531  1.00  0.00     0.213 HD
ENDBRANCH  18  23
ENDBRANCH  15  18
ENDBRANCH  10  15
ENDBRANCH   3   4
BRANCH   3  25
HETATM   25  O3  UNL     1     -17.442  24.763 -17.129  1.00  0.00    -0.392 OA
ATOM     26  H3  UNL     1     -17.386  25.000 -16.210  1.00  0.00     0.210 HD
ENDBRANCH   3  25
ENDBRANCH   2   3
ENDBRANCH   1   2
BRANCH   1  27
HETATM   27  O4  UNL     1     -15.684  21.746 -19.004  1.00  0.00    -0.391 OA
ATOM     28  H4  UNL     1     -15.083  21.026 -19.155  1.00  0.00     0.210 HD
ENDBRANCH   1  27
BRANCH   1  29
HETATM   29  C8  UNL     1     -15.534  23.644 -20.342  1.00  0.00     0.243 C 
BRANCH  29  30
HETATM   30  O5  UNL     1     -14.357  23.979 -21.019  1.00  0.00    -0.374 OA
ATOM     31  H5  UNL     1     -14.126  24.836 -20.680  1.00  0.00     0.212 HD
ENDBRANCH  29  30
BRANCH  29  32
HETATM   32  N1  UNL     1     -16.310  22.662 -21.003  1.00  0.00    -0.384 N 
ATOM     33  H1  UNL     1     -16.080  21.671 -20.933  1.00  0.00     0.156 HD
BRANCH  32  34
HETATM   34  C9  UNL     1     -17.429  23.110 -21.774  1.00  0.00     0.150 C 
HETATM   35  C10 UNL     1     -17.098  23.933 -22.979  1.00  0.00     0.052 C 
HETATM   36  C11 UNL     1     -18.226  23.698 -23.995  1.00  0.00     0.125 C 
HETATM   37  N2  UNL     1     -19.233  24.721 -23.914  1.00  0.00    -0.360 N 
HETATM   38  C12 UNL     1     -19.544  25.769 -23.022  1.00  0.00     0.235 C 
ATOM     39  H2  UNL     1     -19.885  24.678 -24.698  1.00  0.00     0.162 HD
HETATM   40  O6  UNL     1     -20.329  26.653 -23.514  1.00  0.00    -0.272 OA
HETATM   41  C13 UNL     1     -19.180  26.112 -21.615  1.00  0.00     0.236 C 
HETATM   42  N3  UNL     1     -19.135  24.881 -20.832  1.00  0.00    -0.287 N 
HETATM   43  C14 UNL     1     -18.448  23.735 -20.919  1.00  0.00     0.124 A 
HETATM   44  C16 UNL     1     -20.028  25.078 -19.838  1.00  0.00     0.319 A 
HETATM   45  N4  UNL     1     -18.685  22.785 -19.974  1.00  0.00    -0.284 N 
HETATM   46  N5  UNL     1     -19.552  22.961 -19.000  1.00  0.00    -0.260 N 
ATOM     47  H4  UNL     1     -18.173  21.905 -20.022  1.00  0.00     0.188 HD
HETATM   48  C15 UNL     1     -20.260  24.114 -18.887  1.00  0.00     0.328 A 
ATOM     49  H5  UNL     1     -19.694  22.218 -18.316  1.00  0.00     0.190 HD
HETATM   50  O7  UNL     1     -21.084  24.248 -17.937  1.00  0.00    -0.261 OA
HETATM   51  O8  UNL     1     -20.664  26.161 -19.770  1.00  0.00    -0.262 OA
ENDBRANCH  32  34
ENDBRANCH  29  32
ENDBRANCH   1  29
TORSDOF 13
ENDMDL
MODEL 4
REMARK VINA RESULT: -8.805188795      4.336      8.915
REMARK  13 active torsions:
REMARK  status: ('A' for Active; 'I' for Inactive)
REMARK    1  A    between atoms: C4_6  and  C5_7 
REMARK    2  A    between atoms: C5_7  and  O3_8 
REMARK    3  A    between atoms: C5_7  and  C6_10 
REMARK    4  A    between atoms: C6_10  and  C7_11 
REMARK    5  A    between atoms: C7_11  and  O4_12 
REMARK    6  A    between atoms: C7_11  and  C8_14 
REMARK    7  A    between atoms: C8_14  and  O5_15 
REMARK    8  A    between atoms: C8_14  and  N1_17 
REMARK    9  A    between atoms: N1_17  and  C9_19 
REMARK   10  A    between atoms: C18_41  and  N7_42 
REMARK   11  A    between atoms: N7_42  and  C19_45 
REMARK   12  A    between atoms: C19_45  and  N8_46 
REMARK   13  A    between atoms: C19_45  and  O10_50 
ROOT
HETATM    1  C7  UNL     1     -13.772  21.860 -13.636  1.00  0.00     0.168 C 
ENDROOT
BRANCH   1   2
HETATM    2  C6  UNL     1     -15.026  21.067 -13.577  1.00  0.00     0.071 C 
BRANCH   2   3
HETATM    3  C5  UNL     1     -15.629  20.980 -12.222  1.00  0.00     0.159 C 
BRANCH   3   4
HETATM    4  C4  UNL     1     -17.066  20.658 -12.112  1.00  0.00     0.252 C 
HETATM    5  O2  UNL     1     -17.595  19.743 -13.015  1.00  0.00    -0.303 OA
HETATM    6  C3  UNL     1     -18.947  19.410 -13.141  1.00  0.00     0.267 C 
HETATM    7  C2  UNL     1     -20.127  19.689 -12.299  1.00  0.00     0.132 C 
HETATM    8  O1  UNL     1     -19.189  18.744 -14.176  1.00  0.00    -0.265 OA
HETATM    9  C1  UNL     1     -20.075  18.830 -11.034  1.00  0.00     0.024 C 
HETATM   10  C18 UNL     1     -20.330  21.119 -11.939  1.00  0.00     0.305 C 
HETATM   11  N6  UNL     1     -19.291  22.011 -12.335  1.00  0.00    -0.330 N 
HETATM   12  C17 UNL     1     -17.893  21.914 -12.241  1.00  0.00     0.251 C 
ATOM     13  H6  UNL     1     -19.623  22.875 -12.763  1.00  0.00     0.164 HD
HETATM   14  O9  UNL     1     -17.269  23.005 -12.269  1.00  0.00    -0.270 OA
BRANCH  10  15
HETATM   15  N7  UNL     1     -20.598  21.197 -10.505  1.00  0.00    -0.002 N 
ATOM     16  H72 UNL     1     -20.668  20.270 -10.083  1.00  0.00     0.284 HD
ATOM     17  H71 UNL     1     -19.788  21.541  -9.987  1.00  0.00     0.284 HD
BRANCH  15  18
HETATM   18  C19 UNL     1     -21.783  21.998 -10.245  1.00  0.00     0.521 C 
BRANCH  18  19
HETATM   19  N8  UNL     1     -22.185  22.003  -8.875  1.00  0.00    -0.027 N 
ATOM     20  H83 UNL     1     -21.862  21.159  -8.402  1.00  0.00     0.279 HD
ATOM     21  H82 UNL     1     -21.663  22.704  -8.349  1.00  0.00     0.279 HD
ATOM     22  H81 UNL     1     -23.189  22.127  -8.742  1.00  0.00     0.279 HD
ENDBRANCH  18  19
BRANCH  18  23
HETATM   23  O10 UNL     1     -21.469  23.315 -10.618  1.00  0.00    -0.349 OA
ATOM     24  H10 UNL     1     -22.261  23.692 -10.982  1.00  0.00     0.213 HD
ENDBRANCH  18  23
ENDBRANCH  15  18
ENDBRANCH  10  15
ENDBRANCH   3   4
BRANCH   3  25
HETATM   25  O3  UNL     1     -14.926  19.961 -11.507  1.00  0.00    -0.392 OA
ATOM     26  H3  UNL     1     -14.161  20.376 -11.125  1.00  0.00     0.210 HD
ENDBRANCH   3  25
ENDBRANCH   2   3
ENDBRANCH   1   2
BRANCH   1  27
HETATM   27  O4  UNL     1     -12.663  21.081 -13.971  1.00  0.00    -0.391 OA
ATOM     28  H4  UNL     1     -12.131  21.478 -14.650  1.00  0.00     0.210 HD
ENDBRANCH   1  27
BRANCH   1  29
HETATM   29  C8  UNL     1     -13.850  22.915 -14.773  1.00  0.00     0.243 C 
BRANCH  29  30
HETATM   30  O5  UNL     1     -15.173  23.366 -14.738  1.00  0.00    -0.374 OA
ATOM     31  H5  UNL     1     -15.481  23.124 -13.872  1.00  0.00     0.212 HD
ENDBRANCH  29  30
BRANCH  29  32
HETATM   32  N1  UNL     1     -12.900  23.913 -14.446  1.00  0.00    -0.384 N 
ATOM     33  H1  UNL     1     -12.826  24.282 -13.499  1.00  0.00     0.156 HD
BRANCH  32  34
HETATM   34  C9  UNL     1     -12.048  24.384 -15.494  1.00  0.00     0.150 C 
HETATM   35  C10 UNL     1     -12.729  25.133 -16.595  1.00  0.00     0.052 C 
HETATM   36  C11 UNL     1     -11.695  26.118 -17.163  1.00  0.00     0.125 C 
HETATM   37  N2  UNL     1     -11.027  25.579 -18.315  1.00  0.00    -0.360 N 
HETATM   38  C12 UNL     1     -10.942  24.316 -18.940  1.00  0.00     0.235 C 
ATOM     39  H2  UNL     1     -10.477  26.285 -18.804  1.00  0.00     0.162 HD
HETATM   40  O6  UNL     1     -10.505  24.360 -20.143  1.00  0.00    -0.272 OA
HETATM   41  C13 UNL     1     -11.240  22.909 -18.539  1.00  0.00     0.236 C 
HETATM   42  N3  UNL     1     -10.842  22.726 -17.147  1.00  0.00    -0.287 N 
HETATM   43  C14 UNL     1     -11.171  23.314 -15.990  1.00  0.00     0.124 A 
HETATM   44  C16 UNL     1      -9.946  21.716 -17.179  1.00  0.00     0.319 A 
HETATM   45  N4  UNL     1     -10.569  22.857 -14.858  1.00  0.00    -0.284 N 
HETATM   46  N5  UNL     1      -9.694  21.874 -14.872  1.00  0.00    -0.260 N 
ATOM     47  H4  UNL     1     -10.805  23.291 -13.966  1.00  0.00     0.188 HD
HETATM   48  C15 UNL     1      -9.344  21.260 -16.031  1.00  0.00     0.328 A 
ATOM     49  H5  UNL     1      -9.271  21.568 -13.996  1.00  0.00     0.190 HD
HETATM   50  O7  UNL     1      -8.500  20.319 -16.007  1.00  0.00    -0.261 OA
HETATM   51  O8  UNL     1      -9.649  21.175 -18.275  1.00  0.00    -0.262 OA
ENDBRANCH  32  34
ENDBRANCH  29  32
ENDBRANCH   1  29
TORSDOF 13
ENDMDL
MODEL 5
REMARK VINA RESULT: -8.765171637      2.252      8.006
REMARK  13 active torsions:
REMARK  status: ('A' for Active; 'I' for Inactive)
REMARK    1  A    between atoms: C4_6  and  C5_7 
REMARK    2  A    between atoms: C5_7  and  O3_8 
REMARK    3  A    between atoms: C5_7  and  C6_10 
REMARK    4  A    between atoms: C6_10  and  C7_11 
REMARK    5  A    between atoms: C7_11  and  O4_12 
REMARK    6  A    between atoms: C7_11  and  C8_14 
REMARK    7  A    between atoms: C8_14  and  O5_15 
REMARK    8  A    between atoms: C8_14  and  N1_17 
REMARK    9  A    between atoms: N1_17  and  C9_19 
REMARK   10  A    between atoms: C18_41  and  N7_42 
REMARK   11  A    between atoms: N7_42  and  C19_45 
REMARK   12  A    between atoms: C19_45  and  N8_46 
REMARK   13  A    between atoms: C19_45  and  O10_50 
ROOT
HETATM    1  C7  UNL     1     -14.440  22.030 -18.097  1.00  0.00     0.168 C 
ENDROOT
BRANCH   1   2
HETATM    2  C6  UNL     1     -14.936  21.524 -16.791  1.00  0.00     0.071 C 
BRANCH   2   3
HETATM    3  C5  UNL     1     -15.287  22.590 -15.818  1.00  0.00     0.159 C 
BRANCH   3   4
HETATM    4  C4  UNL     1     -15.893  22.193 -14.531  1.00  0.00     0.252 C 
HETATM    5  O2  UNL     1     -15.228  21.239 -13.769  1.00  0.00    -0.303 OA
HETATM    6  C3  UNL     1     -15.708  20.656 -12.593  1.00  0.00     0.267 C 
HETATM    7  C2  UNL     1     -16.843  20.982 -11.707  1.00  0.00     0.132 C 
HETATM    8  O1  UNL     1     -15.032  19.663 -12.231  1.00  0.00    -0.265 OA
HETATM    9  C1  UNL     1     -16.527  22.245 -10.904  1.00  0.00     0.024 C 
HETATM   10  C18 UNL     1     -18.161  21.123 -12.384  1.00  0.00     0.305 C 
HETATM   11  N6  UNL     1     -18.136  21.061 -13.808  1.00  0.00    -0.330 N 
HETATM   12  C17 UNL     1     -17.291  21.667 -14.753  1.00  0.00     0.251 C 
ATOM     13  H6  UNL     1     -18.862  20.471 -14.214  1.00  0.00     0.164 HD
HETATM   14  O9  UNL     1     -17.762  21.779 -15.912  1.00  0.00    -0.270 OA
BRANCH  10  15
HETATM   15  N7  UNL     1     -18.795  22.348 -11.903  1.00  0.00    -0.002 N 
ATOM     16  H72 UNL     1     -18.562  22.537 -10.928  1.00  0.00     0.284 HD
ATOM     17  H71 UNL     1     -18.379  23.179 -12.324  1.00  0.00     0.284 HD
BRANCH  15  18
HETATM   18  C19 UNL     1     -20.233  22.300 -12.113  1.00  0.00     0.521 C 
BRANCH  18  19
HETATM   19  N8  UNL     1     -20.979  23.063 -11.163  1.00  0.00    -0.027 N 
ATOM     20  H83 UNL     1     -21.138  22.522 -10.313  1.00  0.00     0.279 HD
ATOM     21  H82 UNL     1     -20.409  23.818 -10.781  1.00  0.00     0.279 HD
ATOM     22  H81 UNL     1     -21.859  23.425 -11.528  1.00  0.00     0.279 HD
ENDBRANCH  18  19
BRANCH  18  23
HETATM   23  O10 UNL     1     -20.472  22.833 -13.391  1.00  0.00    -0.349 OA
ATOM     24  H10 UNL     1     -20.094  23.704 -13.398  1.00  0.00     0.213 HD
ENDBRANCH  18  23
ENDBRANCH  15  18
ENDBRANCH  10  15
ENDBRANCH   3   4
BRANCH   3  25
HETATM   25  O3  UNL     1     -14.084  23.294 -15.503  1.00  0.00    -0.392 OA
ATOM     26  H3  UNL     1     -13.769  23.672 -16.317  1.00  0.00     0.210 HD
ENDBRANCH   3  25
ENDBRANCH   2   3
ENDBRANCH   1   2
BRANCH   1  27
HETATM   27  O4  UNL     1     -13.332  21.318 -18.560  1.00  0.00    -0.391 OA
ATOM     28  H4  UNL     1     -13.551  20.428 -18.810  1.00  0.00     0.210 HD
ENDBRANCH   1  27
BRANCH   1  29
HETATM   29  C8  UNL     1     -15.512  21.822 -19.201  1.00  0.00     0.243 C 
BRANCH  29  30
HETATM   30  O5  UNL     1     -16.430  20.933 -18.631  1.00  0.00    -0.374 OA
ATOM     31  H5  UNL     1     -17.051  20.757 -19.328  1.00  0.00     0.212 HD
ENDBRANCH  29  30
BRANCH  29  32
HETATM   32  N1  UNL     1     -16.052  23.103 -19.468  1.00  0.00    -0.384 N 
ATOM     33  H1  UNL     1     -15.649  23.943 -19.055  1.00  0.00     0.156 HD
BRANCH  32  34
HETATM   34  C9  UNL     1     -17.185  23.175 -20.339  1.00  0.00     0.150 C 
HETATM   35  C10 UNL     1     -16.918  23.724 -21.705  1.00  0.00     0.052 C 
HETATM   36  C11 UNL     1     -17.947  23.081 -22.647  1.00  0.00     0.125 C 
HETATM   37  N2  UNL     1     -19.095  23.925 -22.833  1.00  0.00    -0.360 N 
HETATM   38  C12 UNL     1     -19.600  25.097 -22.229  1.00  0.00     0.235 C 
ATOM     39  H2  UNL     1     -19.694  23.595 -23.590  1.00  0.00     0.162 HD
HETATM   40  O6  UNL     1     -20.481  25.705 -22.934  1.00  0.00    -0.272 OA
HETATM   41  C13 UNL     1     -19.361  25.820 -20.946  1.00  0.00     0.236 C 
HETATM   42  N3  UNL     1     -19.176  24.836 -19.883  1.00  0.00    -0.287 N 
HETATM   43  C14 UNL     1     -18.326  23.823 -19.678  1.00  0.00     0.124 A 
HETATM   44  C16 UNL     1     -20.137  25.128 -18.979  1.00  0.00     0.319 A 
HETATM   45  N4  UNL     1     -18.469  23.104 -18.531  1.00  0.00    -0.284 N 
HETATM   46  N5  UNL     1     -19.399  23.374 -17.641  1.00  0.00    -0.260 N 
ATOM     47  H4  UNL     1     -17.832  22.328 -18.355  1.00  0.00     0.188 HD
HETATM   48  C15 UNL     1     -20.273  24.397 -17.824  1.00  0.00     0.328 A 
ATOM     49  H5  UNL     1     -19.465  22.805 -16.797  1.00  0.00     0.190 HD
HETATM   50  O7  UNL     1     -21.154  24.627 -16.947  1.00  0.00    -0.261 OA
HETATM   51  O8  UNL     1     -20.927  26.083 -19.188  1.00  0.00    -0.262 OA
ENDBRANCH  32  34
ENDBRANCH  29  32
ENDBRANCH   1  29
TORSDOF 13
ENDMDL
