MODEL 1
REMARK VINA RESULT: -8.867307298      0.000      0.000
REMARK  10 active torsions:
REMARK  status: ('A' for Active; 'I' for Inactive)
REMARK    1  A    between atoms: N1_1  and  C1_5 
REMARK    2  A    between atoms: C1_5  and  C2_6 
REMARK    3  A    between atoms: C4_9  and  N2_10 
REMARK    4  A    between atoms: N2_10  and  C5_13 
REMARK    5  A    between atoms: C5_13  and  C6_14 
REMARK    6  A    between atoms: C6_14  and  N3_15 
REMARK    7  A    between atoms: N7_35  and  C17_36 
REMARK    8  A    between atoms: C17_36  and  C18_37 
REMARK    9  A    between atoms: C21_48  and  O2_49 
REMARK   10  A    between atoms: C22_51  and  O3_52 
ROOT
HETATM    1  N3  UNL     1     -14.702  22.556 -18.052  1.00  0.00    -0.303 N 
HETATM    2  C7  UNL     1     -13.589  21.827 -18.470  1.00  0.00     0.084 C 
HETATM    3  C8  UNL     1     -12.265  22.556 -18.471  1.00  0.00     0.073 C 
HETATM    4  C9  UNL     1     -11.139  21.515 -18.546  1.00  0.00     0.237 C 
HETATM    5  N4  UNL     1      -9.967  21.946 -17.847  1.00  0.00    -0.073 N 
ATOM      6  H41 UNL     1     -10.152  22.719 -17.206  1.00  0.00     0.277 HD
ATOM      7  H42 UNL     1      -9.302  22.426 -18.453  1.00  0.00     0.277 HD
HETATM    8  C10 UNL     1      -9.388  20.795 -17.182  1.00  0.00     0.259 C 
HETATM    9  C11 UNL     1      -8.635  21.189 -15.936  1.00  0.00     0.259 C 
HETATM   10  N5  UNL     1      -9.276  20.670 -14.725  1.00  0.00    -0.073 N 
ATOM     11  H51 UNL     1      -8.797  20.953 -13.869  1.00  0.00     0.277 HD
ATOM     12  H52 UNL     1      -9.160  19.662 -14.614  1.00  0.00     0.277 HD
HETATM   13  C12 UNL     1     -10.648  21.074 -14.757  1.00  0.00     0.234 C 
HETATM   14  C13 UNL     1     -11.241  21.252 -13.376  1.00  0.00     0.055 C 
HETATM   15  C14 UNL     1     -12.718  21.430 -13.475  1.00  0.00     0.234 C 
HETATM   16  N6  UNL     1     -13.210  21.439 -14.852  1.00  0.00    -0.074 N 
ATOM     17  H61 UNL     1     -12.758  20.723 -15.421  1.00  0.00     0.277 HD
ATOM     18  H62 UNL     1     -12.892  22.262 -15.363  1.00  0.00     0.277 HD
HETATM   19  C15 UNL     1     -14.617  21.318 -14.873  1.00  0.00     0.248 C 
HETATM   20  C16 UNL     1     -15.410  22.101 -15.843  1.00  0.00     0.141 C 
HETATM   21  N7  UNL     1     -14.738  22.973 -16.744  1.00  0.00    -0.221 NA
ENDROOT
BRANCH   1  22
HETATM   22  C6  UNL     1     -15.460  23.279 -18.976  1.00  0.00     0.110 C 
BRANCH  22  23
HETATM   23  C5  UNL     1     -15.758  22.658 -20.304  1.00  0.00     0.279 C 
BRANCH  23  24
HETATM   24  N2  UNL     1     -17.124  22.687 -20.697  1.00  0.00    -0.062 N 
ATOM     25  H22 UNL     1     -17.653  21.923 -20.276  1.00  0.00     0.278 HD
ATOM     26  H21 UNL     1     -17.240  22.433 -21.678  1.00  0.00     0.278 HD
BRANCH  24  27
HETATM   27  C4  UNL     1     -17.706  23.953 -20.408  1.00  0.00     0.240 C 
HETATM   28  C3  UNL     1     -18.140  24.772 -21.571  1.00  0.00     0.204 C 
HETATM   29  O1  UNL     1     -18.596  26.003 -21.076  1.00  0.00    -0.379 OA
HETATM   30  C2  UNL     1     -19.681  25.904 -20.243  1.00  0.00     0.178 C 
HETATM   31  C22 UNL     1     -20.090  24.489 -19.991  1.00  0.00     0.179 C 
HETATM   32  C21 UNL     1     -18.881  23.739 -19.475  1.00  0.00     0.182 C 
BRANCH  30  33
HETATM   33  C1  UNL     1     -20.850  26.736 -20.728  1.00  0.00     0.264 C 
BRANCH  33  34
HETATM   34  N1  UNL     1     -21.531  25.965 -21.756  1.00  0.00    -0.077 N 
ATOM     35  H13 UNL     1     -21.483  26.398 -22.678  1.00  0.00     0.274 HD
ATOM     36  H12 UNL     1     -21.047  25.099 -21.992  1.00  0.00     0.274 HD
ATOM     37  H11 UNL     1     -22.487  25.813 -21.435  1.00  0.00     0.274 HD
ENDBRANCH  33  34
ENDBRANCH  30  33
BRANCH  31  38
HETATM   38  O3  UNL     1     -21.038  24.478 -18.941  1.00  0.00    -0.390 OA
ATOM     39  H3  UNL     1     -21.561  23.689 -19.016  1.00  0.00     0.210 HD
ENDBRANCH  31  38
BRANCH  32  40
HETATM   40  O2  UNL     1     -19.236  22.397 -19.395  1.00  0.00    -0.391 OA
ATOM     41  H2  UNL     1     -19.080  21.943 -20.215  1.00  0.00     0.210 HD
ENDBRANCH  32  40
ENDBRANCH  24  27
ENDBRANCH  23  24
ENDBRANCH  22  23
ENDBRANCH   1  22
BRANCH  21  42
HETATM   42  C17 UNL     1     -15.101  24.310 -16.533  1.00  0.00     0.160 C 
BRANCH  42  43
HETATM   43  C18 UNL     1     -14.052  25.332 -16.259  1.00  0.00     0.201 A 
HETATM   44  N8  UNL     1     -13.267  25.738 -17.398  1.00  0.00    -0.342 N 
HETATM   45  C19 UNL     1     -11.998  25.733 -17.476  1.00  0.00     0.192 A 
ATOM     46  H8  UNL     1     -13.778  26.059 -18.220  1.00  0.00     0.164 HD
HETATM   47  N9  UNL     1     -11.314  26.158 -18.662  1.00  0.00    -0.063 NA
HETATM   48  N10 UNL     1     -11.211  25.307 -16.401  1.00  0.00    -0.305 N 
HETATM   49  C20 UNL     1     -11.746  24.910 -15.310  1.00  0.00     0.192 A 
ATOM     50  H10 UNL     1     -10.195  25.312 -16.490  1.00  0.00     0.171 HD
HETATM   51  N11 UNL     1     -10.922  24.470 -14.198  1.00  0.00    -0.063 NA
HETATM   52  N12 UNL     1     -13.153  24.907 -15.203  1.00  0.00    -0.342 N 
ATOM     53  H12 UNL     1     -13.564  24.584 -14.328  1.00  0.00     0.164 HD
ENDBRANCH  42  43
ENDBRANCH  21  42
TORSDOF 10
ENDMDL
MODEL 2
REMARK VINA RESULT: -8.821287271      1.618      1.926
REMARK  10 active torsions:
REMARK  status: ('A' for Active; 'I' for Inactive)
REMARK    1  A    between atoms: N1_1  and  C1_5 
REMARK    2  A    between atoms: C1_5  and  C2_6 
REMARK    3  A    between atoms: C4_9  and  N2_10 
REMARK    4  A    between atoms: N2_10  and  C5_13 
REMARK    5  A    between atoms: C5_13  and  C6_14 
REMARK    6  A    between atoms: C6_14  and  N3_15 
REMARK    7  A    between atoms: N7_35  and  C17_36 
REMARK    8  A    between atoms: C17_36  and  C18_37 
REMARK    9  A    between atoms: C21_48  and  O2_49 
REMARK   10  A    between atoms: C22_51  and  O3_52 
ROOT
HETATM    1  N3  UNL     1     -14.737  22.721 -17.998  1.00  0.00    -0.303 N 
HETATM    2  C7  UNL     1     -13.646  21.992 -18.471  1.00  0.00     0.084 C 
HETATM    3  C8  UNL     1     -12.312  22.701 -18.479  1.00  0.00     0.073 C 
HETATM    4  C9  UNL     1     -11.204  21.647 -18.621  1.00  0.00     0.237 C 
HETATM    5  N4  UNL     1     -10.008  22.035 -17.937  1.00  0.00    -0.073 N 
ATOM      6  H41 UNL     1     -10.166  22.786 -17.263  1.00  0.00     0.277 HD
ATOM      7  H42 UNL     1      -9.351  22.527 -18.541  1.00  0.00     0.277 HD
HETATM    8  C10 UNL     1      -9.431  20.851 -17.330  1.00  0.00     0.259 C 
HETATM    9  C11 UNL     1      -8.641  21.187 -16.089  1.00  0.00     0.259 C 
HETATM   10  N5  UNL     1      -9.259  20.633 -14.883  1.00  0.00    -0.073 N 
ATOM     11  H51 UNL     1      -8.756  20.877 -14.030  1.00  0.00     0.277 HD
ATOM     12  H52 UNL     1      -9.157  19.620 -14.812  1.00  0.00     0.277 HD
HETATM   13  C12 UNL     1     -10.626  21.057 -14.865  1.00  0.00     0.234 C 
HETATM   14  C13 UNL     1     -11.181  21.193 -13.463  1.00  0.00     0.055 C 
HETATM   15  C14 UNL     1     -12.658  21.396 -13.519  1.00  0.00     0.234 C 
HETATM   16  N6  UNL     1     -13.183  21.463 -14.881  1.00  0.00    -0.074 N 
ATOM     17  H61 UNL     1     -12.757  20.763 -15.487  1.00  0.00     0.277 HD
ATOM     18  H62 UNL     1     -12.865  22.300 -15.369  1.00  0.00     0.277 HD
HETATM   19  C15 UNL     1     -14.592  21.364 -14.871  1.00  0.00     0.248 C 
HETATM   20  C16 UNL     1     -15.396  22.194 -15.791  1.00  0.00     0.141 C 
HETATM   21  N7  UNL     1     -14.734  23.089 -16.676  1.00  0.00    -0.221 NA
ENDROOT
BRANCH   1  22
HETATM   22  C6  UNL     1     -15.507  23.488 -18.875  1.00  0.00     0.110 C 
BRANCH  22  23
HETATM   23  C5  UNL     1     -16.748  22.889 -19.455  1.00  0.00     0.279 C 
BRANCH  23  24
HETATM   24  N2  UNL     1     -16.801  22.854 -20.875  1.00  0.00    -0.062 N 
ATOM     25  H22 UNL     1     -16.980  21.912 -21.222  1.00  0.00     0.278 HD
ATOM     26  H21 UNL     1     -15.882  22.999 -21.292  1.00  0.00     0.278 HD
BRANCH  24  27
HETATM   27  C4  UNL     1     -17.756  23.787 -21.369  1.00  0.00     0.240 C 
HETATM   28  C3  UNL     1     -17.280  25.179 -21.588  1.00  0.00     0.204 C 
HETATM   29  O1  UNL     1     -18.385  25.948 -21.984  1.00  0.00    -0.379 OA
HETATM   30  C2  UNL     1     -18.957  25.540 -23.162  1.00  0.00     0.178 C 
HETATM   31  C22 UNL     1     -18.313  24.316 -23.726  1.00  0.00     0.179 C 
HETATM   32  C21 UNL     1     -18.337  23.243 -22.658  1.00  0.00     0.182 C 
BRANCH  30  33
HETATM   33  C1  UNL     1     -19.008  26.656 -24.186  1.00  0.00     0.264 C 
BRANCH  33  34
HETATM   34  N1  UNL     1     -17.761  26.612 -24.933  1.00  0.00    -0.077 N 
ATOM     35  H13 UNL     1     -16.938  26.717 -24.341  1.00  0.00     0.274 HD
ATOM     36  H12 UNL     1     -17.545  25.684 -25.295  1.00  0.00     0.274 HD
ATOM     37  H11 UNL     1     -17.822  27.321 -25.663  1.00  0.00     0.274 HD
ENDBRANCH  33  34
ENDBRANCH  30  33
BRANCH  31  38
HETATM   38  O3  UNL     1     -19.117  23.834 -24.785  1.00  0.00    -0.390 OA
ATOM     39  H3  UNL     1     -19.290  22.912 -24.636  1.00  0.00     0.210 HD
ENDBRANCH  31  38
BRANCH  32  40
HETATM   40  O2  UNL     1     -17.598  22.169 -23.142  1.00  0.00    -0.391 OA
ATOM     41  H2  UNL     1     -16.681  22.237 -22.904  1.00  0.00     0.210 HD
ENDBRANCH  32  40
ENDBRANCH  24  27
ENDBRANCH  23  24
ENDBRANCH  22  23
ENDBRANCH   1  22
BRANCH  21  42
HETATM   42  C17 UNL     1     -15.071  24.422 -16.406  1.00  0.00     0.160 C 
BRANCH  42  43
HETATM   43  C18 UNL     1     -13.999  25.419 -16.125  1.00  0.00     0.201 A 
HETATM   44  N8  UNL     1     -13.217  25.829 -17.265  1.00  0.00    -0.342 N 
HETATM   45  C19 UNL     1     -11.950  25.800 -17.357  1.00  0.00     0.192 A 
ATOM     46  H8  UNL     1     -13.730  26.174 -18.076  1.00  0.00     0.164 HD
HETATM   47  N9  UNL     1     -11.269  26.232 -18.541  1.00  0.00    -0.063 NA
HETATM   48  N10 UNL     1     -11.161  25.341 -16.297  1.00  0.00    -0.305 N 
HETATM   49  C20 UNL     1     -11.693  24.937 -15.207  1.00  0.00     0.192 A 
ATOM     50  H10 UNL     1     -10.146  25.328 -16.395  1.00  0.00     0.171 HD
HETATM   51  N11 UNL     1     -10.866  24.461 -14.111  1.00  0.00    -0.063 NA
HETATM   52  N12 UNL     1     -13.098  24.958 -15.086  1.00  0.00    -0.342 N 
ATOM     53  H12 UNL     1     -13.507  24.629 -14.212  1.00  0.00     0.164 HD
ENDBRANCH  42  43
ENDBRANCH  21  42
TORSDOF 10
ENDMDL
MODEL 3
REMARK VINA RESULT: -8.771200292      1.440      1.924
REMARK  10 active torsions:
REMARK  status: ('A' for Active; 'I' for Inactive)
REMARK    1  A    between atoms: N1_1  and  C1_5 
REMARK    2  A    between atoms: C1_5  and  C2_6 
REMARK    3  A    between atoms: C4_9  and  N2_10 
REMARK    4  A    between atoms: N2_10  and  C5_13 
REMARK    5  A    between atoms: C5_13  and  C6_14 
REMARK    6  A    between atoms: C6_14  and  N3_15 
REMARK    7  A    between atoms: N7_35  and  C17_36 
REMARK    8  A    between atoms: C17_36  and  C18_37 
REMARK    9  A    between atoms: C21_48  and  O2_49 
REMARK   10  A    between atoms: C22_51  and  O3_52 
ROOT
HETATM    1  N3  UNL     1     -14.303  22.696 -18.385  1.00  0.00    -0.303 N 
HETATM    2  C7  UNL     1     -13.160  21.897 -18.406  1.00  0.00     0.084 C 
HETATM    3  C8  UNL     1     -11.880  22.537 -17.920  1.00  0.00     0.073 C 
HETATM    4  C9  UNL     1     -10.865  21.424 -17.625  1.00  0.00     0.237 C 
HETATM    5  N4  UNL     1      -9.991  21.771 -16.545  1.00  0.00    -0.073 N 
ATOM      6  H41 UNL     1     -10.345  22.550 -15.988  1.00  0.00     0.277 HD
ATOM      7  H42 UNL     1      -9.128  22.210 -16.863  1.00  0.00     0.277 HD
HETATM    8  C10 UNL     1      -9.755  20.579 -15.754  1.00  0.00     0.259 C 
HETATM    9  C11 UNL     1      -9.468  20.913 -14.311  1.00  0.00     0.259 C 
HETATM   10  N5  UNL     1     -10.525  20.429 -13.420  1.00  0.00    -0.073 N 
ATOM     11  H51 UNL     1     -10.364  20.674 -12.442  1.00  0.00     0.277 HD
ATOM     12  H52 UNL     1     -10.516  19.416 -13.306  1.00  0.00     0.277 HD
HETATM   13  C12 UNL     1     -11.771  20.923 -13.921  1.00  0.00     0.234 C 
HETATM   14  C13 UNL     1     -12.802  21.131 -12.832  1.00  0.00     0.055 C 
HETATM   15  C14 UNL     1     -14.135  21.407 -13.440  1.00  0.00     0.234 C 
HETATM   16  N6  UNL     1     -14.107  21.459 -14.900  1.00  0.00    -0.074 N 
ATOM     17  H61 UNL     1     -13.527  20.719 -15.295  1.00  0.00     0.277 HD
ATOM     18  H62 UNL     1     -13.581  22.263 -15.241  1.00  0.00     0.277 HD
HETATM   19  C15 UNL     1     -15.421  21.432 -15.419  1.00  0.00     0.248 C 
HETATM   20  C16 UNL     1     -15.771  22.273 -16.582  1.00  0.00     0.141 C 
HETATM   21  N7  UNL     1     -14.774  23.105 -17.162  1.00  0.00    -0.221 NA
ENDROOT
BRANCH   1  22
HETATM   22  C6  UNL     1     -14.642  23.474 -19.495  1.00  0.00     0.110 C 
BRANCH  22  23
HETATM   23  C5  UNL     1     -15.690  22.969 -20.435  1.00  0.00     0.279 C 
BRANCH  23  24
HETATM   24  N2  UNL     1     -16.401  23.971 -21.149  1.00  0.00    -0.062 N 
ATOM     25  H22 UNL     1     -16.386  23.800 -22.154  1.00  0.00     0.278 HD
ATOM     26  H21 UNL     1     -15.909  24.865 -21.138  1.00  0.00     0.278 HD
BRANCH  24  27
HETATM   27  C4  UNL     1     -17.730  24.096 -20.656  1.00  0.00     0.240 C 
HETATM   28  C3  UNL     1     -18.110  23.210 -19.523  1.00  0.00     0.204 C 
HETATM   29  O1  UNL     1     -19.470  23.425 -19.255  1.00  0.00    -0.379 OA
HETATM   30  C2  UNL     1     -19.767  24.706 -18.865  1.00  0.00     0.178 C 
HETATM   31  C22 UNL     1     -18.577  25.609 -18.884  1.00  0.00     0.179 C 
HETATM   32  C21 UNL     1     -17.964  25.542 -20.266  1.00  0.00     0.182 C 
BRANCH  30  33
HETATM   33  C1  UNL     1     -20.465  24.745 -17.521  1.00  0.00     0.264 C 
BRANCH  33  34
HETATM   34  N1  UNL     1     -19.435  24.894 -16.505  1.00  0.00    -0.077 N 
ATOM     35  H13 UNL     1     -19.525  25.756 -15.968  1.00  0.00     0.274 HD
ATOM     36  H12 UNL     1     -19.543  24.243 -15.727  1.00  0.00     0.274 HD
ATOM     37  H11 UNL     1     -18.533  24.809 -16.974  1.00  0.00     0.274 HD
ENDBRANCH  33  34
ENDBRANCH  30  33
BRANCH  31  38
HETATM   38  O3  UNL     1     -19.022  26.941 -18.716  1.00  0.00    -0.390 OA
ATOM     39  H3  UNL     1     -19.367  27.033 -17.836  1.00  0.00     0.210 HD
ENDBRANCH  31  38
BRANCH  32  40
HETATM   40  O2  UNL     1     -16.774  26.261 -20.221  1.00  0.00    -0.391 OA
ATOM     41  H2  UNL     1     -16.257  26.134 -21.008  1.00  0.00     0.210 HD
ENDBRANCH  32  40
ENDBRANCH  24  27
ENDBRANCH  23  24
ENDBRANCH  22  23
ENDBRANCH   1  22
BRANCH  21  42
HETATM   42  C17 UNL     1     -15.108  24.461 -17.053  1.00  0.00     0.160 C 
BRANCH  42  43
HETATM   43  C18 UNL     1     -14.135  25.422 -16.460  1.00  0.00     0.201 A 
HETATM   44  N8  UNL     1     -13.135  25.932 -17.366  1.00  0.00    -0.342 N 
HETATM   45  C19 UNL     1     -11.877  25.905 -17.189  1.00  0.00     0.192 A 
ATOM     46  H8  UNL     1     -13.470  26.354 -18.233  1.00  0.00     0.164 HD
HETATM   47  N9  UNL     1     -10.967  26.441 -18.158  1.00  0.00    -0.063 NA
HETATM   48  N10 UNL     1     -11.323  25.345 -16.032  1.00  0.00    -0.305 N 
HETATM   49  C20 UNL     1     -12.068  24.845 -15.122  1.00  0.00     0.192 A 
ATOM     50  H10 UNL     1     -10.310  25.336 -15.914  1.00  0.00     0.171 HD
HETATM   51  N11 UNL     1     -11.485  24.265 -13.924  1.00  0.00    -0.063 NA
HETATM   52  N12 UNL     1     -13.467  24.863 -15.301  1.00  0.00    -0.342 N 
ATOM     53  H12 UNL     1     -14.047  24.455 -14.567  1.00  0.00     0.164 HD
ENDBRANCH  42  43
ENDBRANCH  21  42
TORSDOF 10
ENDMDL
MODEL 4
REMARK VINA RESULT: -8.690502105      3.773      7.601
REMARK  10 active torsions:
REMARK  status: ('A' for Active; 'I' for Inactive)
REMARK    1  A    between atoms: N1_1  and  C1_5 
REMARK    2  A    between atoms: C1_5  and  C2_6 
REMARK    3  A    between atoms: C4_9  and  N2_10 
REMARK    4  A    between atoms: N2_10  and  C5_13 
REMARK    5  A    between atoms: C5_13  and  C6_14 
REMARK    6  A    between atoms: C6_14  and  N3_15 
REMARK    7  A    between atoms: N7_35  and  C17_36 
REMARK    8  A    between atoms: C17_36  and  C18_37 
REMARK    9  A    between atoms: C21_48  and  O2_49 
REMARK   10  A    between atoms: C22_51  and  O3_52 
ROOT
HETATM    1  N3  UNL     1     -15.952  21.971 -16.142  1.00  0.00    -0.303 N 
HETATM    2  C7  UNL     1     -17.306  22.305 -16.184  1.00  0.00     0.084 C 
HETATM    3  C8  UNL     1     -17.640  23.778 -16.132  1.00  0.00     0.073 C 
HETATM    4  C9  UNL     1     -19.090  23.962 -16.603  1.00  0.00     0.237 C 
HETATM    5  N4  UNL     1     -19.277  25.210 -17.279  1.00  0.00    -0.073 N 
ATOM      6  H41 UNL     1     -18.396  25.635 -17.571  1.00  0.00     0.277 HD
ATOM      7  H42 UNL     1     -19.588  25.953 -16.654  1.00  0.00     0.277 HD
HETATM    8  C10 UNL     1     -20.187  24.992 -18.386  1.00  0.00     0.259 C 
HETATM    9  C11 UNL     1     -19.936  25.959 -19.517  1.00  0.00     0.259 C 
HETATM   10  N5  UNL     1     -19.446  25.278 -20.717  1.00  0.00    -0.073 N 
ATOM     11  H51 UNL     1     -19.239  25.921 -21.482  1.00  0.00     0.277 HD
ATOM     12  H52 UNL     1     -20.168  24.736 -21.190  1.00  0.00     0.277 HD
HETATM   13  C12 UNL     1     -18.316  24.487 -20.333  1.00  0.00     0.234 C 
HETATM   14  C13 UNL     1     -17.315  24.308 -21.455  1.00  0.00     0.055 C 
HETATM   15  C14 UNL     1     -16.300  23.285 -21.071  1.00  0.00     0.234 C 
HETATM   16  N6  UNL     1     -16.488  22.760 -19.720  1.00  0.00    -0.074 N 
ATOM     17  H61 UNL     1     -17.471  22.582 -19.515  1.00  0.00     0.277 HD
ATOM     18  H62 UNL     1     -16.311  23.469 -19.009  1.00  0.00     0.277 HD
HETATM   19  C15 UNL     1     -15.692  21.609 -19.525  1.00  0.00     0.248 C 
HETATM   20  C16 UNL     1     -15.011  21.394 -18.231  1.00  0.00     0.141 C 
HETATM   21  N7  UNL     1     -15.165  22.359 -17.198  1.00  0.00    -0.221 NA
ENDROOT
BRANCH   1  22
HETATM   22  C6  UNL     1     -15.317  21.750 -14.918  1.00  0.00     0.110 C 
BRANCH  22  23
HETATM   23  C5  UNL     1     -16.153  21.399 -13.727  1.00  0.00     0.279 C 
BRANCH  23  24
HETATM   24  N2  UNL     1     -16.369  20.010 -13.523  1.00  0.00    -0.062 N 
ATOM     25  H22 UNL     1     -15.495  19.514 -13.348  1.00  0.00     0.278 HD
ATOM     26  H21 UNL     1     -16.643  19.539 -14.385  1.00  0.00     0.278 HD
BRANCH  24  27
HETATM   27  C4  UNL     1     -17.314  19.793 -12.481  1.00  0.00     0.240 C 
HETATM   28  C3  UNL     1     -17.565  20.931 -11.557  1.00  0.00     0.204 C 
HETATM   29  O1  UNL     1     -18.448  20.483 -10.563  1.00  0.00    -0.379 OA
HETATM   30  C2  UNL     1     -19.673  20.090 -11.039  1.00  0.00     0.178 C 
HETATM   31  C22 UNL     1     -19.765  20.160 -12.529  1.00  0.00     0.179 C 
HETATM   32  C21 UNL     1     -18.623  19.351 -13.105  1.00  0.00     0.182 C 
BRANCH  30  33
HETATM   33  C1  UNL     1     -20.809  20.846 -10.382  1.00  0.00     0.264 C 
BRANCH  33  34
HETATM   34  N1  UNL     1     -20.856  22.167 -10.989  1.00  0.00    -0.077 N 
ATOM     35  H13 UNL     1     -19.932  22.578 -11.121  1.00  0.00     0.274 HD
ATOM     36  H12 UNL     1     -21.132  22.146 -11.970  1.00  0.00     0.274 HD
ATOM     37  H11 UNL     1     -21.470  22.742 -10.413  1.00  0.00     0.274 HD
ENDBRANCH  33  34
ENDBRANCH  30  33
BRANCH  31  38
HETATM   38  O3  UNL     1     -20.953  19.507 -12.935  1.00  0.00    -0.390 OA
ATOM     39  H3  UNL     1     -20.787  19.069 -13.761  1.00  0.00     0.210 HD
ENDBRANCH  31  38
BRANCH  32  40
HETATM   40  O2  UNL     1     -18.631  19.555 -14.480  1.00  0.00    -0.391 OA
ATOM     41  H2  UNL     1     -19.477  19.861 -14.785  1.00  0.00     0.210 HD
ENDBRANCH  32  40
ENDBRANCH  24  27
ENDBRANCH  23  24
ENDBRANCH  22  23
ENDBRANCH   1  22
BRANCH  21  42
HETATM   42  C17 UNL     1     -13.944  22.960 -16.868  1.00  0.00     0.160 C 
BRANCH  42  43
HETATM   43  C18 UNL     1     -13.788  24.439 -16.973  1.00  0.00     0.201 A 
HETATM   44  N8  UNL     1     -13.205  24.916 -18.203  1.00  0.00    -0.342 N 
HETATM   45  C19 UNL     1     -12.198  25.684 -18.309  1.00  0.00     0.192 A 
ATOM     46  H8  UNL     1     -13.642  24.607 -19.071  1.00  0.00     0.164 HD
HETATM   47  N9  UNL     1     -11.697  26.100 -19.585  1.00  0.00    -0.063 NA
HETATM   48  N10 UNL     1     -11.531  26.159 -17.174  1.00  0.00    -0.305 N 
HETATM   49  C20 UNL     1     -11.916  25.832 -15.999  1.00  0.00     0.192 A 
ATOM     50  H10 UNL     1     -10.725  26.774 -17.286  1.00  0.00     0.171 HD
HETATM   51  N11 UNL     1     -11.217  26.329 -14.826  1.00  0.00    -0.063 NA
HETATM   52  N12 UNL     1     -13.030  24.978 -15.861  1.00  0.00    -0.342 N 
ATOM     53  H12 UNL     1     -13.321  24.724 -14.917  1.00  0.00     0.164 HD
ENDBRANCH  42  43
ENDBRANCH  21  42
TORSDOF 10
ENDMDL
MODEL 5
REMARK VINA RESULT: -8.689453676      3.943      8.146
REMARK  10 active torsions:
REMARK  status: ('A' for Active; 'I' for Inactive)
REMARK    1  A    between atoms: N1_1  and  C1_5 
REMARK    2  A    between atoms: C1_5  and  C2_6 
REMARK    3  A    between atoms: C4_9  and  N2_10 
REMARK    4  A    between atoms: N2_10  and  C5_13 
REMARK    5  A    between atoms: C5_13  and  C6_14 
REMARK    6  A    between atoms: C6_14  and  N3_15 
REMARK    7  A    between atoms: N7_35  and  C17_36 
REMARK    8  A    between atoms: C17_36  and  C18_37 
REMARK    9  A    between atoms: C21_48  and  O2_49 
REMARK   10  A    between atoms: C22_51  and  O3_52 
ROOT
HETATM    1  N3  UNL     1     -16.897  22.963 -16.772  1.00  0.00    -0.303 N 
HETATM    2  C7  UNL     1     -18.185  22.996 -17.305  1.00  0.00     0.084 C 
HETATM    3  C8  UNL     1     -18.809  24.362 -17.480  1.00  0.00     0.073 C 
HETATM    4  C9  UNL     1     -20.003  24.229 -18.436  1.00  0.00     0.237 C 
HETATM    5  N4  UNL     1     -20.188  25.410 -19.224  1.00  0.00    -0.073 N 
ATOM      6  H41 UNL     1     -19.367  26.016 -19.224  1.00  0.00     0.277 HD
ATOM      7  H42 UNL     1     -20.845  26.066 -18.803  1.00  0.00     0.277 HD
HETATM    8  C10 UNL     1     -20.583  25.003 -20.560  1.00  0.00     0.259 C 
HETATM    9  C11 UNL     1     -20.150  26.006 -21.600  1.00  0.00     0.259 C 
HETATM   10  N5  UNL     1     -19.139  25.452 -22.504  1.00  0.00    -0.073 N 
ATOM     11  H51 UNL     1     -18.810  26.127 -23.195  1.00  0.00     0.277 HD
ATOM     12  H52 UNL     1     -19.520  24.768 -23.156  1.00  0.00     0.277 HD
HETATM   13  C12 UNL     1     -18.083  24.923 -21.695  1.00  0.00     0.234 C 
HETATM   14  C13 UNL     1     -16.736  24.968 -22.384  1.00  0.00     0.055 C 
HETATM   15  C14 UNL     1     -15.736  24.189 -21.599  1.00  0.00     0.234 C 
HETATM   16  N6  UNL     1     -16.279  23.630 -20.362  1.00  0.00    -0.074 N 
ATOM     17  H61 UNL     1     -17.213  23.242 -20.498  1.00  0.00     0.277 HD
ATOM     18  H62 UNL     1     -16.513  24.358 -19.688  1.00  0.00     0.277 HD
HETATM   19  C15 UNL     1     -15.388  22.677 -19.819  1.00  0.00     0.248 C 
HETATM   20  C16 UNL     1     -15.180  22.611 -18.358  1.00  0.00     0.141 C 
HETATM   21  N7  UNL     1     -15.884  23.515 -17.516  1.00  0.00    -0.221 NA
ENDROOT
BRANCH   1  22
HETATM   22  C6  UNL     1     -16.706  22.879 -15.391  1.00  0.00     0.110 C 
BRANCH  22  23
HETATM   23  C5  UNL     1     -16.738  21.533 -14.740  1.00  0.00     0.279 C 
BRANCH  23  24
HETATM   24  N2  UNL     1     -18.029  21.063 -14.377  1.00  0.00    -0.062 N 
ATOM     25  H22 UNL     1     -18.372  20.360 -15.031  1.00  0.00     0.278 HD
ATOM     26  H21 UNL     1     -18.746  21.773 -14.526  1.00  0.00     0.278 HD
BRANCH  24  27
HETATM   27  C4  UNL     1     -18.034  20.583 -13.037  1.00  0.00     0.240 C 
HETATM   28  C3  UNL     1     -18.686  21.449 -12.018  1.00  0.00     0.204 C 
HETATM   29  O1  UNL     1     -18.501  20.842 -10.766  1.00  0.00    -0.379 OA
HETATM   30  C2  UNL     1     -19.080  19.604 -10.654  1.00  0.00     0.178 C 
HETATM   31  C22 UNL     1     -19.720  19.146 -11.925  1.00  0.00     0.179 C 
HETATM   32  C21 UNL     1     -18.678  19.211 -13.020  1.00  0.00     0.182 C 
BRANCH  30  33
HETATM   33  C1  UNL     1     -20.050  19.532  -9.493  1.00  0.00     0.264 C 
BRANCH  33  34
HETATM   34  N1  UNL     1     -21.335  20.012  -9.975  1.00  0.00    -0.077 N 
ATOM     35  H13 UNL     1     -21.455  21.018  -9.859  1.00  0.00     0.274 HD
ATOM     36  H12 UNL     1     -21.416  19.987 -10.991  1.00  0.00     0.274 HD
ATOM     37  H11 UNL     1     -22.057  19.468  -9.504  1.00  0.00     0.274 HD
ENDBRANCH  33  34
ENDBRANCH  30  33
BRANCH  31  38
HETATM   38  O3  UNL     1     -20.060  17.780 -11.787  1.00  0.00    -0.390 OA
ATOM     39  H3  UNL     1     -19.569  17.282 -12.429  1.00  0.00     0.210 HD
ENDBRANCH  31  38
BRANCH  32  40
HETATM   40  O2  UNL     1     -19.327  18.934 -14.218  1.00  0.00    -0.391 OA
ATOM     41  H2  UNL     1     -19.963  18.235 -14.120  1.00  0.00     0.210 HD
ENDBRANCH  32  40
ENDBRANCH  24  27
ENDBRANCH  23  24
ENDBRANCH  22  23
ENDBRANCH   1  22
BRANCH  21  42
HETATM   42  C17 UNL     1     -15.008  24.366 -16.828  1.00  0.00     0.160 C 
BRANCH  42  43
HETATM   43  C18 UNL     1     -13.535  24.226 -17.013  1.00  0.00     0.201 A 
HETATM   44  N8  UNL     1     -12.731  24.557 -15.862  1.00  0.00    -0.342 N 
HETATM   45  C19 UNL     1     -11.764  25.381 -15.833  1.00  0.00     0.192 A 
ATOM     46  H8  UNL     1     -12.960  24.085 -14.988  1.00  0.00     0.164 HD
HETATM   47  N9  UNL     1     -11.027  25.638 -14.631  1.00  0.00    -0.063 NA
HETATM   48  N10 UNL     1     -11.377  26.079 -16.982  1.00  0.00    -0.305 N 
HETATM   49  C20 UNL     1     -11.985  25.907 -18.093  1.00  0.00     0.192 A 
ATOM     50  H10 UNL     1     -10.597  26.735 -16.932  1.00  0.00     0.171 HD
HETATM   51  N11 UNL     1     -11.576  26.635 -19.282  1.00  0.00    -0.063 NA
HETATM   52  N12 UNL     1     -13.062  24.998 -18.146  1.00  0.00    -0.342 N 
ATOM     53  H12 UNL     1     -13.540  24.875 -19.039  1.00  0.00     0.164 HD
ENDBRANCH  42  43
ENDBRANCH  21  42
TORSDOF 10
ENDMDL
