MODEL 1
REMARK VINA RESULT: -8.987663028      0.000      0.000
REMARK  15 active torsions:
REMARK  status: ('A' for Active; 'I' for Inactive)
REMARK    1  A    between atoms: N1_2  and  C2_4 
REMARK    2  A    between atoms: C3_7  and  N3_8 
REMARK    3  A    between atoms: N5_15  and  C5_16 
REMARK    4  A    between atoms: C6_18  and  N6_19 
REMARK    5  A    between atoms: C8_25  and  C9_26 
REMARK    6  A    between atoms: C9_26  and  O3_27 
REMARK    7  A    between atoms: C9_26  and  N9_29 
REMARK    8  A    between atoms: N9_29  and  C10_31 
REMARK    9  A    between atoms: C10_31  and  C11_32 
REMARK   10  A    between atoms: C11_32  and  N10_33 
REMARK   11  A    between atoms: C12_37  and  C13_38 
REMARK   12  A    between atoms: C13_38  and  N11_39 
REMARK       I    between atoms: N11_39  and  C14_41 
REMARK   13  A    between atoms: C14_41  and  C15_43 
REMARK   14  A    between atoms: C16_44  and  O5_45 
REMARK   15  A    between atoms: C18_52  and  O8_53 
ROOT
HETATM    1  C5  UNL     1     -17.390  22.394 -15.494  1.00  0.00     0.282 C 
HETATM    2  O2  UNL     1     -17.564  22.685 -14.153  1.00  0.00    -0.336 OA
HETATM    3  C6  UNL     1     -16.904  21.754 -13.410  1.00  0.00     0.257 C 
HETATM    4  C12 UNL     1     -15.726  21.271 -14.251  1.00  0.00     0.087 C 
HETATM    5  C18 UNL     1     -16.132  21.626 -15.642  1.00  0.00     0.178 C 
ENDROOT
BRANCH   3   6
HETATM    6  N6  UNL     1     -17.789  20.617 -13.197  1.00  0.00    -0.242 N 
HETATM    7  N7  UNL     1     -17.419  19.340 -13.501  1.00  0.00    -0.238 N 
HETATM    8  N8  UNL     1     -18.406  18.521 -13.225  1.00  0.00    -0.295 N 
ATOM      9  H7  UNL     1     -16.515  19.065 -13.884  1.00  0.00     0.208 HD
HETATM   10  C7  UNL     1     -19.435  19.205 -12.742  1.00  0.00     0.144 A 
ATOM     11  H8  UNL     1     -18.384  17.510 -13.361  1.00  0.00     0.187 HD
HETATM   12  C8  UNL     1     -19.025  20.562 -12.729  1.00  0.00     0.122 A 
BRANCH  12  13
HETATM   13  C9  UNL     1     -19.877  21.636 -12.244  1.00  0.00     0.166 C 
BRANCH  13  14
HETATM   14  O3  UNL     1     -20.201  22.561 -13.104  1.00  0.00    -0.345 OA
ATOM     15  H3  UNL     1     -20.214  23.455 -12.784  1.00  0.00     0.219 HD
ENDBRANCH  13  14
BRANCH  13  16
HETATM   16  N9  UNL     1     -20.409  21.828 -10.973  1.00  0.00    -0.367 N 
ATOM     17  H9  UNL     1     -19.910  21.455 -10.165  1.00  0.00     0.161 HD
BRANCH  16  18
HETATM   18  C10 UNL     1     -21.655  22.544 -10.762  1.00  0.00     0.149 C 
BRANCH  18  19
HETATM   19  C11 UNL     1     -22.448  21.952  -9.646  1.00  0.00     0.249 C 
BRANCH  19  20
HETATM   20  N10 UNL     1     -23.829  22.485  -9.668  1.00  0.00    -0.078 N 
ATOM     21 3H10 UNL     1     -23.909  23.316 -10.254  1.00  0.00     0.274 HD
ATOM     22 2H10 UNL     1     -24.465  21.878 -10.184  1.00  0.00     0.274 HD
ATOM     23 1H10 UNL     1     -24.152  22.657  -8.716  1.00  0.00     0.274 HD
ENDBRANCH  19  20
ENDBRANCH  18  19
ENDBRANCH  16  18
ENDBRANCH  13  16
ENDBRANCH  12  13
ENDBRANCH   3   6
BRANCH   4  24
HETATM   24  C13 UNL     1     -14.453  21.964 -13.857  1.00  0.00     0.134 C 
BRANCH  24  25
HETATM   25  N11 UNL     1     -13.362  21.778 -14.792  1.00  0.00    -0.356 N 
HETATM   26  C14 UNL     1     -12.094  21.320 -14.436  1.00  0.00     0.262 C 
HETATM   27  O4  UNL     1     -11.864  21.041 -13.232  1.00  0.00    -0.267 OA
ATOM     28  H11 UNL     1     -13.533  21.996 -15.774  1.00  0.00     0.162 HD
BRANCH  26  29
HETATM   29  C15 UNL     1     -11.014  21.143 -15.381  1.00  0.00     0.161 A 
HETATM   30  C16 UNL     1      -9.720  20.721 -15.170  1.00  0.00     0.226 A 
HETATM   31  O6  UNL     1      -9.110  20.719 -16.334  1.00  0.00    -0.208 OA
HETATM   32  N12 UNL     1      -9.891  21.100 -17.276  1.00  0.00    -0.222 N 
HETATM   33  C17 UNL     1     -11.090  21.381 -16.762  1.00  0.00     0.286 A 
ATOM     34  H12 UNL     1      -9.636  21.175 -18.260  1.00  0.00     0.198 HD
HETATM   35  O7  UNL     1     -12.119  21.784 -17.374  1.00  0.00    -0.265 OA
BRANCH  30  36
HETATM   36  O5  UNL     1      -9.121  20.356 -13.970  1.00  0.00    -0.339 OA
ATOM     37  H5  UNL     1      -8.255  19.991 -13.834  1.00  0.00     0.220 HD
ENDBRANCH  30  36
ENDBRANCH  26  29
ENDBRANCH  24  25
ENDBRANCH   4  24
BRANCH   1  38
HETATM   38  N5  UNL     1     -17.409  23.626 -16.264  1.00  0.00    -0.101 N 
HETATM   39  C2  UNL     1     -18.529  24.358 -16.384  1.00  0.00     0.700 A 
HETATM   40  N2  UNL     1     -18.520  25.510 -17.114  1.00  0.00    -0.022 N 
HETATM   41  C3  UNL     1     -17.395  25.928 -17.722  1.00  0.00     0.694 A 
ATOM     42  H2  UNL     1     -19.374  26.059 -17.200  1.00  0.00     0.203 HD
HETATM   43  N4  UNL     1     -16.264  25.209 -17.616  1.00  0.00    -0.140 N 
HETATM   44  C4  UNL     1     -16.295  24.061 -16.881  1.00  0.00     0.357 A 
ATOM     45  H4  UNL     1     -15.405  25.515 -18.073  1.00  0.00     0.189 HD
HETATM   46  O1  UNL     1     -15.193  23.427 -16.818  1.00  0.00    -0.245 OA
BRANCH  39  47
HETATM   47  N1  UNL     1     -19.606  23.958 -15.801  1.00  0.00    -0.230 N 
HETATM   48  C1  UNL     1     -20.797  24.789 -15.860  1.00  0.00     0.165 C 
ATOM     49  H1  UNL     1     -19.623  23.068 -15.303  1.00  0.00     0.177 HD
ENDBRANCH  39  47
BRANCH  41  50
HETATM   50  N3  UNL     1     -17.351  27.011 -18.420  1.00  0.00    -0.234 N 
ATOM     51  H32 UNL     1     -17.601  27.884 -17.954  1.00  0.00     0.174 HD
ATOM     52  H31 UNL     1     -17.076  27.016 -19.402  1.00  0.00     0.174 HD
ENDBRANCH  41  50
ENDBRANCH   1  38
BRANCH   5  53
HETATM   53  O8  UNL     1     -16.307  20.410 -16.342  1.00  0.00    -0.391 OA
ATOM     54  H8  UNL     1     -16.332  19.652 -15.770  1.00  0.00     0.210 HD
ENDBRANCH   5  53
TORSDOF 15
ENDMDL
MODEL 2
REMARK VINA RESULT: -8.715331935      1.779      6.245
REMARK  15 active torsions:
REMARK  status: ('A' for Active; 'I' for Inactive)
REMARK    1  A    between atoms: N1_2  and  C2_4 
REMARK    2  A    between atoms: C3_7  and  N3_8 
REMARK    3  A    between atoms: N5_15  and  C5_16 
REMARK    4  A    between atoms: C6_18  and  N6_19 
REMARK    5  A    between atoms: C8_25  and  C9_26 
REMARK    6  A    between atoms: C9_26  and  O3_27 
REMARK    7  A    between atoms: C9_26  and  N9_29 
REMARK    8  A    between atoms: N9_29  and  C10_31 
REMARK    9  A    between atoms: C10_31  and  C11_32 
REMARK   10  A    between atoms: C11_32  and  N10_33 
REMARK   11  A    between atoms: C12_37  and  C13_38 
REMARK   12  A    between atoms: C13_38  and  N11_39 
REMARK       I    between atoms: N11_39  and  C14_41 
REMARK   13  A    between atoms: C14_41  and  C15_43 
REMARK   14  A    between atoms: C16_44  and  O5_45 
REMARK   15  A    between atoms: C18_52  and  O8_53 
ROOT
HETATM    1  C5  UNL     1     -18.151  20.720 -13.344  1.00  0.00     0.282 C 
HETATM    2  O2  UNL     1     -17.482  20.477 -14.530  1.00  0.00    -0.336 OA
HETATM    3  C6  UNL     1     -16.634  21.514 -14.778  1.00  0.00     0.257 C 
HETATM    4  C12 UNL     1     -16.229  22.089 -13.425  1.00  0.00     0.087 C 
HETATM    5  C18 UNL     1     -17.316  21.621 -12.516  1.00  0.00     0.178 C 
ENDROOT
BRANCH   3   6
HETATM    6  N6  UNL     1     -17.366  22.549 -15.495  1.00  0.00    -0.242 N 
HETATM    7  N7  UNL     1     -18.566  23.025 -15.059  1.00  0.00    -0.238 N 
HETATM    8  N8  UNL     1     -19.007  23.935 -15.896  1.00  0.00    -0.295 N 
ATOM      9  H7  UNL     1     -19.048  22.722 -14.213  1.00  0.00     0.208 HD
HETATM   10  C7  UNL     1     -18.139  24.089 -16.888  1.00  0.00     0.144 A 
ATOM     11  H8  UNL     1     -19.885  24.446 -15.799  1.00  0.00     0.187 HD
HETATM   12  C8  UNL     1     -17.080  23.186 -16.619  1.00  0.00     0.122 A 
BRANCH  12  13
HETATM   13  C9  UNL     1     -15.911  23.069 -17.475  1.00  0.00     0.166 C 
BRANCH  13  14
HETATM   14  O3  UNL     1     -15.761  21.939 -18.110  1.00  0.00    -0.345 OA
ATOM     15  H3  UNL     1     -16.492  21.648 -18.642  1.00  0.00     0.219 HD
ENDBRANCH  13  14
BRANCH  13  16
HETATM   16  N9  UNL     1     -14.908  24.000 -17.724  1.00  0.00    -0.367 N 
ATOM     17  H9  UNL     1     -14.373  23.931 -18.590  1.00  0.00     0.161 HD
BRANCH  16  18
HETATM   18  C10 UNL     1     -14.599  25.066 -16.788  1.00  0.00     0.149 C 
BRANCH  18  19
HETATM   19  C11 UNL     1     -13.128  25.255 -16.633  1.00  0.00     0.249 C 
BRANCH  19  20
HETATM   20  N10 UNL     1     -12.683  24.712 -15.330  1.00  0.00    -0.078 N 
ATOM     21 3H10 UNL     1     -12.231  25.422 -14.754  1.00  0.00     0.274 HD
ATOM     22 2H10 UNL     1     -13.469  24.501 -14.715  1.00  0.00     0.274 HD
ATOM     23 1H10 UNL     1     -12.083  23.900 -15.476  1.00  0.00     0.274 HD
ENDBRANCH  19  20
ENDBRANCH  18  19
ENDBRANCH  16  18
ENDBRANCH  13  16
ENDBRANCH  12  13
ENDBRANCH   3   6
BRANCH   4  24
HETATM   24  C13 UNL     1     -14.888  21.567 -12.989  1.00  0.00     0.134 C 
BRANCH  24  25
HETATM   25  N11 UNL     1     -13.916  21.466 -14.057  1.00  0.00    -0.356 N 
HETATM   26  C14 UNL     1     -12.548  21.285 -13.858  1.00  0.00     0.262 C 
HETATM   27  O4  UNL     1     -12.111  21.198 -12.683  1.00  0.00    -0.267 OA
ATOM     28  H11 UNL     1     -14.254  21.531 -15.018  1.00  0.00     0.162 HD
BRANCH  26  29
HETATM   29  C15 UNL     1     -11.589  21.190 -14.936  1.00  0.00     0.161 A 
HETATM   30  C16 UNL     1     -10.256  20.846 -14.901  1.00  0.00     0.226 A 
HETATM   31  O6  UNL     1      -9.801  20.899 -16.132  1.00  0.00    -0.208 OA
HETATM   32  N12 UNL     1     -10.716  21.245 -16.959  1.00  0.00    -0.222 N 
HETATM   33  C17 UNL     1     -11.855  21.443 -16.291  1.00  0.00     0.286 A 
ATOM     34  H12 UNL     1     -10.595  21.351 -17.965  1.00  0.00     0.198 HD
HETATM   35  O7  UNL     1     -12.976  21.791 -16.758  1.00  0.00    -0.265 OA
BRANCH  30  36
HETATM   36  O5  UNL     1      -9.487  20.501 -13.795  1.00  0.00    -0.339 OA
ATOM     37  H5  UNL     1      -8.579  20.223 -13.775  1.00  0.00     0.220 HD
ENDBRANCH  30  36
ENDBRANCH  26  29
ENDBRANCH  24  25
ENDBRANCH   4  24
BRANCH   1  38
HETATM   38  N5  UNL     1     -18.460  19.458 -12.694  1.00  0.00    -0.101 N 
HETATM   39  C2  UNL     1     -19.709  19.161 -12.300  1.00  0.00     0.700 A 
HETATM   40  N2  UNL     1     -19.971  17.970 -11.690  1.00  0.00    -0.022 N 
HETATM   41  C3  UNL     1     -18.988  17.078 -11.475  1.00  0.00     0.694 A 
ATOM     42  H2  UNL     1     -20.923  17.754 -11.395  1.00  0.00     0.203 HD
HETATM   43  N4  UNL     1     -17.730  17.355 -11.861  1.00  0.00    -0.140 N 
HETATM   44  C4  UNL     1     -17.490  18.552 -12.469  1.00  0.00     0.357 A 
ATOM     45  H4  UNL     1     -16.975  16.688 -11.702  1.00  0.00     0.189 HD
HETATM   46  O1  UNL     1     -16.281  18.754 -12.810  1.00  0.00    -0.245 OA
BRANCH  39  47
HETATM   47  N1  UNL     1     -20.652  20.016 -12.506  1.00  0.00    -0.230 N 
HETATM   48  C1  UNL     1     -21.087  20.871 -11.415  1.00  0.00     0.165 C 
ATOM     49  H1  UNL     1     -21.088  20.091 -13.425  1.00  0.00     0.177 HD
ENDBRANCH  39  47
BRANCH  41  50
HETATM   50  N3  UNL     1     -19.200  15.943 -10.902  1.00  0.00    -0.234 N 
ATOM     51  H32 UNL     1     -20.167  15.690 -10.699  1.00  0.00     0.174 HD
ATOM     52  H31 UNL     1     -18.442  15.307 -10.655  1.00  0.00     0.174 HD
ENDBRANCH  41  50
ENDBRANCH   1  38
BRANCH   5  53
HETATM   53  O8  UNL     1     -18.010  22.772 -12.080  1.00  0.00    -0.391 OA
ATOM     54  H8  UNL     1     -17.573  23.223 -11.367  1.00  0.00     0.210 HD
ENDBRANCH   5  53
TORSDOF 15
ENDMDL
MODEL 3
REMARK VINA RESULT: -8.653827723      2.324      6.490
REMARK  15 active torsions:
REMARK  status: ('A' for Active; 'I' for Inactive)
REMARK    1  A    between atoms: N1_2  and  C2_4 
REMARK    2  A    between atoms: C3_7  and  N3_8 
REMARK    3  A    between atoms: N5_15  and  C5_16 
REMARK    4  A    between atoms: C6_18  and  N6_19 
REMARK    5  A    between atoms: C8_25  and  C9_26 
REMARK    6  A    between atoms: C9_26  and  O3_27 
REMARK    7  A    between atoms: C9_26  and  N9_29 
REMARK    8  A    between atoms: N9_29  and  C10_31 
REMARK    9  A    between atoms: C10_31  and  C11_32 
REMARK   10  A    between atoms: C11_32  and  N10_33 
REMARK   11  A    between atoms: C12_37  and  C13_38 
REMARK   12  A    between atoms: C13_38  and  N11_39 
REMARK       I    between atoms: N11_39  and  C14_41 
REMARK   13  A    between atoms: C14_41  and  C15_43 
REMARK   14  A    between atoms: C16_44  and  O5_45 
REMARK   15  A    between atoms: C18_52  and  O8_53 
ROOT
HETATM    1  C5  UNL     1     -18.064  20.562 -13.014  1.00  0.00     0.282 C 
HETATM    2  O2  UNL     1     -17.434  20.175 -14.182  1.00  0.00    -0.336 OA
HETATM    3  C6  UNL     1     -16.626  21.188 -14.603  1.00  0.00     0.257 C 
HETATM    4  C12 UNL     1     -16.186  21.950 -13.357  1.00  0.00     0.087 C 
HETATM    5  C18 UNL     1     -17.224  21.586 -12.350  1.00  0.00     0.178 C 
ENDROOT
BRANCH   3   6
HETATM    6  N6  UNL     1     -17.412  22.098 -15.423  1.00  0.00    -0.242 N 
HETATM    7  N7  UNL     1     -18.237  23.038 -14.879  1.00  0.00    -0.238 N 
HETATM    8  N8  UNL     1     -18.832  23.708 -15.838  1.00  0.00    -0.295 N 
ATOM      9  H7  UNL     1     -18.372  23.196 -13.880  1.00  0.00     0.208 HD
HETATM   10  C7  UNL     1     -18.433  23.249 -17.018  1.00  0.00     0.144 A 
ATOM     11  H8  UNL     1     -19.500  24.466 -15.697  1.00  0.00     0.187 HD
HETATM   12  C8  UNL     1     -17.515  22.207 -16.737  1.00  0.00     0.122 A 
BRANCH  12  13
HETATM   13  C9  UNL     1     -16.833  21.458 -17.781  1.00  0.00     0.166 C 
BRANCH  13  14
HETATM   14  O3  UNL     1     -17.579  20.721 -18.556  1.00  0.00    -0.345 OA
ATOM     15  H3  UNL     1     -18.514  20.733 -18.385  1.00  0.00     0.219 HD
ENDBRANCH  13  14
BRANCH  13  16
HETATM   16  N9  UNL     1     -15.476  21.410 -18.083  1.00  0.00    -0.367 N 
ATOM     17  H9  UNL     1     -14.802  21.312 -17.323  1.00  0.00     0.161 HD
BRANCH  16  18
HETATM   18  C10 UNL     1     -14.989  21.495 -19.448  1.00  0.00     0.149 C 
BRANCH  18  19
HETATM   19  C11 UNL     1     -14.321  20.232 -19.875  1.00  0.00     0.249 C 
BRANCH  19  20
HETATM   20  N10 UNL     1     -15.332  19.170 -20.081  1.00  0.00    -0.078 N 
ATOM     21 3H10 UNL     1     -14.970  18.247 -19.842  1.00  0.00     0.274 HD
ATOM     22 2H10 UNL     1     -16.083  19.218 -19.393  1.00  0.00     0.274 HD
ATOM     23 1H10 UNL     1     -15.686  19.205 -21.037  1.00  0.00     0.274 HD
ENDBRANCH  19  20
ENDBRANCH  18  19
ENDBRANCH  16  18
ENDBRANCH  13  16
ENDBRANCH  12  13
ENDBRANCH   3   6
BRANCH   4  24
HETATM   24  C13 UNL     1     -14.815  21.524 -12.911  1.00  0.00     0.134 C 
BRANCH  24  25
HETATM   25  N11 UNL     1     -13.851  21.411 -13.985  1.00  0.00    -0.356 N 
HETATM   26  C14 UNL     1     -12.475  21.282 -13.794  1.00  0.00     0.262 C 
HETATM   27  O4  UNL     1     -12.025  21.257 -12.620  1.00  0.00    -0.267 OA
ATOM     28  H11 UNL     1     -14.200  21.426 -14.944  1.00  0.00     0.162 HD
BRANCH  26  29
HETATM   29  C15 UNL     1     -11.524  21.174 -14.876  1.00  0.00     0.161 A 
HETATM   30  C16 UNL     1     -10.202  20.791 -14.853  1.00  0.00     0.226 A 
HETATM   31  O6  UNL     1      -9.750  20.849 -16.085  1.00  0.00    -0.208 OA
HETATM   32  N12 UNL     1     -10.659  21.234 -16.902  1.00  0.00    -0.222 N 
HETATM   33  C17 UNL     1     -11.788  21.456 -16.227  1.00  0.00     0.286 A 
ATOM     34  H12 UNL     1     -10.538  21.351 -17.908  1.00  0.00     0.198 HD
HETATM   35  O7  UNL     1     -12.900  21.845 -16.683  1.00  0.00    -0.265 OA
BRANCH  30  36
HETATM   36  O5  UNL     1      -9.440  20.406 -13.756  1.00  0.00    -0.339 OA
ATOM     37  H5  UNL     1      -8.854  19.662 -13.680  1.00  0.00     0.220 HD
ENDBRANCH  30  36
ENDBRANCH  26  29
ENDBRANCH  24  25
ENDBRANCH   4  24
BRANCH   1  38
HETATM   38  N5  UNL     1     -18.313  19.394 -12.187  1.00  0.00    -0.101 N 
HETATM   39  C2  UNL     1     -19.530  19.146 -11.672  1.00  0.00     0.700 A 
HETATM   40  N2  UNL     1     -19.735  18.043 -10.898  1.00  0.00    -0.022 N 
HETATM   41  C3  UNL     1     -18.728  17.190 -10.638  1.00  0.00     0.694 A 
ATOM     42  H2  UNL     1     -20.661  17.863 -10.513  1.00  0.00     0.203 HD
HETATM   43  N4  UNL     1     -17.503  17.419 -11.141  1.00  0.00    -0.140 N 
HETATM   44  C4  UNL     1     -17.319  18.528 -11.914  1.00  0.00     0.357 A 
ATOM     45  H4  UNL     1     -16.731  16.780 -10.951  1.00  0.00     0.189 HD
HETATM   46  O1  UNL     1     -16.138  18.688 -12.361  1.00  0.00    -0.245 OA
BRANCH  39  47
HETATM   47  N1  UNL     1     -20.494  19.963 -11.922  1.00  0.00    -0.230 N 
HETATM   48  C1  UNL     1     -21.018  20.793 -10.850  1.00  0.00     0.165 C 
ATOM     49  H1  UNL     1     -20.886  20.027 -12.862  1.00  0.00     0.177 HD
ENDBRANCH  39  47
BRANCH  41  50
HETATM   50  N3  UNL     1     -18.887  16.138  -9.911  1.00  0.00    -0.234 N 
ATOM     51  H32 UNL     1     -19.415  15.362 -10.311  1.00  0.00     0.174 HD
ATOM     52  H31 UNL     1     -18.505  16.063  -8.968  1.00  0.00     0.174 HD
ENDBRANCH  41  50
ENDBRANCH   1  38
BRANCH   5  53
HETATM   53  O8  UNL     1     -17.934  22.770 -12.045  1.00  0.00    -0.391 OA
ATOM     54  H8  UNL     1     -18.790  22.604 -11.669  1.00  0.00     0.210 HD
ENDBRANCH   5  53
TORSDOF 15
ENDMDL
MODEL 4
REMARK VINA RESULT: -8.640666724      3.246      6.007
REMARK  15 active torsions:
REMARK  status: ('A' for Active; 'I' for Inactive)
REMARK    1  A    between atoms: N1_2  and  C2_4 
REMARK    2  A    between atoms: C3_7  and  N3_8 
REMARK    3  A    between atoms: N5_15  and  C5_16 
REMARK    4  A    between atoms: C6_18  and  N6_19 
REMARK    5  A    between atoms: C8_25  and  C9_26 
REMARK    6  A    between atoms: C9_26  and  O3_27 
REMARK    7  A    between atoms: C9_26  and  N9_29 
REMARK    8  A    between atoms: N9_29  and  C10_31 
REMARK    9  A    between atoms: C10_31  and  C11_32 
REMARK   10  A    between atoms: C11_32  and  N10_33 
REMARK   11  A    between atoms: C12_37  and  C13_38 
REMARK   12  A    between atoms: C13_38  and  N11_39 
REMARK       I    between atoms: N11_39  and  C14_41 
REMARK   13  A    between atoms: C14_41  and  C15_43 
REMARK   14  A    between atoms: C16_44  and  O5_45 
REMARK   15  A    between atoms: C18_52  and  O8_53 
ROOT
HETATM    1  C5  UNL     1     -19.545  19.367 -11.614  1.00  0.00     0.282 C 
HETATM    2  O2  UNL     1     -18.570  19.049 -10.687  1.00  0.00    -0.336 OA
HETATM    3  C6  UNL     1     -17.378  18.910 -11.332  1.00  0.00     0.257 C 
HETATM    4  C12 UNL     1     -17.428  19.817 -12.557  1.00  0.00     0.087 C 
HETATM    5  C18 UNL     1     -18.891  20.018 -12.772  1.00  0.00     0.178 C 
ENDROOT
BRANCH   3   6
HETATM    6  N6  UNL     1     -17.264  17.537 -11.803  1.00  0.00    -0.242 N 
HETATM    7  N7  UNL     1     -16.684  17.225 -12.997  1.00  0.00    -0.238 N 
HETATM    8  N8  UNL     1     -16.727  15.926 -13.179  1.00  0.00    -0.295 N 
ATOM      9  H7  UNL     1     -16.278  17.897 -13.649  1.00  0.00     0.208 HD
HETATM   10  C7  UNL     1     -17.320  15.348 -12.142  1.00  0.00     0.144 A 
ATOM     11  H8  UNL     1     -16.360  15.435 -13.995  1.00  0.00     0.187 HD
HETATM   12  C8  UNL     1     -17.664  16.400 -11.257  1.00  0.00     0.122 A 
BRANCH  12  13
HETATM   13  C9  UNL     1     -18.320  16.171  -9.981  1.00  0.00     0.166 C 
BRANCH  13  14
HETATM   14  O3  UNL     1     -18.016  16.988  -9.010  1.00  0.00    -0.345 OA
ATOM     15  H3  UNL     1     -17.190  17.451  -9.085  1.00  0.00     0.219 HD
ENDBRANCH  13  14
BRANCH  13  16
HETATM   16  N9  UNL     1     -19.244  15.191  -9.632  1.00  0.00    -0.367 N 
ATOM     17  H9  UNL     1     -18.926  14.374  -9.112  1.00  0.00     0.161 HD
BRANCH  16  18
HETATM   18  C10 UNL     1     -20.648  15.298  -9.987  1.00  0.00     0.149 C 
BRANCH  18  19
HETATM   19  C11 UNL     1     -21.533  15.095  -8.803  1.00  0.00     0.249 C 
BRANCH  19  20
HETATM   20  N10 UNL     1     -22.724  15.968  -8.906  1.00  0.00    -0.078 N 
ATOM     21 3H10 UNL     1     -22.471  16.947  -9.037  1.00  0.00     0.274 HD
ATOM     22 2H10 UNL     1     -23.227  15.826  -9.783  1.00  0.00     0.274 HD
ATOM     23 1H10 UNL     1     -23.326  15.834  -8.094  1.00  0.00     0.274 HD
ENDBRANCH  19  20
ENDBRANCH  18  19
ENDBRANCH  16  18
ENDBRANCH  13  16
ENDBRANCH  12  13
ENDBRANCH   3   6
BRANCH   4  24
HETATM   24  C13 UNL     1     -16.728  21.122 -12.300  1.00  0.00     0.134 C 
BRANCH  24  25
HETATM   25  N11 UNL     1     -15.694  21.440 -13.263  1.00  0.00    -0.356 N 
HETATM   26  C14 UNL     1     -14.356  21.071 -13.128  1.00  0.00     0.262 C 
HETATM   27  O4  UNL     1     -14.005  20.417 -12.114  1.00  0.00    -0.267 OA
ATOM     28  H11 UNL     1     -15.963  21.967 -14.094  1.00  0.00     0.162 HD
BRANCH  26  29
HETATM   29  C15 UNL     1     -13.335  21.399 -14.097  1.00  0.00     0.161 A 
HETATM   30  C16 UNL     1     -11.966  21.437 -13.955  1.00  0.00     0.226 A 
HETATM   31  O6  UNL     1     -11.457  21.789 -15.114  1.00  0.00    -0.208 OA
HETATM   32  N12 UNL     1     -12.371  21.982 -15.991  1.00  0.00    -0.222 N 
HETATM   33  C17 UNL     1     -13.563  21.760 -15.434  1.00  0.00     0.286 A 
ATOM     34  H12 UNL     1     -12.212  22.260 -16.959  1.00  0.00     0.198 HD
HETATM   35  O7  UNL     1     -14.700  21.848 -15.979  1.00  0.00    -0.265 OA
BRANCH  30  36
HETATM   36  O5  UNL     1     -11.213  21.163 -12.819  1.00  0.00    -0.339 OA
ATOM     37  H5  UNL     1     -10.320  21.427 -12.629  1.00  0.00     0.220 HD
ENDBRANCH  30  36
ENDBRANCH  26  29
ENDBRANCH  24  25
ENDBRANCH   4  24
BRANCH   1  38
HETATM   38  N5  UNL     1     -20.562  20.192 -10.985  1.00  0.00    -0.101 N 
HETATM   39  C2  UNL     1     -21.081  19.873  -9.788  1.00  0.00     0.700 A 
HETATM   40  N2  UNL     1     -22.035  20.665  -9.221  1.00  0.00    -0.022 N 
HETATM   41  C3  UNL     1     -22.469  21.773  -9.848  1.00  0.00     0.694 A 
ATOM     42  H2  UNL     1     -22.422  20.415  -8.312  1.00  0.00     0.203 HD
HETATM   43  N4  UNL     1     -21.965  22.110 -11.048  1.00  0.00    -0.140 N 
HETATM   44  C4  UNL     1     -21.010  21.304 -11.597  1.00  0.00     0.357 A 
ATOM     45  H4  UNL     1     -22.286  22.947 -11.534  1.00  0.00     0.189 HD
HETATM   46  O1  UNL     1     -20.573  21.678 -12.732  1.00  0.00    -0.245 OA
BRANCH  39  47
HETATM   47  N1  UNL     1     -20.664  18.812  -9.186  1.00  0.00    -0.230 N 
HETATM   48  C1  UNL     1     -20.861  18.686  -7.752  1.00  0.00     0.165 C 
ATOM     49  H1  UNL     1     -20.202  18.070  -9.711  1.00  0.00     0.177 HD
ENDBRANCH  39  47
BRANCH  41  50
HETATM   50  N3  UNL     1     -23.369  22.544  -9.342  1.00  0.00    -0.234 N 
ATOM     51  H32 UNL     1     -23.250  23.550  -9.459  1.00  0.00     0.174 HD
ATOM     52  H31 UNL     1     -24.180  22.180  -8.840  1.00  0.00     0.174 HD
ENDBRANCH  41  50
ENDBRANCH   1  38
BRANCH   5  53
HETATM   53  O8  UNL     1     -19.212  19.405 -14.005  1.00  0.00    -0.391 OA
ATOM     54  H8  UNL     1     -18.559  19.558 -14.678  1.00  0.00     0.210 HD
ENDBRANCH   5  53
TORSDOF 15
ENDMDL
MODEL 5
REMARK VINA RESULT: -8.533567319      2.312      6.685
REMARK  15 active torsions:
REMARK  status: ('A' for Active; 'I' for Inactive)
REMARK    1  A    between atoms: N1_2  and  C2_4 
REMARK    2  A    between atoms: C3_7  and  N3_8 
REMARK    3  A    between atoms: N5_15  and  C5_16 
REMARK    4  A    between atoms: C6_18  and  N6_19 
REMARK    5  A    between atoms: C8_25  and  C9_26 
REMARK    6  A    between atoms: C9_26  and  O3_27 
REMARK    7  A    between atoms: C9_26  and  N9_29 
REMARK    8  A    between atoms: N9_29  and  C10_31 
REMARK    9  A    between atoms: C10_31  and  C11_32 
REMARK   10  A    between atoms: C11_32  and  N10_33 
REMARK   11  A    between atoms: C12_37  and  C13_38 
REMARK   12  A    between atoms: C13_38  and  N11_39 
REMARK       I    between atoms: N11_39  and  C14_41 
REMARK   13  A    between atoms: C14_41  and  C15_43 
REMARK   14  A    between atoms: C16_44  and  O5_45 
REMARK   15  A    between atoms: C18_52  and  O8_53 
ROOT
HETATM    1  C5  UNL     1     -18.296  20.855 -12.818  1.00  0.00     0.282 C 
HETATM    2  O2  UNL     1     -17.821  20.280 -13.982  1.00  0.00    -0.336 OA
HETATM    3  C6  UNL     1     -16.879  21.100 -14.527  1.00  0.00     0.257 C 
HETATM    4  C12 UNL     1     -16.233  21.860 -13.373  1.00  0.00     0.087 C 
HETATM    5  C18 UNL     1     -17.250  21.759 -12.286  1.00  0.00     0.178 C 
ENDROOT
BRANCH   3   6
HETATM    6  N6  UNL     1     -17.549  22.074 -15.376  1.00  0.00    -0.242 N 
HETATM    7  N7  UNL     1     -18.362  23.044 -14.869  1.00  0.00    -0.238 N 
HETATM    8  N8  UNL     1     -18.843  23.770 -15.851  1.00  0.00    -0.295 N 
ATOM      9  H7  UNL     1     -18.566  23.183 -13.880  1.00  0.00     0.208 HD
HETATM   10  C7  UNL     1     -18.378  23.321 -17.010  1.00  0.00     0.144 A 
ATOM     11  H8  UNL     1     -19.478  24.561 -15.739  1.00  0.00     0.187 HD
HETATM   12  C8  UNL     1     -17.541  22.222 -16.691  1.00  0.00     0.122 A 
BRANCH  12  13
HETATM   13  C9  UNL     1     -16.821  21.464 -17.701  1.00  0.00     0.166 C 
BRANCH  13  14
HETATM   14  O3  UNL     1     -17.529  20.661 -18.447  1.00  0.00    -0.345 OA
ATOM     15  H3  UNL     1     -18.260  21.048 -18.915  1.00  0.00     0.219 HD
ENDBRANCH  13  14
BRANCH  13  16
HETATM   16  N9  UNL     1     -15.462  21.466 -17.998  1.00  0.00    -0.367 N 
ATOM     17  H9  UNL     1     -14.789  21.394 -17.235  1.00  0.00     0.161 HD
BRANCH  16  18
HETATM   18  C10 UNL     1     -14.973  21.570 -19.361  1.00  0.00     0.149 C 
BRANCH  18  19
HETATM   19  C11 UNL     1     -14.291  20.318 -19.798  1.00  0.00     0.249 C 
BRANCH  19  20
HETATM   20  N10 UNL     1     -15.295  19.280 -20.122  1.00  0.00    -0.078 N 
ATOM     21 3H10 UNL     1     -15.635  18.803 -19.288  1.00  0.00     0.274 HD
ATOM     22 2H10 UNL     1     -16.178  19.686 -20.431  1.00  0.00     0.274 HD
ATOM     23 1H10 UNL     1     -14.914  18.627 -20.807  1.00  0.00     0.274 HD
ENDBRANCH  19  20
ENDBRANCH  18  19
ENDBRANCH  16  18
ENDBRANCH  13  16
ENDBRANCH  12  13
ENDBRANCH   3   6
BRANCH   4  24
HETATM   24  C13 UNL     1     -14.931  21.230 -12.965  1.00  0.00     0.134 C 
BRANCH  24  25
HETATM   25  N11 UNL     1     -13.933  21.199 -14.014  1.00  0.00    -0.356 N 
HETATM   26  C14 UNL     1     -12.557  21.202 -13.788  1.00  0.00     0.262 C 
HETATM   27  O4  UNL     1     -12.135  21.228 -12.604  1.00  0.00    -0.267 OA
ATOM     28  H11 UNL     1     -14.258  21.174 -14.981  1.00  0.00     0.162 HD
BRANCH  26  29
HETATM   29  C15 UNL     1     -11.573  21.175 -14.846  1.00  0.00     0.161 A 
HETATM   30  C16 UNL     1     -10.239  20.837 -14.800  1.00  0.00     0.226 A 
HETATM   31  O6  UNL     1      -9.756  20.965 -16.016  1.00  0.00    -0.208 OA
HETATM   32  N12 UNL     1     -10.654  21.354 -16.842  1.00  0.00    -0.222 N 
HETATM   33  C17 UNL     1     -11.809  21.507 -16.190  1.00  0.00     0.286 A 
ATOM     34  H12 UNL     1     -10.510  21.520 -17.837  1.00  0.00     0.198 HD
HETATM   35  O7  UNL     1     -12.921  21.877 -16.662  1.00  0.00    -0.265 OA
BRANCH  30  36
HETATM   36  O5  UNL     1      -9.494  20.430 -13.700  1.00  0.00    -0.339 OA
ATOM     37  H5  UNL     1      -8.854  19.730 -13.651  1.00  0.00     0.220 HD
ENDBRANCH  30  36
ENDBRANCH  26  29
ENDBRANCH  24  25
ENDBRANCH   4  24
BRANCH   1  38
HETATM   38  N5  UNL     1     -18.688  19.813 -11.886  1.00  0.00    -0.101 N 
HETATM   39  C2  UNL     1     -17.990  18.669 -11.781  1.00  0.00     0.700 A 
HETATM   40  N2  UNL     1     -18.381  17.706 -10.899  1.00  0.00    -0.022 N 
HETATM   41  C3  UNL     1     -19.464  17.885 -10.122  1.00  0.00     0.694 A 
ATOM     42  H2  UNL     1     -17.845  16.842 -10.826  1.00  0.00     0.203 HD
HETATM   43  N4  UNL     1     -20.178  19.021 -10.212  1.00  0.00    -0.140 N 
HETATM   44  C4  UNL     1     -19.770  19.972 -11.101  1.00  0.00     0.357 A 
ATOM     45  H4  UNL     1     -21.002  19.168  -9.630  1.00  0.00     0.189 HD
HETATM   46  O1  UNL     1     -20.485  21.023 -11.137  1.00  0.00    -0.245 OA
BRANCH  39  47
HETATM   47  N1  UNL     1     -16.951  18.498 -12.524  1.00  0.00    -0.230 N 
HETATM   48  C1  UNL     1     -16.313  17.193 -12.563  1.00  0.00     0.165 C 
ATOM     49  H1  UNL     1     -16.581  19.270 -13.079  1.00  0.00     0.177 HD
ENDBRANCH  39  47
BRANCH  41  50
HETATM   50  N3  UNL     1     -19.862  16.996  -9.278  1.00  0.00    -0.234 N 
ATOM     51  H32 UNL     1     -20.182  17.321  -8.365  1.00  0.00     0.174 HD
ATOM     52  H31 UNL     1     -19.865  15.999  -9.495  1.00  0.00     0.174 HD
ENDBRANCH  41  50
ENDBRANCH   1  38
BRANCH   5  53
HETATM   53  O8  UNL     1     -17.722  23.069 -12.043  1.00  0.00    -0.391 OA
ATOM     54  H8  UNL     1     -18.667  23.142 -12.111  1.00  0.00     0.210 HD
ENDBRANCH   5  53
TORSDOF 15
ENDMDL
