MODEL 1
REMARK VINA RESULT: -8.308342401      0.000      0.000
REMARK  12 active torsions:
REMARK  status: ('A' for Active; 'I' for Inactive)
REMARK    1  A    between atoms: O1_2  and  N1_3 
REMARK    2  A    between atoms: N1_3  and  C2_4 
REMARK    3  A    between atoms: C2_4  and  C3_5 
REMARK    4  A    between atoms: N4_10  and  C4_11 
REMARK    5  A    between atoms: C6_16  and  O3_17 
REMARK    6  A    between atoms: O3_17  and  C7_18 
REMARK    7  A    between atoms: C10_25  and  N7_26 
REMARK    8  A    between atoms: N7_26  and  C11_28 
REMARK    9  A    between atoms: C14_33  and  N9_34 
REMARK   10  A    between atoms: C15_39  and  O5_40 
REMARK   11  A    between atoms: C16_42  and  N11_43 
REMARK   12  A    between atoms: C17_47  and  O6_48 
ROOT
HETATM    1  C4  UNL     1      32.891  10.049 -20.459  1.00  0.00     0.242 C 
HETATM    2  N5  UNL     1      32.433   9.398 -21.692  1.00  0.00    -0.333 N 
ATOM      3  H5  UNL     1      31.851   8.566 -21.591  1.00  0.00     0.164 HD
HETATM    4  C5  UNL     1      32.732   9.830 -23.029  1.00  0.00     0.251 C 
HETATM    5  O2  UNL     1      31.989   9.495 -23.961  1.00  0.00    -0.271 OA
HETATM    6  C6  UNL     1      33.951  10.690 -23.323  1.00  0.00     0.246 C 
HETATM    7  C15 UNL     1      33.701  12.023 -22.807  1.00  0.00     0.189 C 
HETATM    8  C16 UNL     1      33.658  12.284 -21.353  1.00  0.00     0.247 C 
HETATM    9  C17 UNL     1      32.608  11.524 -20.621  1.00  0.00     0.195 C 
ENDROOT
BRANCH   6  10
HETATM   10  O3  UNL     1      34.197  10.813 -24.685  1.00  0.00    -0.346 OA
BRANCH  10  11
HETATM   11  C7  UNL     1      33.787  12.021 -25.237  1.00  0.00     0.257 C 
HETATM   12  N6  UNL     1      32.541  11.867 -26.029  1.00  0.00    -0.331 N 
HETATM   13  C8  UNL     1      32.433  11.002 -27.126  1.00  0.00     0.229 C 
ATOM     14  H6  UNL     1      31.725  12.417 -25.762  1.00  0.00     0.165 HD
HETATM   15  O4  UNL     1      31.316  10.995 -27.762  1.00  0.00    -0.273 OA
HETATM   16  C9  UNL     1      33.519  10.108 -27.592  1.00  0.00     0.179 C 
HETATM   17  S1  UNL     1      35.055  11.071 -27.474  1.00  0.00    -0.130 SA
HETATM   18  C10 UNL     1      34.869  12.398 -26.215  1.00  0.00     0.194 C 
BRANCH  18  19
HETATM   19  N7  UNL     1      34.843  13.678 -26.709  1.00  0.00    -0.358 N 
ATOM     20  H7  UNL     1      35.009  14.306 -25.923  1.00  0.00     0.162 HD
BRANCH  19  21
HETATM   21  C11 UNL     1      34.703  14.376 -27.702  1.00  0.00     0.119 A 
HETATM   22  C12 UNL     1      34.833  15.774 -27.524  1.00  0.00     0.066 A 
HETATM   23  C13 UNL     1      34.723  16.673 -28.546  1.00  0.00     0.110 A 
HETATM   24  N8  UNL     1      34.475  16.180 -29.769  1.00  0.00    -0.202 N 
HETATM   25  C14 UNL     1      34.345  14.863 -29.956  1.00  0.00     0.677 A 
ATOM     26  H8  UNL     1      34.385  16.816 -30.562  1.00  0.00     0.183 HD
HETATM   27  N10 UNL     1      34.457  13.968 -28.964  1.00  0.00    -0.177 N 
ATOM     28  H10 UNL     1      34.355  12.974 -29.165  1.00  0.00     0.185 HD
BRANCH  25  29
HETATM   29  N9  UNL     1      34.085  14.482 -31.167  1.00  0.00    -0.234 N 
ATOM     30  H92 UNL     1      34.407  15.027 -31.967  1.00  0.00     0.174 HD
ATOM     31  H91 UNL     1      33.557  13.613 -31.261  1.00  0.00     0.174 HD
ENDBRANCH  25  29
ENDBRANCH  19  21
ENDBRANCH  18  19
ENDBRANCH  10  11
ENDBRANCH   6  10
BRANCH   7  32
HETATM   32  O5  UNL     1      32.439  12.453 -23.298  1.00  0.00    -0.390 OA
ATOM     33  H5  UNL     1      32.297  13.343 -23.000  1.00  0.00     0.210 HD
ENDBRANCH   7  32
BRANCH   8  34
HETATM   34  N11 UNL     1      34.907  12.270 -20.675  1.00  0.00    -0.070 N 
ATOM     35 3H11 UNL     1      35.633  11.917 -21.298  1.00  0.00     0.274 HD
ATOM     36 2H11 UNL     1      35.233  13.226 -20.534  1.00  0.00     0.274 HD
ATOM     37 1H11 UNL     1      34.934  11.763 -19.791  1.00  0.00     0.274 HD
ENDBRANCH   8  34
BRANCH   1  38
HETATM   38  N4  UNL     1      32.122   9.622 -19.310  1.00  0.00    -0.236 N 
HETATM   39  N3  UNL     1      31.165  10.183 -18.614  1.00  0.00    -0.237 N 
HETATM   40  N2  UNL     1      30.766   9.373 -17.605  1.00  0.00    -0.286 N 
ATOM     41  H3  UNL     1      30.772  11.105 -18.805  1.00  0.00     0.208 HD
HETATM   42  C3  UNL     1      31.481   8.257 -17.639  1.00  0.00     0.086 A 
ATOM     43  H2  UNL     1      30.034   9.587 -16.927  1.00  0.00     0.188 HD
HETATM   44  C18 UNL     1      32.344   8.426 -18.737  1.00  0.00     0.161 A 
HETATM   45  N12 UNL     1      33.204   7.353 -19.098  1.00  0.00    -0.079 NA
BRANCH  42  46
HETATM   46  C2  UNL     1      31.592   7.105 -16.703  1.00  0.00     0.204 C 
BRANCH  46  47
HETATM   47  N1  UNL     1      32.642   7.402 -15.766  1.00  0.00    -0.096 NA
BRANCH  47  48
HETATM   48  O1  UNL     1      32.908   6.316 -15.043  1.00  0.00    -0.291 OA
HETATM   49  C1  UNL     1      33.620   5.343 -15.766  1.00  0.00     0.231 C 
ENDBRANCH  47  48
ENDBRANCH  46  47
ENDBRANCH  42  46
ENDBRANCH   1  38
BRANCH   9  50
HETATM   50  O6  UNL     1      31.371  11.550 -21.334  1.00  0.00    -0.389 OA
ATOM     51  H6  UNL     1      31.061  12.439 -21.208  1.00  0.00     0.210 HD
ENDBRANCH   9  50
TORSDOF 12
ENDMDL
MODEL 2
REMARK VINA RESULT: -8.187970856      3.339      4.771
REMARK  12 active torsions:
REMARK  status: ('A' for Active; 'I' for Inactive)
REMARK    1  A    between atoms: O1_2  and  N1_3 
REMARK    2  A    between atoms: N1_3  and  C2_4 
REMARK    3  A    between atoms: C2_4  and  C3_5 
REMARK    4  A    between atoms: N4_10  and  C4_11 
REMARK    5  A    between atoms: C6_16  and  O3_17 
REMARK    6  A    between atoms: O3_17  and  C7_18 
REMARK    7  A    between atoms: C10_25  and  N7_26 
REMARK    8  A    between atoms: N7_26  and  C11_28 
REMARK    9  A    between atoms: C14_33  and  N9_34 
REMARK   10  A    between atoms: C15_39  and  O5_40 
REMARK   11  A    between atoms: C16_42  and  N11_43 
REMARK   12  A    between atoms: C17_47  and  O6_48 
ROOT
HETATM    1  C4  UNL     1      33.290  12.230 -21.556  1.00  0.00     0.242 C 
HETATM    2  N5  UNL     1      34.135  13.050 -20.679  1.00  0.00    -0.333 N 
ATOM      3  H5  UNL     1      33.924  13.034 -19.681  1.00  0.00     0.164 HD
HETATM    4  C5  UNL     1      35.235  13.871 -21.103  1.00  0.00     0.251 C 
HETATM    5  O2  UNL     1      36.120  14.174 -20.292  1.00  0.00    -0.271 OA
HETATM    6  C6  UNL     1      35.331  14.381 -22.533  1.00  0.00     0.246 C 
HETATM    7  C15 UNL     1      35.664  13.260 -23.392  1.00  0.00     0.189 C 
HETATM    8  C16 UNL     1      34.685  12.186 -23.662  1.00  0.00     0.247 C 
HETATM    9  C17 UNL     1      34.226  11.452 -22.450  1.00  0.00     0.195 C 
ENDROOT
BRANCH   6  10
HETATM   10  O3  UNL     1      36.329  15.334 -22.689  1.00  0.00    -0.346 OA
BRANCH  10  11
HETATM   11  C7  UNL     1      36.652  15.617 -24.012  1.00  0.00     0.257 C 
HETATM   12  N6  UNL     1      37.894  16.423 -24.112  1.00  0.00    -0.331 N 
HETATM   13  C8  UNL     1      38.043  17.678 -23.509  1.00  0.00     0.229 C 
ATOM     14  H6  UNL     1      38.676  16.046 -24.646  1.00  0.00     0.165 HD
HETATM   15  O4  UNL     1      39.149  18.301 -23.710  1.00  0.00    -0.273 OA
HETATM   16  C9  UNL     1      37.011  18.324 -22.663  1.00  0.00     0.179 C 
HETATM   17  S1  UNL     1      35.417  18.005 -23.475  1.00  0.00    -0.130 SA
HETATM   18  C10 UNL     1      35.534  16.493 -24.514  1.00  0.00     0.194 C 
BRANCH  18  19
HETATM   19  N7  UNL     1      35.470  16.704 -25.869  1.00  0.00    -0.358 N 
ATOM     20  H7  UNL     1      35.774  17.662 -26.038  1.00  0.00     0.162 HD
BRANCH  19  21
HETATM   21  C11 UNL     1      35.197  16.217 -26.956  1.00  0.00     0.119 A 
HETATM   22  C12 UNL     1      34.901  14.833 -26.979  1.00  0.00     0.066 A 
HETATM   23  C13 UNL     1      34.560  14.158 -28.117  1.00  0.00     0.110 A 
HETATM   24  N8  UNL     1      34.514  14.866 -29.256  1.00  0.00    -0.202 N 
HETATM   25  C14 UNL     1      34.795  16.174 -29.254  1.00  0.00     0.677 A 
ATOM     26  H8  UNL     1      34.264  14.403 -30.130  1.00  0.00     0.183 HD
HETATM   27  N10 UNL     1      35.125  16.849 -28.145  1.00  0.00    -0.177 N 
ATOM     28  H10 UNL     1      35.321  17.848 -28.200  1.00  0.00     0.185 HD
BRANCH  25  29
HETATM   29  N9  UNL     1      34.745  16.768 -30.404  1.00  0.00    -0.234 N 
ATOM     30  H92 UNL     1      34.292  16.325 -31.204  1.00  0.00     0.174 HD
ATOM     31  H91 UNL     1      35.172  17.694 -30.449  1.00  0.00     0.174 HD
ENDBRANCH  25  29
ENDBRANCH  19  21
ENDBRANCH  18  19
ENDBRANCH  10  11
ENDBRANCH   6  10
BRANCH   7  32
HETATM   32  O5  UNL     1      36.793  12.602 -22.836  1.00  0.00    -0.390 OA
ATOM     33  H5  UNL     1      36.621  11.668 -22.842  1.00  0.00     0.210 HD
ENDBRANCH   7  32
BRANCH   8  34
HETATM   34  N11 UNL     1      33.612  12.518 -24.532  1.00  0.00    -0.070 N 
ATOM     35 3H11 UNL     1      33.113  11.670 -24.803  1.00  0.00     0.274 HD
ATOM     36 2H11 UNL     1      32.883  13.003 -24.010  1.00  0.00     0.274 HD
ATOM     37 1H11 UNL     1      33.856  13.055 -25.364  1.00  0.00     0.274 HD
ENDBRANCH   8  34
BRANCH   1  38
HETATM   38  N4  UNL     1      32.543  11.242 -20.809  1.00  0.00    -0.236 N 
HETATM   39  N3  UNL     1      31.858  10.182 -21.160  1.00  0.00    -0.237 N 
HETATM   40  N2  UNL     1      31.322   9.575 -20.076  1.00  0.00    -0.286 N 
ATOM     41  H3  UNL     1      31.744   9.858 -22.121  1.00  0.00     0.208 HD
HETATM   42  C3  UNL     1      31.661  10.254 -18.989  1.00  0.00     0.086 A 
ATOM     43  H2  UNL     1      30.749   8.731 -20.092  1.00  0.00     0.188 HD
HETATM   44  C18 UNL     1      32.445  11.318 -19.469  1.00  0.00     0.161 A 
HETATM   45  N12 UNL     1      33.039  12.204 -18.530  1.00  0.00    -0.079 NA
BRANCH  42  46
HETATM   46  C2  UNL     1      31.235  10.151 -17.566  1.00  0.00     0.204 C 
BRANCH  46  47
HETATM   47  N1  UNL     1      30.414   8.978 -17.439  1.00  0.00    -0.096 NA
BRANCH  47  48
HETATM   48  O1  UNL     1      31.129   7.902 -17.761  1.00  0.00    -0.291 OA
HETATM   49  C1  UNL     1      31.810   7.353 -16.660  1.00  0.00     0.231 C 
ENDBRANCH  47  48
ENDBRANCH  46  47
ENDBRANCH  42  46
ENDBRANCH   1  38
BRANCH   9  50
HETATM   50  O6  UNL     1      35.327  11.144 -21.595  1.00  0.00    -0.389 OA
ATOM     51  H6  UNL     1      35.998  10.844 -22.196  1.00  0.00     0.210 HD
ENDBRANCH   9  50
TORSDOF 12
ENDMDL
MODEL 3
REMARK VINA RESULT: -8.038244593      1.668      2.257
REMARK  12 active torsions:
REMARK  status: ('A' for Active; 'I' for Inactive)
REMARK    1  A    between atoms: O1_2  and  N1_3 
REMARK    2  A    between atoms: N1_3  and  C2_4 
REMARK    3  A    between atoms: C2_4  and  C3_5 
REMARK    4  A    between atoms: N4_10  and  C4_11 
REMARK    5  A    between atoms: C6_16  and  O3_17 
REMARK    6  A    between atoms: O3_17  and  C7_18 
REMARK    7  A    between atoms: C10_25  and  N7_26 
REMARK    8  A    between atoms: N7_26  and  C11_28 
REMARK    9  A    between atoms: C14_33  and  N9_34 
REMARK   10  A    between atoms: C15_39  and  O5_40 
REMARK   11  A    between atoms: C16_42  and  N11_43 
REMARK   12  A    between atoms: C17_47  and  O6_48 
ROOT
HETATM    1  C4  UNL     1      33.130  10.014 -22.299  1.00  0.00     0.242 C 
HETATM    2  N5  UNL     1      32.268   9.510 -23.374  1.00  0.00    -0.333 N 
ATOM      3  H5  UNL     1      31.512   8.879 -23.108  1.00  0.00     0.164 HD
HETATM    4  C5  UNL     1      32.395   9.828 -24.769  1.00  0.00     0.251 C 
HETATM    5  O2  UNL     1      31.413   9.710 -25.515  1.00  0.00    -0.271 OA
HETATM    6  C6  UNL     1      33.717  10.304 -25.351  1.00  0.00     0.246 C 
HETATM    7  C15 UNL     1      33.956  11.658 -24.884  1.00  0.00     0.189 C 
HETATM    8  C16 UNL     1      34.285  11.932 -23.470  1.00  0.00     0.247 C 
HETATM    9  C17 UNL     1      33.239  11.507 -22.500  1.00  0.00     0.195 C 
ENDROOT
BRANCH   6  10
HETATM   10  O3  UNL     1      33.703  10.341 -26.739  1.00  0.00    -0.346 OA
BRANCH  10  11
HETATM   11  C7  UNL     1      33.383  11.582 -27.279  1.00  0.00     0.257 C 
HETATM   12  N6  UNL     1      32.143  11.522 -28.093  1.00  0.00    -0.331 N 
HETATM   13  C8  UNL     1      31.998  10.683 -29.205  1.00  0.00     0.229 C 
ATOM     14  H6  UNL     1      31.360  12.120 -27.831  1.00  0.00     0.165 HD
HETATM   15  O4  UNL     1      30.894  10.758 -29.859  1.00  0.00    -0.273 OA
HETATM   16  C9  UNL     1      33.030   9.726 -29.667  1.00  0.00     0.179 C 
HETATM   17  S1  UNL     1      34.624  10.583 -29.509  1.00  0.00    -0.130 SA
HETATM   18  C10 UNL     1      34.504  11.901 -28.232  1.00  0.00     0.194 C 
BRANCH  18  19
HETATM   19  N7  UNL     1      34.571  13.187 -28.706  1.00  0.00    -0.358 N 
ATOM     20  H7  UNL     1      34.504  13.136 -29.722  1.00  0.00     0.162 HD
BRANCH  19  21
HETATM   21  C11 UNL     1      34.678  14.368 -28.413  1.00  0.00     0.119 A 
HETATM   22  C12 UNL     1      34.513  15.304 -29.462  1.00  0.00     0.066 A 
HETATM   23  C13 UNL     1      34.585  16.656 -29.278  1.00  0.00     0.110 A 
HETATM   24  N8  UNL     1      34.828  17.091 -28.032  1.00  0.00    -0.202 N 
HETATM   25  C14 UNL     1      34.990  16.221 -27.029  1.00  0.00     0.677 A 
ATOM     26  H8  UNL     1      34.890  18.093 -27.849  1.00  0.00     0.183 HD
HETATM   27  N10 UNL     1      34.916  14.893 -27.193  1.00  0.00    -0.177 N 
ATOM     28  H10 UNL     1      35.041  14.276 -26.392  1.00  0.00     0.185 HD
BRANCH  25  29
HETATM   29  N9  UNL     1      35.242  16.734 -25.866  1.00  0.00    -0.234 N 
ATOM     30  H92 UNL     1      36.157  16.617 -25.430  1.00  0.00     0.174 HD
ATOM     31  H91 UNL     1      34.482  17.260 -25.433  1.00  0.00     0.174 HD
ENDBRANCH  25  29
ENDBRANCH  19  21
ENDBRANCH  18  19
ENDBRANCH  10  11
ENDBRANCH   6  10
BRANCH   7  32
HETATM   32  O5  UNL     1      32.790  12.424 -25.149  1.00  0.00    -0.390 OA
ATOM     33  H5  UNL     1      32.233  12.386 -24.381  1.00  0.00     0.210 HD
ENDBRANCH   7  32
BRANCH   8  34
HETATM   34  N11 UNL     1      35.593  11.569 -23.048  1.00  0.00    -0.070 N 
ATOM     35 3H11 UNL     1      35.682  11.709 -22.041  1.00  0.00     0.274 HD
ATOM     36 2H11 UNL     1      35.704  10.557 -23.104  1.00  0.00     0.274 HD
ATOM     37 1H11 UNL     1      36.365  12.028 -23.529  1.00  0.00     0.274 HD
ENDBRANCH   8  34
BRANCH   1  38
HETATM   38  N4  UNL     1      32.525   9.833 -20.998  1.00  0.00    -0.236 N 
HETATM   39  N3  UNL     1      31.287   9.870 -20.572  1.00  0.00    -0.237 N 
HETATM   40  N2  UNL     1      31.230   9.644 -19.238  1.00  0.00    -0.286 N 
ATOM     41  H3  UNL     1      30.475  10.046 -21.164  1.00  0.00     0.208 HD
HETATM   42  C3  UNL     1      32.459   9.457 -18.779  1.00  0.00     0.086 A 
ATOM     43  H2  UNL     1      30.378   9.621 -18.677  1.00  0.00     0.188 HD
HETATM   44  C18 UNL     1      33.281   9.577 -19.914  1.00  0.00     0.161 A 
HETATM   45  N12 UNL     1      34.677   9.350 -19.772  1.00  0.00    -0.079 NA
BRANCH  42  46
HETATM   46  C2  UNL     1      33.010   9.334 -17.402  1.00  0.00     0.204 C 
BRANCH  46  47
HETATM   47  N1  UNL     1      31.948   8.880 -16.545  1.00  0.00    -0.096 NA
BRANCH  47  48
HETATM   48  O1  UNL     1      31.564   7.663 -16.925  1.00  0.00    -0.291 OA
HETATM   49  C1  UNL     1      32.199   6.642 -16.198  1.00  0.00     0.231 C 
ENDBRANCH  47  48
ENDBRANCH  46  47
ENDBRANCH  42  46
ENDBRANCH   1  38
BRANCH   9  50
HETATM   50  O6  UNL     1      31.939  11.878 -22.960  1.00  0.00    -0.389 OA
ATOM     51  H6  UNL     1      31.630  11.098 -23.405  1.00  0.00     0.210 HD
ENDBRANCH   9  50
TORSDOF 12
ENDMDL
MODEL 4
REMARK VINA RESULT: -7.971797571      3.024      4.398
REMARK  12 active torsions:
REMARK  status: ('A' for Active; 'I' for Inactive)
REMARK    1  A    between atoms: O1_2  and  N1_3 
REMARK    2  A    between atoms: N1_3  and  C2_4 
REMARK    3  A    between atoms: C2_4  and  C3_5 
REMARK    4  A    between atoms: N4_10  and  C4_11 
REMARK    5  A    between atoms: C6_16  and  O3_17 
REMARK    6  A    between atoms: O3_17  and  C7_18 
REMARK    7  A    between atoms: C10_25  and  N7_26 
REMARK    8  A    between atoms: N7_26  and  C11_28 
REMARK    9  A    between atoms: C14_33  and  N9_34 
REMARK   10  A    between atoms: C15_39  and  O5_40 
REMARK   11  A    between atoms: C16_42  and  N11_43 
REMARK   12  A    between atoms: C17_47  and  O6_48 
ROOT
HETATM    1  C4  UNL     1      33.759  11.841 -22.209  1.00  0.00     0.242 C 
HETATM    2  N5  UNL     1      32.527  11.755 -23.003  1.00  0.00    -0.333 N 
ATOM      3  H5  UNL     1      31.682  11.450 -22.519  1.00  0.00     0.164 HD
HETATM    4  C5  UNL     1      32.407  12.062 -24.400  1.00  0.00     0.251 C 
HETATM    5  O2  UNL     1      31.300  12.363 -24.868  1.00  0.00    -0.271 OA
HETATM    6  C6  UNL     1      33.616  12.021 -25.322  1.00  0.00     0.246 C 
HETATM    7  C15 UNL     1      34.463  13.157 -25.009  1.00  0.00     0.189 C 
HETATM    8  C16 UNL     1      35.220  13.221 -23.741  1.00  0.00     0.247 C 
HETATM    9  C17 UNL     1      34.374  13.186 -22.516  1.00  0.00     0.195 C 
ENDROOT
BRANCH   6  10
HETATM   10  O3  UNL     1      33.265  12.123 -26.662  1.00  0.00    -0.346 OA
BRANCH  10  11
HETATM   11  C7  UNL     1      34.216  11.624 -27.546  1.00  0.00     0.257 C 
HETATM   12  N6  UNL     1      34.090  12.239 -28.891  1.00  0.00    -0.331 N 
HETATM   13  C8  UNL     1      32.921  12.166 -29.660  1.00  0.00     0.229 C 
ATOM     14  H6  UNL     1      34.892  12.739 -29.273  1.00  0.00     0.165 HD
HETATM   15  O4  UNL     1      32.953  12.695 -30.830  1.00  0.00    -0.273 OA
HETATM   16  C9  UNL     1      31.667  11.519 -29.209  1.00  0.00     0.179 C 
HETATM   17  S1  UNL     1      32.161   9.997 -28.348  1.00  0.00    -0.130 SA
HETATM   18  C10 UNL     1      33.877  10.166 -27.711  1.00  0.00     0.194 C 
BRANCH  18  19
HETATM   19  N7  UNL     1      34.815   9.376 -28.328  1.00  0.00    -0.358 N 
ATOM     20  H7  UNL     1      34.310   8.733 -28.937  1.00  0.00     0.162 HD
BRANCH  19  21
HETATM   21  C11 UNL     1      36.004   9.125 -28.448  1.00  0.00     0.119 A 
HETATM   22  C12 UNL     1      36.439   8.682 -29.720  1.00  0.00     0.066 A 
HETATM   23  C13 UNL     1      37.741   8.386 -30.006  1.00  0.00     0.110 A 
HETATM   24  N8  UNL     1      38.631   8.526 -29.013  1.00  0.00    -0.202 N 
HETATM   25  C14 UNL     1      38.239   8.939 -27.803  1.00  0.00     0.677 A 
ATOM     26  H8  UNL     1      39.616   8.316 -29.182  1.00  0.00     0.183 HD
HETATM   27  N10 UNL     1      36.967   9.240 -27.510  1.00  0.00    -0.177 N 
ATOM     28  H10 UNL     1      36.725   9.557 -26.572  1.00  0.00     0.185 HD
BRANCH  25  29
HETATM   29  N9  UNL     1      39.167   9.023 -26.902  1.00  0.00    -0.234 N 
ATOM     30  H92 UNL     1      40.150   8.910 -27.150  1.00  0.00     0.174 HD
ATOM     31  H91 UNL     1      38.852   9.218 -25.951  1.00  0.00     0.174 HD
ENDBRANCH  25  29
ENDBRANCH  19  21
ENDBRANCH  18  19
ENDBRANCH  10  11
ENDBRANCH   6  10
BRANCH   7  32
HETATM   32  O5  UNL     1      33.652  14.323 -25.016  1.00  0.00    -0.390 OA
ATOM     33  H5  UNL     1      34.117  15.006 -24.549  1.00  0.00     0.210 HD
ENDBRANCH   7  32
BRANCH   8  34
HETATM   34  N11 UNL     1      36.350  12.366 -23.641  1.00  0.00    -0.070 N 
ATOM     35 3H11 UNL     1      36.599  12.236 -22.660  1.00  0.00     0.274 HD
ATOM     36 2H11 UNL     1      36.086  11.414 -23.893  1.00  0.00     0.274 HD
ATOM     37 1H11 UNL     1      37.175  12.646 -24.171  1.00  0.00     0.274 HD
ENDBRANCH   8  34
BRANCH   1  38
HETATM   38  N4  UNL     1      33.482  11.847 -20.789  1.00  0.00    -0.236 N 
HETATM   39  N3  UNL     1      33.687  12.726 -19.840  1.00  0.00    -0.237 N 
HETATM   40  N2  UNL     1      33.255  12.255 -18.647  1.00  0.00    -0.286 N 
ATOM     41  H3  UNL     1      34.115  13.641 -19.980  1.00  0.00     0.208 HD
HETATM   42  C3  UNL     1      32.757  11.038 -18.818  1.00  0.00     0.086 A 
ATOM     43  H2  UNL     1      33.304  12.755 -17.759  1.00  0.00     0.188 HD
HETATM   44  C18 UNL     1      32.905  10.788 -20.194  1.00  0.00     0.161 A 
HETATM   45  N12 UNL     1      32.388   9.574 -20.725  1.00  0.00    -0.079 NA
BRANCH  42  46
HETATM   46  C2  UNL     1      32.298   9.996 -17.859  1.00  0.00     0.204 C 
BRANCH  46  47
HETATM   47  N1  UNL     1      30.897  10.213 -17.615  1.00  0.00    -0.096 NA
BRANCH  47  48
HETATM   48  O1  UNL     1      30.275   9.038 -17.547  1.00  0.00    -0.291 OA
HETATM   49  C1  UNL     1      31.166   7.956 -17.438  1.00  0.00     0.231 C 
ENDBRANCH  47  48
ENDBRANCH  46  47
ENDBRANCH  42  46
ENDBRANCH   1  38
BRANCH   9  50
HETATM   50  O6  UNL     1      33.243  14.047 -22.655  1.00  0.00    -0.389 OA
ATOM     51  H6  UNL     1      33.391  14.715 -21.997  1.00  0.00     0.210 HD
ENDBRANCH   9  50
TORSDOF 12
ENDMDL
MODEL 5
REMARK VINA RESULT: -7.964157947      1.732      2.562
REMARK  12 active torsions:
REMARK  status: ('A' for Active; 'I' for Inactive)
REMARK    1  A    between atoms: O1_2  and  N1_3 
REMARK    2  A    between atoms: N1_3  and  C2_4 
REMARK    3  A    between atoms: C2_4  and  C3_5 
REMARK    4  A    between atoms: N4_10  and  C4_11 
REMARK    5  A    between atoms: C6_16  and  O3_17 
REMARK    6  A    between atoms: O3_17  and  C7_18 
REMARK    7  A    between atoms: C10_25  and  N7_26 
REMARK    8  A    between atoms: N7_26  and  C11_28 
REMARK    9  A    between atoms: C14_33  and  N9_34 
REMARK   10  A    between atoms: C15_39  and  O5_40 
REMARK   11  A    between atoms: C16_42  and  N11_43 
REMARK   12  A    between atoms: C17_47  and  O6_48 
ROOT
HETATM    1  C4  UNL     1      32.443   9.058 -21.047  1.00  0.00     0.242 C 
HETATM    2  N5  UNL     1      33.554   9.946 -21.409  1.00  0.00    -0.333 N 
ATOM      3  H5  UNL     1      34.000  10.466 -20.654  1.00  0.00     0.164 HD
HETATM    4  C5  UNL     1      34.069  10.146 -22.735  1.00  0.00     0.251 C 
HETATM    5  O2  UNL     1      35.226  10.560 -22.886  1.00  0.00    -0.271 OA
HETATM    6  C6  UNL     1      33.215   9.863 -23.962  1.00  0.00     0.246 C 
HETATM    7  C15 UNL     1      33.071   8.425 -24.092  1.00  0.00     0.189 C 
HETATM    8  C16 UNL     1      32.254   7.649 -23.135  1.00  0.00     0.247 C 
HETATM    9  C17 UNL     1      32.714   7.734 -21.722  1.00  0.00     0.195 C 
ENDROOT
BRANCH   6  10
HETATM   10  O3  UNL     1      33.799  10.328 -25.133  1.00  0.00    -0.346 OA
BRANCH  10  11
HETATM   11  C7  UNL     1      33.504  11.653 -25.437  1.00  0.00     0.257 C 
HETATM   12  N6  UNL     1      32.228  11.772 -26.185  1.00  0.00    -0.331 N 
HETATM   13  C8  UNL     1      32.000  11.142 -27.414  1.00  0.00     0.229 C 
ATOM     14  H6  UNL     1      31.482  12.341 -25.785  1.00  0.00     0.165 HD
HETATM   15  O4  UNL     1      30.872  11.364 -27.989  1.00  0.00    -0.273 OA
HETATM   16  C9  UNL     1      32.972  10.247 -28.085  1.00  0.00     0.179 C 
HETATM   17  S1  UNL     1      34.604  11.014 -27.865  1.00  0.00    -0.130 SA
HETATM   18  C10 UNL     1      34.593  12.096 -26.378  1.00  0.00     0.194 C 
BRANCH  18  19
HETATM   19  N7  UNL     1      34.690  13.442 -26.628  1.00  0.00    -0.358 N 
ATOM     20  H7  UNL     1      34.892  13.898 -25.740  1.00  0.00     0.162 HD
BRANCH  19  21
HETATM   21  C11 UNL     1      34.633  14.318 -27.478  1.00  0.00     0.119 A 
HETATM   22  C12 UNL     1      34.774  15.653 -27.028  1.00  0.00     0.066 A 
HETATM   23  C13 UNL     1      34.753  16.732 -27.866  1.00  0.00     0.110 A 
HETATM   24  N8  UNL     1      34.585  16.486 -29.173  1.00  0.00    -0.202 N 
HETATM   25  C14 UNL     1      34.446  15.232 -29.616  1.00  0.00     0.677 A 
ATOM     26  H8  UNL     1      34.563  17.263 -29.835  1.00  0.00     0.183 HD
HETATM   27  N10 UNL     1      34.472  14.164 -28.808  1.00  0.00    -0.177 N 
ATOM     28  H10 UNL     1      34.368  13.229 -29.201  1.00  0.00     0.185 HD
BRANCH  25  29
HETATM   29  N9  UNL     1      34.268  15.095 -30.893  1.00  0.00    -0.234 N 
ATOM     30  H92 UNL     1      34.866  14.477 -31.442  1.00  0.00     0.174 HD
ATOM     31  H91 UNL     1      33.497  15.628 -31.298  1.00  0.00     0.174 HD
ENDBRANCH  25  29
ENDBRANCH  19  21
ENDBRANCH  18  19
ENDBRANCH  10  11
ENDBRANCH   6  10
BRANCH   7  32
HETATM   32  O5  UNL     1      34.367   7.847 -24.027  1.00  0.00    -0.390 OA
ATOM     33  H5  UNL     1      34.626   7.810 -23.114  1.00  0.00     0.210 HD
ENDBRANCH   7  32
BRANCH   8  34
HETATM   34  N11 UNL     1      30.846   7.788 -23.255  1.00  0.00    -0.070 N 
ATOM     35 3H11 UNL     1      30.628   8.522 -23.930  1.00  0.00     0.274 HD
ATOM     36 2H11 UNL     1      30.458   6.975 -23.735  1.00  0.00     0.274 HD
ATOM     37 1H11 UNL     1      30.333   7.953 -22.389  1.00  0.00     0.274 HD
ENDBRANCH   8  34
BRANCH   1  38
HETATM   38  N4  UNL     1      32.420   8.781 -19.627  1.00  0.00    -0.236 N 
HETATM   39  N3  UNL     1      32.285   7.680 -18.930  1.00  0.00    -0.237 N 
HETATM   40  N2  UNL     1      32.319   7.944 -17.603  1.00  0.00    -0.286 N 
ATOM     41  H3  UNL     1      32.169   6.750 -19.333  1.00  0.00     0.208 HD
HETATM   42  C3  UNL     1      32.478   9.248 -17.426  1.00  0.00     0.086 A 
ATOM     43  H2  UNL     1      32.236   7.251 -16.859  1.00  0.00     0.188 HD
HETATM   44  C18 UNL     1      32.544   9.774 -18.728  1.00  0.00     0.161 A 
HETATM   45  N12 UNL     1      32.794  11.165 -18.888  1.00  0.00    -0.079 NA
BRANCH  42  46
HETATM   46  C2  UNL     1      32.423  10.111 -16.214  1.00  0.00     0.204 C 
BRANCH  46  47
HETATM   47  N1  UNL     1      33.671   9.962 -15.514  1.00  0.00    -0.096 NA
BRANCH  47  48
HETATM   48  O1  UNL     1      33.906   8.669 -15.303  1.00  0.00    -0.291 OA
HETATM   49  C1  UNL     1      34.691   8.439 -14.160  1.00  0.00     0.231 C 
ENDBRANCH  47  48
ENDBRANCH  46  47
ENDBRANCH  42  46
ENDBRANCH   1  38
BRANCH   9  50
HETATM   50  O6  UNL     1      34.133   7.601 -21.639  1.00  0.00    -0.389 OA
ATOM     51  H6  UNL     1      34.296   7.542 -20.705  1.00  0.00     0.210 HD
ENDBRANCH   9  50
TORSDOF 12
ENDMDL
