MODEL 1
REMARK VINA RESULT: -7.135102889      0.000      0.000
REMARK  15 active torsions:
REMARK  status: ('A' for Active; 'I' for Inactive)
REMARK    1  A    between atoms: N1_1  and  C1_5 
REMARK    2  A    between atoms: C1_5  and  C2_6 
REMARK    3  A    between atoms: C2_6  and  N2_7 
REMARK    4  A    between atoms: N2_7  and  C3_9 
REMARK    5  A    between atoms: C5_16  and  N6_17 
REMARK       I    between atoms: N6_17  and  C6_19 
REMARK    6  A    between atoms: C6_19  and  C7_21 
REMARK    7  A    between atoms: C7_21  and  O2_22 
REMARK    8  A    between atoms: C7_21  and  C8_24 
REMARK    9  A    between atoms: C8_24  and  O3_25 
REMARK   10  A    between atoms: C9_27  and  O4_28 
REMARK   11  A    between atoms: C10_30  and  O5_31 
REMARK   12  A    between atoms: O5_31  and  S1_32 
REMARK   13  A    between atoms: S1_32  and  N7_33 
REMARK   14  A    between atoms: C13_41  and  N8_42 
REMARK   15  A    between atoms: C15_47  and  C16_48 
ROOT
HETATM    1  C7  UNL     1      32.995   9.500 -25.540  1.00  0.00     0.247 C 
ENDROOT
BRANCH   1   2
HETATM    2  C6  UNL     1      33.759   8.956 -24.391  1.00  0.00     0.255 C 
HETATM    3  N6  UNL     1      33.230   8.799 -23.079  1.00  0.00    -0.310 N 
ATOM      4  H6  UNL     1      33.030   7.864 -22.723  1.00  0.00     0.170 HD
HETATM    5  O1  UNL     1      34.956   8.595 -24.539  1.00  0.00    -0.270 OA
BRANCH   3   6
HETATM    6  C5  UNL     1      32.999   9.837 -22.330  1.00  0.00     0.131 A 
HETATM    7  N5  UNL     1      33.440  11.049 -22.648  1.00  0.00    -0.315 N 
HETATM    8  C4  UNL     1      33.177  12.086 -21.845  1.00  0.00     0.195 A 
ATOM      9  H5  UNL     1      33.979  11.189 -23.503  1.00  0.00     0.170 HD
HETATM   10  N3  UNL     1      32.471  11.924 -20.713  1.00  0.00    -0.316 N 
HETATM   11  N4  UNL     1      33.623  13.425 -22.128  1.00  0.00    -0.063 NA
HETATM   12  C3  UNL     1      32.001  10.710 -20.348  1.00  0.00     0.124 A 
ATOM     13  H3  UNL     1      32.285  12.732 -20.119  1.00  0.00     0.170 HD
HETATM   14  C15 UNL     1      32.262   9.631 -21.161  1.00  0.00     0.128 A 
BRANCH  12  15
HETATM   15  N2  UNL     1      31.310  10.605 -19.140  1.00  0.00    -0.374 N 
ATOM     16  H2  UNL     1      30.300  10.472 -19.162  1.00  0.00     0.161 HD
BRANCH  15  17
HETATM   17  C2  UNL     1      31.984  10.680 -17.844  1.00  0.00     0.148 C 
BRANCH  17  18
HETATM   18  C1  UNL     1      31.594   9.538 -16.934  1.00  0.00     0.249 C 
BRANCH  18  19
HETATM   19  N1  UNL     1      30.449   8.826 -17.510  1.00  0.00    -0.078 N 
ATOM     20  H13 UNL     1      29.706   8.673 -16.828  1.00  0.00     0.274 HD
ATOM     21  H12 UNL     1      29.926   9.405 -18.167  1.00  0.00     0.274 HD
ATOM     22  H11 UNL     1      30.770   7.956 -17.933  1.00  0.00     0.274 HD
ENDBRANCH  18  19
ENDBRANCH  17  18
ENDBRANCH  15  17
ENDBRANCH  12  15
BRANCH  14  23
HETATM   23  C16 UNL     1      31.799   8.296 -20.884  1.00  0.00     0.217 C 
HETATM   24  O9  UNL     1      32.076   7.673 -19.863  1.00  0.00    -0.644 OA
HETATM   25  O10 UNL     1      30.974   7.679 -21.862  1.00  0.00    -0.644 OA
ENDBRANCH  14  23
ENDBRANCH   3   6
ENDBRANCH   1   2
BRANCH   1  26
HETATM   26  O2  UNL     1      31.685   9.745 -25.143  1.00  0.00    -0.383 OA
ATOM     27  H2  UNL     1      31.691  10.297 -24.369  1.00  0.00     0.210 HD
ENDBRANCH   1  26
BRANCH   1  28
HETATM   28  C8  UNL     1      33.669  10.662 -26.195  1.00  0.00     0.129 C 
HETATM   29  C9  UNL     1      32.811  11.858 -26.402  1.00  0.00     0.189 C 
HETATM   30  C10 UNL     1      33.635  12.698 -27.348  1.00  0.00     0.205 C 
HETATM   31  C11 UNL     1      34.676  11.805 -27.977  1.00  0.00     0.163 C 
HETATM   32  O8  UNL     1      34.607  11.740 -29.343  1.00  0.00    -0.381 OA
HETATM   33  C14 UNL     1      34.376  10.392 -27.447  1.00  0.00     0.090 C 
HETATM   34  C12 UNL     1      34.588  10.390 -29.732  1.00  0.00     0.201 C 
HETATM   35  C13 UNL     1      33.682   9.825 -28.612  1.00  0.00     0.216 C 
BRANCH  28  36
HETATM   36  O3  UNL     1      34.671  11.075 -25.271  1.00  0.00    -0.383 OA
ATOM     37  H3  UNL     1      34.959  10.276 -24.847  1.00  0.00     0.210 HD
ENDBRANCH  28  36
BRANCH  29  38
HETATM   38  O4  UNL     1      32.649  12.551 -25.200  1.00  0.00    -0.390 OA
ATOM     39  H4  UNL     1      31.924  12.189 -24.706  1.00  0.00     0.210 HD
ENDBRANCH  29  38
BRANCH  30  40
HETATM   40  O5  UNL     1      32.892  13.419 -28.248  1.00  0.00    -0.249 OA
BRANCH  40  41
HETATM   41  S1  UNL     1      33.650  14.858 -28.718  1.00  0.00     0.356 S 
HETATM   42  O6  UNL     1      34.898  15.094 -27.900  1.00  0.00    -0.176 OA
HETATM   43  O7  UNL     1      32.767  16.041 -28.508  1.00  0.00    -0.176 OA
BRANCH  41  44
HETATM   44  N7  UNL     1      34.023  14.780 -30.409  1.00  0.00    -0.306 N 
ATOM     45  H72 UNL     1      34.832  14.298 -30.802  1.00  0.00     0.171 HD
ATOM     46  H71 UNL     1      33.310  15.287 -30.933  1.00  0.00     0.171 HD
ENDBRANCH  41  44
ENDBRANCH  40  41
ENDBRANCH  30  40
BRANCH  35  47
HETATM   47  N8  UNL     1      32.379  10.327 -28.911  1.00  0.00    -0.072 N 
ATOM     48  H83 UNL     1      31.920  10.785 -28.124  1.00  0.00     0.274 HD
ATOM     49  H82 UNL     1      32.378  11.135 -29.532  1.00  0.00     0.274 HD
ATOM     50  H81 UNL     1      31.870   9.523 -29.278  1.00  0.00     0.274 HD
ENDBRANCH  35  47
ENDBRANCH   1  28
TORSDOF 15
ENDMDL
MODEL 2
REMARK VINA RESULT: -6.884249717      1.948      2.694
REMARK  15 active torsions:
REMARK  status: ('A' for Active; 'I' for Inactive)
REMARK    1  A    between atoms: N1_1  and  C1_5 
REMARK    2  A    between atoms: C1_5  and  C2_6 
REMARK    3  A    between atoms: C2_6  and  N2_7 
REMARK    4  A    between atoms: N2_7  and  C3_9 
REMARK    5  A    between atoms: C5_16  and  N6_17 
REMARK       I    between atoms: N6_17  and  C6_19 
REMARK    6  A    between atoms: C6_19  and  C7_21 
REMARK    7  A    between atoms: C7_21  and  O2_22 
REMARK    8  A    between atoms: C7_21  and  C8_24 
REMARK    9  A    between atoms: C8_24  and  O3_25 
REMARK   10  A    between atoms: C9_27  and  O4_28 
REMARK   11  A    between atoms: C10_30  and  O5_31 
REMARK   12  A    between atoms: O5_31  and  S1_32 
REMARK   13  A    between atoms: S1_32  and  N7_33 
REMARK   14  A    between atoms: C13_41  and  N8_42 
REMARK   15  A    between atoms: C15_47  and  C16_48 
ROOT
HETATM    1  C7  UNL     1      32.735  11.782 -24.549  1.00  0.00     0.247 C 
ENDROOT
BRANCH   1   2
HETATM    2  C6  UNL     1      33.179  12.022 -23.154  1.00  0.00     0.255 C 
HETATM    3  N6  UNL     1      33.682  11.011 -22.288  1.00  0.00    -0.310 N 
ATOM      4  H6  UNL     1      34.674  10.996 -22.052  1.00  0.00     0.170 HD
HETATM    5  O1  UNL     1      33.125  13.180 -22.662  1.00  0.00    -0.270 OA
BRANCH   3   6
HETATM    6  C5  UNL     1      32.888  10.107 -21.794  1.00  0.00     0.131 A 
HETATM    7  N5  UNL     1      32.451   9.082 -22.516  1.00  0.00    -0.315 N 
HETATM    8  C4  UNL     1      31.635   8.177 -21.963  1.00  0.00     0.195 A 
ATOM      9  H5  UNL     1      32.737   8.983 -23.490  1.00  0.00     0.170 HD
HETATM   10  N3  UNL     1      31.246   8.287 -20.682  1.00  0.00    -0.316 N 
HETATM   11  N4  UNL     1      31.124   7.041 -22.686  1.00  0.00    -0.063 NA
HETATM   12  C3  UNL     1      31.664   9.313 -19.907  1.00  0.00     0.124 A 
ATOM     13  H3  UNL     1      30.622   7.583 -20.286  1.00  0.00     0.170 HD
HETATM   14  C15 UNL     1      32.503  10.254 -20.459  1.00  0.00     0.128 A 
BRANCH  12  15
HETATM   15  N2  UNL     1      31.188   9.390 -18.598  1.00  0.00    -0.374 N 
ATOM     16  H2  UNL     1      30.652  10.210 -18.317  1.00  0.00     0.161 HD
BRANCH  15  17
HETATM   17  C2  UNL     1      31.431   8.335 -17.614  1.00  0.00     0.148 C 
BRANCH  17  18
HETATM   18  C1  UNL     1      32.322   8.804 -16.487  1.00  0.00     0.249 C 
BRANCH  18  19
HETATM   19  N1  UNL     1      32.282  10.268 -16.411  1.00  0.00    -0.078 N 
ATOM     20  H13 UNL     1      31.595  10.669 -17.050  1.00  0.00     0.274 HD
ATOM     21  H12 UNL     1      31.876  10.598 -15.536  1.00  0.00     0.274 HD
ATOM     22  H11 UNL     1      33.218  10.640 -16.568  1.00  0.00     0.274 HD
ENDBRANCH  18  19
ENDBRANCH  17  18
ENDBRANCH  15  17
ENDBRANCH  12  15
BRANCH  14  23
HETATM   23  C16 UNL     1      33.027  11.379 -19.728  1.00  0.00     0.217 C 
HETATM   24  O9  UNL     1      34.224  11.622 -19.608  1.00  0.00    -0.644 OA
HETATM   25  O10 UNL     1      32.086  12.250 -19.115  1.00  0.00    -0.644 OA
ENDBRANCH  14  23
ENDBRANCH   3   6
ENDBRANCH   1   2
BRANCH   1  26
HETATM   26  O2  UNL     1      31.476  12.343 -24.732  1.00  0.00    -0.383 OA
ATOM     27  H2  UNL     1      31.187  12.178 -25.622  1.00  0.00     0.210 HD
ENDBRANCH   1  26
BRANCH   1  28
HETATM   28  C8  UNL     1      33.750  12.194 -25.566  1.00  0.00     0.129 C 
HETATM   29  C9  UNL     1      33.471  13.485 -26.250  1.00  0.00     0.189 C 
HETATM   30  C10 UNL     1      34.441  13.463 -27.407  1.00  0.00     0.205 C 
HETATM   31  C11 UNL     1      34.901  12.039 -27.602  1.00  0.00     0.163 C 
HETATM   32  O8  UNL     1      34.628  11.527 -28.843  1.00  0.00    -0.381 OA
HETATM   33  C14 UNL     1      34.096  11.208 -26.589  1.00  0.00     0.090 C 
HETATM   34  C12 UNL     1      33.977  10.292 -28.689  1.00  0.00     0.201 C 
HETATM   35  C13 UNL     1      33.076  10.637 -27.480  1.00  0.00     0.216 C 
BRANCH  28  36
HETATM   36  O3  UNL     1      34.946  12.414 -24.825  1.00  0.00    -0.383 OA
ATOM     37  H3  UNL     1      35.606  12.613 -25.478  1.00  0.00     0.210 HD
ENDBRANCH  28  36
BRANCH  29  38
HETATM   38  O4  UNL     1      33.787  14.556 -25.411  1.00  0.00    -0.390 OA
ATOM     39  H4  UNL     1      32.996  15.007 -25.142  1.00  0.00     0.210 HD
ENDBRANCH  29  38
BRANCH  30  40
HETATM   40  O5  UNL     1      33.968  14.064 -28.546  1.00  0.00    -0.249 OA
BRANCH  40  41
HETATM   41  S1  UNL     1      34.157  15.746 -28.525  1.00  0.00     0.356 S 
HETATM   42  O6  UNL     1      35.169  16.155 -27.480  1.00  0.00    -0.176 OA
HETATM   43  O7  UNL     1      32.882  16.441 -28.186  1.00  0.00    -0.176 OA
BRANCH  41  44
HETATM   44  N7  UNL     1      34.642  16.284 -30.100  1.00  0.00    -0.306 N 
ATOM     45  H72 UNL     1      35.372  16.974 -30.277  1.00  0.00     0.171 HD
ATOM     46  H71 UNL     1      34.083  15.803 -30.805  1.00  0.00     0.171 HD
ENDBRANCH  41  44
ENDBRANCH  40  41
ENDBRANCH  30  40
BRANCH  35  47
HETATM   47  N8  UNL     1      32.089  11.526 -28.005  1.00  0.00    -0.072 N 
ATOM     48  H83 UNL     1      32.131  12.468 -27.618  1.00  0.00     0.274 HD
ATOM     49  H82 UNL     1      32.246  11.793 -28.976  1.00  0.00     0.274 HD
ATOM     50  H81 UNL     1      31.201  11.051 -27.845  1.00  0.00     0.274 HD
ENDBRANCH  35  47
ENDBRANCH   1  28
TORSDOF 15
ENDMDL
MODEL 3
REMARK VINA RESULT: -6.812268509      1.591      2.040
REMARK  15 active torsions:
REMARK  status: ('A' for Active; 'I' for Inactive)
REMARK    1  A    between atoms: N1_1  and  C1_5 
REMARK    2  A    between atoms: C1_5  and  C2_6 
REMARK    3  A    between atoms: C2_6  and  N2_7 
REMARK    4  A    between atoms: N2_7  and  C3_9 
REMARK    5  A    between atoms: C5_16  and  N6_17 
REMARK       I    between atoms: N6_17  and  C6_19 
REMARK    6  A    between atoms: C6_19  and  C7_21 
REMARK    7  A    between atoms: C7_21  and  O2_22 
REMARK    8  A    between atoms: C7_21  and  C8_24 
REMARK    9  A    between atoms: C8_24  and  O3_25 
REMARK   10  A    between atoms: C9_27  and  O4_28 
REMARK   11  A    between atoms: C10_30  and  O5_31 
REMARK   12  A    between atoms: O5_31  and  S1_32 
REMARK   13  A    between atoms: S1_32  and  N7_33 
REMARK   14  A    between atoms: C13_41  and  N8_42 
REMARK   15  A    between atoms: C15_47  and  C16_48 
ROOT
HETATM    1  C7  UNL     1      32.698  10.839 -24.506  1.00  0.00     0.247 C 
ENDROOT
BRANCH   1   2
HETATM    2  C6  UNL     1      33.753  10.617 -23.488  1.00  0.00     0.255 C 
HETATM    3  N6  UNL     1      33.664   9.661 -22.437  1.00  0.00    -0.310 N 
ATOM      4  H6  UNL     1      34.240   8.820 -22.467  1.00  0.00     0.170 HD
HETATM    5  O1  UNL     1      34.814  11.293 -23.517  1.00  0.00    -0.270 OA
BRANCH   3   6
HETATM    6  C5  UNL     1      32.853   9.851 -21.438  1.00  0.00     0.131 A 
HETATM    7  N5  UNL     1      32.352  11.047 -21.153  1.00  0.00    -0.315 N 
HETATM    8  C4  UNL     1      31.521  11.192 -20.114  1.00  0.00     0.195 A 
ATOM      9  H5  UNL     1      32.600  11.855 -21.724  1.00  0.00     0.170 HD
HETATM   10  N3  UNL     1      31.181  10.142 -19.347  1.00  0.00    -0.316 N 
HETATM   11  N4  UNL     1      30.942  12.458 -19.748  1.00  0.00    -0.063 NA
HETATM   12  C3  UNL     1      31.665   8.905 -19.598  1.00  0.00     0.124 A 
ATOM     13  H3  UNL     1      30.546  10.281 -18.561  1.00  0.00     0.170 HD
HETATM   14  C15 UNL     1      32.522   8.737 -20.662  1.00  0.00     0.128 A 
BRANCH  12  15
HETATM   15  N2  UNL     1      31.305   7.868 -18.738  1.00  0.00    -0.374 N 
ATOM     16  H2  UNL     1      31.112   6.947 -19.132  1.00  0.00     0.161 HD
BRANCH  15  17
HETATM   17  C2  UNL     1      31.194   8.053 -17.292  1.00  0.00     0.148 C 
BRANCH  17  18
HETATM   18  C1  UNL     1      32.005   7.034 -16.524  1.00  0.00     0.249 C 
BRANCH  18  19
HETATM   19  N1  UNL     1      33.078   6.520 -17.381  1.00  0.00    -0.078 N 
ATOM     20  H13 UNL     1      33.129   5.502 -17.368  1.00  0.00     0.274 HD
ATOM     21  H12 UNL     1      32.871   6.643 -18.373  1.00  0.00     0.274 HD
ATOM     22  H11 UNL     1      33.961   6.955 -17.114  1.00  0.00     0.274 HD
ENDBRANCH  18  19
ENDBRANCH  17  18
ENDBRANCH  15  17
ENDBRANCH  12  15
BRANCH  14  23
HETATM   23  C16 UNL     1      33.086   7.465 -21.037  1.00  0.00     0.217 C 
HETATM   24  O9  UNL     1      33.804   6.792 -20.303  1.00  0.00    -0.644 OA
HETATM   25  O10 UNL     1      32.782   6.977 -22.335  1.00  0.00    -0.644 OA
ENDBRANCH  14  23
ENDBRANCH   3   6
ENDBRANCH   1   2
BRANCH   1  26
HETATM   26  O2  UNL     1      31.826  11.823 -24.053  1.00  0.00    -0.383 OA
ATOM     27  H2  UNL     1      31.878  11.875 -23.106  1.00  0.00     0.210 HD
ENDBRANCH   1  26
BRANCH   1  28
HETATM   28  C8  UNL     1      33.245  11.081 -25.876  1.00  0.00     0.129 C 
HETATM   29  C9  UNL     1      33.146  12.484 -26.358  1.00  0.00     0.189 C 
HETATM   30  C10 UNL     1      33.451  12.351 -27.831  1.00  0.00     0.205 C 
HETATM   31  C11 UNL     1      33.277  10.902 -28.213  1.00  0.00     0.163 C 
HETATM   32  O8  UNL     1      32.342  10.688 -29.190  1.00  0.00    -0.381 OA
HETATM   33  C14 UNL     1      32.765  10.203 -26.942  1.00  0.00     0.090 C 
HETATM   34  C12 UNL     1      31.451   9.693 -28.753  1.00  0.00     0.201 C 
HETATM   35  C13 UNL     1      31.334  10.103 -27.266  1.00  0.00     0.216 C 
BRANCH  28  36
HETATM   36  O3  UNL     1      34.641  10.821 -25.766  1.00  0.00    -0.383 OA
ATOM     37  H3  UNL     1      34.700   9.930 -25.444  1.00  0.00     0.210 HD
ENDBRANCH  28  36
BRANCH  29  38
HETATM   38  O4  UNL     1      34.130  13.273 -25.759  1.00  0.00    -0.390 OA
ATOM     39  H4  UNL     1      33.758  14.095 -25.462  1.00  0.00     0.210 HD
ENDBRANCH  29  38
BRANCH  30  40
HETATM   40  O5  UNL     1      32.763  13.230 -28.627  1.00  0.00    -0.249 OA
BRANCH  40  41
HETATM   41  S1  UNL     1      33.650  14.629 -28.977  1.00  0.00     0.356 S 
HETATM   42  O6  UNL     1      34.943  14.648 -28.196  1.00  0.00    -0.176 OA
HETATM   43  O7  UNL     1      32.902  15.865 -28.604  1.00  0.00    -0.176 OA
BRANCH  41  44
HETATM   44  N7  UNL     1      33.955  14.699 -30.682  1.00  0.00    -0.306 N 
ATOM     45  H72 UNL     1      33.760  15.508 -31.273  1.00  0.00     0.171 HD
ATOM     46  H71 UNL     1      34.354  13.812 -30.987  1.00  0.00     0.171 HD
ENDBRANCH  41  44
ENDBRANCH  40  41
ENDBRANCH  30  40
BRANCH  35  47
HETATM   47  N8  UNL     1      30.576  11.313 -27.282  1.00  0.00    -0.072 N 
ATOM     48  H83 UNL     1      31.013  12.069 -27.809  1.00  0.00     0.274 HD
ATOM     49  H82 UNL     1      29.724  11.261 -27.840  1.00  0.00     0.274 HD
ATOM     50  H81 UNL     1      30.416  11.531 -26.299  1.00  0.00     0.274 HD
ENDBRANCH  35  47
ENDBRANCH   1  28
TORSDOF 15
ENDMDL
MODEL 4
REMARK VINA RESULT: -6.650714156      1.496      1.717
REMARK  15 active torsions:
REMARK  status: ('A' for Active; 'I' for Inactive)
REMARK    1  A    between atoms: N1_1  and  C1_5 
REMARK    2  A    between atoms: C1_5  and  C2_6 
REMARK    3  A    between atoms: C2_6  and  N2_7 
REMARK    4  A    between atoms: N2_7  and  C3_9 
REMARK    5  A    between atoms: C5_16  and  N6_17 
REMARK       I    between atoms: N6_17  and  C6_19 
REMARK    6  A    between atoms: C6_19  and  C7_21 
REMARK    7  A    between atoms: C7_21  and  O2_22 
REMARK    8  A    between atoms: C7_21  and  C8_24 
REMARK    9  A    between atoms: C8_24  and  O3_25 
REMARK   10  A    between atoms: C9_27  and  O4_28 
REMARK   11  A    between atoms: C10_30  and  O5_31 
REMARK   12  A    between atoms: O5_31  and  S1_32 
REMARK   13  A    between atoms: S1_32  and  N7_33 
REMARK   14  A    between atoms: C13_41  and  N8_42 
REMARK   15  A    between atoms: C15_47  and  C16_48 
ROOT
HETATM    1  C7  UNL     1      32.090  10.746 -25.665  1.00  0.00     0.247 C 
ENDROOT
BRANCH   1   2
HETATM    2  C6  UNL     1      32.648   9.906 -24.577  1.00  0.00     0.255 C 
HETATM    3  N6  UNL     1      32.410  10.129 -23.191  1.00  0.00    -0.310 N 
ATOM      4  H6  UNL     1      31.808   9.489 -22.672  1.00  0.00     0.170 HD
HETATM    5  O1  UNL     1      33.385   8.923 -24.849  1.00  0.00    -0.270 OA
BRANCH   3   6
HETATM    6  C5  UNL     1      32.953  11.140 -22.580  1.00  0.00     0.131 A 
HETATM    7  N5  UNL     1      33.610  12.091 -23.235  1.00  0.00    -0.315 N 
HETATM    8  C4  UNL     1      34.151  13.113 -22.562  1.00  0.00     0.195 A 
ATOM      9  H5  UNL     1      33.701  12.043 -24.250  1.00  0.00     0.170 HD
HETATM   10  N3  UNL     1      34.044  13.196 -21.225  1.00  0.00    -0.316 N 
HETATM   11  N4  UNL     1      34.875  14.177 -23.207  1.00  0.00    -0.063 NA
HETATM   12  C3  UNL     1      33.386  12.252 -20.515  1.00  0.00     0.124 A 
ATOM     13  H3  UNL     1      34.467  13.985 -20.737  1.00  0.00     0.170 HD
HETATM   14  C15 UNL     1      32.822  11.194 -21.190  1.00  0.00     0.128 A 
BRANCH  12  15
HETATM   15  N2  UNL     1      33.347  12.378 -19.126  1.00  0.00    -0.374 N 
ATOM     16  H2  UNL     1      32.508  12.759 -18.690  1.00  0.00     0.161 HD
BRANCH  15  17
HETATM   17  C2  UNL     1      34.468  11.983 -18.273  1.00  0.00     0.148 C 
BRANCH  17  18
HETATM   18  C1  UNL     1      34.239  10.640 -17.618  1.00  0.00     0.249 C 
BRANCH  18  19
HETATM   19  N1  UNL     1      32.854  10.561 -17.143  1.00  0.00    -0.078 N 
ATOM     20  H13 UNL     1      32.475   9.617 -17.213  1.00  0.00     0.274 HD
ATOM     21  H12 UNL     1      32.787  10.670 -16.131  1.00  0.00     0.274 HD
ATOM     22  H11 UNL     1      32.285  11.244 -17.643  1.00  0.00     0.274 HD
ENDBRANCH  18  19
ENDBRANCH  17  18
ENDBRANCH  15  17
ENDBRANCH  12  15
BRANCH  14  23
HETATM   23  C16 UNL     1      32.083  10.140 -20.543  1.00  0.00     0.217 C 
HETATM   24  O9  UNL     1      32.355   8.947 -20.650  1.00  0.00    -0.644 OA
HETATM   25  O10 UNL     1      30.977  10.522 -19.738  1.00  0.00    -0.644 OA
ENDBRANCH  14  23
ENDBRANCH   3   6
ENDBRANCH   1   2
BRANCH   1  26
HETATM   26  O2  UNL     1      31.249  11.707 -25.115  1.00  0.00    -0.383 OA
ATOM     27  H2  UNL     1      31.643  12.051 -24.322  1.00  0.00     0.210 HD
ENDBRANCH   1  26
BRANCH   1  28
HETATM   28  C8  UNL     1      33.138  11.292 -26.580  1.00  0.00     0.129 C 
HETATM   29  C9  UNL     1      32.968  12.721 -26.956  1.00  0.00     0.189 C 
HETATM   30  C10 UNL     1      33.936  12.879 -28.103  1.00  0.00     0.205 C 
HETATM   31  C11 UNL     1      34.278  11.503 -28.618  1.00  0.00     0.163 C 
HETATM   32  O8  UNL     1      33.968  11.305 -29.937  1.00  0.00    -0.381 OA
HETATM   33  C14 UNL     1      33.406  10.534 -27.802  1.00  0.00     0.090 C 
HETATM   34  C12 UNL     1      33.218  10.122 -30.052  1.00  0.00     0.201 C 
HETATM   35  C13 UNL     1      32.344  10.261 -28.782  1.00  0.00     0.216 C 
BRANCH  28  36
HETATM   36  O3  UNL     1      34.346  11.244 -25.828  1.00  0.00    -0.383 OA
ATOM     37  H3  UNL     1      34.789  12.062 -26.020  1.00  0.00     0.210 HD
ENDBRANCH  28  36
BRANCH  29  38
HETATM   38  O4  UNL     1      33.369  13.548 -25.904  1.00  0.00    -0.390 OA
ATOM     39  H4  UNL     1      32.920  14.383 -25.954  1.00  0.00     0.210 HD
ENDBRANCH  29  38
BRANCH  30  40
HETATM   40  O5  UNL     1      33.518  13.756 -29.072  1.00  0.00    -0.249 OA
BRANCH  40  41
HETATM   41  S1  UNL     1      33.991  15.351 -28.761  1.00  0.00     0.356 S 
HETATM   42  O6  UNL     1      35.035  15.393 -27.670  1.00  0.00    -0.176 OA
HETATM   43  O7  UNL     1      32.846  16.185 -28.295  1.00  0.00    -0.176 OA
BRANCH  41  44
HETATM   44  N7  UNL     1      34.593  16.062 -30.222  1.00  0.00    -0.306 N 
ATOM     45  H72 UNL     1      35.260  15.616 -30.852  1.00  0.00     0.171 HD
ATOM     46  H71 UNL     1      34.175  16.984 -30.343  1.00  0.00     0.171 HD
ENDBRANCH  41  44
ENDBRANCH  40  41
ENDBRANCH  30  40
BRANCH  35  47
HETATM   47  N8  UNL     1      31.436  11.320 -29.081  1.00  0.00    -0.072 N 
ATOM     48  H83 UNL     1      31.580  11.745 -29.997  1.00  0.00     0.274 HD
ATOM     49  H82 UNL     1      30.478  11.011 -29.246  1.00  0.00     0.274 HD
ATOM     50  H81 UNL     1      31.532  11.972 -28.302  1.00  0.00     0.274 HD
ENDBRANCH  35  47
ENDBRANCH   1  28
TORSDOF 15
ENDMDL
MODEL 5
REMARK VINA RESULT: -6.585476102      3.670      9.077
REMARK  15 active torsions:
REMARK  status: ('A' for Active; 'I' for Inactive)
REMARK    1  A    between atoms: N1_1  and  C1_5 
REMARK    2  A    between atoms: C1_5  and  C2_6 
REMARK    3  A    between atoms: C2_6  and  N2_7 
REMARK    4  A    between atoms: N2_7  and  C3_9 
REMARK    5  A    between atoms: C5_16  and  N6_17 
REMARK       I    between atoms: N6_17  and  C6_19 
REMARK    6  A    between atoms: C6_19  and  C7_21 
REMARK    7  A    between atoms: C7_21  and  O2_22 
REMARK    8  A    between atoms: C7_21  and  C8_24 
REMARK    9  A    between atoms: C8_24  and  O3_25 
REMARK   10  A    between atoms: C9_27  and  O4_28 
REMARK   11  A    between atoms: C10_30  and  O5_31 
REMARK   12  A    between atoms: O5_31  and  S1_32 
REMARK   13  A    between atoms: S1_32  and  N7_33 
REMARK   14  A    between atoms: C13_41  and  N8_42 
REMARK   15  A    between atoms: C15_47  and  C16_48 
ROOT
HETATM    1  C7  UNL     1      34.404  12.987 -22.501  1.00  0.00     0.247 C 
ENDROOT
BRANCH   1   2
HETATM    2  C6  UNL     1      34.262  12.580 -23.920  1.00  0.00     0.255 C 
HETATM    3  N6  UNL     1      35.169  12.948 -24.954  1.00  0.00    -0.310 N 
ATOM      4  H6  UNL     1      35.791  12.246 -25.354  1.00  0.00     0.170 HD
HETATM    5  O1  UNL     1      33.293  11.862 -24.279  1.00  0.00    -0.270 OA
BRANCH   3   6
HETATM    6  C5  UNL     1      35.210  14.171 -25.392  1.00  0.00     0.131 A 
HETATM    7  N5  UNL     1      35.781  15.151 -24.700  1.00  0.00    -0.315 N 
HETATM    8  C4  UNL     1      35.798  16.394 -25.195  1.00  0.00     0.195 A 
ATOM      9  H5  UNL     1      36.205  14.956 -23.794  1.00  0.00     0.170 HD
HETATM   10  N3  UNL     1      35.245  16.674 -26.387  1.00  0.00    -0.316 N 
HETATM   11  N4  UNL     1      36.399  17.502 -24.499  1.00  0.00    -0.063 NA
HETATM   12  C3  UNL     1      34.653  15.710 -27.128  1.00  0.00     0.124 A 
ATOM     13  H3  UNL     1      35.272  17.630 -26.739  1.00  0.00     0.170 HD
HETATM   14  C15 UNL     1      34.625  14.425 -26.635  1.00  0.00     0.128 A 
BRANCH  12  15
HETATM   15  N2  UNL     1      34.061  16.077 -28.337  1.00  0.00    -0.374 N 
ATOM     16  H2  UNL     1      33.056  16.243 -28.362  1.00  0.00     0.161 HD
BRANCH  15  17
HETATM   17  C2  UNL     1      34.832  16.231 -29.570  1.00  0.00     0.148 C 
BRANCH  17  18
HETATM   18  C1  UNL     1      34.568  15.111 -30.550  1.00  0.00     0.249 C 
BRANCH  18  19
HETATM   19  N1  UNL     1      33.212  14.593 -30.342  1.00  0.00    -0.078 N 
ATOM     20  H13 UNL     1      32.694  15.133 -29.649  1.00  0.00     0.274 HD
ATOM     21  H12 UNL     1      32.605  14.766 -31.144  1.00  0.00     0.274 HD
ATOM     22  H11 UNL     1      33.261  13.603 -30.102  1.00  0.00     0.274 HD
ENDBRANCH  18  19
ENDBRANCH  17  18
ENDBRANCH  15  17
ENDBRANCH  12  15
BRANCH  14  23
HETATM   23  C16 UNL     1      34.038  13.315 -27.342  1.00  0.00     0.217 C 
HETATM   24  O9  UNL     1      32.829  13.146 -27.469  1.00  0.00    -0.644 OA
HETATM   25  O10 UNL     1      34.928  12.370 -27.920  1.00  0.00    -0.644 OA
ENDBRANCH  14  23
ENDBRANCH   3   6
ENDBRANCH   1   2
BRANCH   1  26
HETATM   26  O2  UNL     1      33.577  14.076 -22.252  1.00  0.00    -0.383 OA
ATOM     27  H2  UNL     1      34.060  14.879 -22.416  1.00  0.00     0.210 HD
ENDBRANCH   1  26
BRANCH   1  28
HETATM   28  C8  UNL     1      34.234  11.851 -21.545  1.00  0.00     0.129 C 
HETATM   29  C9  UNL     1      32.888  11.744 -20.921  1.00  0.00     0.189 C 
HETATM   30  C10 UNL     1      33.119  10.759 -19.801  1.00  0.00     0.205 C 
HETATM   31  C11 UNL     1      34.604  10.683 -19.546  1.00  0.00     0.163 C 
HETATM   32  O8  UNL     1      34.972  11.019 -18.271  1.00  0.00    -0.381 OA
HETATM   33  C14 UNL     1      35.233  11.727 -20.484  1.00  0.00     0.090 C 
HETATM   34  C12 UNL     1      35.994  11.980 -18.334  1.00  0.00     0.201 C 
HETATM   35  C13 UNL     1      35.473  12.817 -19.526  1.00  0.00     0.216 C 
BRANCH  28  36
HETATM   36  O3  UNL     1      34.373  10.677 -22.339  1.00  0.00    -0.383 OA
ATOM     37  H3  UNL     1      34.144   9.960 -21.760  1.00  0.00     0.210 HD
ENDBRANCH  28  36
BRANCH  29  38
HETATM   38  O4  UNL     1      31.977  11.198 -21.828  1.00  0.00    -0.390 OA
ATOM     39  H4  UNL     1      31.346  10.654 -21.372  1.00  0.00     0.210 HD
ENDBRANCH  29  38
BRANCH  30  40
HETATM   40  O5  UNL     1      32.366  10.999 -18.680  1.00  0.00    -0.249 OA
BRANCH  40  41
HETATM   41  S1  UNL     1      31.711   9.587 -18.015  1.00  0.00     0.356 S 
HETATM   42  O6  UNL     1      31.318   8.618 -19.106  1.00  0.00    -0.176 OA
HETATM   43  O7  UNL     1      30.479   9.868 -17.224  1.00  0.00    -0.176 OA
BRANCH  41  44
HETATM   44  N7  UNL     1      32.869   8.873 -16.941  1.00  0.00    -0.306 N 
ATOM     45  H72 UNL     1      33.043   7.871 -16.859  1.00  0.00     0.171 HD
ATOM     46  H71 UNL     1      33.337   9.611 -16.415  1.00  0.00     0.171 HD
ENDBRANCH  41  44
ENDBRANCH  40  41
ENDBRANCH  30  40
BRANCH  35  47
HETATM   47  N8  UNL     1      34.333  13.507 -19.014  1.00  0.00    -0.072 N 
ATOM     48  H83 UNL     1      33.479  12.949 -19.008  1.00  0.00     0.274 HD
ATOM     49  H82 UNL     1      34.367  13.677 -18.010  1.00  0.00     0.274 HD
ATOM     50  H81 UNL     1      34.270  14.355 -19.576  1.00  0.00     0.274 HD
ENDBRANCH  35  47
ENDBRANCH   1  28
TORSDOF 15
ENDMDL
