MODEL 1
REMARK VINA RESULT: -7.277825646      0.000      0.000
REMARK  15 active torsions:
REMARK  status: ('A' for Active; 'I' for Inactive)
REMARK    1  A    between atoms: C1_2  and  O2_4 
REMARK    2  A    between atoms: O2_4  and  C2_5 
REMARK    3  A    between atoms: C2_5  and  O3_6 
REMARK    4  A    between atoms: C2_5  and  C3_8 
REMARK    5  A    between atoms: C3_8  and  O4_9 
REMARK    6  A    between atoms: C3_8  and  O5_11 
REMARK    7  A    between atoms: C3_8  and  C4_13 
REMARK       I    between atoms: C4_13  and  N2_15 
REMARK    8  A    between atoms: N2_15  and  S1_17 
REMARK    9  A    between atoms: S1_17  and  N3_20 
REMARK   10  A    between atoms: N3_20  and  C5_22 
REMARK   11  A    between atoms: C8_29  and  S2_30 
REMARK   12  A    between atoms: S2_30  and  N6_33 
REMARK   13  A    between atoms: N6_33  and  C9_35 
REMARK   14  A    between atoms: C12_39  and  O12_40 
REMARK   15  A    between atoms: C13_42  and  O13_43 
ROOT
HETATM    1  C5  UNL     1      32.529   9.712 -26.450  1.00  0.00     0.141 A 
HETATM    2  N4  UNL     1      33.169   8.548 -26.115  1.00  0.00    -0.337 N 
ATOM      3  H4  UNL     1      33.098   8.221 -25.151  1.00  0.00     0.168 HD
HETATM    4  C6  UNL     1      33.880   7.816 -26.976  1.00  0.00     0.181 A 
HETATM    5  N5  UNL     1      34.000   8.208 -28.254  1.00  0.00    -0.360 N 
ATOM      6  H5  UNL     1      34.540   7.661 -28.925  1.00  0.00     0.166 HD
HETATM    7  C7  UNL     1      33.387   9.339 -28.619  1.00  0.00     0.118 A 
HETATM    8  C8  UNL     1      32.632  10.131 -27.737  1.00  0.00     0.139 A 
ENDROOT
BRANCH   1   9
HETATM    9  N3  UNL     1      31.905  10.363 -25.523  1.00  0.00    -0.251 N 
ATOM     10  H3  UNL     1      30.895  10.236 -25.457  1.00  0.00     0.182 HD
BRANCH   9  11
HETATM   11  S1  UNL     1      32.634  11.411 -24.411  1.00  0.00     0.327 S 
HETATM   12  O7  UNL     1      34.105  11.482 -24.725  1.00  0.00    -0.182 OA
HETATM   13  O8  UNL     1      32.021  12.765 -24.549  1.00  0.00    -0.182 OA
BRANCH  11  14
HETATM   14  N2  UNL     1      32.381  10.842 -22.804  1.00  0.00    -0.232 N 
HETATM   15  C4  UNL     1      32.803   9.531 -22.455  1.00  0.00     0.300 C 
HETATM   16  O6  UNL     1      33.353   8.804 -23.332  1.00  0.00    -0.266 OA
ATOM     17  H2  UNL     1      31.932  11.441 -22.110  1.00  0.00     0.183 HD
BRANCH  15  18
HETATM   18  C3  UNL     1      32.578   9.064 -21.069  1.00  0.00     0.296 C 
BRANCH  18  19
HETATM   19  C2  UNL     1      32.221  10.223 -20.159  1.00  0.00     0.341 C 
BRANCH  19  20
HETATM   20  O2  UNL     1      32.460   9.866 -18.820  1.00  0.00    -0.269 OA
BRANCH  20  21
HETATM   21  C1  UNL     1      31.389   9.521 -18.008  1.00  0.00     0.375 C 
HETATM   22  N1  UNL     1      30.880   8.195 -18.001  1.00  0.00    -0.032 NA
HETATM   23  O1  UNL     1      30.880  10.418 -17.277  1.00  0.00    -0.242 OA
ENDBRANCH  20  21
ENDBRANCH  19  20
BRANCH  19  24
HETATM   24  O3  UNL     1      30.881  10.554 -20.277  1.00  0.00    -0.366 OA
ATOM     25  H3  UNL     1      30.519  10.052 -20.998  1.00  0.00     0.212 HD
ENDBRANCH  19  24
ENDBRANCH  18  19
BRANCH  18  26
HETATM   26  O4  UNL     1      33.829   8.542 -20.645  1.00  0.00    -0.354 OA
ATOM     27  H4  UNL     1      33.660   7.836 -20.031  1.00  0.00     0.213 HD
ENDBRANCH  18  26
BRANCH  18  28
HETATM   28  O5  UNL     1      31.669   8.028 -20.967  1.00  0.00    -0.354 OA
ATOM     29  H5  UNL     1      31.292   7.802 -21.810  1.00  0.00     0.213 HD
ENDBRANCH  18  28
ENDBRANCH  15  18
ENDBRANCH  11  14
ENDBRANCH   9  11
ENDBRANCH   1   9
BRANCH   8  30
HETATM   30  S2  UNL     1      31.836  11.544 -28.354  1.00  0.00     0.264 S 
HETATM   31  O9  UNL     1      31.266  11.134 -29.731  1.00  0.00    -0.200 OA
HETATM   32  O10 UNL     1      30.535  11.736 -27.542  1.00  0.00    -0.200 OA
BRANCH  30  33
HETATM   33  N6  UNL     1      32.623  12.982 -28.383  1.00  0.00    -0.306 N 
ATOM     34  H6  UNL     1      32.051  13.797 -28.163  1.00  0.00     0.173 HD
BRANCH  33  35
HETATM   35  C9  UNL     1      33.940  13.249 -28.663  1.00  0.00     0.148 C 
HETATM   36  C10 UNL     1      34.231  13.657 -30.097  1.00  0.00     0.196 C 
HETATM   37  O11 UNL     1      34.012  14.974 -30.369  1.00  0.00    -0.386 OA
HETATM   38  C11 UNL     1      34.750  15.844 -29.568  1.00  0.00     0.201 C 
HETATM   39  C12 UNL     1      34.110  15.722 -28.178  1.00  0.00     0.172 C 
HETATM   40  C13 UNL     1      34.440  14.343 -27.698  1.00  0.00     0.174 C 
BRANCH  39  41
HETATM   41  O12 UNL     1      32.756  15.879 -28.338  1.00  0.00    -0.391 OA
ATOM     42  H12 UNL     1      32.490  16.607 -27.789  1.00  0.00     0.210 HD
ENDBRANCH  39  41
BRANCH  40  43
HETATM   43  O13 UNL     1      33.880  14.180 -26.446  1.00  0.00    -0.391 OA
ATOM     44  H13 UNL     1      34.123  14.898 -25.875  1.00  0.00     0.210 HD
ENDBRANCH  40  43
ENDBRANCH  33  35
ENDBRANCH  30  33
ENDBRANCH   8  30
TORSDOF 15
ENDMDL
MODEL 2
REMARK VINA RESULT: -7.208641165      2.299      2.962
REMARK  15 active torsions:
REMARK  status: ('A' for Active; 'I' for Inactive)
REMARK    1  A    between atoms: C1_2  and  O2_4 
REMARK    2  A    between atoms: O2_4  and  C2_5 
REMARK    3  A    between atoms: C2_5  and  O3_6 
REMARK    4  A    between atoms: C2_5  and  C3_8 
REMARK    5  A    between atoms: C3_8  and  O4_9 
REMARK    6  A    between atoms: C3_8  and  O5_11 
REMARK    7  A    between atoms: C3_8  and  C4_13 
REMARK       I    between atoms: C4_13  and  N2_15 
REMARK    8  A    between atoms: N2_15  and  S1_17 
REMARK    9  A    between atoms: S1_17  and  N3_20 
REMARK   10  A    between atoms: N3_20  and  C5_22 
REMARK   11  A    between atoms: C8_29  and  S2_30 
REMARK   12  A    between atoms: S2_30  and  N6_33 
REMARK   13  A    between atoms: N6_33  and  C9_35 
REMARK   14  A    between atoms: C12_39  and  O12_40 
REMARK   15  A    between atoms: C13_42  and  O13_43 
ROOT
HETATM    1  C5  UNL     1      32.207  11.481 -25.581  1.00  0.00     0.141 A 
HETATM    2  N4  UNL     1      30.936  10.976 -25.515  1.00  0.00    -0.337 N 
ATOM      3  H4  UNL     1      30.555  10.751 -24.596  1.00  0.00     0.168 HD
HETATM    4  C6  UNL     1      30.165  10.760 -26.585  1.00  0.00     0.181 A 
HETATM    5  N5  UNL     1      30.624  11.040 -27.814  1.00  0.00    -0.360 N 
ATOM      6  H5  UNL     1      30.049  10.881 -28.641  1.00  0.00     0.166 HD
HETATM    7  C7  UNL     1      31.862  11.537 -27.918  1.00  0.00     0.118 A 
HETATM    8  C8  UNL     1      32.697  11.776 -26.813  1.00  0.00     0.139 A 
ENDROOT
BRANCH   1   9
HETATM    9  N3  UNL     1      32.880  11.607 -24.485  1.00  0.00    -0.251 N 
ATOM     10  H3  UNL     1      33.094  12.553 -24.170  1.00  0.00     0.182 HD
BRANCH   9  11
HETATM   11  S1  UNL     1      33.434  10.323 -23.529  1.00  0.00     0.327 S 
HETATM   12  O7  UNL     1      33.126   9.035 -24.247  1.00  0.00    -0.182 OA
HETATM   13  O8  UNL     1      34.909  10.460 -23.345  1.00  0.00    -0.182 OA
BRANCH  11  14
HETATM   14  N2  UNL     1      32.669  10.358 -21.985  1.00  0.00    -0.232 N 
HETATM   15  C4  UNL     1      32.599  11.584 -21.270  1.00  0.00     0.300 C 
HETATM   16  O6  UNL     1      33.104  12.627 -21.779  1.00  0.00    -0.266 OA
ATOM     17  H2  UNL     1      32.270   9.507 -21.588  1.00  0.00     0.183 HD
BRANCH  15  18
HETATM   18  C3  UNL     1      31.936  11.592 -19.948  1.00  0.00     0.296 C 
BRANCH  18  19
HETATM   19  C2  UNL     1      31.587  10.183 -19.509  1.00  0.00     0.341 C 
BRANCH  19  20
HETATM   20  O2  UNL     1      30.890  10.225 -18.288  1.00  0.00    -0.269 OA
BRANCH  20  21
HETATM   21  C1  UNL     1      31.292   9.398 -17.249  1.00  0.00     0.375 C 
HETATM   22  N1  UNL     1      30.914   8.030 -17.223  1.00  0.00    -0.032 NA
HETATM   23  O1  UNL     1      32.003   9.896 -16.330  1.00  0.00    -0.242 OA
ENDBRANCH  20  21
ENDBRANCH  19  20
BRANCH  19  24
HETATM   24  O3  UNL     1      32.730   9.423 -19.319  1.00  0.00    -0.366 OA
ATOM     25  H3  UNL     1      33.310   9.909 -18.743  1.00  0.00     0.212 HD
ENDBRANCH  19  24
ENDBRANCH  18  19
BRANCH  18  26
HETATM   26  O4  UNL     1      30.722  12.303 -20.144  1.00  0.00    -0.354 OA
ATOM     27  H4  UNL     1      30.927  13.114 -20.596  1.00  0.00     0.213 HD
ENDBRANCH  18  26
BRANCH  18  28
HETATM   28  O5  UNL     1      32.636  12.278 -18.974  1.00  0.00    -0.354 OA
ATOM     29  H5  UNL     1      33.522  12.484 -19.251  1.00  0.00     0.213 HD
ENDBRANCH  18  28
ENDBRANCH  15  18
ENDBRANCH  11  14
ENDBRANCH   9  11
ENDBRANCH   1   9
BRANCH   8  30
HETATM   30  S2  UNL     1      34.259  12.481 -27.081  1.00  0.00     0.264 S 
HETATM   31  O9  UNL     1      35.263  11.558 -26.352  1.00  0.00    -0.200 OA
HETATM   32  O10 UNL     1      34.638  12.220 -28.557  1.00  0.00    -0.200 OA
BRANCH  30  33
HETATM   33  N6  UNL     1      34.506  14.072 -26.776  1.00  0.00    -0.306 N 
ATOM     34  H6  UNL     1      34.263  14.378 -25.834  1.00  0.00     0.173 HD
BRANCH  33  35
HETATM   35  C9  UNL     1      34.991  15.054 -27.605  1.00  0.00     0.148 C 
HETATM   36  C10 UNL     1      34.086  15.432 -28.765  1.00  0.00     0.196 C 
HETATM   37  O11 UNL     1      33.103  16.321 -28.453  1.00  0.00    -0.386 OA
HETATM   38  C11 UNL     1      33.578  17.524 -27.934  1.00  0.00     0.201 C 
HETATM   39  C12 UNL     1      34.097  17.160 -26.536  1.00  0.00     0.172 C 
HETATM   40  C13 UNL     1      35.305  16.305 -26.760  1.00  0.00     0.174 C 
BRANCH  39  41
HETATM   41  O12 UNL     1      33.103  16.456 -25.903  1.00  0.00    -0.391 OA
ATOM     42  H12 UNL     1      32.500  16.156 -26.573  1.00  0.00     0.210 HD
ENDBRANCH  39  41
BRANCH  40  43
HETATM   43  O13 UNL     1      35.810  15.945 -25.527  1.00  0.00    -0.391 OA
ATOM     44  H13 UNL     1      35.908  16.707 -24.969  1.00  0.00     0.210 HD
ENDBRANCH  40  43
ENDBRANCH  33  35
ENDBRANCH  30  33
ENDBRANCH   8  30
TORSDOF 15
ENDMDL
MODEL 3
REMARK VINA RESULT: -7.164105637      3.726      5.570
REMARK  15 active torsions:
REMARK  status: ('A' for Active; 'I' for Inactive)
REMARK    1  A    between atoms: C1_2  and  O2_4 
REMARK    2  A    between atoms: O2_4  and  C2_5 
REMARK    3  A    between atoms: C2_5  and  O3_6 
REMARK    4  A    between atoms: C2_5  and  C3_8 
REMARK    5  A    between atoms: C3_8  and  O4_9 
REMARK    6  A    between atoms: C3_8  and  O5_11 
REMARK    7  A    between atoms: C3_8  and  C4_13 
REMARK       I    between atoms: C4_13  and  N2_15 
REMARK    8  A    between atoms: N2_15  and  S1_17 
REMARK    9  A    between atoms: S1_17  and  N3_20 
REMARK   10  A    between atoms: N3_20  and  C5_22 
REMARK   11  A    between atoms: C8_29  and  S2_30 
REMARK   12  A    between atoms: S2_30  and  N6_33 
REMARK   13  A    between atoms: N6_33  and  C9_35 
REMARK   14  A    between atoms: C12_39  and  O12_40 
REMARK   15  A    between atoms: C13_42  and  O13_43 
ROOT
HETATM    1  C5  UNL     1      34.618  14.330 -27.918  1.00  0.00     0.141 A 
HETATM    2  N4  UNL     1      34.544  14.042 -29.255  1.00  0.00    -0.337 N 
ATOM      3  H4  UNL     1      34.555  13.062 -29.536  1.00  0.00     0.168 HD
HETATM    4  C6  UNL     1      34.458  14.970 -30.212  1.00  0.00     0.181 A 
HETATM    5  N5  UNL     1      34.440  16.272 -29.889  1.00  0.00    -0.360 N 
ATOM      6  H5  UNL     1      34.376  16.994 -30.607  1.00  0.00     0.166 HD
HETATM    7  C7  UNL     1      34.509  16.592 -28.591  1.00  0.00     0.118 A 
HETATM    8  C8  UNL     1      34.599  15.640 -27.562  1.00  0.00     0.139 A 
ENDROOT
BRANCH   1   9
HETATM    9  N3  UNL     1      34.743  13.353 -27.081  1.00  0.00    -0.251 N 
ATOM     10  H3  UNL     1      35.651  13.230 -26.635  1.00  0.00     0.182 HD
BRANCH   9  11
HETATM   11  S1  UNL     1      33.516  12.263 -26.667  1.00  0.00     0.327 S 
HETATM   12  O7  UNL     1      32.291  12.603 -27.476  1.00  0.00    -0.182 OA
HETATM   13  O8  UNL     1      33.969  10.878 -26.993  1.00  0.00    -0.182 OA
BRANCH  11  14
HETATM   14  N2  UNL     1      33.178  12.360 -24.980  1.00  0.00    -0.232 N 
HETATM   15  C4  UNL     1      34.254  12.358 -24.053  1.00  0.00     0.300 C 
HETATM   16  O6  UNL     1      35.441  12.281 -24.483  1.00  0.00    -0.266 OA
ATOM     17  H2  UNL     1      32.214  12.418 -24.650  1.00  0.00     0.183 HD
BRANCH  15  18
HETATM   18  C3  UNL     1      33.941  12.445 -22.610  1.00  0.00     0.296 C 
BRANCH  18  19
HETATM   19  C2  UNL     1      32.941  11.380 -22.208  1.00  0.00     0.341 C 
BRANCH  19  20
HETATM   20  O2  UNL     1      31.953  11.944 -21.380  1.00  0.00    -0.269 OA
BRANCH  20  21
HETATM   21  C1  UNL     1      31.876  11.551 -20.052  1.00  0.00     0.375 C 
HETATM   22  N1  UNL     1      31.108  10.418 -19.674  1.00  0.00    -0.032 NA
HETATM   23  O1  UNL     1      32.507  12.227 -19.191  1.00  0.00    -0.242 OA
ENDBRANCH  20  21
ENDBRANCH  19  20
BRANCH  19  24
HETATM   24  O3  UNL     1      33.556  10.361 -21.499  1.00  0.00    -0.366 OA
ATOM     25  H3  UNL     1      34.079  10.758 -20.812  1.00  0.00     0.212 HD
ENDBRANCH  19  24
ENDBRANCH  18  19
BRANCH  18  26
HETATM   26  O4  UNL     1      33.325  13.713 -22.438  1.00  0.00    -0.354 OA
ATOM     27  H4  UNL     1      33.185  14.091 -23.299  1.00  0.00     0.213 HD
ENDBRANCH  18  26
BRANCH  18  28
HETATM   28  O5  UNL     1      35.057  12.441 -21.793  1.00  0.00    -0.354 OA
ATOM     29  H5  UNL     1      34.835  12.243 -20.891  1.00  0.00     0.213 HD
ENDBRANCH  18  28
ENDBRANCH  15  18
ENDBRANCH  11  14
ENDBRANCH   9  11
ENDBRANCH   1   9
BRANCH   8  30
HETATM   30  S2  UNL     1      34.621  16.188 -25.915  1.00  0.00     0.264 S 
HETATM   31  O9  UNL     1      34.039  17.621 -25.946  1.00  0.00    -0.200 OA
HETATM   32  O10 UNL     1      33.503  15.433 -25.161  1.00  0.00    -0.200 OA
BRANCH  30  33
HETATM   33  N6  UNL     1      35.993  16.067 -25.027  1.00  0.00    -0.306 N 
ATOM     34  H6  UNL     1      36.861  16.086 -25.562  1.00  0.00     0.173 HD
BRANCH  33  35
HETATM   35  C9  UNL     1      36.143  15.944 -23.668  1.00  0.00     0.148 C 
HETATM   36  C10 UNL     1      37.158  14.908 -23.217  1.00  0.00     0.196 C 
HETATM   37  O11 UNL     1      38.450  15.338 -23.219  1.00  0.00    -0.386 OA
HETATM   38  C11 UNL     1      38.671  16.459 -22.421  1.00  0.00     0.201 C 
HETATM   39  C12 UNL     1      37.979  17.606 -23.171  1.00  0.00     0.172 C 
HETATM   40  C13 UNL     1      36.511  17.323 -23.083  1.00  0.00     0.174 C 
BRANCH  39  41
HETATM   41  O12 UNL     1      38.414  17.563 -24.471  1.00  0.00    -0.391 OA
ATOM     42  H12 UNL     1      38.905  18.361 -24.631  1.00  0.00     0.210 HD
ENDBRANCH  39  41
BRANCH  40  43
HETATM   43  O13 UNL     1      35.841  18.329 -23.750  1.00  0.00    -0.391 OA
ATOM     44  H13 UNL     1      35.257  18.790 -23.160  1.00  0.00     0.210 HD
ENDBRANCH  40  43
ENDBRANCH  33  35
ENDBRANCH  30  33
ENDBRANCH   8  30
TORSDOF 15
ENDMDL
MODEL 4
REMARK VINA RESULT: -7.112993619      3.920      6.903
REMARK  15 active torsions:
REMARK  status: ('A' for Active; 'I' for Inactive)
REMARK    1  A    between atoms: C1_2  and  O2_4 
REMARK    2  A    between atoms: O2_4  and  C2_5 
REMARK    3  A    between atoms: C2_5  and  O3_6 
REMARK    4  A    between atoms: C2_5  and  C3_8 
REMARK    5  A    between atoms: C3_8  and  O4_9 
REMARK    6  A    between atoms: C3_8  and  O5_11 
REMARK    7  A    between atoms: C3_8  and  C4_13 
REMARK       I    between atoms: C4_13  and  N2_15 
REMARK    8  A    between atoms: N2_15  and  S1_17 
REMARK    9  A    between atoms: S1_17  and  N3_20 
REMARK   10  A    between atoms: N3_20  and  C5_22 
REMARK   11  A    between atoms: C8_29  and  S2_30 
REMARK   12  A    between atoms: S2_30  and  N6_33 
REMARK   13  A    between atoms: N6_33  and  C9_35 
REMARK   14  A    between atoms: C12_39  and  O12_40 
REMARK   15  A    between atoms: C13_42  and  O13_43 
ROOT
HETATM    1  C5  UNL     1      34.762  14.754 -27.832  1.00  0.00     0.141 A 
HETATM    2  N4  UNL     1      35.141  15.991 -28.282  1.00  0.00    -0.337 N 
ATOM      3  H4  UNL     1      35.635  16.607 -27.635  1.00  0.00     0.168 HD
HETATM    4  C6  UNL     1      34.902  16.439 -29.517  1.00  0.00     0.181 A 
HETATM    5  N5  UNL     1      34.255  15.664 -30.401  1.00  0.00    -0.360 N 
ATOM      6  H5  UNL     1      34.064  15.991 -31.348  1.00  0.00     0.166 HD
HETATM    7  C7  UNL     1      33.871  14.448 -29.999  1.00  0.00     0.118 A 
HETATM    8  C8  UNL     1      34.108  13.948 -28.707  1.00  0.00     0.139 A 
ENDROOT
BRANCH   1   9
HETATM    9  N3  UNL     1      35.006  14.442 -26.602  1.00  0.00    -0.251 N 
ATOM     10  H3  UNL     1      35.684  13.700 -26.431  1.00  0.00     0.182 HD
BRANCH   9  11
HETATM   11  S1  UNL     1      34.287  15.169 -25.252  1.00  0.00     0.327 S 
HETATM   12  O7  UNL     1      33.465  16.338 -25.729  1.00  0.00    -0.182 OA
HETATM   13  O8  UNL     1      33.404  14.171 -24.579  1.00  0.00    -0.182 OA
BRANCH  11  14
HETATM   14  N2  UNL     1      35.497  15.687 -24.140  1.00  0.00    -0.232 N 
HETATM   15  C4  UNL     1      36.429  16.683 -24.540  1.00  0.00     0.300 C 
HETATM   16  O6  UNL     1      36.355  17.168 -25.706  1.00  0.00    -0.266 OA
ATOM     17  H2  UNL     1      35.545  15.283 -23.205  1.00  0.00     0.183 HD
BRANCH  15  18
HETATM   18  C3  UNL     1      37.457  17.115 -23.568  1.00  0.00     0.296 C 
BRANCH  18  19
HETATM   19  C2  UNL     1      36.857  17.294 -22.188  1.00  0.00     0.341 C 
BRANCH  19  20
HETATM   20  O2  UNL     1      36.824  16.056 -21.521  1.00  0.00    -0.269 OA
BRANCH  20  21
HETATM   21  C1  UNL     1      35.735  15.747 -20.718  1.00  0.00     0.375 C 
HETATM   22  N1  UNL     1      34.630  15.023 -21.239  1.00  0.00    -0.032 NA
HETATM   23  O1  UNL     1      35.756  16.127 -19.512  1.00  0.00    -0.242 OA
ENDBRANCH  20  21
ENDBRANCH  19  20
BRANCH  19  24
HETATM   24  O3  UNL     1      35.557  17.768 -22.267  1.00  0.00    -0.366 OA
ATOM     25  H3  UNL     1      34.999  17.045 -22.530  1.00  0.00     0.212 HD
ENDBRANCH  19  24
ENDBRANCH  18  19
BRANCH  18  26
HETATM   26  O4  UNL     1      37.891  18.388 -24.026  1.00  0.00    -0.354 OA
ATOM     27  H4  UNL     1      38.075  18.319 -24.956  1.00  0.00     0.213 HD
ENDBRANCH  18  26
BRANCH  18  28
HETATM   28  O5  UNL     1      38.579  16.308 -23.543  1.00  0.00    -0.354 OA
ATOM     29  H5  UNL     1      38.430  15.479 -23.983  1.00  0.00     0.213 HD
ENDBRANCH  18  28
ENDBRANCH  15  18
ENDBRANCH  11  14
ENDBRANCH   9  11
ENDBRANCH   1   9
BRANCH   8  30
HETATM   30  S2  UNL     1      33.610  12.328 -28.332  1.00  0.00     0.264 S 
HETATM   31  O9  UNL     1      32.986  11.773 -29.634  1.00  0.00    -0.200 OA
HETATM   32  O10 UNL     1      34.886  11.464 -28.225  1.00  0.00    -0.200 OA
BRANCH  30  33
HETATM   33  N6  UNL     1      32.696  12.037 -27.003  1.00  0.00    -0.306 N 
ATOM     34  H6  UNL     1      32.619  12.815 -26.348  1.00  0.00     0.173 HD
BRANCH  33  35
HETATM   35  C9  UNL     1      32.019  10.898 -26.643  1.00  0.00     0.148 C 
HETATM   36  C10 UNL     1      32.755   9.594 -26.902  1.00  0.00     0.196 C 
HETATM   37  O11 UNL     1      33.651   9.246 -25.937  1.00  0.00    -0.386 OA
HETATM   38  C11 UNL     1      33.089   9.120 -24.668  1.00  0.00     0.201 C 
HETATM   39  C12 UNL     1      32.755  10.559 -24.251  1.00  0.00     0.172 C 
HETATM   40  C13 UNL     1      31.642  10.996 -25.152  1.00  0.00     0.174 C 
BRANCH  39  41
HETATM   41  O12 UNL     1      33.883  11.314 -24.458  1.00  0.00    -0.391 OA
ATOM     42  H12 UNL     1      33.600  12.159 -24.788  1.00  0.00     0.210 HD
ENDBRANCH  39  41
BRANCH  40  43
HETATM   43  O13 UNL     1      31.306  12.293 -24.819  1.00  0.00    -0.391 OA
ATOM     44  H13 UNL     1      30.641  12.304 -24.141  1.00  0.00     0.210 HD
ENDBRANCH  40  43
ENDBRANCH  33  35
ENDBRANCH  30  33
ENDBRANCH   8  30
TORSDOF 15
ENDMDL
MODEL 5
REMARK VINA RESULT: -7.071647061      1.436      2.183
REMARK  15 active torsions:
REMARK  status: ('A' for Active; 'I' for Inactive)
REMARK    1  A    between atoms: C1_2  and  O2_4 
REMARK    2  A    between atoms: O2_4  and  C2_5 
REMARK    3  A    between atoms: C2_5  and  O3_6 
REMARK    4  A    between atoms: C2_5  and  C3_8 
REMARK    5  A    between atoms: C3_8  and  O4_9 
REMARK    6  A    between atoms: C3_8  and  O5_11 
REMARK    7  A    between atoms: C3_8  and  C4_13 
REMARK       I    between atoms: C4_13  and  N2_15 
REMARK    8  A    between atoms: N2_15  and  S1_17 
REMARK    9  A    between atoms: S1_17  and  N3_20 
REMARK   10  A    between atoms: N3_20  and  C5_22 
REMARK   11  A    between atoms: C8_29  and  S2_30 
REMARK   12  A    between atoms: S2_30  and  N6_33 
REMARK   13  A    between atoms: N6_33  and  C9_35 
REMARK   14  A    between atoms: C12_39  and  O12_40 
REMARK   15  A    between atoms: C13_42  and  O13_43 
ROOT
HETATM    1  C5  UNL     1      32.572  10.038 -26.361  1.00  0.00     0.141 A 
HETATM    2  N4  UNL     1      33.181   8.908 -25.883  1.00  0.00    -0.337 N 
ATOM      3  H4  UNL     1      33.096   8.700 -24.888  1.00  0.00     0.168 HD
HETATM    4  C6  UNL     1      33.879   8.060 -26.644  1.00  0.00     0.181 A 
HETATM    5  N5  UNL     1      34.017   8.293 -27.959  1.00  0.00    -0.360 N 
ATOM      6  H5  UNL     1      34.548   7.657 -28.554  1.00  0.00     0.166 HD
HETATM    7  C7  UNL     1      33.435   9.387 -28.462  1.00  0.00     0.118 A 
HETATM    8  C8  UNL     1      32.694  10.296 -27.688  1.00  0.00     0.139 A 
ENDROOT
BRANCH   1   9
HETATM    9  N3  UNL     1      31.959  10.810 -25.525  1.00  0.00    -0.251 N 
ATOM     10  H3  UNL     1      30.942  10.850 -25.581  1.00  0.00     0.182 HD
BRANCH   9  11
HETATM   11  S1  UNL     1      32.714  11.762 -24.346  1.00  0.00     0.327 S 
HETATM   12  O7  UNL     1      34.205  11.614 -24.504  1.00  0.00    -0.182 OA
HETATM   13  O8  UNL     1      32.323  13.188 -24.552  1.00  0.00    -0.182 OA
BRANCH  11  14
HETATM   14  N2  UNL     1      32.216  11.265 -22.773  1.00  0.00    -0.232 N 
HETATM   15  C4  UNL     1      32.674  11.986 -21.637  1.00  0.00     0.300 C 
HETATM   16  O6  UNL     1      33.442  12.978 -21.802  1.00  0.00    -0.266 OA
ATOM     17  H2  UNL     1      31.599  10.462 -22.657  1.00  0.00     0.183 HD
BRANCH  15  18
HETATM   18  C3  UNL     1      32.231  11.545 -20.297  1.00  0.00     0.296 C 
BRANCH  18  19
HETATM   19  C2  UNL     1      32.390  10.045 -20.141  1.00  0.00     0.341 C 
BRANCH  19  20
HETATM   20  O2  UNL     1      33.534   9.614 -20.837  1.00  0.00    -0.269 OA
BRANCH  20  21
HETATM   21  C1  UNL     1      33.510   8.389 -21.487  1.00  0.00     0.375 C 
HETATM   22  N1  UNL     1      33.355   8.318 -22.897  1.00  0.00    -0.032 NA
HETATM   23  O1  UNL     1      33.630   7.341 -20.791  1.00  0.00    -0.242 OA
ENDBRANCH  20  21
ENDBRANCH  19  20
BRANCH  19  24
HETATM   24  O3  UNL     1      31.297   9.371 -20.661  1.00  0.00    -0.366 OA
ATOM     25  H3  UNL     1      30.516   9.726 -20.254  1.00  0.00     0.212 HD
ENDBRANCH  19  24
ENDBRANCH  18  19
BRANCH  18  26
HETATM   26  O4  UNL     1      30.844  11.847 -20.243  1.00  0.00    -0.354 OA
ATOM     27  H4  UNL     1      30.748  12.723 -19.888  1.00  0.00     0.213 HD
ENDBRANCH  18  26
BRANCH  18  28
HETATM   28  O5  UNL     1      32.820  12.238 -19.255  1.00  0.00    -0.354 OA
ATOM     29  H5  UNL     1      32.366  13.052 -19.068  1.00  0.00     0.213 HD
ENDBRANCH  18  28
ENDBRANCH  15  18
ENDBRANCH  11  14
ENDBRANCH   9  11
ENDBRANCH   1   9
BRANCH   8  30
HETATM   30  S2  UNL     1      31.939  11.645 -28.477  1.00  0.00     0.264 S 
HETATM   31  O9  UNL     1      31.490  11.120 -29.861  1.00  0.00    -0.200 OA
HETATM   32  O10 UNL     1      30.572  11.876 -27.793  1.00  0.00    -0.200 OA
BRANCH  30  33
HETATM   33  N6  UNL     1      32.710  13.089 -28.554  1.00  0.00    -0.306 N 
ATOM     34  H6  UNL     1      32.135  13.902 -28.335  1.00  0.00     0.173 HD
BRANCH  33  35
HETATM   35  C9  UNL     1      34.017  13.363 -28.870  1.00  0.00     0.148 C 
HETATM   36  C10 UNL     1      34.248  13.905 -30.270  1.00  0.00     0.196 C 
HETATM   37  O11 UNL     1      34.041  15.245 -30.402  1.00  0.00    -0.386 OA
HETATM   38  C11 UNL     1      34.832  16.022 -29.558  1.00  0.00     0.201 C 
HETATM   39  C12 UNL     1      34.257  15.774 -28.157  1.00  0.00     0.172 C 
HETATM   40  C13 UNL     1      34.583  14.350 -27.829  1.00  0.00     0.174 C 
BRANCH  39  41
HETATM   41  O12 UNL     1      32.900  15.965 -28.235  1.00  0.00    -0.391 OA
ATOM     42  H12 UNL     1      32.755  16.755 -28.743  1.00  0.00     0.210 HD
ENDBRANCH  39  41
BRANCH  40  43
HETATM   43  O13 UNL     1      34.080  14.074 -26.573  1.00  0.00    -0.391 OA
ATOM     44  H13 UNL     1      33.166  14.324 -26.516  1.00  0.00     0.210 HD
ENDBRANCH  40  43
ENDBRANCH  33  35
ENDBRANCH  30  33
ENDBRANCH   8  30
TORSDOF 15
ENDMDL
