MODEL 1
REMARK VINA RESULT: -8.225901514      0.000      0.000
REMARK  12 active torsions:
REMARK  status: ('A' for Active; 'I' for Inactive)
REMARK    1  A    between atoms: N1_1  and  C1_4 
REMARK    2  A    between atoms: N3_9  and  C3_10 
REMARK    3  A    between atoms: C4_12  and  O3_13 
REMARK    4  A    between atoms: O3_13  and  N4_14 
REMARK    5  A    between atoms: C5_16  and  O4_17 
REMARK    6  A    between atoms: C5_16  and  N5_19 
REMARK    7  A    between atoms: C6_20  and  C7_21 
REMARK    8  A    between atoms: C7_21  and  N6_22 
REMARK    9  A    between atoms: N6_22  and  N7_24 
REMARK   10  A    between atoms: N7_24  and  C8_26 
REMARK   11  A    between atoms: C12_40  and  O7_41 
REMARK   12  A    between atoms: C13_43  and  O8_44 
ROOT
HETATM    1  N4  UNL     1       3.874   3.761  22.558  1.00  0.00    -0.227 N 
ATOM      2  H4  UNL     1       3.977   3.803  23.572  1.00  0.00     0.198 HD
HETATM    3  C5  UNL     1       3.635   2.619  22.009  1.00  0.00     0.253 C 
ENDROOT
BRANCH   1   4
HETATM    4  O3  UNL     1       3.998   4.920  21.839  1.00  0.00    -0.242 OA
BRANCH   4   5
HETATM    5  C4  UNL     1       4.334   6.102  22.500  1.00  0.00     0.322 C 
HETATM    6  O2  UNL     1       5.617   6.532  22.264  1.00  0.00    -0.328 OA
HETATM    7  C3  UNL     1       5.678   7.887  22.411  1.00  0.00     0.272 C 
HETATM    8  C13 UNL     1       4.295   8.429  22.585  1.00  0.00     0.201 C 
HETATM    9  C12 UNL     1       3.442   7.276  22.077  1.00  0.00     0.208 C 
BRANCH   7  10
HETATM   10  N3  UNL     1       6.581   8.269  23.457  1.00  0.00    -0.220 N 
HETATM   11  C2  UNL     1       6.585   7.665  24.661  1.00  0.00     0.347 A 
HETATM   12  N2  UNL     1       7.463   8.078  25.593  1.00  0.00    -0.141 N 
HETATM   13  O1  UNL     1       5.784   6.725  24.921  1.00  0.00    -0.246 OA
HETATM   14  C1  UNL     1       8.347   9.074  25.388  1.00  0.00     0.683 A 
ATOM     15  H2  UNL     1       7.459   7.613  26.501  1.00  0.00     0.189 HD
HETATM   16  N12 UNL     1       8.335   9.672  24.181  1.00  0.00    -0.141 N 
HETATM   17  C14 UNL     1       7.454   9.266  23.227  1.00  0.00     0.347 A 
ATOM     18  H12 UNL     1       8.987  10.430  23.983  1.00  0.00     0.189 HD
HETATM   19  O9  UNL     1       7.497   9.870  22.118  1.00  0.00    -0.246 OA
BRANCH  14  20
HETATM   20  N1  UNL     1       9.189   9.462  26.298  1.00  0.00    -0.234 N 
ATOM     21  H12 UNL     1       9.697   8.772  26.852  1.00  0.00     0.174 HD
ATOM     22  H11 UNL     1       9.372  10.445  26.493  1.00  0.00     0.174 HD
ENDBRANCH  14  20
ENDBRANCH   7  10
BRANCH   8  23
HETATM   23  O8  UNL     1       3.959   8.571  23.951  1.00  0.00    -0.388 OA
ATOM     24  H8  UNL     1       3.173   9.093  24.066  1.00  0.00     0.210 HD
ENDBRANCH   8  23
BRANCH   9  25
HETATM   25  O7  UNL     1       3.419   7.372  20.692  1.00  0.00    -0.388 OA
ATOM     26  H7  UNL     1       4.272   7.642  20.376  1.00  0.00     0.210 HD
ENDBRANCH   9  25
ENDBRANCH   4   5
ENDBRANCH   1   4
BRANCH   3  27
HETATM   27  O4  UNL     1       3.502   2.585  20.632  1.00  0.00    -0.331 OA
ATOM     28  H4  UNL     1       2.909   1.940  20.263  1.00  0.00     0.221 HD
ENDBRANCH   3  27
BRANCH   3  29
HETATM   29  N5  UNL     1       3.512   1.435  22.776  1.00  0.00    -0.225 N 
HETATM   30  C6  UNL     1       4.543   0.633  23.184  1.00  0.00     0.080 A 
HETATM   31  C10 UNL     1       3.961  -0.393  23.896  1.00  0.00     0.124 A 
HETATM   32  N11 UNL     1       2.608  -0.217  23.918  1.00  0.00    -0.316 N 
HETATM   33  C11 UNL     1       2.379   0.887  23.238  1.00  0.00     0.334 A 
ATOM     34  H11 UNL     1       1.917  -0.816  24.369  1.00  0.00     0.170 HD
HETATM   35  O6  UNL     1       1.230   1.373  23.043  1.00  0.00    -0.246 OA
BRANCH  30  36
HETATM   36  C7  UNL     1       5.934   0.912  22.867  1.00  0.00     0.139 C 
BRANCH  36  37
HETATM   37  N6  UNL     1       6.545   0.601  21.796  1.00  0.00    -0.295 N 
ATOM     38  H6  UNL     1       7.034  -0.294  21.766  1.00  0.00     0.186 HD
BRANCH  37  39
HETATM   39  N7  UNL     1       6.588   1.389  20.685  1.00  0.00    -0.131 N 
ATOM     40  H7  UNL     1       6.297   1.001  19.788  1.00  0.00     0.205 HD
BRANCH  39  41
HETATM   41  C8  UNL     1       6.985   2.599  20.740  1.00  0.00     0.715 A 
HETATM   42  N8  UNL     1       6.350   3.645  20.190  1.00  0.00    -0.127 N 
HETATM   43  N9  UNL     1       7.058   4.728  20.455  1.00  0.00    -0.237 N 
ATOM     44  H8  UNL     1       5.478   3.610  19.662  1.00  0.00     0.206 HD
HETATM   45  C9  UNL     1       8.159   4.410  21.178  1.00  0.00     0.353 A 
ATOM     46  H9  UNL     1       6.811   5.672  20.157  1.00  0.00     0.192 HD
HETATM   47  O5  UNL     1       9.045   5.195  21.598  1.00  0.00    -0.245 OA
HETATM   48  N10 UNL     1       8.082   3.075  21.337  1.00  0.00    -0.137 N 
ATOM     49  H10 UNL     1       8.763   2.509  21.842  1.00  0.00     0.189 HD
ENDBRANCH  39  41
ENDBRANCH  37  39
ENDBRANCH  36  37
ENDBRANCH  30  36
ENDBRANCH   3  29
TORSDOF 12
ENDMDL
MODEL 2
REMARK VINA RESULT: -8.103953814      2.262      7.049
REMARK  12 active torsions:
REMARK  status: ('A' for Active; 'I' for Inactive)
REMARK    1  A    between atoms: N1_1  and  C1_4 
REMARK    2  A    between atoms: N3_9  and  C3_10 
REMARK    3  A    between atoms: C4_12  and  O3_13 
REMARK    4  A    between atoms: O3_13  and  N4_14 
REMARK    5  A    between atoms: C5_16  and  O4_17 
REMARK    6  A    between atoms: C5_16  and  N5_19 
REMARK    7  A    between atoms: C6_20  and  C7_21 
REMARK    8  A    between atoms: C7_21  and  N6_22 
REMARK    9  A    between atoms: N6_22  and  N7_24 
REMARK   10  A    between atoms: N7_24  and  C8_26 
REMARK   11  A    between atoms: C12_40  and  O7_41 
REMARK   12  A    between atoms: C13_43  and  O8_44 
ROOT
HETATM    1  N4  UNL     1       5.672   6.789  24.922  1.00  0.00    -0.227 N 
ATOM      2  H4  UNL     1       4.900   7.428  24.732  1.00  0.00     0.198 HD
HETATM    3  C5  UNL     1       6.857   7.120  24.537  1.00  0.00     0.253 C 
ENDROOT
BRANCH   1   4
HETATM    4  O3  UNL     1       5.404   5.614  25.573  1.00  0.00    -0.242 OA
BRANCH   4   5
HETATM    5  C4  UNL     1       4.933   4.521  24.845  1.00  0.00     0.322 C 
HETATM    6  O2  UNL     1       4.864   4.737  23.489  1.00  0.00    -0.328 OA
HETATM    7  C3  UNL     1       4.989   3.549  22.831  1.00  0.00     0.272 C 
HETATM    8  C13 UNL     1       5.346   2.476  23.810  1.00  0.00     0.201 C 
HETATM    9  C12 UNL     1       5.834   3.289  25.000  1.00  0.00     0.208 C 
BRANCH   7  10
HETATM   10  N3  UNL     1       3.825   3.248  22.049  1.00  0.00    -0.220 N 
HETATM   11  C2  UNL     1       2.576   3.382  22.535  1.00  0.00     0.347 A 
HETATM   12  N2  UNL     1       1.533   3.082  21.740  1.00  0.00    -0.141 N 
HETATM   13  O1  UNL     1       2.376   3.783  23.715  1.00  0.00    -0.246 OA
HETATM   14  C1  UNL     1       1.670   2.650  20.471  1.00  0.00     0.683 A 
ATOM     15  H2  UNL     1       0.591   3.187  22.117  1.00  0.00     0.189 HD
HETATM   16  N12 UNL     1       2.922   2.519  19.994  1.00  0.00    -0.141 N 
HETATM   17  C14 UNL     1       3.989   2.819  20.785  1.00  0.00     0.347 A 
ATOM     18  H12 UNL     1       3.071   2.195  19.039  1.00  0.00     0.189 HD
HETATM   19  O9  UNL     1       5.134   2.675  20.274  1.00  0.00    -0.246 OA
BRANCH  14  20
HETATM   20  N1  UNL     1       0.652   2.363  19.716  1.00  0.00    -0.234 N 
ATOM     21  H12 UNL     1       0.527   1.413  19.365  1.00  0.00     0.174 HD
ATOM     22  H11 UNL     1      -0.046   3.056  19.449  1.00  0.00     0.174 HD
ENDBRANCH  14  20
ENDBRANCH   7  10
BRANCH   8  23
HETATM   23  O8  UNL     1       4.201   1.787  24.270  1.00  0.00    -0.388 OA
ATOM     24  H8  UNL     1       4.401   1.231  25.014  1.00  0.00     0.210 HD
ENDBRANCH   8  23
BRANCH   9  25
HETATM   25  O7  UNL     1       7.152   3.636  24.738  1.00  0.00    -0.388 OA
ATOM     26  H7  UNL     1       7.176   4.404  24.180  1.00  0.00     0.210 HD
ENDBRANCH   9  25
ENDBRANCH   4   5
ENDBRANCH   1   4
BRANCH   3  27
HETATM   27  O4  UNL     1       7.889   6.237  24.802  1.00  0.00    -0.331 OA
ATOM     28  H4  UNL     1       7.985   5.928  25.695  1.00  0.00     0.221 HD
ENDBRANCH   3  27
BRANCH   3  29
HETATM   29  N5  UNL     1       7.107   8.342  23.865  1.00  0.00    -0.225 N 
HETATM   30  C6  UNL     1       6.658   8.676  22.616  1.00  0.00     0.080 A 
HETATM   31  C10 UNL     1       7.139   9.944  22.372  1.00  0.00     0.124 A 
HETATM   32  N11 UNL     1       7.862  10.368  23.448  1.00  0.00    -0.316 N 
HETATM   33  C11 UNL     1       7.820   9.382  24.320  1.00  0.00     0.334 A 
ATOM     34  H11 UNL     1       8.337  11.264  23.555  1.00  0.00     0.170 HD
HETATM   35  O6  UNL     1       8.382   9.411  25.449  1.00  0.00    -0.246 OA
BRANCH  30  36
HETATM   36  C7  UNL     1       5.844   7.786  21.805  1.00  0.00     0.139 C 
BRANCH  36  37
HETATM   37  N6  UNL     1       6.252   7.022  20.873  1.00  0.00    -0.295 N 
ATOM     38  H6  UNL     1       5.575   6.720  20.172  1.00  0.00     0.186 HD
BRANCH  37  39
HETATM   39  N7  UNL     1       7.537   6.583  20.752  1.00  0.00    -0.131 N 
ATOM     40  H7  UNL     1       8.263   7.241  20.470  1.00  0.00     0.205 HD
BRANCH  39  41
HETATM   41  C8  UNL     1       7.851   5.371  20.983  1.00  0.00     0.715 A 
HETATM   42  N8  UNL     1       7.692   4.355  20.122  1.00  0.00    -0.127 N 
HETATM   43  N9  UNL     1       8.129   3.256  20.711  1.00  0.00    -0.237 N 
ATOM     44  H8  UNL     1       7.303   4.419  19.181  1.00  0.00     0.206 HD
HETATM   45  C9  UNL     1       8.579   3.535  21.958  1.00  0.00     0.353 A 
ATOM     46  H9  UNL     1       8.129   2.328  20.287  1.00  0.00     0.192 HD
HETATM   47  O5  UNL     1       9.061   2.726  22.791  1.00  0.00    -0.245 OA
HETATM   48  N10 UNL     1       8.391   4.861  22.095  1.00  0.00    -0.137 N 
ATOM     49  H10 UNL     1       8.627   5.400  22.927  1.00  0.00     0.189 HD
ENDBRANCH  39  41
ENDBRANCH  37  39
ENDBRANCH  36  37
ENDBRANCH  30  36
ENDBRANCH   3  29
TORSDOF 12
ENDMDL
MODEL 3
REMARK VINA RESULT: -7.806487760      2.245      7.097
REMARK  12 active torsions:
REMARK  status: ('A' for Active; 'I' for Inactive)
REMARK    1  A    between atoms: N1_1  and  C1_4 
REMARK    2  A    between atoms: N3_9  and  C3_10 
REMARK    3  A    between atoms: C4_12  and  O3_13 
REMARK    4  A    between atoms: O3_13  and  N4_14 
REMARK    5  A    between atoms: C5_16  and  O4_17 
REMARK    6  A    between atoms: C5_16  and  N5_19 
REMARK    7  A    between atoms: C6_20  and  C7_21 
REMARK    8  A    between atoms: C7_21  and  N6_22 
REMARK    9  A    between atoms: N6_22  and  N7_24 
REMARK   10  A    between atoms: N7_24  and  C8_26 
REMARK   11  A    between atoms: C12_40  and  O7_41 
REMARK   12  A    between atoms: C13_43  and  O8_44 
ROOT
HETATM    1  N4  UNL     1       5.525   6.821  24.845  1.00  0.00    -0.227 N 
ATOM      2  H4  UNL     1       4.760   7.460  24.627  1.00  0.00     0.198 HD
HETATM    3  C5  UNL     1       6.721   7.144  24.485  1.00  0.00     0.253 C 
ENDROOT
BRANCH   1   4
HETATM    4  O3  UNL     1       5.237   5.657  25.508  1.00  0.00    -0.242 OA
BRANCH   4   5
HETATM    5  C4  UNL     1       4.790   4.552  24.783  1.00  0.00     0.322 C 
HETATM    6  O2  UNL     1       4.819   4.725  23.420  1.00  0.00    -0.328 OA
HETATM    7  C3  UNL     1       4.960   3.513  22.809  1.00  0.00     0.272 C 
HETATM    8  C13 UNL     1       5.224   2.466  23.843  1.00  0.00     0.201 C 
HETATM    9  C12 UNL     1       5.649   3.306  25.038  1.00  0.00     0.208 C 
BRANCH   7  10
HETATM   10  N3  UNL     1       3.845   3.213  21.959  1.00  0.00    -0.220 N 
HETATM   11  C2  UNL     1       4.002   2.736  20.709  1.00  0.00     0.347 A 
HETATM   12  N2  UNL     1       2.908   2.476  19.970  1.00  0.00    -0.141 N 
HETATM   13  O1  UNL     1       5.151   2.530  20.229  1.00  0.00    -0.246 OA
HETATM   14  C1  UNL     1       1.651   2.670  20.415  1.00  0.00     0.683 A 
ATOM     15  H2  UNL     1       3.036   2.114  19.025  1.00  0.00     0.189 HD
HETATM   16  N12 UNL     1       1.504   3.147  21.665  1.00  0.00    -0.141 N 
HETATM   17  C14 UNL     1       2.601   3.415  22.427  1.00  0.00     0.347 A 
ATOM     18  H12 UNL     1       0.571   3.309  22.042  1.00  0.00     0.189 HD
HETATM   19  O9  UNL     1       2.391   3.860  23.590  1.00  0.00    -0.246 OA
BRANCH  14  20
HETATM   20  N1  UNL     1       0.604   2.415  19.689  1.00  0.00    -0.234 N 
ATOM     21  H12 UNL     1      -0.283   2.179  20.135  1.00  0.00     0.174 HD
ATOM     22  H11 UNL     1       0.623   2.439  18.670  1.00  0.00     0.174 HD
ENDBRANCH  14  20
ENDBRANCH   7  10
BRANCH   8  23
HETATM   23  O8  UNL     1       4.035   1.817  24.244  1.00  0.00    -0.388 OA
ATOM     24  H8  UNL     1       3.324   2.434  24.371  1.00  0.00     0.210 HD
ENDBRANCH   8  23
BRANCH   9  25
HETATM   25  O7  UNL     1       6.990   3.616  24.856  1.00  0.00    -0.388 OA
ATOM     26  H7  UNL     1       7.527   2.870  25.094  1.00  0.00     0.210 HD
ENDBRANCH   9  25
ENDBRANCH   4   5
ENDBRANCH   1   4
BRANCH   3  27
HETATM   27  O4  UNL     1       7.742   6.262  24.790  1.00  0.00    -0.331 OA
ATOM     28  H4  UNL     1       7.611   5.345  24.578  1.00  0.00     0.221 HD
ENDBRANCH   3  27
BRANCH   3  29
HETATM   29  N5  UNL     1       6.991   8.354  23.801  1.00  0.00    -0.225 N 
HETATM   30  C6  UNL     1       6.458   8.732  22.599  1.00  0.00     0.080 A 
HETATM   31  C10 UNL     1       6.998   9.968  22.321  1.00  0.00     0.124 A 
HETATM   32  N11 UNL     1       7.839  10.331  23.332  1.00  0.00    -0.316 N 
HETATM   33  C11 UNL     1       7.808   9.340  24.199  1.00  0.00     0.334 A 
ATOM     34  H11 UNL     1       8.380  11.193  23.403  1.00  0.00     0.170 HD
HETATM   35  O6  UNL     1       8.468   9.319  25.274  1.00  0.00    -0.246 OA
BRANCH  30  36
HETATM   36  C7  UNL     1       5.520   7.907  21.857  1.00  0.00     0.139 C 
BRANCH  36  37
HETATM   37  N6  UNL     1       5.791   6.852  21.199  1.00  0.00    -0.295 N 
ATOM     38  H6  UNL     1       5.024   6.218  20.973  1.00  0.00     0.186 HD
BRANCH  37  39
HETATM   39  N7  UNL     1       7.043   6.517  20.776  1.00  0.00    -0.131 N 
ATOM     40  H7  UNL     1       7.600   7.207  20.273  1.00  0.00     0.205 HD
BRANCH  39  41
HETATM   41  C8  UNL     1       7.532   5.361  20.993  1.00  0.00     0.715 A 
HETATM   42  N8  UNL     1       7.659   4.391  20.076  1.00  0.00    -0.127 N 
HETATM   43  N9  UNL     1       8.206   3.345  20.670  1.00  0.00    -0.237 N 
ATOM     44  H8  UNL     1       7.384   4.451  19.095  1.00  0.00     0.206 HD
HETATM   45  C9  UNL     1       8.443   3.613  21.977  1.00  0.00     0.353 A 
ATOM     46  H9  UNL     1       8.418   2.460  20.210  1.00  0.00     0.192 HD
HETATM   47  O5  UNL     1       8.952   2.843  22.830  1.00  0.00    -0.245 OA
HETATM   48  N10 UNL     1       8.012   4.877  22.144  1.00  0.00    -0.137 N 
ATOM     49  H10 UNL     1       8.046   5.393  23.023  1.00  0.00     0.189 HD
ENDBRANCH  39  41
ENDBRANCH  37  39
ENDBRANCH  36  37
ENDBRANCH  30  36
ENDBRANCH   3  29
TORSDOF 12
ENDMDL
MODEL 4
REMARK VINA RESULT: -7.798400512      2.991      6.236
REMARK  12 active torsions:
REMARK  status: ('A' for Active; 'I' for Inactive)
REMARK    1  A    between atoms: N1_1  and  C1_4 
REMARK    2  A    between atoms: N3_9  and  C3_10 
REMARK    3  A    between atoms: C4_12  and  O3_13 
REMARK    4  A    between atoms: O3_13  and  N4_14 
REMARK    5  A    between atoms: C5_16  and  O4_17 
REMARK    6  A    between atoms: C5_16  and  N5_19 
REMARK    7  A    between atoms: C6_20  and  C7_21 
REMARK    8  A    between atoms: C7_21  and  N6_22 
REMARK    9  A    between atoms: N6_22  and  N7_24 
REMARK   10  A    between atoms: N7_24  and  C8_26 
REMARK   11  A    between atoms: C12_40  and  O7_41 
REMARK   12  A    between atoms: C13_43  and  O8_44 
ROOT
HETATM    1  N4  UNL     1       9.407   7.767  25.689  1.00  0.00    -0.227 N 
ATOM      2  H4  UNL     1      10.262   8.022  25.194  1.00  0.00     0.198 HD
HETATM    3  C5  UNL     1       9.314   6.582  26.191  1.00  0.00     0.253 C 
ENDROOT
BRANCH   1   4
HETATM    4  O3  UNL     1       8.407   8.697  25.791  1.00  0.00    -0.242 OA
BRANCH   4   5
HETATM    5  C4  UNL     1       7.584   8.939  24.691  1.00  0.00     0.322 C 
HETATM    6  O2  UNL     1       6.263   8.623  24.899  1.00  0.00    -0.328 OA
HETATM    7  C3  UNL     1       5.477   9.395  24.093  1.00  0.00     0.272 C 
HETATM    8  C13 UNL     1       6.322  10.432  23.424  1.00  0.00     0.201 C 
HETATM    9  C12 UNL     1       7.574  10.420  24.289  1.00  0.00     0.208 C 
BRANCH   7  10
HETATM   10  N3  UNL     1       4.709   8.602  23.179  1.00  0.00    -0.220 N 
HETATM   11  C2  UNL     1       5.222   7.523  22.556  1.00  0.00     0.347 A 
HETATM   12  N2  UNL     1       4.439   6.826  21.711  1.00  0.00    -0.141 N 
HETATM   13  O1  UNL     1       6.414   7.161  22.754  1.00  0.00    -0.246 OA
HETATM   14  C1  UNL     1       3.158   7.152  21.451  1.00  0.00     0.683 A 
ATOM     15  H2  UNL     1       4.836   6.011  21.245  1.00  0.00     0.189 HD
HETATM   16  N12 UNL     1       2.655   8.233  22.078  1.00  0.00    -0.141 N 
HETATM   17  C14 UNL     1       3.433   8.948  22.936  1.00  0.00     0.347 A 
ATOM     18  H12 UNL     1       1.690   8.515  21.909  1.00  0.00     0.189 HD
HETATM   19  O9  UNL     1       2.898   9.948  23.490  1.00  0.00    -0.246 OA
BRANCH  14  20
HETATM   20  N1  UNL     1       2.415   6.470  20.632  1.00  0.00    -0.234 N 
ATOM     21  H12 UNL     1       1.886   5.666  20.970  1.00  0.00     0.174 HD
ATOM     22  H11 UNL     1       2.331   6.703  19.643  1.00  0.00     0.174 HD
ENDBRANCH  14  20
ENDBRANCH   7  10
BRANCH   8  23
HETATM   23  O8  UNL     1       6.747  10.011  22.143  1.00  0.00    -0.388 OA
ATOM     24  H8  UNL     1       7.626  10.314  21.948  1.00  0.00     0.210 HD
ENDBRANCH   8  23
BRANCH   9  25
HETATM   25  O7  UNL     1       7.304  11.206  25.401  1.00  0.00    -0.388 OA
ATOM     26  H7  UNL     1       7.639  12.083  25.262  1.00  0.00     0.210 HD
ENDBRANCH   9  25
ENDBRANCH   4   5
ENDBRANCH   1   4
BRANCH   3  27
HETATM   27  O4  UNL     1       8.146   6.257  26.856  1.00  0.00    -0.331 OA
ATOM     28  H4  UNL     1       8.157   5.491  27.418  1.00  0.00     0.221 HD
ENDBRANCH   3  27
BRANCH   3  29
HETATM   29  N5  UNL     1      10.364   5.639  26.070  1.00  0.00    -0.225 N 
HETATM   30  C6  UNL     1      10.421   4.614  25.165  1.00  0.00     0.080 A 
HETATM   31  C10 UNL     1      11.609   3.961  25.413  1.00  0.00     0.124 A 
HETATM   32  N11 UNL     1      12.255   4.576  26.445  1.00  0.00    -0.316 N 
HETATM   33  C11 UNL     1      11.480   5.574  26.811  1.00  0.00     0.334 A 
ATOM     34  H11 UNL     1      13.154   4.315  26.849  1.00  0.00     0.170 HD
HETATM   35  O6  UNL     1      11.751   6.376  27.747  1.00  0.00    -0.246 OA
BRANCH  30  36
HETATM   36  C7  UNL     1       9.376   4.366  24.186  1.00  0.00     0.139 C 
BRANCH  36  37
HETATM   37  N6  UNL     1       8.896   5.204  23.358  1.00  0.00    -0.295 N 
ATOM     38  H6  UNL     1       8.473   6.055  23.729  1.00  0.00     0.186 HD
BRANCH  37  39
HETATM   39  N7  UNL     1       8.913   5.036  22.005  1.00  0.00    -0.131 N 
ATOM     40  H7  UNL     1       9.626   5.512  21.454  1.00  0.00     0.205 HD
BRANCH  39  41
HETATM   41  C8  UNL     1       8.057   4.300  21.415  1.00  0.00     0.715 A 
HETATM   42  N8  UNL     1       7.026   4.749  20.684  1.00  0.00    -0.127 N 
HETATM   43  N9  UNL     1       6.364   3.698  20.234  1.00  0.00    -0.237 N 
ATOM     44  H8  UNL     1       6.794   5.727  20.508  1.00  0.00     0.206 HD
HETATM   45  C9  UNL     1       6.949   2.553  20.660  1.00  0.00     0.353 A 
ATOM     46  H9  UNL     1       5.530   3.742  19.648  1.00  0.00     0.192 HD
HETATM   47  O5  UNL     1       6.581   1.375  20.418  1.00  0.00    -0.245 OA
HETATM   48  N10 UNL     1       8.000   2.964  21.393  1.00  0.00    -0.137 N 
ATOM     49  H10 UNL     1       8.660   2.346  21.864  1.00  0.00     0.189 HD
ENDBRANCH  39  41
ENDBRANCH  37  39
ENDBRANCH  36  37
ENDBRANCH  30  36
ENDBRANCH   3  29
TORSDOF 12
ENDMDL
MODEL 5
REMARK VINA RESULT: -7.781400143      3.144      7.485
REMARK  12 active torsions:
REMARK  status: ('A' for Active; 'I' for Inactive)
REMARK    1  A    between atoms: N1_1  and  C1_4 
REMARK    2  A    between atoms: N3_9  and  C3_10 
REMARK    3  A    between atoms: C4_12  and  O3_13 
REMARK    4  A    between atoms: O3_13  and  N4_14 
REMARK    5  A    between atoms: C5_16  and  O4_17 
REMARK    6  A    between atoms: C5_16  and  N5_19 
REMARK    7  A    between atoms: C6_20  and  C7_21 
REMARK    8  A    between atoms: C7_21  and  N6_22 
REMARK    9  A    between atoms: N6_22  and  N7_24 
REMARK   10  A    between atoms: N7_24  and  C8_26 
REMARK   11  A    between atoms: C12_40  and  O7_41 
REMARK   12  A    between atoms: C13_43  and  O8_44 
ROOT
HETATM    1  N4  UNL     1       9.385   8.533  25.302  1.00  0.00    -0.227 N 
ATOM      2  H4  UNL     1       9.845   9.196  24.679  1.00  0.00     0.198 HD
HETATM    3  C5  UNL     1       8.099   8.445  25.272  1.00  0.00     0.253 C 
ENDROOT
BRANCH   1   4
HETATM    4  O3  UNL     1      10.161   7.773  26.137  1.00  0.00    -0.242 OA
BRANCH   4   5
HETATM    5  C4  UNL     1       9.911   6.405  26.245  1.00  0.00     0.322 C 
HETATM    6  O2  UNL     1       9.987   5.724  25.053  1.00  0.00    -0.328 OA
HETATM    7  C3  UNL     1      10.327   4.424  25.292  1.00  0.00     0.272 C 
HETATM    8  C13 UNL     1      10.679   4.261  26.736  1.00  0.00     0.201 C 
HETATM    9  C12 UNL     1      10.920   5.702  27.163  1.00  0.00     0.208 C 
BRANCH   7  10
HETATM   10  N3  UNL     1       9.311   3.518  24.842  1.00  0.00    -0.220 N 
HETATM   11  C2  UNL     1       7.998   3.805  24.931  1.00  0.00     0.347 A 
HETATM   12  N2  UNL     1       7.104   2.904  24.486  1.00  0.00    -0.141 N 
HETATM   13  O1  UNL     1       7.603   4.898  25.421  1.00  0.00    -0.246 OA
HETATM   14  C1  UNL     1       7.452   1.717  23.952  1.00  0.00     0.683 A 
ATOM     15  H2  UNL     1       6.112   3.131  24.558  1.00  0.00     0.189 HD
HETATM   16  N12 UNL     1       8.766   1.439  23.867  1.00  0.00    -0.141 N 
HETATM   17  C14 UNL     1       9.685   2.340  24.311  1.00  0.00     0.347 A 
ATOM     18  H12 UNL     1       9.074   0.552  23.468  1.00  0.00     0.189 HD
HETATM   19  O9  UNL     1      10.900   2.015  24.201  1.00  0.00    -0.246 OA
BRANCH  14  20
HETATM   20  N1  UNL     1       6.575   0.857  23.527  1.00  0.00    -0.234 N 
ATOM     21  H12 UNL     1       6.339   0.814  22.536  1.00  0.00     0.174 HD
ATOM     22  H11 UNL     1       6.100   0.204  24.150  1.00  0.00     0.174 HD
ENDBRANCH  14  20
ENDBRANCH   7  10
BRANCH   8  23
HETATM   23  O8  UNL     1       9.571   3.824  27.496  1.00  0.00    -0.388 OA
ATOM     24  H8  UNL     1       9.773   3.793  28.424  1.00  0.00     0.210 HD
ENDBRANCH   8  23
BRANCH   9  25
HETATM   25  O7  UNL     1      12.212   6.027  26.775  1.00  0.00    -0.388 OA
ATOM     26  H7  UNL     1      12.824   5.774  27.456  1.00  0.00     0.210 HD
ENDBRANCH   9  25
ENDBRANCH   4   5
ENDBRANCH   1   4
BRANCH   3  27
HETATM   27  O4  UNL     1       7.496   7.540  26.127  1.00  0.00    -0.331 OA
ATOM     28  H4  UNL     1       6.547   7.513  26.142  1.00  0.00     0.221 HD
ENDBRANCH   3  27
BRANCH   3  29
HETATM   29  N5  UNL     1       7.320   9.244  24.399  1.00  0.00    -0.225 N 
HETATM   30  C6  UNL     1       6.616   8.794  23.315  1.00  0.00     0.080 A 
HETATM   31  C10 UNL     1       6.017   9.908  22.768  1.00  0.00     0.124 A 
HETATM   32  N11 UNL     1       6.351  11.007  23.504  1.00  0.00    -0.316 N 
HETATM   33  C11 UNL     1       7.131  10.569  24.470  1.00  0.00     0.334 A 
ATOM     34  H11 UNL     1       6.057  11.970  23.340  1.00  0.00     0.170 HD
HETATM   35  O6  UNL     1       7.641  11.307  25.358  1.00  0.00    -0.246 OA
BRANCH  30  36
HETATM   36  C7  UNL     1       6.583   7.396  22.919  1.00  0.00     0.139 C 
BRANCH  36  37
HETATM   37  N6  UNL     1       6.197   6.933  21.799  1.00  0.00    -0.295 N 
ATOM     38  H6  UNL     1       5.197   6.944  21.596  1.00  0.00     0.186 HD
BRANCH  37  39
HETATM   39  N7  UNL     1       7.035   6.424  20.852  1.00  0.00    -0.131 N 
ATOM     40  H7  UNL     1       7.405   7.043  20.131  1.00  0.00     0.205 HD
BRANCH  39  41
HETATM   41  C8  UNL     1       7.365   5.194  20.847  1.00  0.00     0.715 A 
HETATM   42  N8  UNL     1       8.601   4.726  21.078  1.00  0.00    -0.127 N 
HETATM   43  N9  UNL     1       8.555   3.408  20.989  1.00  0.00    -0.237 N 
ATOM     44  H8  UNL     1       9.427   5.286  21.287  1.00  0.00     0.206 HD
HETATM   45  C9  UNL     1       7.297   2.998  20.699  1.00  0.00     0.353 A 
ATOM     46  H9  UNL     1       9.354   2.788  21.118  1.00  0.00     0.192 HD
HETATM   47  O5  UNL     1       6.901   1.815  20.543  1.00  0.00    -0.245 OA
HETATM   48  N10 UNL     1       6.582   4.135  20.617  1.00  0.00    -0.137 N 
ATOM     49  H10 UNL     1       5.584   4.183  20.411  1.00  0.00     0.189 HD
ENDBRANCH  39  41
ENDBRANCH  37  39
ENDBRANCH  36  37
ENDBRANCH  30  36
ENDBRANCH   3  29
TORSDOF 12
ENDMDL
