MODEL 1
REMARK VINA RESULT: -7.383622501      0.000      0.000
REMARK  13 active torsions:
REMARK  status: ('A' for Active; 'I' for Inactive)
REMARK    1  A    between atoms: N1_1  and  N2_4 
REMARK    2  A    between atoms: N6_17  and  C6_18 
REMARK    3  A    between atoms: C8_24  and  C9_25 
REMARK    4  A    between atoms: C9_25  and  N9_26 
REMARK    5  A    between atoms: C9_25  and  N10_30 
REMARK    6  A    between atoms: C11_35  and  C12_36 
REMARK    7  A    between atoms: C14_40  and  O3_41 
REMARK    8  A    between atoms: O3_41  and  C15_42 
REMARK       I    between atoms: C15_42  and  N11_44 
REMARK    9  A    between atoms: N11_44  and  N12_46 
REMARK   10  A    between atoms: C16_49  and  C17_50 
REMARK   11  A    between atoms: C17_50  and  O5_51 
REMARK   12  A    between atoms: C17_50  and  C18_53 
REMARK   13  A    between atoms: C18_53  and  O6_54 
ROOT
HETATM    1  C6  UNL     1       4.851   5.237  22.883  1.00  0.00     0.059 C 
HETATM    2  C7  UNL     1       3.642   5.542  22.434  1.00  0.00     0.085 A 
HETATM    3  N7  UNL     1       2.963   6.661  22.697  1.00  0.00    -0.298 N 
ATOM      4  H7  UNL     1       3.265   7.412  23.318  1.00  0.00     0.187 HD
HETATM    5  N8  UNL     1       1.860   6.629  22.030  1.00  0.00    -0.300 N 
ATOM      6  H8  UNL     1       1.156   7.367  22.050  1.00  0.00     0.186 HD
HETATM    7  C8  UNL     1       1.750   5.464  21.282  1.00  0.00     0.096 A 
HETATM    8  C10 UNL     1       2.900   4.780  21.553  1.00  0.00     0.040 A 
HETATM    9  C11 UNL     1       3.325   3.544  21.285  1.00  0.00     0.064 C 
HETATM   10  C13 UNL     1       4.460   3.032  22.121  1.00  0.00    -0.005 C 
HETATM   11  C14 UNL     1       4.462   1.811  22.595  1.00  0.00     0.156 C 
HETATM   12  C16 UNL     1       5.548   3.995  22.449  1.00  0.00     0.105 C 
ENDROOT
BRANCH   1  13
HETATM   13  N6  UNL     1       5.540   6.134  23.734  1.00  0.00    -0.292 N 
HETATM   14  C3  UNL     1       6.040   7.344  23.404  1.00  0.00     0.145 A 
HETATM   15  N4  UNL     1       6.036   8.016  22.244  1.00  0.00    -0.336 N 
HETATM   16  C4  UNL     1       6.637   7.913  24.492  1.00  0.00     0.124 A 
HETATM   17  C2  UNL     1       6.613   9.234  22.167  1.00  0.00     0.183 A 
ATOM     18  H4  UNL     1       5.595   7.608  21.419  1.00  0.00     0.168 HD
HETATM   19  N3  UNL     1       7.208   9.806  23.242  1.00  0.00    -0.336 N 
HETATM   20  C1  UNL     1       7.228   9.158  24.414  1.00  0.00     0.151 A 
ATOM     21  H3  UNL     1       7.638  10.727  23.160  1.00  0.00     0.168 HD
HETATM   22  N2  UNL     1       7.773   9.657  25.450  1.00  0.00    -0.290 N 
ATOM     23  H2  UNL     1       7.760   9.118  26.317  1.00  0.00     0.188 HD
HETATM   24  N5  UNL     1       6.497   7.037  25.497  1.00  0.00    -0.346 N 
HETATM   25  C5  UNL     1       5.831   5.963  25.025  1.00  0.00     0.191 A 
ATOM     26  H5  UNL     1       6.835   7.161  26.451  1.00  0.00     0.167 HD
BRANCH  22  27
HETATM   27  N1  UNL     1       8.384  10.899  25.450  1.00  0.00    -0.344 N 
ATOM     28  H12 UNL     1       9.401  10.925  25.508  1.00  0.00     0.176 HD
ATOM     29  H11 UNL     1       7.859  11.771  25.396  1.00  0.00     0.176 HD
ENDBRANCH  22  27
ENDBRANCH   1  13
BRANCH  12  30
HETATM   30  C17 UNL     1       6.463   4.226  21.283  1.00  0.00     0.156 C 
BRANCH  30  31
HETATM   31  O5  UNL     1       6.408   5.507  20.789  1.00  0.00    -0.392 OA
ATOM     32  H5  UNL     1       7.233   5.809  20.427  1.00  0.00     0.210 HD
ENDBRANCH  30  31
BRANCH  30  33
HETATM   33  C18 UNL     1       7.909   3.949  21.667  1.00  0.00     0.196 C 
BRANCH  33  34
HETATM   34  O6  UNL     1       8.509   3.047  20.811  1.00  0.00    -0.398 OA
ATOM     35  H6  UNL     1       8.988   3.481  20.115  1.00  0.00     0.209 HD
ENDBRANCH  33  34
ENDBRANCH  30  33
ENDBRANCH  12  30
BRANCH   7  36
HETATM   36  C9  UNL     1       0.544   5.168  20.522  1.00  0.00     0.429 C 
BRANCH  36  37
HETATM   37  N9  UNL     1      -0.263   4.289  21.481  1.00  0.00    -0.045 N 
ATOM     38  H93 UNL     1      -1.035   4.766  21.948  1.00  0.00     0.277 HD
ATOM     39  H92 UNL     1      -0.839   3.580  21.026  1.00  0.00     0.277 HD
ATOM     40  H91 UNL     1       0.451   3.918  22.109  1.00  0.00     0.277 HD
ENDBRANCH  36  37
BRANCH  36  41
HETATM   41  N10 UNL     1      -0.277   6.337  20.432  1.00  0.00    -0.045 N 
ATOM     42 3H10 UNL     1      -0.077   7.004  21.177  1.00  0.00     0.277 HD
ATOM     43 2H10 UNL     1      -0.023   6.923  19.636  1.00  0.00     0.277 HD
ATOM     44 1H10 UNL     1      -1.262   6.072  20.411  1.00  0.00     0.277 HD
ENDBRANCH  36  41
ENDBRANCH   7  36
BRANCH   9  45
HETATM   45  C12 UNL     1       2.713   2.664  20.394  1.00  0.00     0.211 C 
HETATM   46  O1  UNL     1       3.301   2.493  19.235  1.00  0.00    -0.644 OA
HETATM   47  O2  UNL     1       1.598   1.913  20.430  1.00  0.00    -0.644 OA
ENDBRANCH   9  45
BRANCH  11  48
HETATM   48  O3  UNL     1       5.552   1.363  23.376  1.00  0.00    -0.272 OA
BRANCH  48  49
HETATM   49  C15 UNL     1       6.470   0.439  22.938  1.00  0.00     0.383 C 
HETATM   50  O4  UNL     1       6.754   0.490  21.700  1.00  0.00    -0.236 OA
HETATM   51  N11 UNL     1       7.087  -0.523  23.761  1.00  0.00    -0.252 N 
ATOM     52  H11 UNL     1       6.862  -0.567  24.754  1.00  0.00     0.191 HD
BRANCH  51  53
HETATM   53  N12 UNL     1       8.002  -1.412  23.212  1.00  0.00    -0.341 N 
ATOM     54 2H12 UNL     1       8.979  -1.131  23.128  1.00  0.00     0.177 HD
ATOM     55 1H12 UNL     1       7.690  -2.332  22.901  1.00  0.00     0.177 HD
ENDBRANCH  51  53
ENDBRANCH  48  49
ENDBRANCH  11  48
TORSDOF 13
ENDMDL
MODEL 2
REMARK VINA RESULT: -7.286593893      3.197      6.687
REMARK  13 active torsions:
REMARK  status: ('A' for Active; 'I' for Inactive)
REMARK    1  A    between atoms: N1_1  and  N2_4 
REMARK    2  A    between atoms: N6_17  and  C6_18 
REMARK    3  A    between atoms: C8_24  and  C9_25 
REMARK    4  A    between atoms: C9_25  and  N9_26 
REMARK    5  A    between atoms: C9_25  and  N10_30 
REMARK    6  A    between atoms: C11_35  and  C12_36 
REMARK    7  A    between atoms: C14_40  and  O3_41 
REMARK    8  A    between atoms: O3_41  and  C15_42 
REMARK       I    between atoms: C15_42  and  N11_44 
REMARK    9  A    between atoms: N11_44  and  N12_46 
REMARK   10  A    between atoms: C16_49  and  C17_50 
REMARK   11  A    between atoms: C17_50  and  O5_51 
REMARK   12  A    between atoms: C17_50  and  C18_53 
REMARK   13  A    between atoms: C18_53  and  O6_54 
ROOT
HETATM    1  C6  UNL     1       4.697   6.531  22.386  1.00  0.00     0.059 C 
HETATM    2  C7  UNL     1       3.496   6.795  21.892  1.00  0.00     0.085 A 
HETATM    3  N7  UNL     1       2.803   6.024  21.051  1.00  0.00    -0.298 N 
ATOM      4  H7  UNL     1       3.125   5.148  20.639  1.00  0.00     0.187 HD
HETATM    5  N8  UNL     1       1.656   6.576  20.850  1.00  0.00    -0.300 N 
ATOM      6  H8  UNL     1       0.930   6.188  20.247  1.00  0.00     0.186 HD
HETATM    7  C8  UNL     1       1.531   7.765  21.558  1.00  0.00     0.096 A 
HETATM    8  C10 UNL     1       2.719   7.890  22.218  1.00  0.00     0.040 A 
HETATM    9  C11 UNL     1       3.286   8.870  22.922  1.00  0.00     0.064 C 
HETATM   10  C13 UNL     1       4.770   8.779  23.119  1.00  0.00    -0.005 C 
HETATM   11  C14 UNL     1       5.541   9.831  22.997  1.00  0.00     0.156 C 
HETATM   12  C16 UNL     1       5.336   7.427  23.389  1.00  0.00     0.105 C 
ENDROOT
BRANCH   1  13
HETATM   13  N6  UNL     1       5.369   5.340  22.023  1.00  0.00    -0.292 N 
HETATM   14  C3  UNL     1       5.057   4.083  22.405  1.00  0.00     0.145 A 
HETATM   15  N4  UNL     1       4.079   3.616  23.195  1.00  0.00    -0.336 N 
HETATM   16  C4  UNL     1       5.935   3.197  21.850  1.00  0.00     0.124 A 
HETATM   17  C2  UNL     1       3.977   2.290  23.429  1.00  0.00     0.183 A 
ATOM     18  H4  UNL     1       3.413   4.262  23.618  1.00  0.00     0.168 HD
HETATM   19  N3  UNL     1       4.844   1.404  22.882  1.00  0.00    -0.336 N 
HETATM   20  C1  UNL     1       5.830   1.842  22.089  1.00  0.00     0.151 A 
ATOM     21  H3  UNL     1       4.746   0.407  23.074  1.00  0.00     0.168 HD
HETATM   22  N2  UNL     1       6.667   1.046  21.554  1.00  0.00    -0.290 N 
ATOM     23  H2  UNL     1       7.400   1.434  20.959  1.00  0.00     0.188 HD
HETATM   24  N5  UNL     1       6.792   3.926  21.121  1.00  0.00    -0.346 N 
HETATM   25  C5  UNL     1       6.439   5.222  21.234  1.00  0.00     0.191 A 
ATOM     26  H5  UNL     1       7.574   3.563  20.576  1.00  0.00     0.167 HD
BRANCH  22  27
HETATM   27  N1  UNL     1       6.626  -0.324  21.745  1.00  0.00    -0.344 N 
ATOM     28  H12 UNL     1       5.804  -0.711  22.209  1.00  0.00     0.176 HD
ATOM     29  H11 UNL     1       7.375  -0.946  21.444  1.00  0.00     0.176 HD
ENDBRANCH  22  27
ENDBRANCH   1  13
BRANCH  12  30
HETATM   30  C17 UNL     1       5.084   6.985  24.799  1.00  0.00     0.156 C 
BRANCH  30  31
HETATM   31  O5  UNL     1       3.991   6.161  24.928  1.00  0.00    -0.392 OA
ATOM     32  H5  UNL     1       3.600   6.183  25.794  1.00  0.00     0.210 HD
ENDBRANCH  30  31
BRANCH  30  33
HETATM   33  C18 UNL     1       6.286   6.235  25.353  1.00  0.00     0.196 C 
BRANCH  33  34
HETATM   34  O6  UNL     1       7.093   7.046  26.125  1.00  0.00    -0.398 OA
ATOM     35  H6  UNL     1       7.897   7.280  25.677  1.00  0.00     0.209 HD
ENDBRANCH  33  34
ENDBRANCH  30  33
ENDBRANCH  12  30
BRANCH   7  36
HETATM   36  C9  UNL     1       0.354   8.609  21.409  1.00  0.00     0.429 C 
BRANCH  36  37
HETATM   37  N9  UNL     1      -0.357   8.002  20.197  1.00  0.00    -0.045 N 
ATOM     38  H93 UNL     1      -0.029   7.073  19.933  1.00  0.00     0.277 HD
ATOM     39  H92 UNL     1      -1.325   7.726  20.366  1.00  0.00     0.277 HD
ATOM     40  H91 UNL     1      -0.237   8.716  19.478  1.00  0.00     0.277 HD
ENDBRANCH  36  37
BRANCH  36  41
HETATM   41  N10 UNL     1      -0.578   8.341  22.463  1.00  0.00    -0.045 N 
ATOM     42 3H10 UNL     1      -0.656   7.343  22.659  1.00  0.00     0.277 HD
ATOM     43 2H10 UNL     1      -0.225   8.644  23.371  1.00  0.00     0.277 HD
ATOM     44 1H10 UNL     1      -1.482   8.760  22.245  1.00  0.00     0.277 HD
ENDBRANCH  36  41
ENDBRANCH   7  36
BRANCH   9  45
HETATM   45  C12 UNL     1       2.632  10.020  23.362  1.00  0.00     0.211 C 
HETATM   46  O1  UNL     1       1.538   9.846  24.061  1.00  0.00    -0.644 OA
HETATM   47  O2  UNL     1       2.856  11.339  23.226  1.00  0.00    -0.644 OA
ENDBRANCH   9  45
BRANCH  11  48
HETATM   48  O3  UNL     1       6.935   9.706  23.195  1.00  0.00    -0.272 OA
BRANCH  48  49
HETATM   49  C15 UNL     1       7.552   9.918  24.405  1.00  0.00     0.383 C 
HETATM   50  O4  UNL     1       7.066  10.855  25.112  1.00  0.00    -0.236 OA
HETATM   51  N11 UNL     1       8.651   9.176  24.879  1.00  0.00    -0.252 N 
ATOM     52  H11 UNL     1       9.042   8.422  24.315  1.00  0.00     0.191 HD
BRANCH  51  53
HETATM   53  N12 UNL     1       9.198   9.475  26.120  1.00  0.00    -0.341 N 
ATOM     54 2H12 UNL     1       8.605   9.890  26.838  1.00  0.00     0.177 HD
ATOM     55 1H12 UNL     1      10.183   9.277  26.299  1.00  0.00     0.177 HD
ENDBRANCH  51  53
ENDBRANCH  48  49
ENDBRANCH  11  48
TORSDOF 13
ENDMDL
MODEL 3
REMARK VINA RESULT: -6.929125820      3.494      6.405
REMARK  13 active torsions:
REMARK  status: ('A' for Active; 'I' for Inactive)
REMARK    1  A    between atoms: N1_1  and  N2_4 
REMARK    2  A    between atoms: N6_17  and  C6_18 
REMARK    3  A    between atoms: C8_24  and  C9_25 
REMARK    4  A    between atoms: C9_25  and  N9_26 
REMARK    5  A    between atoms: C9_25  and  N10_30 
REMARK    6  A    between atoms: C11_35  and  C12_36 
REMARK    7  A    between atoms: C14_40  and  O3_41 
REMARK    8  A    between atoms: O3_41  and  C15_42 
REMARK       I    between atoms: C15_42  and  N11_44 
REMARK    9  A    between atoms: N11_44  and  N12_46 
REMARK   10  A    between atoms: C16_49  and  C17_50 
REMARK   11  A    between atoms: C17_50  and  O5_51 
REMARK   12  A    between atoms: C17_50  and  C18_53 
REMARK   13  A    between atoms: C18_53  and  O6_54 
ROOT
HETATM    1  C6  UNL     1       7.922   5.230  24.675  1.00  0.00     0.059 C 
HETATM    2  C7  UNL     1       7.918   6.521  24.976  1.00  0.00     0.085 A 
HETATM    3  N7  UNL     1       8.480   7.080  26.050  1.00  0.00    -0.298 N 
ATOM      4  H7  UNL     1       8.948   6.583  26.808  1.00  0.00     0.187 HD
HETATM    5  N8  UNL     1       8.329   8.358  25.964  1.00  0.00    -0.300 N 
ATOM      6  H8  UNL     1       8.671   9.024  26.657  1.00  0.00     0.186 HD
HETATM    7  C8  UNL     1       7.644   8.714  24.810  1.00  0.00     0.096 A 
HETATM    8  C10 UNL     1       7.389   7.525  24.190  1.00  0.00     0.040 A 
HETATM    9  C11 UNL     1       6.638   7.170  23.145  1.00  0.00     0.064 C 
HETATM   10  C13 UNL     1       6.280   5.717  23.044  1.00  0.00    -0.005 C 
HETATM   11  C14 UNL     1       5.070   5.334  22.720  1.00  0.00     0.156 C 
HETATM   12  C16 UNL     1       7.338   4.731  23.400  1.00  0.00     0.105 C 
ENDROOT
BRANCH   1  13
HETATM   13  N6  UNL     1       8.557   4.302  25.534  1.00  0.00    -0.292 N 
HETATM   14  C3  UNL     1       9.872   4.003  25.578  1.00  0.00     0.145 A 
HETATM   15  N4  UNL     1      10.908   4.467  24.864  1.00  0.00    -0.336 N 
HETATM   16  C4  UNL     1      10.104   3.060  26.538  1.00  0.00     0.124 A 
HETATM   17  C2  UNL     1      12.153   4.001  25.101  1.00  0.00     0.183 A 
ATOM     18  H4  UNL     1      10.756   5.172  24.143  1.00  0.00     0.168 HD
HETATM   19  N3  UNL     1      12.392   3.065  26.051  1.00  0.00    -0.336 N 
HETATM   20  C1  UNL     1      11.377   2.584  26.780  1.00  0.00     0.151 A 
ATOM     21  H3  UNL     1      13.342   2.729  26.211  1.00  0.00     0.168 HD
HETATM   22  N2  UNL     1      11.553   1.705  27.683  1.00  0.00    -0.290 N 
ATOM     23  H2  UNL     1      10.744   1.373  28.207  1.00  0.00     0.188 HD
HETATM   24  N5  UNL     1       8.912   2.782  27.085  1.00  0.00    -0.346 N 
HETATM   25  C5  UNL     1       7.982   3.540  26.468  1.00  0.00     0.191 A 
ATOM     26  H5  UNL     1       8.739   2.114  27.836  1.00  0.00     0.167 HD
BRANCH  22  27
HETATM   27  N1  UNL     1      12.798   1.181  27.984  1.00  0.00    -0.344 N 
ATOM     28  H12 UNL     1      13.214   1.435  28.880  1.00  0.00     0.176 HD
ATOM     29  H11 UNL     1      13.304   0.561  27.351  1.00  0.00     0.176 HD
ENDBRANCH  22  27
ENDBRANCH   1  13
BRANCH  12  30
HETATM   30  C17 UNL     1       8.362   4.592  22.313  1.00  0.00     0.156 C 
BRANCH  30  31
HETATM   31  O5  UNL     1       8.781   3.298  22.118  1.00  0.00    -0.392 OA
ATOM     32  H5  UNL     1       8.110   2.732  21.754  1.00  0.00     0.210 HD
ENDBRANCH  30  31
BRANCH  30  33
HETATM   33  C18 UNL     1       7.814   5.096  20.986  1.00  0.00     0.196 C 
BRANCH  33  34
HETATM   34  O6  UNL     1       7.768   4.100  20.032  1.00  0.00    -0.398 OA
ATOM     35  H6  UNL     1       7.419   4.413  19.206  1.00  0.00     0.209 HD
ENDBRANCH  33  34
ENDBRANCH  30  33
ENDBRANCH  12  30
BRANCH   7  36
HETATM   36  C9  UNL     1       7.277  10.099  24.549  1.00  0.00     0.429 C 
BRANCH  36  37
HETATM   37  N9  UNL     1       8.128  10.878  25.554  1.00  0.00    -0.045 N 
ATOM     38  H93 UNL     1       8.769  10.304  26.104  1.00  0.00     0.277 HD
ATOM     39  H92 UNL     1       8.849  11.466  25.135  1.00  0.00     0.277 HD
ATOM     40  H91 UNL     1       7.433  11.383  26.103  1.00  0.00     0.277 HD
ENDBRANCH  36  37
BRANCH  36  41
HETATM   41  N10 UNL     1       7.830  10.526  23.299  1.00  0.00    -0.045 N 
ATOM     42 3H10 UNL     1       8.827  10.727  23.371  1.00  0.00     0.277 HD
ATOM     43 2H10 UNL     1       7.880   9.763  22.623  1.00  0.00     0.277 HD
ATOM     44 1H10 UNL     1       7.304  11.322  22.939  1.00  0.00     0.277 HD
ENDBRANCH  36  41
ENDBRANCH   7  36
BRANCH   9  45
HETATM   45  C12 UNL     1       6.064   8.056  22.236  1.00  0.00     0.211 C 
HETATM   46  O1  UNL     1       6.830   8.481  21.262  1.00  0.00    -0.644 OA
HETATM   47  O2  UNL     1       4.850   8.622  22.113  1.00  0.00    -0.644 OA
ENDBRANCH   9  45
BRANCH  11  48
HETATM   48  O3  UNL     1       4.771   3.955  22.630  1.00  0.00    -0.272 OA
BRANCH  48  49
HETATM   49  C15 UNL     1       4.596   3.292  21.438  1.00  0.00     0.383 C 
HETATM   50  O4  UNL     1       5.484   2.429  21.154  1.00  0.00    -0.236 OA
HETATM   51  N11 UNL     1       3.523   3.515  20.553  1.00  0.00    -0.252 N 
ATOM     52  H11 UNL     1       2.809   4.207  20.778  1.00  0.00     0.191 HD
BRANCH  51  53
HETATM   53  N12 UNL     1       3.444   2.788  19.373  1.00  0.00    -0.341 N 
ATOM     54 2H12 UNL     1       4.238   2.791  18.733  1.00  0.00     0.177 HD
ATOM     55 1H12 UNL     1       2.597   2.261  19.160  1.00  0.00     0.177 HD
ENDBRANCH  51  53
ENDBRANCH  48  49
ENDBRANCH  11  48
TORSDOF 13
ENDMDL
MODEL 4
REMARK VINA RESULT: -6.911957889      3.115      6.303
REMARK  13 active torsions:
REMARK  status: ('A' for Active; 'I' for Inactive)
REMARK    1  A    between atoms: N1_1  and  N2_4 
REMARK    2  A    between atoms: N6_17  and  C6_18 
REMARK    3  A    between atoms: C8_24  and  C9_25 
REMARK    4  A    between atoms: C9_25  and  N9_26 
REMARK    5  A    between atoms: C9_25  and  N10_30 
REMARK    6  A    between atoms: C11_35  and  C12_36 
REMARK    7  A    between atoms: C14_40  and  O3_41 
REMARK    8  A    between atoms: O3_41  and  C15_42 
REMARK       I    between atoms: C15_42  and  N11_44 
REMARK    9  A    between atoms: N11_44  and  N12_46 
REMARK   10  A    between atoms: C16_49  and  C17_50 
REMARK   11  A    between atoms: C17_50  and  O5_51 
REMARK   12  A    between atoms: C17_50  and  C18_53 
REMARK   13  A    between atoms: C18_53  and  O6_54 
ROOT
HETATM    1  C6  UNL     1       5.737   5.712  22.703  1.00  0.00     0.059 C 
HETATM    2  C7  UNL     1       4.607   5.269  22.171  1.00  0.00     0.085 A 
HETATM    3  N7  UNL     1       4.421   4.079  21.594  1.00  0.00    -0.298 N 
ATOM      4  H7  UNL     1       5.137   3.369  21.444  1.00  0.00     0.187 HD
HETATM    5  N8  UNL     1       3.179   3.984  21.261  1.00  0.00    -0.300 N 
ATOM      6  H8  UNL     1       2.769   3.169  20.804  1.00  0.00     0.186 HD
HETATM    7  C8  UNL     1       2.470   5.128  21.602  1.00  0.00     0.096 A 
HETATM    8  C10 UNL     1       3.400   5.940  22.183  1.00  0.00     0.040 A 
HETATM    9  C11 UNL     1       3.399   7.216  22.571  1.00  0.00     0.064 C 
HETATM   10  C13 UNL     1       4.742   7.856  22.765  1.00  0.00    -0.005 C 
HETATM   11  C14 UNL     1       4.988   9.070  22.336  1.00  0.00     0.156 C 
HETATM   12  C16 UNL     1       5.803   7.025  23.399  1.00  0.00     0.105 C 
ENDROOT
BRANCH   1  13
HETATM   13  N6  UNL     1       6.897   4.901  22.684  1.00  0.00    -0.292 N 
HETATM   14  C3  UNL     1       7.214   3.916  23.552  1.00  0.00     0.145 A 
HETATM   15  N4  UNL     1       6.566   3.442  24.625  1.00  0.00    -0.336 N 
HETATM   16  C4  UNL     1       8.413   3.361  23.208  1.00  0.00     0.124 A 
HETATM   17  C2  UNL     1       7.100   2.433  25.345  1.00  0.00     0.183 A 
ATOM     18  H4  UNL     1       5.669   3.844  24.898  1.00  0.00     0.168 HD
HETATM   19  N3  UNL     1       8.290   1.875  25.011  1.00  0.00    -0.336 N 
HETATM   20  C1  UNL     1       8.959   2.329  23.943  1.00  0.00     0.151 A 
ATOM     21  H3  UNL     1       8.674   1.114  25.570  1.00  0.00     0.168 HD
HETATM   22  N2  UNL     1      10.079   1.836  23.591  1.00  0.00    -0.290 N 
ATOM     23  H2  UNL     1      10.546   2.220  22.770  1.00  0.00     0.188 HD
HETATM   24  N5  UNL     1       8.830   4.017  22.116  1.00  0.00    -0.346 N 
HETATM   25  C5  UNL     1       7.903   4.947  21.808  1.00  0.00     0.191 A 
ATOM     26  H5  UNL     1       9.697   3.843  21.607  1.00  0.00     0.167 HD
BRANCH  22  27
HETATM   27  N1  UNL     1      10.689   0.800  24.277  1.00  0.00    -0.344 N 
ATOM     28  H12 UNL     1      10.245   0.477  25.136  1.00  0.00     0.176 HD
ATOM     29  H11 UNL     1      11.550   0.358  23.956  1.00  0.00     0.176 HD
ENDBRANCH  22  27
ENDBRANCH   1  13
BRANCH  12  30
HETATM   30  C17 UNL     1       5.607   6.902  24.881  1.00  0.00     0.156 C 
BRANCH  30  31
HETATM   31  O5  UNL     1       4.885   5.792  25.247  1.00  0.00    -0.392 OA
ATOM     32  H5  UNL     1       4.786   5.696  26.187  1.00  0.00     0.210 HD
ENDBRANCH  30  31
BRANCH  30  33
HETATM   33  C18 UNL     1       6.947   6.829  25.599  1.00  0.00     0.196 C 
BRANCH  33  34
HETATM   34  O6  UNL     1       7.436   8.081  25.912  1.00  0.00    -0.398 OA
ATOM     35  H6  UNL     1       7.817   8.109  26.781  1.00  0.00     0.209 HD
ENDBRANCH  33  34
ENDBRANCH  30  33
ENDBRANCH  12  30
BRANCH   7  36
HETATM   36  C9  UNL     1       1.068   5.282  21.237  1.00  0.00     0.429 C 
BRANCH  36  37
HETATM   37  N9  UNL     1       1.130   6.188  20.005  1.00  0.00    -0.045 N 
ATOM     38  H93 UNL     1       2.024   6.180  19.514  1.00  0.00     0.277 HD
ATOM     39  H92 UNL     1       0.574   5.866  19.212  1.00  0.00     0.277 HD
ATOM     40  H91 UNL     1       0.856   7.099  20.375  1.00  0.00     0.277 HD
ENDBRANCH  36  37
BRANCH  36  41
HETATM   41  N10 UNL     1       0.570   4.060  20.681  1.00  0.00    -0.045 N 
ATOM     42 3H10 UNL     1      -0.065   4.227  19.900  1.00  0.00     0.277 HD
ATOM     43 2H10 UNL     1       1.293   3.546  20.178  1.00  0.00     0.277 HD
ATOM     44 1H10 UNL     1       0.137   3.495  21.411  1.00  0.00     0.277 HD
ENDBRANCH  36  41
ENDBRANCH   7  36
BRANCH   9  45
HETATM   45  C12 UNL     1       2.265   8.020  22.674  1.00  0.00     0.211 C 
HETATM   46  O1  UNL     1       1.836   8.282  23.884  1.00  0.00    -0.644 OA
HETATM   47  O2  UNL     1       1.450   8.615  21.785  1.00  0.00    -0.644 OA
ENDBRANCH   9  45
BRANCH  11  48
HETATM   48  O3  UNL     1       6.265   9.641  22.542  1.00  0.00    -0.272 OA
BRANCH  48  49
HETATM   49  C15 UNL     1       6.609  10.341  23.673  1.00  0.00     0.383 C 
HETATM   50  O4  UNL     1       5.670  11.002  24.218  1.00  0.00    -0.236 OA
HETATM   51  N11 UNL     1       7.901  10.362  24.235  1.00  0.00    -0.252 N 
ATOM     52  H11 UNL     1       8.656   9.832  23.801  1.00  0.00     0.191 HD
BRANCH  51  53
HETATM   53  N12 UNL     1       8.140  11.106  25.383  1.00  0.00    -0.341 N 
ATOM     54 2H12 UNL     1       7.641  10.870  26.241  1.00  0.00     0.177 HD
ATOM     55 1H12 UNL     1       8.808  11.876  25.356  1.00  0.00     0.177 HD
ENDBRANCH  51  53
ENDBRANCH  48  49
ENDBRANCH  11  48
TORSDOF 13
ENDMDL
MODEL 5
REMARK VINA RESULT: -6.890335412      2.909      7.859
REMARK  13 active torsions:
REMARK  status: ('A' for Active; 'I' for Inactive)
REMARK    1  A    between atoms: N1_1  and  N2_4 
REMARK    2  A    between atoms: N6_17  and  C6_18 
REMARK    3  A    between atoms: C8_24  and  C9_25 
REMARK    4  A    between atoms: C9_25  and  N9_26 
REMARK    5  A    between atoms: C9_25  and  N10_30 
REMARK    6  A    between atoms: C11_35  and  C12_36 
REMARK    7  A    between atoms: C14_40  and  O3_41 
REMARK    8  A    between atoms: O3_41  and  C15_42 
REMARK       I    between atoms: C15_42  and  N11_44 
REMARK    9  A    between atoms: N11_44  and  N12_46 
REMARK   10  A    between atoms: C16_49  and  C17_50 
REMARK   11  A    between atoms: C17_50  and  O5_51 
REMARK   12  A    between atoms: C17_50  and  C18_53 
REMARK   13  A    between atoms: C18_53  and  O6_54 
ROOT
HETATM    1  C6  UNL     1       6.587   3.686  22.353  1.00  0.00     0.059 C 
HETATM    2  C7  UNL     1       7.266   2.760  23.015  1.00  0.00     0.085 A 
HETATM    3  N7  UNL     1       7.070   1.441  22.950  1.00  0.00    -0.298 N 
ATOM      4  H7  UNL     1       6.339   0.971  22.416  1.00  0.00     0.187 HD
HETATM    5  N8  UNL     1       7.964   0.865  23.677  1.00  0.00    -0.300 N 
ATOM      6  H8  UNL     1       8.041  -0.146  23.798  1.00  0.00     0.186 HD
HETATM    7  C8  UNL     1       8.810   1.790  24.275  1.00  0.00     0.096 A 
HETATM    8  C10 UNL     1       8.347   2.998  23.841  1.00  0.00     0.040 A 
HETATM    9  C11 UNL     1       8.614   4.263  24.171  1.00  0.00     0.064 C 
HETATM   10  C13 UNL     1       7.591   5.286  23.775  1.00  0.00    -0.005 C 
HETATM   11  C14 UNL     1       7.228   6.242  24.594  1.00  0.00     0.156 C 
HETATM   12  C16 UNL     1       6.954   5.125  22.438  1.00  0.00     0.105 C 
ENDROOT
BRANCH   1  13
HETATM   13  N6  UNL     1       5.535   3.309  21.484  1.00  0.00    -0.292 N 
HETATM   14  C3  UNL     1       4.215   3.287  21.768  1.00  0.00     0.145 A 
HETATM   15  N4  UNL     1       3.547   3.594  22.889  1.00  0.00    -0.336 N 
HETATM   16  C4  UNL     1       3.511   2.868  20.675  1.00  0.00     0.124 A 
HETATM   17  C2  UNL     1       2.202   3.487  22.923  1.00  0.00     0.183 A 
ATOM     18  H4  UNL     1       4.055   3.908  23.716  1.00  0.00     0.168 HD
HETATM   19  N3  UNL     1       1.495   3.072  21.843  1.00  0.00    -0.336 N 
HETATM   20  C1  UNL     1       2.136   2.759  20.710  1.00  0.00     0.151 A 
ATOM     21  H3  UNL     1       0.479   2.999  21.894  1.00  0.00     0.168 HD
HETATM   22  N2  UNL     1       1.514   2.365  19.671  1.00  0.00    -0.290 N 
ATOM     23  H2  UNL     1       2.053   2.139  18.835  1.00  0.00     0.188 HD
HETATM   24  N5  UNL     1       4.416   2.633  19.714  1.00  0.00    -0.346 N 
HETATM   25  C5  UNL     1       5.638   2.904  20.216  1.00  0.00     0.191 A 
ATOM     26  H5  UNL     1       4.215   2.307  18.769  1.00  0.00     0.167 HD
BRANCH  22  27
HETATM   27  N1  UNL     1       0.137   2.232  19.629  1.00  0.00    -0.344 N 
ATOM     28  H12 UNL     1      -0.334   2.475  18.758  1.00  0.00     0.176 HD
ATOM     29  H11 UNL     1      -0.410   1.906  20.425  1.00  0.00     0.176 HD
ENDBRANCH  22  27
ENDBRANCH   1  13
BRANCH  12  30
HETATM   30  C17 UNL     1       7.866   5.553  21.327  1.00  0.00     0.156 C 
BRANCH  30  31
HETATM   31  O5  UNL     1       7.944   4.643  20.301  1.00  0.00    -0.392 OA
ATOM     32  H5  UNL     1       8.302   3.803  20.564  1.00  0.00     0.210 HD
ENDBRANCH  30  31
BRANCH  30  33
HETATM   33  C18 UNL     1       7.407   6.875  20.729  1.00  0.00     0.196 C 
BRANCH  33  34
HETATM   34  O6  UNL     1       6.051   7.074  20.893  1.00  0.00    -0.398 OA
ATOM     35  H6  UNL     1       5.770   6.903  21.783  1.00  0.00     0.209 HD
ENDBRANCH  33  34
ENDBRANCH  30  33
ENDBRANCH  12  30
BRANCH   7  36
HETATM   36  C9  UNL     1       9.839   1.372  25.217  1.00  0.00     0.429 C 
BRANCH  36  37
HETATM   37  N9  UNL     1       9.647  -0.145  25.287  1.00  0.00    -0.045 N 
ATOM     38  H93 UNL     1       9.007  -0.526  24.590  1.00  0.00     0.277 HD
ATOM     39  H92 UNL     1      10.458  -0.691  24.993  1.00  0.00     0.277 HD
ATOM     40  H91 UNL     1       9.360  -0.297  26.255  1.00  0.00     0.277 HD
ENDBRANCH  36  37
BRANCH  36  41
HETATM   41  N10 UNL     1      11.131   1.478  24.610  1.00  0.00    -0.045 N 
ATOM     42 3H10 UNL     1      11.144   1.090  23.667  1.00  0.00     0.277 HD
ATOM     43 2H10 UNL     1      11.365   2.443  24.377  1.00  0.00     0.277 HD
ATOM     44 1H10 UNL     1      11.835   1.048  25.210  1.00  0.00     0.277 HD
ENDBRANCH  36  41
ENDBRANCH   7  36
BRANCH   9  45
HETATM   45  C12 UNL     1       9.686   4.674  24.961  1.00  0.00     0.211 C 
HETATM   46  O1  UNL     1      10.872   4.648  24.405  1.00  0.00    -0.644 OA
HETATM   47  O2  UNL     1       9.809   5.103  26.229  1.00  0.00    -0.644 OA
ENDBRANCH   9  45
BRANCH  11  48
HETATM   48  O3  UNL     1       6.265   7.191  24.183  1.00  0.00    -0.272 OA
BRANCH  48  49
HETATM   49  C15 UNL     1       6.519   8.539  24.090  1.00  0.00     0.383 C 
HETATM   50  O4  UNL     1       5.602   9.303  24.527  1.00  0.00    -0.236 OA
HETATM   51  N11 UNL     1       7.698   9.092  23.555  1.00  0.00    -0.252 N 
ATOM     52  H11 UNL     1       8.437   8.482  23.204  1.00  0.00     0.191 HD
BRANCH  51  53
HETATM   53  N12 UNL     1       7.851  10.471  23.508  1.00  0.00    -0.341 N 
ATOM     54 2H12 UNL     1       7.398  11.046  24.218  1.00  0.00     0.177 HD
ATOM     55 1H12 UNL     1       8.413  10.893  22.768  1.00  0.00     0.177 HD
ENDBRANCH  51  53
ENDBRANCH  48  49
ENDBRANCH  11  48
TORSDOF 13
ENDMDL
