MODEL 1
REMARK VINA RESULT: -6.805869512      0.000      0.000
REMARK  8 active torsions:
REMARK  status: ('A' for Active; 'I' for Inactive)
REMARK    1  A    between atoms: C2_2  and  C4_4 
REMARK    2  A    between atoms: C4_4  and  C5_5 
REMARK    3  A    between atoms: C5_5  and  C6_6 
REMARK    4  A    between atoms: C6_6  and  O1_7 
REMARK    5  A    between atoms: C9_14  and  O4_16 
REMARK    6  A    between atoms: O4_16  and  C11_17 
REMARK    7  A    between atoms: C11_17  and  C12_19 
REMARK    8  A    between atoms: C12_19  and  C13_21 
ROOT
HETATM    1  C6  UNL     1      26.050  -0.578  -9.193  1.00  0.00     0.204 C 
HETATM    2  O2  UNL     1      26.191  -1.440  -8.049  1.00  0.00    -0.279 OA
HETATM    3  C7  UNL     1      27.528  -1.510  -7.738  1.00  0.00     0.279 C 
HETATM    4  O3  UNL     1      28.053  -2.377  -7.000  1.00  0.00    -0.264 OA
HETATM    5  C8  UNL     1      28.228  -0.372  -8.440  1.00  0.00     0.197 C 
HETATM    6 BR1  UNL     1      28.054   1.262  -7.515  1.00  0.00    -0.077 Br
HETATM    7  C9  UNL     1      27.379  -0.446  -9.754  1.00  0.00     0.145 C 
HETATM    8  C10 UNL     1      27.937  -1.732 -10.380  1.00  0.00     0.054 C 
ENDROOT
BRANCH   7   9
HETATM    9  O4  UNL     1      27.743   0.662 -10.501  1.00  0.00    -0.302 OA
BRANCH   9  10
HETATM   10  C11 UNL     1      27.009   1.524 -11.233  1.00  0.00     0.287 C 
HETATM   11  O5  UNL     1      26.635   2.605 -10.697  1.00  0.00    -0.263 OA
BRANCH  10  12
HETATM   12  C12 UNL     1      26.573   1.350 -12.634  1.00  0.00     0.288 C 
HETATM   13 CL1  UNL     1      27.679   0.231 -13.458  1.00  0.00    -0.105 Cl
BRANCH  12  14
HETATM   14  C13 UNL     1      25.146   0.975 -12.828  1.00  0.00     0.413 C 
HETATM   15  F1  UNL     1      24.705   1.471 -14.033  1.00  0.00    -0.169 F 
HETATM   16  F2  UNL     1      24.339   1.375 -11.795  1.00  0.00    -0.169 F 
HETATM   17  F3  UNL     1      25.117  -0.421 -12.967  1.00  0.00    -0.169 F 
ENDBRANCH  12  14
ENDBRANCH  10  12
ENDBRANCH   9  10
ENDBRANCH   7   9
BRANCH   1  18
HETATM   18  C5  UNL     1      24.847  -0.971  -9.939  1.00  0.00     0.076 C 
BRANCH  18  19
HETATM   19  C4  UNL     1      23.508  -0.624  -9.334  1.00  0.00     0.038 C 
BRANCH  19  20
HETATM   20  C2  UNL     1      22.415  -0.780 -10.369  1.00  0.00    -0.093 C 
HETATM   21  C1  UNL     1      22.423  -1.758 -11.265  1.00  0.00     0.014 C 
HETATM   22  C3  UNL     1      21.286   0.201 -10.384  1.00  0.00     0.042 C 
ENDBRANCH  19  20
ENDBRANCH  18  19
ENDBRANCH   1  18
BRANCH   1  23
HETATM   23  O1  UNL     1      25.744   0.688  -8.586  1.00  0.00    -0.362 OA
ATOM     24  H1  UNL     1      25.412   1.240  -9.285  1.00  0.00     0.213 HD
ENDBRANCH   1  23
TORSDOF 8
ENDMDL
MODEL 2
REMARK VINA RESULT: -6.596448685      1.299      1.509
REMARK  8 active torsions:
REMARK  status: ('A' for Active; 'I' for Inactive)
REMARK    1  A    between atoms: C2_2  and  C4_4 
REMARK    2  A    between atoms: C4_4  and  C5_5 
REMARK    3  A    between atoms: C5_5  and  C6_6 
REMARK    4  A    between atoms: C6_6  and  O1_7 
REMARK    5  A    between atoms: C9_14  and  O4_16 
REMARK    6  A    between atoms: O4_16  and  C11_17 
REMARK    7  A    between atoms: C11_17  and  C12_19 
REMARK    8  A    between atoms: C12_19  and  C13_21 
ROOT
HETATM    1  C6  UNL     1      25.940  -0.708  -9.059  1.00  0.00     0.204 C 
HETATM    2  O2  UNL     1      26.181  -1.618  -7.972  1.00  0.00    -0.279 OA
HETATM    3  C7  UNL     1      27.536  -1.649  -7.743  1.00  0.00     0.279 C 
HETATM    4  O3  UNL     1      28.137  -2.530  -7.082  1.00  0.00    -0.264 OA
HETATM    5  C8  UNL     1      28.150  -0.451  -8.425  1.00  0.00     0.197 C 
HETATM    6 BR1  UNL     1      27.971   1.128  -7.408  1.00  0.00    -0.077 Br
HETATM    7  C9  UNL     1      27.227  -0.494  -9.689  1.00  0.00     0.145 C 
HETATM    8  C10 UNL     1      27.794  -1.724 -10.412  1.00  0.00     0.054 C 
ENDROOT
BRANCH   7   9
HETATM    9  O4  UNL     1      27.504   0.663 -10.398  1.00  0.00    -0.302 OA
BRANCH   9  10
HETATM   10  C11 UNL     1      26.824   1.293 -11.378  1.00  0.00     0.287 C 
HETATM   11  O5  UNL     1      26.727   2.552 -11.331  1.00  0.00    -0.263 OA
BRANCH  10  12
HETATM   12  C12 UNL     1      26.156   0.667 -12.537  1.00  0.00     0.288 C 
HETATM   13 CL1  UNL     1      24.862   1.737 -13.116  1.00  0.00    -0.105 Cl
BRANCH  12  14
HETATM   14  C13 UNL     1      27.050   0.218 -13.638  1.00  0.00     0.413 C 
HETATM   15  F1  UNL     1      28.338   0.115 -13.165  1.00  0.00    -0.169 F 
HETATM   16  F2  UNL     1      26.985   1.022 -14.746  1.00  0.00    -0.169 F 
HETATM   17  F3  UNL     1      26.664  -1.093 -13.955  1.00  0.00    -0.169 F 
ENDBRANCH  12  14
ENDBRANCH  10  12
ENDBRANCH   9  10
ENDBRANCH   7   9
BRANCH   1  18
HETATM   18  C5  UNL     1      24.709  -1.112  -9.754  1.00  0.00     0.076 C 
BRANCH  18  19
HETATM   19  C4  UNL     1      23.429  -0.414  -9.363  1.00  0.00     0.038 C 
BRANCH  19  20
HETATM   20  C2  UNL     1      22.358  -0.678 -10.399  1.00  0.00    -0.093 C 
HETATM   21  C1  UNL     1      22.407  -1.719 -11.218  1.00  0.00     0.014 C 
HETATM   22  C3  UNL     1      21.203   0.268 -10.505  1.00  0.00     0.042 C 
ENDBRANCH  19  20
ENDBRANCH  18  19
ENDBRANCH   1  18
BRANCH   1  23
HETATM   23  O1  UNL     1      25.624   0.514  -8.371  1.00  0.00    -0.362 OA
ATOM     24  H1  UNL     1      26.361   1.095  -8.518  1.00  0.00     0.213 HD
ENDBRANCH   1  23
TORSDOF 8
ENDMDL
MODEL 3
REMARK VINA RESULT: -6.040952886      2.986      5.031
REMARK  8 active torsions:
REMARK  status: ('A' for Active; 'I' for Inactive)
REMARK    1  A    between atoms: C2_2  and  C4_4 
REMARK    2  A    between atoms: C4_4  and  C5_5 
REMARK    3  A    between atoms: C5_5  and  C6_6 
REMARK    4  A    between atoms: C6_6  and  O1_7 
REMARK    5  A    between atoms: C9_14  and  O4_16 
REMARK    6  A    between atoms: O4_16  and  C11_17 
REMARK    7  A    between atoms: C11_17  and  C12_19 
REMARK    8  A    between atoms: C12_19  and  C13_21 
ROOT
HETATM    1  C6  UNL     1      26.628   1.395 -10.372  1.00  0.00     0.204 C 
HETATM    2  O2  UNL     1      27.664   1.205 -11.351  1.00  0.00    -0.279 OA
HETATM    3  C7  UNL     1      27.215   0.282 -12.265  1.00  0.00     0.279 C 
HETATM    4  O3  UNL     1      27.938  -0.340 -13.079  1.00  0.00    -0.264 OA
HETATM    5  C8  UNL     1      25.718   0.161 -12.104  1.00  0.00     0.197 C 
HETATM    6 BR1  UNL     1      24.785   1.546 -12.979  1.00  0.00    -0.077 Br
HETATM    7  C9  UNL     1      25.713   0.284 -10.543  1.00  0.00     0.145 C 
HETATM    8  C10 UNL     1      26.289  -1.083 -10.149  1.00  0.00     0.054 C 
ENDROOT
BRANCH   7   9
HETATM    9  O4  UNL     1      24.381   0.380 -10.178  1.00  0.00    -0.302 OA
BRANCH   9  10
HETATM   10  C11 UNL     1      23.401  -0.545 -10.128  1.00  0.00     0.287 C 
HETATM   11  O5  UNL     1      23.409  -1.382  -9.180  1.00  0.00    -0.263 OA
BRANCH  10  12
HETATM   12  C12 UNL     1      22.284  -0.707 -11.081  1.00  0.00     0.288 C 
HETATM   13 CL1  UNL     1      22.141  -2.419 -11.533  1.00  0.00    -0.105 Cl
BRANCH  12  14
HETATM   14  C13 UNL     1      20.981  -0.125 -10.659  1.00  0.00     0.413 C 
HETATM   15  F1  UNL     1      20.448   0.599 -11.699  1.00  0.00    -0.169 F 
HETATM   16  F2  UNL     1      21.072   0.628  -9.518  1.00  0.00    -0.169 F 
HETATM   17  F3  UNL     1      20.106  -1.206 -10.470  1.00  0.00    -0.169 F 
ENDBRANCH  12  14
ENDBRANCH  10  12
ENDBRANCH   9  10
ENDBRANCH   7   9
BRANCH   1  18
HETATM   18  C5  UNL     1      27.243   1.802  -9.101  1.00  0.00     0.076 C 
BRANCH  18  19
HETATM   19  C4  UNL     1      27.119   0.854  -7.933  1.00  0.00     0.038 C 
BRANCH  19  20
HETATM   20  C2  UNL     1      28.306  -0.084  -7.898  1.00  0.00    -0.093 C 
HETATM   21  C1  UNL     1      29.462   0.216  -8.476  1.00  0.00     0.014 C 
HETATM   22  C3  UNL     1      28.175  -1.394  -7.188  1.00  0.00     0.042 C 
ENDBRANCH  19  20
ENDBRANCH  18  19
ENDBRANCH   1  18
BRANCH   1  23
HETATM   23  O1  UNL     1      25.944   2.556 -10.871  1.00  0.00    -0.362 OA
ATOM     24  H1  UNL     1      25.022   2.413 -10.695  1.00  0.00     0.213 HD
ENDBRANCH   1  23
TORSDOF 8
ENDMDL
MODEL 4
REMARK VINA RESULT: -5.840998888      3.028      5.175
REMARK  8 active torsions:
REMARK  status: ('A' for Active; 'I' for Inactive)
REMARK    1  A    between atoms: C2_2  and  C4_4 
REMARK    2  A    between atoms: C4_4  and  C5_5 
REMARK    3  A    between atoms: C5_5  and  C6_6 
REMARK    4  A    between atoms: C6_6  and  O1_7 
REMARK    5  A    between atoms: C9_14  and  O4_16 
REMARK    6  A    between atoms: O4_16  and  C11_17 
REMARK    7  A    between atoms: C11_17  and  C12_19 
REMARK    8  A    between atoms: C12_19  and  C13_21 
ROOT
HETATM    1  C6  UNL     1      26.123  -0.032 -10.522  1.00  0.00     0.204 C 
HETATM    2  O2  UNL     1      27.322   0.280 -11.253  1.00  0.00    -0.279 OA
HETATM    3  C7  UNL     1      26.959   0.983 -12.376  1.00  0.00     0.279 C 
HETATM    4  O3  UNL     1      27.687   1.168 -13.380  1.00  0.00    -0.264 OA
HETATM    5  C8  UNL     1      25.546   1.478 -12.177  1.00  0.00     0.197 C 
HETATM    6 BR1  UNL     1      25.471   3.040 -11.123  1.00  0.00    -0.077 Br
HETATM    7  C9  UNL     1      25.028   0.195 -11.443  1.00  0.00     0.145 C 
HETATM    8  C10 UNL     1      24.964  -0.795 -12.614  1.00  0.00     0.054 C 
ENDROOT
BRANCH   7   9
HETATM    9  O4  UNL     1      23.756   0.507 -10.993  1.00  0.00    -0.302 OA
BRANCH   9  10
HETATM   10  C11 UNL     1      22.719  -0.277 -10.635  1.00  0.00     0.287 C 
HETATM   11  O5  UNL     1      22.823  -0.971  -9.583  1.00  0.00    -0.263 OA
BRANCH  10  12
HETATM   12  C12 UNL     1      21.435  -0.432 -11.349  1.00  0.00     0.288 C 
HETATM   13 CL1  UNL     1      21.113  -2.159 -11.610  1.00  0.00    -0.105 Cl
BRANCH  12  14
HETATM   14  C13 UNL     1      20.270   0.274 -10.751  1.00  0.00     0.413 C 
HETATM   15  F1  UNL     1      19.831   1.246 -11.620  1.00  0.00    -0.169 F 
HETATM   16  F2  UNL     1      20.535   0.793  -9.511  1.00  0.00    -0.169 F 
HETATM   17  F3  UNL     1      19.229  -0.664 -10.683  1.00  0.00    -0.169 F 
ENDBRANCH  12  14
ENDBRANCH  10  12
ENDBRANCH   9  10
ENDBRANCH   7   9
BRANCH   1  18
HETATM   18  C5  UNL     1      26.343  -1.262  -9.749  1.00  0.00     0.076 C 
BRANCH  18  19
HETATM   19  C4  UNL     1      27.759  -1.771  -9.640  1.00  0.00     0.038 C 
BRANCH  19  20
HETATM   20  C2  UNL     1      28.341  -1.403  -8.292  1.00  0.00    -0.093 C 
HETATM   21  C1  UNL     1      28.232  -2.195  -7.234  1.00  0.00     0.014 C 
HETATM   22  C3  UNL     1      29.064  -0.101  -8.146  1.00  0.00     0.042 C 
ENDBRANCH  19  20
ENDBRANCH  18  19
ENDBRANCH   1  18
BRANCH   1  23
HETATM   23  O1  UNL     1      26.065   1.035  -9.561  1.00  0.00    -0.362 OA
ATOM     24  H1  UNL     1      25.601   1.746  -9.986  1.00  0.00     0.213 HD
ENDBRANCH   1  23
TORSDOF 8
ENDMDL
MODEL 5
REMARK VINA RESULT: -5.807288187      3.099      5.112
REMARK  8 active torsions:
REMARK  status: ('A' for Active; 'I' for Inactive)
REMARK    1  A    between atoms: C2_2  and  C4_4 
REMARK    2  A    between atoms: C4_4  and  C5_5 
REMARK    3  A    between atoms: C5_5  and  C6_6 
REMARK    4  A    between atoms: C6_6  and  O1_7 
REMARK    5  A    between atoms: C9_14  and  O4_16 
REMARK    6  A    between atoms: O4_16  and  C11_17 
REMARK    7  A    between atoms: C11_17  and  C12_19 
REMARK    8  A    between atoms: C12_19  and  C13_21 
ROOT
HETATM    1  C6  UNL     1      26.198   1.322 -10.482  1.00  0.00     0.204 C 
HETATM    2  O2  UNL     1      27.470   1.141 -11.129  1.00  0.00    -0.279 OA
HETATM    3  C7  UNL     1      27.323   0.158 -12.078  1.00  0.00     0.279 C 
HETATM    4  O3  UNL     1      28.264  -0.463 -12.627  1.00  0.00    -0.264 OA
HETATM    5  C8  UNL     1      25.846  -0.030 -12.326  1.00  0.00     0.197 C 
HETATM    6 BR1  UNL     1      25.140   1.268 -13.498  1.00  0.00    -0.077 Br
HETATM    7  C9  UNL     1      25.406   0.161 -10.835  1.00  0.00     0.145 C 
HETATM    8  C10 UNL     1      25.900  -1.157 -10.223  1.00  0.00     0.054 C 
ENDROOT
BRANCH   7   9
HETATM    9  O4  UNL     1      24.022   0.207 -10.853  1.00  0.00    -0.302 OA
BRANCH   9  10
HETATM   10  C11 UNL     1      23.106  -0.142  -9.927  1.00  0.00     0.287 C 
HETATM   11  O5  UNL     1      23.457  -0.172  -8.713  1.00  0.00    -0.263 OA
BRANCH  10  12
HETATM   12  C12 UNL     1      21.695  -0.508 -10.169  1.00  0.00     0.288 C 
HETATM   13 CL1  UNL     1      20.768   0.956 -10.561  1.00  0.00    -0.105 Cl
BRANCH  12  14
HETATM   14  C13 UNL     1      21.467  -1.599 -11.154  1.00  0.00     0.413 C 
HETATM   15  F1  UNL     1      20.455  -2.415 -10.703  1.00  0.00    -0.169 F 
HETATM   16  F2  UNL     1      22.601  -2.316 -11.436  1.00  0.00    -0.169 F 
HETATM   17  F3  UNL     1      20.965  -0.990 -12.314  1.00  0.00    -0.169 F 
ENDBRANCH  12  14
ENDBRANCH  10  12
ENDBRANCH   9  10
ENDBRANCH   7   9
BRANCH   1  18
HETATM   18  C5  UNL     1      26.425   1.814  -9.116  1.00  0.00     0.076 C 
BRANCH  18  19
HETATM   19  C4  UNL     1      27.854   1.921  -8.643  1.00  0.00     0.038 C 
BRANCH  19  20
HETATM   20  C2  UNL     1      28.338   0.576  -8.146  1.00  0.00    -0.093 C 
HETATM   21  C1  UNL     1      29.492   0.052  -8.536  1.00  0.00     0.014 C 
HETATM   22  C3  UNL     1      27.488  -0.190  -7.181  1.00  0.00     0.042 C 
ENDBRANCH  19  20
ENDBRANCH  18  19
ENDBRANCH   1  18
BRANCH   1  23
HETATM   23  O1  UNL     1      25.638   2.425 -11.212  1.00  0.00    -0.362 OA
ATOM     24  H1  UNL     1      25.642   3.164 -10.615  1.00  0.00     0.213 HD
ENDBRANCH   1  23
TORSDOF 8
ENDMDL
