MODEL 1
REMARK VINA RESULT: -7.844900082      0.000      0.000
REMARK  5 active torsions:
REMARK  status: ('A' for Active; 'I' for Inactive)
REMARK    1  A    between atoms: C2_2  and  C3_5 
REMARK    2  A    between atoms: C3_5  and  C4_6 
REMARK    3  A    between atoms: C3_5  and  C5_8 
REMARK    4  A    between atoms: C6_11  and  S1_12 
REMARK    5  A    between atoms: S1_12  and  C7_13 
ROOT
HETATM    1  C7  UNL     1      20.974  -1.351 -10.493  1.00  0.00     0.087 C 
HETATM    2  C8  UNL     1      19.676  -1.085 -10.492  1.00  0.00     0.131 C 
HETATM    3  C9  UNL     1      18.650  -1.939 -11.067  1.00  0.00     0.111 C 
HETATM    4  N2  UNL     1      17.842  -2.619 -11.587  1.00  0.00    -0.191 NA
HETATM    5  C10 UNL     1      19.194   0.123  -9.878  1.00  0.00     0.111 C 
HETATM    6  N3  UNL     1      18.832   1.108  -9.422  1.00  0.00    -0.191 NA
ENDROOT
BRANCH   1   7
HETATM    7  S1  UNL     1      22.160  -0.319  -9.813  1.00  0.00    -0.064 SA
BRANCH   7   8
HETATM    8  C6  UNL     1      23.765  -0.100 -10.477  1.00  0.00     0.151 A 
HETATM    9  N1  UNL     1      24.921  -0.312  -9.815  1.00  0.00    -0.338 N 
HETATM   10  C5  UNL     1      26.149  -0.174 -10.350  1.00  0.00     0.045 A 
ATOM     11  H1  UNL     1      24.861  -0.598  -8.838  1.00  0.00     0.168 HD
HETATM   12  C12 UNL     1      26.264   0.221 -11.715  1.00  0.00     0.102 A 
HETATM   13  C11 UNL     1      25.104   0.433 -12.379  1.00  0.00     0.266 A 
HETATM   14 BR1  UNL     1      27.963   0.323 -12.578  1.00  0.00    -0.043 Br
HETATM   15  N4  UNL     1      23.904   0.284 -11.799  1.00  0.00    -0.302 N 
HETATM   16  O1  UNL     1      25.205   0.769 -13.592  1.00  0.00    -0.267 OA
ATOM     17  H4  UNL     1      23.064   0.460 -12.351  1.00  0.00     0.171 HD
BRANCH  10  18
HETATM   18  C3  UNL     1      27.432  -0.254  -9.654  1.00  0.00     0.122 C 
BRANCH  18  19
HETATM   19  C2  UNL     1      27.740  -1.616  -9.071  1.00  0.00     0.250 C 
HETATM   20  C1  UNL     1      27.401  -1.588  -7.565  1.00  0.00     0.091 C 
HETATM   21  F1  UNL     1      27.141  -2.610  -9.744  1.00  0.00    -0.206 F 
HETATM   22  F2  UNL     1      29.148  -1.728  -9.179  1.00  0.00    -0.206 F 
ENDBRANCH  18  19
BRANCH  18  23
HETATM   23  C4  UNL     1      27.429   0.689  -8.381  1.00  0.00     0.131 C 
HETATM   24 CL1  UNL     1      27.148   2.354  -8.858  1.00  0.00    -0.130 Cl
ENDBRANCH  18  23
ENDBRANCH  10  18
ENDBRANCH   7   8
ENDBRANCH   1   7
TORSDOF 5
ENDMDL
MODEL 2
REMARK VINA RESULT: -7.060659199      0.762      1.687
REMARK  5 active torsions:
REMARK  status: ('A' for Active; 'I' for Inactive)
REMARK    1  A    between atoms: C2_2  and  C3_5 
REMARK    2  A    between atoms: C3_5  and  C4_6 
REMARK    3  A    between atoms: C3_5  and  C5_8 
REMARK    4  A    between atoms: C6_11  and  S1_12 
REMARK    5  A    between atoms: S1_12  and  C7_13 
ROOT
HETATM    1  C7  UNL     1      21.209   0.477 -10.071  1.00  0.00     0.087 C 
HETATM    2  C8  UNL     1      19.902   0.277  -9.993  1.00  0.00     0.131 C 
HETATM    3  C9  UNL     1      18.935   1.261  -9.534  1.00  0.00     0.111 C 
HETATM    4  N2  UNL     1      18.177   2.053  -9.108  1.00  0.00    -0.191 NA
HETATM    5  C10 UNL     1      19.346  -0.987 -10.393  1.00  0.00     0.111 C 
HETATM    6  N3  UNL     1      18.925  -2.013 -10.675  1.00  0.00    -0.191 NA
ENDROOT
BRANCH   1   7
HETATM    7  S1  UNL     1      22.324  -0.707 -10.610  1.00  0.00    -0.064 SA
BRANCH   7   8
HETATM    8  C6  UNL     1      23.994  -0.369 -11.011  1.00  0.00     0.151 A 
HETATM    9  N1  UNL     1      25.046  -0.531 -10.182  1.00  0.00    -0.338 N 
HETATM   10  C5  UNL     1      26.330  -0.300 -10.516  1.00  0.00     0.045 A 
ATOM     11  H1  UNL     1      24.855  -0.850  -9.233  1.00  0.00     0.168 HD
HETATM   12  C12 UNL     1      26.627   0.144 -11.838  1.00  0.00     0.102 A 
HETATM   13  C11 UNL     1      25.573   0.305 -12.670  1.00  0.00     0.266 A 
HETATM   14 BR1  UNL     1      28.429   0.378 -12.423  1.00  0.00    -0.043 Br
HETATM   15  N4  UNL     1      24.309   0.064 -12.287  1.00  0.00    -0.302 N 
HETATM   16  O1  UNL     1      25.836   0.685 -13.844  1.00  0.00    -0.267 OA
ATOM     17  H4  UNL     1      23.555   0.205 -12.959  1.00  0.00     0.171 HD
BRANCH  10  18
HETATM   18  C3  UNL     1      27.493  -0.322  -9.631  1.00  0.00     0.122 C 
BRANCH  18  19
HETATM   19  C2  UNL     1      27.802  -1.683  -9.044  1.00  0.00     0.250 C 
HETATM   20  C1  UNL     1      27.395  -1.673  -7.554  1.00  0.00     0.091 C 
HETATM   21  F1  UNL     1      27.254  -2.683  -9.749  1.00  0.00    -0.206 F 
HETATM   22  F2  UNL     1      29.215  -1.766  -9.089  1.00  0.00    -0.206 F 
ENDBRANCH  18  19
BRANCH  18  23
HETATM   23  C4  UNL     1      27.228   0.570  -8.349  1.00  0.00     0.131 C 
HETATM   24 CL1  UNL     1      27.155   2.266  -8.793  1.00  0.00    -0.130 Cl
ENDBRANCH  18  23
ENDBRANCH  10  18
ENDBRANCH   7   8
ENDBRANCH   1   7
TORSDOF 5
ENDMDL
MODEL 3
REMARK VINA RESULT: -6.426722705      1.323      1.918
REMARK  5 active torsions:
REMARK  status: ('A' for Active; 'I' for Inactive)
REMARK    1  A    between atoms: C2_2  and  C3_5 
REMARK    2  A    between atoms: C3_5  and  C4_6 
REMARK    3  A    between atoms: C3_5  and  C5_8 
REMARK    4  A    between atoms: C6_11  and  S1_12 
REMARK    5  A    between atoms: S1_12  and  C7_13 
ROOT
HETATM    1  C7  UNL     1      21.548   0.252 -10.336  1.00  0.00     0.087 C 
HETATM    2  C8  UNL     1      20.408  -0.150 -10.877  1.00  0.00     0.131 C 
HETATM    3  C9  UNL     1      19.232   0.686 -11.062  1.00  0.00     0.111 C 
HETATM    4  N2  UNL     1      18.276   1.364 -11.151  1.00  0.00    -0.191 NA
HETATM    5  C10 UNL     1      20.276  -1.504 -11.345  1.00  0.00     0.111 C 
HETATM    6  N3  UNL     1      20.174  -2.595 -11.673  1.00  0.00    -0.191 NA
ENDROOT
BRANCH   1   7
HETATM    7  S1  UNL     1      22.914  -0.761 -10.126  1.00  0.00    -0.064 SA
BRANCH   7   8
HETATM    8  C6  UNL     1      24.529  -0.350 -10.660  1.00  0.00     0.151 A 
HETATM    9  N1  UNL     1      25.557  -0.009  -9.855  1.00  0.00    -0.338 N 
HETATM   10  C5  UNL     1      26.804   0.270 -10.278  1.00  0.00     0.045 A 
ATOM     11  H1  UNL     1      25.375   0.041  -8.853  1.00  0.00     0.168 HD
HETATM   12  C12 UNL     1      27.088   0.204 -11.674  1.00  0.00     0.102 A 
HETATM   13  C11 UNL     1      26.058  -0.139 -12.481  1.00  0.00     0.266 A 
HETATM   14 BR1  UNL     1      28.857   0.469 -12.339  1.00  0.00    -0.043 Br
HETATM   15  N4  UNL     1      24.830  -0.405 -12.010  1.00  0.00    -0.302 N 
HETATM   16  O1  UNL     1      26.312  -0.211 -13.716  1.00  0.00    -0.267 OA
ATOM     17  H4  UNL     1      24.093  -0.658 -12.669  1.00  0.00     0.171 HD
BRANCH  10  18
HETATM   18  C3  UNL     1      27.918   0.777  -9.478  1.00  0.00     0.122 C 
BRANCH  18  19
HETATM   19  C2  UNL     1      28.571  -0.263  -8.593  1.00  0.00     0.250 C 
HETATM   20  C1  UNL     1      27.933  -0.175  -7.189  1.00  0.00     0.091 C 
HETATM   21  F1  UNL     1      28.535  -1.491  -9.130  1.00  0.00    -0.206 F 
HETATM   22  F2  UNL     1      29.911   0.181  -8.470  1.00  0.00    -0.206 F 
ENDBRANCH  18  19
BRANCH  18  23
HETATM   23  C4  UNL     1      27.405   1.860  -8.443  1.00  0.00     0.131 C 
HETATM   24 CL1  UNL     1      26.836   3.288  -9.288  1.00  0.00    -0.130 Cl
ENDBRANCH  18  23
ENDBRANCH  10  18
ENDBRANCH   7   8
ENDBRANCH   1   7
TORSDOF 5
ENDMDL
MODEL 4
REMARK VINA RESULT: -6.283933751      1.142      1.222
REMARK  5 active torsions:
REMARK  status: ('A' for Active; 'I' for Inactive)
REMARK    1  A    between atoms: C2_2  and  C3_5 
REMARK    2  A    between atoms: C3_5  and  C4_6 
REMARK    3  A    between atoms: C3_5  and  C5_8 
REMARK    4  A    between atoms: C6_11  and  S1_12 
REMARK    5  A    between atoms: S1_12  and  C7_13 
ROOT
HETATM    1  C7  UNL     1      21.346  -1.061 -11.081  1.00  0.00     0.087 C 
HETATM    2  C8  UNL     1      20.067  -0.981 -10.746  1.00  0.00     0.131 C 
HETATM    3  C9  UNL     1      19.208  -2.118 -10.456  1.00  0.00     0.111 C 
HETATM    4  N2  UNL     1      18.519  -3.055 -10.280  1.00  0.00    -0.191 NA
HETATM    5  C10 UNL     1      19.435   0.306 -10.634  1.00  0.00     0.111 C 
HETATM    6  N3  UNL     1      18.938   1.336 -10.591  1.00  0.00    -0.191 NA
ENDROOT
BRANCH   1   7
HETATM    7  S1  UNL     1      22.329   0.300 -11.423  1.00  0.00    -0.064 SA
BRANCH   7   8
HETATM    8  C6  UNL     1      24.078   0.258 -11.468  1.00  0.00     0.151 A 
HETATM    9  N1  UNL     1      24.885   0.115 -10.396  1.00  0.00    -0.338 N 
HETATM   10  C5  UNL     1      26.229   0.049 -10.449  1.00  0.00     0.045 A 
ATOM     11  H1  UNL     1      24.445   0.054  -9.478  1.00  0.00     0.168 HD
HETATM   12  C12 UNL     1      26.871   0.128 -11.720  1.00  0.00     0.102 A 
HETATM   13  C11 UNL     1      26.062   0.269 -12.795  1.00  0.00     0.266 A 
HETATM   14 BR1  UNL     1      28.761  -0.078 -11.889  1.00  0.00    -0.043 Br
HETATM   15  N4  UNL     1      24.726   0.334 -12.688  1.00  0.00    -0.302 N 
HETATM   16  O1  UNL     1      26.629   0.326 -13.921  1.00  0.00    -0.267 OA
ATOM     17  H4  UNL     1      24.169   0.442 -13.536  1.00  0.00     0.171 HD
BRANCH  10  18
HETATM   18  C3  UNL     1      27.160   0.035  -9.323  1.00  0.00     0.122 C 
BRANCH  18  19
HETATM   19  C2  UNL     1      26.977  -1.134  -8.379  1.00  0.00     0.250 C 
HETATM   20  C1  UNL     1      28.144  -1.131  -7.368  1.00  0.00     0.091 C 
HETATM   21  F1  UNL     1      25.764  -1.148  -7.807  1.00  0.00    -0.206 F 
HETATM   22  F2  UNL     1      27.144  -2.274  -9.205  1.00  0.00    -0.206 F 
ENDBRANCH  18  19
BRANCH  18  23
HETATM   23  C4  UNL     1      26.917   1.291  -8.390  1.00  0.00     0.131 C 
HETATM   24 CL1  UNL     1      27.013   2.772  -9.326  1.00  0.00    -0.130 Cl
ENDBRANCH  18  23
ENDBRANCH  10  18
ENDBRANCH   7   8
ENDBRANCH   1   7
TORSDOF 5
ENDMDL
MODEL 5
REMARK VINA RESULT: -5.635126504      3.053      3.939
REMARK  5 active torsions:
REMARK  status: ('A' for Active; 'I' for Inactive)
REMARK    1  A    between atoms: C2_2  and  C3_5 
REMARK    2  A    between atoms: C3_5  and  C4_6 
REMARK    3  A    between atoms: C3_5  and  C5_8 
REMARK    4  A    between atoms: C6_11  and  S1_12 
REMARK    5  A    between atoms: S1_12  and  C7_13 
ROOT
HETATM    1  C7  UNL     1      21.743  -0.151 -10.103  1.00  0.00     0.087 C 
HETATM    2  C8  UNL     1      20.659  -0.401 -10.822  1.00  0.00     0.131 C 
HETATM    3  C9  UNL     1      19.559   0.530 -11.020  1.00  0.00     0.111 C 
HETATM    4  N2  UNL     1      18.656   1.277 -11.122  1.00  0.00    -0.191 NA
HETATM    5  C10 UNL     1      20.517  -1.667 -11.488  1.00  0.00     0.111 C 
HETATM    6  N3  UNL     1      20.401  -2.696 -11.975  1.00  0.00    -0.191 NA
ENDROOT
BRANCH   1   7
HETATM    7  S1  UNL     1      23.020  -1.273  -9.883  1.00  0.00    -0.064 SA
BRANCH   7   8
HETATM    8  C6  UNL     1      24.683  -0.817  -9.586  1.00  0.00     0.151 A 
HETATM    9  N1  UNL     1      25.254   0.348  -9.958  1.00  0.00    -0.338 N 
HETATM   10  C5  UNL     1      26.526   0.700  -9.692  1.00  0.00     0.045 A 
ATOM     11  H1  UNL     1      24.680   1.009 -10.481  1.00  0.00     0.168 HD
HETATM   12  C12 UNL     1      27.350  -0.204  -8.959  1.00  0.00     0.102 A 
HETATM   13  C11 UNL     1      26.778  -1.371  -8.585  1.00  0.00     0.266 A 
HETATM   14 BR1  UNL     1      29.124   0.271  -8.440  1.00  0.00    -0.043 Br
HETATM   15  N4  UNL     1      25.505  -1.677  -8.878  1.00  0.00    -0.302 N 
HETATM   16  O1  UNL     1      27.503  -2.166  -7.925  1.00  0.00    -0.267 OA
ATOM     17  H4  UNL     1      25.129  -2.574  -8.569  1.00  0.00     0.171 HD
BRANCH  10  18
HETATM   18  C3  UNL     1      27.241   1.877 -10.183  1.00  0.00     0.122 C 
BRANCH  18  19
HETATM   19  C2  UNL     1      26.791   3.181  -9.561  1.00  0.00     0.250 C 
HETATM   20  C1  UNL     1      25.788   3.857 -10.521  1.00  0.00     0.091 C 
HETATM   21  F1  UNL     1      26.325   3.022  -8.313  1.00  0.00    -0.206 F 
HETATM   22  F2  UNL     1      27.961   3.980  -9.551  1.00  0.00    -0.206 F 
ENDBRANCH  18  19
BRANCH  18  23
HETATM   23  C4  UNL     1      26.950   2.095 -11.724  1.00  0.00     0.131 C 
HETATM   24 CL1  UNL     1      27.442   0.682 -12.641  1.00  0.00    -0.130 Cl
ENDBRANCH  18  23
ENDBRANCH  10  18
ENDBRANCH   7   8
ENDBRANCH   1   7
TORSDOF 5
ENDMDL
