MODEL 1
REMARK VINA RESULT: -9.854042973      0.000      0.000
REMARK  9 active torsions:
REMARK  status: ('A' for Active; 'I' for Inactive)
REMARK    1  A    between atoms: C2_2  and  C3_5 
REMARK    2  A    between atoms: C3_5  and  C4_6 
REMARK    3  A    between atoms: C4_6  and  O1_7 
REMARK    4  A    between atoms: C4_6  and  C18_26 
REMARK    5  A    between atoms: O1_7  and  C5_8 
REMARK    6  A    between atoms: C5_8  and  C6_10 
REMARK    7  A    between atoms: C6_10  and  O4_12 
REMARK    8  A    between atoms: O4_12  and  C7_13 
REMARK    9  A    between atoms: C10_16  and  O5_17 
ROOT
HETATM    1  C6  UNL     1      23.006  -0.637 -10.258  1.00  0.00     0.359 C 
HETATM    2  O3  UNL     1      22.651   0.057  -9.280  1.00  0.00    -0.253 OA
ENDROOT
BRANCH   1   3
HETATM    3  C5  UNL     1      22.089  -1.640 -10.769  1.00  0.00     0.359 C 
HETATM    4  O2  UNL     1      22.378  -2.207 -11.871  1.00  0.00    -0.253 OA
BRANCH   3   5
HETATM    5  O1  UNL     1      20.932  -2.022 -10.154  1.00  0.00    -0.299 OA
BRANCH   5   6
HETATM    6  C4  UNL     1      19.660  -1.395 -10.450  1.00  0.00     0.245 C 
BRANCH   6   7
HETATM    7  C3  UNL     1      19.833  -0.230 -11.326  1.00  0.00     0.120 C 
BRANCH   7   8
HETATM    8  C2  UNL     1      19.439   1.116 -10.887  1.00  0.00     0.242 C 
HETATM    9  C1  UNL     1      18.795   1.188  -9.531  1.00  0.00     0.090 C 
HETATM   10  F1  UNL     1      20.618   1.916 -10.727  1.00  0.00    -0.207 F 
HETATM   11  F2  UNL     1      18.698   1.851 -11.775  1.00  0.00    -0.207 F 
ENDBRANCH   7   8
ENDBRANCH   6   7
BRANCH   6  12
HETATM   12  C18 UNL     1      18.845  -2.509 -11.047  1.00  0.00     0.414 C 
HETATM   13  F3  UNL     1      19.534  -3.221 -12.029  1.00  0.00    -0.168 F 
HETATM   14  F4  UNL     1      18.771  -3.476  -9.989  1.00  0.00    -0.168 F 
HETATM   15  F5  UNL     1      17.574  -2.192 -11.372  1.00  0.00    -0.168 F 
ENDBRANCH   6  12
ENDBRANCH   5   6
ENDBRANCH   3   5
ENDBRANCH   1   3
BRANCH   1  16
HETATM   16  O4  UNL     1      24.254  -0.409 -10.799  1.00  0.00    -0.308 OA
BRANCH  16  17
HETATM   17  C7  UNL     1      25.370   0.018 -10.000  1.00  0.00     0.136 C 
HETATM   18  C8  UNL     1      25.970  -1.177  -9.345  1.00  0.00     0.036 C 
HETATM   19  C9  UNL     1      26.492  -0.880  -7.950  1.00  0.00     0.040 C 
HETATM   20  C10 UNL     1      27.781  -0.155  -7.926  1.00  0.00     0.059 C 
HETATM   21  C11 UNL     1      28.705  -0.425  -9.057  1.00  0.00     0.043 C 
HETATM   22  C17 UNL     1      27.629   1.347  -7.933  1.00  0.00     0.043 C 
HETATM   23  C12 UNL     1      28.533   0.658 -10.071  1.00  0.00    -0.007 C 
HETATM   24  C13 UNL     1      27.579   0.314 -11.180  1.00  0.00     0.012 C 
HETATM   25  C16 UNL     1      27.896   1.812  -9.327  1.00  0.00    -0.007 C 
HETATM   26  C14 UNL     1      26.268   0.862 -10.797  1.00  0.00     0.016 C 
HETATM   27  C15 UNL     1      26.640   2.154 -10.065  1.00  0.00     0.012 C 
BRANCH  20  28
HETATM   28  O5  UNL     1      28.427  -0.473  -6.708  1.00  0.00    -0.390 OA
ATOM     29  H5  UNL     1      29.364  -0.449  -6.865  1.00  0.00     0.210 HD
ENDBRANCH  20  28
ENDBRANCH  16  17
ENDBRANCH   1  16
TORSDOF 9
ENDMDL
MODEL 2
REMARK VINA RESULT: -9.438483830      1.020      1.690
REMARK  9 active torsions:
REMARK  status: ('A' for Active; 'I' for Inactive)
REMARK    1  A    between atoms: C2_2  and  C3_5 
REMARK    2  A    between atoms: C3_5  and  C4_6 
REMARK    3  A    between atoms: C4_6  and  O1_7 
REMARK    4  A    between atoms: C4_6  and  C18_26 
REMARK    5  A    between atoms: O1_7  and  C5_8 
REMARK    6  A    between atoms: C5_8  and  C6_10 
REMARK    7  A    between atoms: C6_10  and  O4_12 
REMARK    8  A    between atoms: O4_12  and  C7_13 
REMARK    9  A    between atoms: C10_16  and  O5_17 
ROOT
HETATM    1  C6  UNL     1      23.952  -0.128 -11.188  1.00  0.00     0.359 C 
HETATM    2  O3  UNL     1      23.841  -0.499 -12.377  1.00  0.00    -0.253 OA
ENDROOT
BRANCH   1   3
HETATM    3  C5  UNL     1      22.935  -0.535 -10.234  1.00  0.00     0.359 C 
HETATM    4  O2  UNL     1      22.991  -0.051  -9.059  1.00  0.00    -0.253 OA
BRANCH   3   5
HETATM    5  O1  UNL     1      21.919  -1.405 -10.505  1.00  0.00    -0.299 OA
BRANCH   5   6
HETATM    6  C4  UNL     1      20.527  -1.004 -10.446  1.00  0.00     0.245 C 
BRANCH   6   7
HETATM    7  C3  UNL     1      20.288   0.203 -11.248  1.00  0.00     0.120 C 
BRANCH   7   8
HETATM    8  C2  UNL     1      19.404   1.272 -10.765  1.00  0.00     0.242 C 
HETATM    9  C1  UNL     1      18.760   1.022  -9.430  1.00  0.00     0.090 C 
HETATM   10  F1  UNL     1      20.186   2.451 -10.531  1.00  0.00    -0.207 F 
HETATM   11  F2  UNL     1      18.451   1.715 -11.646  1.00  0.00    -0.207 F 
ENDBRANCH   7   8
ENDBRANCH   6   7
BRANCH   6  12
HETATM   12  C18 UNL     1      19.786  -2.224 -10.919  1.00  0.00     0.414 C 
HETATM   13  F3  UNL     1      19.451  -3.093  -9.881  1.00  0.00    -0.168 F 
HETATM   14  F4  UNL     1      18.498  -1.711 -11.291  1.00  0.00    -0.168 F 
HETATM   15  F5  UNL     1      20.294  -2.827 -12.014  1.00  0.00    -0.168 F 
ENDBRANCH   6  12
ENDBRANCH   5   6
ENDBRANCH   3   5
ENDBRANCH   1   3
BRANCH   1  16
HETATM   16  O4  UNL     1      25.038   0.652 -10.849  1.00  0.00    -0.308 OA
BRANCH  16  17
HETATM   17  C7  UNL     1      25.949   0.282  -9.801  1.00  0.00     0.136 C 
HETATM   18  C8  UNL     1      26.345  -1.140  -9.994  1.00  0.00     0.036 C 
HETATM   19  C9  UNL     1      26.537  -1.878  -8.681  1.00  0.00     0.040 C 
HETATM   20  C10 UNL     1      27.806  -1.565  -7.989  1.00  0.00     0.059 C 
HETATM   21  C11 UNL     1      28.959  -1.221  -8.859  1.00  0.00     0.043 C 
HETATM   22  C17 UNL     1      27.704  -0.393  -7.043  1.00  0.00     0.043 C 
HETATM   23  C12 UNL     1      29.060   0.266  -8.938  1.00  0.00    -0.007 C 
HETATM   24  C13 UNL     1      28.380   0.864 -10.138  1.00  0.00     0.012 C 
HETATM   25  C16 UNL     1      28.301   0.788  -7.736  1.00  0.00    -0.007 C 
HETATM   26  C14 UNL     1      27.032   1.268  -9.704  1.00  0.00     0.016 C 
HETATM   27  C15 UNL     1      27.262   1.728  -8.262  1.00  0.00     0.012 C 
BRANCH  20  28
HETATM   28  O5  UNL     1      28.142  -2.682  -7.187  1.00  0.00    -0.390 OA
ATOM     29  H5  UNL     1      29.084  -2.672  -7.063  1.00  0.00     0.210 HD
ENDBRANCH  20  28
ENDBRANCH  16  17
ENDBRANCH   1  16
TORSDOF 9
ENDMDL
MODEL 3
REMARK VINA RESULT: -9.406102501      1.150      2.818
REMARK  9 active torsions:
REMARK  status: ('A' for Active; 'I' for Inactive)
REMARK    1  A    between atoms: C2_2  and  C3_5 
REMARK    2  A    between atoms: C3_5  and  C4_6 
REMARK    3  A    between atoms: C4_6  and  O1_7 
REMARK    4  A    between atoms: C4_6  and  C18_26 
REMARK    5  A    between atoms: O1_7  and  C5_8 
REMARK    6  A    between atoms: C5_8  and  C6_10 
REMARK    7  A    between atoms: C6_10  and  O4_12 
REMARK    8  A    between atoms: O4_12  and  C7_13 
REMARK    9  A    between atoms: C10_16  and  O5_17 
ROOT
HETATM    1  C6  UNL     1      23.711  -0.142 -11.230  1.00  0.00     0.359 C 
HETATM    2  O3  UNL     1      23.731  -0.661 -12.367  1.00  0.00    -0.253 OA
ENDROOT
BRANCH   1   3
HETATM    3  C5  UNL     1      22.624  -0.481 -10.328  1.00  0.00     0.359 C 
HETATM    4  O2  UNL     1      22.703  -1.575  -9.683  1.00  0.00    -0.253 OA
BRANCH   3   5
HETATM    5  O1  UNL     1      21.517   0.289 -10.121  1.00  0.00    -0.299 OA
BRANCH   5   6
HETATM    6  C4  UNL     1      20.232  -0.037 -10.706  1.00  0.00     0.245 C 
BRANCH   6   7
HETATM    7  C3  UNL     1      19.568  -1.116  -9.963  1.00  0.00     0.120 C 
BRANCH   7   8
HETATM    8  C2  UNL     1      19.230  -2.389 -10.613  1.00  0.00     0.242 C 
HETATM    9  C1  UNL     1      17.995  -2.368 -11.469  1.00  0.00     0.090 C 
HETATM   10  F1  UNL     1      20.264  -2.723 -11.549  1.00  0.00    -0.207 F 
HETATM   11  F2  UNL     1      19.194  -3.494  -9.802  1.00  0.00    -0.207 F 
ENDBRANCH   7   8
ENDBRANCH   6   7
BRANCH   6  12
HETATM   12  C18 UNL     1      19.494   1.273 -10.696  1.00  0.00     0.414 C 
HETATM   13  F3  UNL     1      18.617   1.411 -11.773  1.00  0.00    -0.168 F 
HETATM   14  F4  UNL     1      18.580   1.136  -9.598  1.00  0.00    -0.168 F 
HETATM   15  F5  UNL     1      20.246   2.364 -10.441  1.00  0.00    -0.168 F 
ENDBRANCH   6  12
ENDBRANCH   5   6
ENDBRANCH   3   5
ENDBRANCH   1   3
BRANCH   1  16
HETATM   16  O4  UNL     1      24.727   0.728 -10.894  1.00  0.00    -0.308 OA
BRANCH  16  17
HETATM   17  C7  UNL     1      25.689   0.426  -9.870  1.00  0.00     0.136 C 
HETATM   18  C8  UNL     1      26.005  -1.028  -9.929  1.00  0.00     0.036 C 
HETATM   19  C9  UNL     1      26.250  -1.630  -8.556  1.00  0.00     0.040 C 
HETATM   20  C10 UNL     1      27.577  -1.313  -7.983  1.00  0.00     0.059 C 
HETATM   21  C11 UNL     1      28.683  -1.127  -8.956  1.00  0.00     0.043 C 
HETATM   22  C17 UNL     1      27.593  -0.042  -7.169  1.00  0.00     0.043 C 
HETATM   23  C12 UNL     1      28.847   0.336  -9.205  1.00  0.00    -0.007 C 
HETATM   24  C13 UNL     1      28.116   0.837 -10.420  1.00  0.00     0.012 C 
HETATM   25  C16 UNL     1      28.197   1.024  -8.024  1.00  0.00    -0.007 C 
HETATM   26  C14 UNL     1      26.821   1.356  -9.950  1.00  0.00     0.016 C 
HETATM   27  C15 UNL     1      27.169   1.956  -8.586  1.00  0.00     0.012 C 
BRANCH  20  28
HETATM   28  O5  UNL     1      27.913  -2.353  -7.085  1.00  0.00    -0.390 OA
ATOM     29  H5  UNL     1      27.689  -3.176  -7.502  1.00  0.00     0.210 HD
ENDBRANCH  20  28
ENDBRANCH  16  17
ENDBRANCH   1  16
TORSDOF 9
ENDMDL
MODEL 4
REMARK VINA RESULT: -9.097054455      1.392      2.545
REMARK  9 active torsions:
REMARK  status: ('A' for Active; 'I' for Inactive)
REMARK    1  A    between atoms: C2_2  and  C3_5 
REMARK    2  A    between atoms: C3_5  and  C4_6 
REMARK    3  A    between atoms: C4_6  and  O1_7 
REMARK    4  A    between atoms: C4_6  and  C18_26 
REMARK    5  A    between atoms: O1_7  and  C5_8 
REMARK    6  A    between atoms: C5_8  and  C6_10 
REMARK    7  A    between atoms: C6_10  and  O4_12 
REMARK    8  A    between atoms: O4_12  and  C7_13 
REMARK    9  A    between atoms: C10_16  and  O5_17 
ROOT
HETATM    1  C6  UNL     1      22.743  -1.029  -9.883  1.00  0.00     0.359 C 
HETATM    2  O3  UNL     1      22.422   0.082  -9.406  1.00  0.00    -0.253 OA
ENDROOT
BRANCH   1   3
HETATM    3  C5  UNL     1      21.732  -1.809 -10.575  1.00  0.00     0.359 C 
HETATM    4  O2  UNL     1      22.009  -2.245 -11.738  1.00  0.00    -0.253 OA
BRANCH   3   5
HETATM    5  O1  UNL     1      20.501  -2.109 -10.071  1.00  0.00    -0.299 OA
BRANCH   5   6
HETATM    6  C4  UNL     1      19.314  -1.365 -10.443  1.00  0.00     0.245 C 
BRANCH   6   7
HETATM    7  C3  UNL     1      19.652  -0.219 -11.297  1.00  0.00     0.120 C 
BRANCH   7   8
HETATM    8  C2  UNL     1      19.341   1.156 -10.881  1.00  0.00     0.242 C 
HETATM    9  C1  UNL     1      18.756   1.295  -9.504  1.00  0.00     0.090 C 
HETATM   10  F1  UNL     1      20.563   1.901 -10.790  1.00  0.00    -0.207 F 
HETATM   11  F2  UNL     1      18.600   1.902 -11.761  1.00  0.00    -0.207 F 
ENDBRANCH   7   8
ENDBRANCH   6   7
BRANCH   6  12
HETATM   12  C18 UNL     1      18.439  -2.396 -11.100  1.00  0.00     0.414 C 
HETATM   13  F3  UNL     1      19.164  -3.456 -11.645  1.00  0.00    -0.168 F 
HETATM   14  F4  UNL     1      17.783  -3.035  -9.995  1.00  0.00    -0.168 F 
HETATM   15  F5  UNL     1      17.467  -1.910 -11.900  1.00  0.00    -0.168 F 
ENDBRANCH   6  12
ENDBRANCH   5   6
ENDBRANCH   3   5
ENDBRANCH   1   3
BRANCH   1  16
HETATM   16  O4  UNL     1      24.046  -1.453  -9.723  1.00  0.00    -0.308 OA
BRANCH  16  17
HETATM   17  C7  UNL     1      25.143  -0.841 -10.420  1.00  0.00     0.136 C 
HETATM   18  C8  UNL     1      24.595   0.086 -11.449  1.00  0.00     0.036 C 
HETATM   19  C9  UNL     1      25.434   0.119 -12.714  1.00  0.00     0.040 C 
HETATM   20  C10 UNL     1      26.680   0.906 -12.595  1.00  0.00     0.059 C 
HETATM   21  C11 UNL     1      26.639   2.062 -11.664  1.00  0.00     0.043 C 
HETATM   22  C17 UNL     1      27.861   0.097 -12.115  1.00  0.00     0.043 C 
HETATM   23  C12 UNL     1      27.218   1.632 -10.357  1.00  0.00    -0.007 C 
HETATM   24  C13 UNL     1      26.195   1.186  -9.349  1.00  0.00     0.012 C 
HETATM   25  C16 UNL     1      28.048   0.405 -10.666  1.00  0.00    -0.007 C 
HETATM   26  C14 UNL     1      26.100  -0.278  -9.461  1.00  0.00     0.016 C 
HETATM   27  C15 UNL     1      27.540  -0.689  -9.779  1.00  0.00     0.012 C 
BRANCH  20  28
HETATM   28  O5  UNL     1      27.023   1.361 -13.891  1.00  0.00    -0.390 OA
ATOM     29  H5  UNL     1      26.293   1.873 -14.217  1.00  0.00     0.210 HD
ENDBRANCH  20  28
ENDBRANCH  16  17
ENDBRANCH   1  16
TORSDOF 9
ENDMDL
MODEL 5
REMARK VINA RESULT: -9.013209128      2.274      3.499
REMARK  9 active torsions:
REMARK  status: ('A' for Active; 'I' for Inactive)
REMARK    1  A    between atoms: C2_2  and  C3_5 
REMARK    2  A    between atoms: C3_5  and  C4_6 
REMARK    3  A    between atoms: C4_6  and  O1_7 
REMARK    4  A    between atoms: C4_6  and  C18_26 
REMARK    5  A    between atoms: O1_7  and  C5_8 
REMARK    6  A    between atoms: C5_8  and  C6_10 
REMARK    7  A    between atoms: C6_10  and  O4_12 
REMARK    8  A    between atoms: O4_12  and  C7_13 
REMARK    9  A    between atoms: C10_16  and  O5_17 
ROOT
HETATM    1  C6  UNL     1      26.316   0.380 -12.936  1.00  0.00     0.359 C 
HETATM    2  O3  UNL     1      26.495   0.731 -14.123  1.00  0.00    -0.253 OA
ENDROOT
BRANCH   1   3
HETATM    3  C5  UNL     1      25.030   0.650 -12.316  1.00  0.00     0.359 C 
HETATM    4  O2  UNL     1      24.792   1.838 -11.930  1.00  0.00    -0.253 OA
BRANCH   3   5
HETATM    5  O1  UNL     1      24.054  -0.281 -12.115  1.00  0.00    -0.299 OA
BRANCH   5   6
HETATM    6  C4  UNL     1      23.058  -0.139 -11.072  1.00  0.00     0.245 C 
BRANCH   6   7
HETATM    7  C3  UNL     1      21.739  -0.591 -11.531  1.00  0.00     0.120 C 
BRANCH   7   8
HETATM    8  C2  UNL     1      20.505  -0.049 -10.947  1.00  0.00     0.242 C 
HETATM    9  C1  UNL     1      19.454  -1.067 -10.603  1.00  0.00     0.090 C 
HETATM   10  F1  UNL     1      20.812   0.539  -9.675  1.00  0.00    -0.207 F 
HETATM   11  F2  UNL     1      19.918   0.990 -11.622  1.00  0.00    -0.207 F 
ENDBRANCH   7   8
ENDBRANCH   6   7
BRANCH   6  12
HETATM   12  C18 UNL     1      23.626  -0.935  -9.929  1.00  0.00     0.414 C 
HETATM   13  F3  UNL     1      23.533  -0.271  -8.705  1.00  0.00    -0.168 F 
HETATM   14  F4  UNL     1      22.675  -1.996  -9.752  1.00  0.00    -0.168 F 
HETATM   15  F5  UNL     1      24.820  -1.519 -10.161  1.00  0.00    -0.168 F 
ENDBRANCH   6  12
ENDBRANCH   5   6
ENDBRANCH   3   5
ENDBRANCH   1   3
BRANCH   1  16
HETATM   16  O4  UNL     1      27.355  -0.246 -12.280  1.00  0.00    -0.308 OA
BRANCH  16  17
HETATM   17  C7  UNL     1      27.354  -0.445 -10.856  1.00  0.00     0.136 C 
HETATM   18  C8  UNL     1      28.209  -1.622 -10.540  1.00  0.00     0.036 C 
HETATM   19  C9  UNL     1      27.677  -2.436  -9.373  1.00  0.00     0.040 C 
HETATM   20  C10 UNL     1      27.930  -1.832  -8.047  1.00  0.00     0.059 C 
HETATM   21  C11 UNL     1      29.165  -1.017  -7.923  1.00  0.00     0.043 C 
HETATM   22  C17 UNL     1      26.834  -0.899  -7.591  1.00  0.00     0.043 C 
HETATM   23  C12 UNL     1      28.799   0.419  -8.102  1.00  0.00    -0.007 C 
HETATM   24  C13 UNL     1      28.980   0.929  -9.505  1.00  0.00     0.012 C 
HETATM   25  C16 UNL     1      27.312   0.496  -7.829  1.00  0.00    -0.007 C 
HETATM   26  C14 UNL     1      27.673   0.812 -10.171  1.00  0.00     0.016 C 
HETATM   27  C15 UNL     1      26.687   1.115  -9.040  1.00  0.00     0.012 C 
BRANCH  20  28
HETATM   28  O5  UNL     1      27.965  -2.881  -7.099  1.00  0.00    -0.390 OA
ATOM     29  H5  UNL     1      27.066  -3.103  -6.883  1.00  0.00     0.210 HD
ENDBRANCH  20  28
ENDBRANCH  16  17
ENDBRANCH   1  16
TORSDOF 9
ENDMDL
