MODEL 1
REMARK VINA RESULT: -3.591120452      0.000      0.000
REMARK  6 active torsions:
REMARK  status: ('A' for Active; 'I' for Inactive)
REMARK    1  A    between atoms: C2_2  and  C4_4 
REMARK    2  A    between atoms: C4_4  and  C5_5 
REMARK       I    between atoms: C5_5  and  N1_7 
REMARK    3  A    between atoms: N1_7  and  C6_9 
REMARK    4  A    between atoms: C7_10  and  C8_11 
REMARK    5  A    between atoms: N4_21  and  C14_22 
REMARK    6  A    between atoms: C14_22  and  C15_23 
ROOT
HETATM    1  C6  UNL     1      25.433  -0.276 -10.471  1.00  0.00     0.138 A 
HETATM    2  C7  UNL     1      25.871   0.377 -11.670  1.00  0.00     0.075 A 
HETATM    3  N2  UNL     1      24.832   0.499 -12.503  1.00  0.00    -0.321 N 
ATOM      4  H2  UNL     1      24.850   0.926 -13.429  1.00  0.00     0.169 HD
HETATM    5  C10 UNL     1      23.774  -0.032 -11.910  1.00  0.00     0.228 A 
HETATM    6  N3  UNL     1      24.148  -0.493 -10.696  1.00  0.00    -0.288 N 
HETATM    7  C11 UNL     1      23.362  -1.165  -9.714  1.00  0.00     0.129 C 
HETATM    8  C12 UNL     1      22.661  -0.214  -8.790  1.00  0.00     0.038 C 
HETATM    9  C13 UNL     1      22.368  -2.140 -10.309  1.00  0.00     0.088 C 
HETATM   10  N4  UNL     1      21.093  -1.689 -10.617  1.00  0.00    -0.362 N 
HETATM   11  C16 UNL     1      20.786  -1.434 -11.968  1.00  0.00     0.154 C 
HETATM   12  C17 UNL     1      21.246  -0.002 -12.267  1.00  0.00     0.199 C 
HETATM   13  O2  UNL     1      22.609   0.009 -12.629  1.00  0.00    -0.320 OA
ENDROOT
BRANCH   1  14
HETATM   14  N1  UNL     1      26.311  -0.531  -9.433  1.00  0.00    -0.311 N 
HETATM   15  C5  UNL     1      27.270  -1.404  -9.002  1.00  0.00     0.223 C 
HETATM   16  O1  UNL     1      27.748  -2.454  -9.438  1.00  0.00    -0.273 OA
ATOM     17  H1  UNL     1      26.204   0.202  -8.733  1.00  0.00     0.170 HD
BRANCH  15  18
HETATM   18  C4  UNL     1      27.954  -1.044  -7.647  1.00  0.00     0.107 C 
BRANCH  18  19
HETATM   19  C2  UNL     1      28.629   0.265  -7.722  1.00  0.00    -0.014 C 
HETATM   20  C1  UNL     1      29.443   0.310  -8.996  1.00  0.00     0.010 C 
HETATM   21  C3  UNL     1      27.608   1.384  -7.801  1.00  0.00     0.010 C 
ENDBRANCH  18  19
ENDBRANCH  15  18
ENDBRANCH   1  14
BRANCH   2  22
HETATM   22  C8  UNL     1      27.234   0.842 -11.979  1.00  0.00     0.132 C 
HETATM   23  C9  UNL     1      27.519   2.198 -11.356  1.00  0.00     0.033 C 
HETATM   24 CL1  UNL     1      27.475   0.933 -13.762  1.00  0.00    -0.119 Cl
ENDBRANCH   2  22
BRANCH  10  25
HETATM   25  C14 UNL     1      20.065  -1.870  -9.681  1.00  0.00     0.179 C 
BRANCH  25  26
HETATM   26  C15 UNL     1      19.006  -0.839  -9.541  1.00  0.00     0.422 C 
HETATM   27  F1  UNL     1      19.688   0.398  -9.380  1.00  0.00    -0.166 F 
HETATM   28  F2  UNL     1      18.171  -0.677 -10.606  1.00  0.00    -0.166 F 
HETATM   29  F3  UNL     1      18.321  -0.927  -8.316  1.00  0.00    -0.166 F 
ENDBRANCH  25  26
ENDBRANCH  10  25
TORSDOF 6
ENDMDL
MODEL 2
REMARK VINA RESULT: -3.525874933      1.275      1.671
REMARK  6 active torsions:
REMARK  status: ('A' for Active; 'I' for Inactive)
REMARK    1  A    between atoms: C2_2  and  C4_4 
REMARK    2  A    between atoms: C4_4  and  C5_5 
REMARK       I    between atoms: C5_5  and  N1_7 
REMARK    3  A    between atoms: N1_7  and  C6_9 
REMARK    4  A    between atoms: C7_10  and  C8_11 
REMARK    5  A    between atoms: N4_21  and  C14_22 
REMARK    6  A    between atoms: C14_22  and  C15_23 
ROOT
HETATM    1  C6  UNL     1      25.486  -0.025 -10.771  1.00  0.00     0.138 A 
HETATM    2  C7  UNL     1      25.811   0.567 -12.036  1.00  0.00     0.075 A 
HETATM    3  N2  UNL     1      24.713   0.591 -12.800  1.00  0.00    -0.321 N 
ATOM      4  H2  UNL     1      24.649   0.957 -13.749  1.00  0.00     0.169 HD
HETATM    5  C10 UNL     1      23.725   0.054 -12.102  1.00  0.00     0.228 A 
HETATM    6  N3  UNL     1      24.200  -0.311 -10.891  1.00  0.00    -0.288 N 
HETATM    7  C11 UNL     1      23.516  -0.951  -9.817  1.00  0.00     0.129 C 
HETATM    8  C12 UNL     1      22.835   0.026  -8.906  1.00  0.00     0.038 C 
HETATM    9  C13 UNL     1      22.531  -2.005 -10.279  1.00  0.00     0.088 C 
HETATM   10  N4  UNL     1      21.218  -1.630 -10.524  1.00  0.00    -0.362 N 
HETATM   11  C16 UNL     1      20.809  -1.476 -11.863  1.00  0.00     0.154 C 
HETATM   12  C17 UNL     1      21.179  -0.048 -12.282  1.00  0.00     0.199 C 
HETATM   13  O2  UNL     1      22.513  -0.002 -12.739  1.00  0.00    -0.320 OA
ENDROOT
BRANCH   1  14
HETATM   14  N1  UNL     1      26.444  -0.174  -9.784  1.00  0.00    -0.311 N 
HETATM   15  C5  UNL     1      27.187   0.516  -8.867  1.00  0.00     0.223 C 
HETATM   16  O1  UNL     1      27.307   1.705  -8.565  1.00  0.00    -0.273 OA
ATOM     17  H1  UNL     1      26.683  -1.163  -9.715  1.00  0.00     0.170 HD
BRANCH  15  18
HETATM   18  C4  UNL     1      28.120  -0.349  -7.965  1.00  0.00     0.107 C 
BRANCH  18  19
HETATM   19  C2  UNL     1      28.084  -1.768  -8.364  1.00  0.00    -0.014 C 
HETATM   20  C1  UNL     1      29.358  -2.087  -9.112  1.00  0.00     0.010 C 
HETATM   21  C3  UNL     1      28.046  -2.661  -7.139  1.00  0.00     0.010 C 
ENDBRANCH  18  19
ENDBRANCH  15  18
ENDBRANCH   1  14
BRANCH   2  22
HETATM   22  C8  UNL     1      27.127   1.070 -12.468  1.00  0.00     0.132 C 
HETATM   23  C9  UNL     1      27.172   1.306 -13.968  1.00  0.00     0.033 C 
HETATM   24 CL1  UNL     1      28.424  -0.087 -11.999  1.00  0.00    -0.119 Cl
ENDBRANCH   2  22
BRANCH  10  25
HETATM   25  C14 UNL     1      20.265  -1.794  -9.509  1.00  0.00     0.179 C 
BRANCH  25  26
HETATM   26  C15 UNL     1      18.924  -1.174  -9.650  1.00  0.00     0.422 C 
HETATM   27  F1  UNL     1      18.430  -1.012  -8.327  1.00  0.00    -0.166 F 
HETATM   28  F2  UNL     1      18.882   0.060 -10.226  1.00  0.00    -0.166 F 
HETATM   29  F3  UNL     1      17.971  -2.061 -10.183  1.00  0.00    -0.166 F 
ENDBRANCH  25  26
ENDBRANCH  10  25
TORSDOF 6
ENDMDL
MODEL 3
REMARK VINA RESULT: -0.291593990      2.198      3.462
REMARK  6 active torsions:
REMARK  status: ('A' for Active; 'I' for Inactive)
REMARK    1  A    between atoms: C2_2  and  C4_4 
REMARK    2  A    between atoms: C4_4  and  C5_5 
REMARK       I    between atoms: C5_5  and  N1_7 
REMARK    3  A    between atoms: N1_7  and  C6_9 
REMARK    4  A    between atoms: C7_10  and  C8_11 
REMARK    5  A    between atoms: N4_21  and  C14_22 
REMARK    6  A    between atoms: C14_22  and  C15_23 
ROOT
HETATM    1  C6  UNL     1      24.677  -0.259 -10.203  1.00  0.00     0.138 A 
HETATM    2  C7  UNL     1      25.261  -1.481  -9.732  1.00  0.00     0.075 A 
HETATM    3  N2  UNL     1      24.297  -2.398  -9.594  1.00  0.00    -0.321 N 
ATOM      4  H2  UNL     1      24.422  -3.359  -9.276  1.00  0.00     0.169 HD
HETATM    5  C10 UNL     1      23.152  -1.835  -9.944  1.00  0.00     0.228 A 
HETATM    6  N3  UNL     1      23.392  -0.555 -10.305  1.00  0.00    -0.288 N 
HETATM    7  C11 UNL     1      22.468   0.444 -10.728  1.00  0.00     0.129 C 
HETATM    8  C12 UNL     1      22.216   0.405 -12.206  1.00  0.00     0.038 C 
HETATM    9  C13 UNL     1      21.155   0.401  -9.975  1.00  0.00     0.088 C 
HETATM   10  N4  UNL     1      20.121  -0.373 -10.480  1.00  0.00    -0.362 N 
HETATM   11  C16 UNL     1      19.858  -1.614  -9.867  1.00  0.00     0.154 C 
HETATM   12  C17 UNL     1      20.797  -2.640 -10.516  1.00  0.00     0.199 C 
HETATM   13  O2  UNL     1      22.047  -2.641  -9.864  1.00  0.00    -0.320 OA
ENDROOT
BRANCH   1  14
HETATM   14  N1  UNL     1      25.454   0.863 -10.433  1.00  0.00    -0.311 N 
HETATM   15  C5  UNL     1      25.960   1.659 -11.423  1.00  0.00     0.223 C 
HETATM   16  O1  UNL     1      25.920   1.643 -12.655  1.00  0.00    -0.273 OA
ATOM     17  H1  UNL     1      25.763   1.230  -9.534  1.00  0.00     0.170 HD
BRANCH  15  18
HETATM   18  C4  UNL     1      26.790   2.889 -10.944  1.00  0.00     0.107 C 
BRANCH  18  19
HETATM   19  C2  UNL     1      26.426   3.275  -9.567  1.00  0.00    -0.014 C 
HETATM   20  C1  UNL     1      27.404   2.624  -8.615  1.00  0.00     0.010 C 
HETATM   21  C3  UNL     1      26.554   4.775  -9.387  1.00  0.00     0.010 C 
ENDBRANCH  18  19
ENDBRANCH  15  18
ENDBRANCH   1  14
BRANCH   2  22
HETATM   22  C8  UNL     1      26.682  -1.726  -9.427  1.00  0.00     0.132 C 
HETATM   23  C9  UNL     1      27.111  -1.022  -8.153  1.00  0.00     0.033 C 
HETATM   24 CL1  UNL     1      27.717  -1.184 -10.797  1.00  0.00    -0.119 Cl
ENDBRANCH   2  22
BRANCH  10  25
HETATM   25  C14 UNL     1      19.150   0.235 -11.288  1.00  0.00     0.179 C 
BRANCH  25  26
HETATM   26  C15 UNL     1      18.919   1.698 -11.189  1.00  0.00     0.422 C 
HETATM   27  F1  UNL     1      17.723   1.852 -10.436  1.00  0.00    -0.166 F 
HETATM   28  F2  UNL     1      19.874   2.421 -10.538  1.00  0.00    -0.166 F 
HETATM   29  F3  UNL     1      18.538   2.272 -12.415  1.00  0.00    -0.166 F 
ENDBRANCH  25  26
ENDBRANCH  10  25
TORSDOF 6
ENDMDL
MODEL 4
REMARK VINA RESULT: 0.048417349      2.438      3.453
REMARK  6 active torsions:
REMARK  status: ('A' for Active; 'I' for Inactive)
REMARK    1  A    between atoms: C2_2  and  C4_4 
REMARK    2  A    between atoms: C4_4  and  C5_5 
REMARK       I    between atoms: C5_5  and  N1_7 
REMARK    3  A    between atoms: N1_7  and  C6_9 
REMARK    4  A    between atoms: C7_10  and  C8_11 
REMARK    5  A    between atoms: N4_21  and  C14_22 
REMARK    6  A    between atoms: C14_22  and  C15_23 
ROOT
HETATM    1  C6  UNL     1      25.010  -0.055 -10.136  1.00  0.00     0.138 A 
HETATM    2  C7  UNL     1      25.662  -1.227  -9.630  1.00  0.00     0.075 A 
HETATM    3  N2  UNL     1      24.761  -2.209  -9.511  1.00  0.00    -0.321 N 
ATOM      4  H2  UNL     1      24.943  -3.155  -9.177  1.00  0.00     0.169 HD
HETATM    5  C10 UNL     1      23.591  -1.732  -9.905  1.00  0.00     0.228 A 
HETATM    6  N3  UNL     1      23.753  -0.442 -10.275  1.00  0.00    -0.288 N 
HETATM    7  C11 UNL     1      22.775   0.484 -10.740  1.00  0.00     0.129 C 
HETATM    8  C12 UNL     1      22.574   0.411 -12.224  1.00  0.00     0.038 C 
HETATM    9  C13 UNL     1      21.444   0.356 -10.029  1.00  0.00     0.088 C 
HETATM   10  N4  UNL     1      20.484  -0.494 -10.556  1.00  0.00    -0.362 N 
HETATM   11  C16 UNL     1      20.289  -1.744  -9.936  1.00  0.00     0.154 C 
HETATM   12  C17 UNL     1      21.318  -2.708 -10.541  1.00  0.00     0.199 C 
HETATM   13  O2  UNL     1      22.544  -2.613  -9.849  1.00  0.00    -0.320 OA
ENDROOT
BRANCH   1  14
HETATM   14  N1  UNL     1      25.712   1.116 -10.356  1.00  0.00    -0.311 N 
HETATM   15  C5  UNL     1      26.474   1.778 -11.279  1.00  0.00     0.223 C 
HETATM   16  O1  UNL     1      26.895   1.514 -12.407  1.00  0.00    -0.273 OA
ATOM     17  H1  UNL     1      25.633   1.701  -9.525  1.00  0.00     0.170 HD
BRANCH  15  18
HETATM   18  C4  UNL     1      26.955   3.202 -10.863  1.00  0.00     0.107 C 
BRANCH  18  19
HETATM   19  C2  UNL     1      26.432   3.575  -9.535  1.00  0.00    -0.014 C 
HETATM   20  C1  UNL     1      27.249   2.860  -8.482  1.00  0.00     0.010 C 
HETATM   21  C3  UNL     1      26.599   5.064  -9.300  1.00  0.00     0.010 C 
ENDBRANCH  18  19
ENDBRANCH  15  18
ENDBRANCH   1  14
BRANCH   2  22
HETATM   22  C8  UNL     1      27.086  -1.368  -9.278  1.00  0.00     0.132 C 
HETATM   23  C9  UNL     1      27.841  -2.187 -10.310  1.00  0.00     0.033 C 
HETATM   24 CL1  UNL     1      27.256  -2.133  -7.657  1.00  0.00    -0.119 Cl
ENDBRANCH   2  22
BRANCH  10  25
HETATM   25  C14 UNL     1      19.499   0.035 -11.402  1.00  0.00     0.179 C 
BRANCH  25  26
HETATM   26  C15 UNL     1      18.844   1.322 -11.056  1.00  0.00     0.422 C 
HETATM   27  F1  UNL     1      19.900   2.256 -10.870  1.00  0.00    -0.166 F 
HETATM   28  F2  UNL     1      18.023   1.859 -12.002  1.00  0.00    -0.166 F 
HETATM   29  F3  UNL     1      18.269   1.310  -9.773  1.00  0.00    -0.166 F 
ENDBRANCH  25  26
ENDBRANCH  10  25
TORSDOF 6
ENDMDL
