MODEL 1
REMARK VINA RESULT: -9.040552515      0.000      0.000
REMARK  9 active torsions:
REMARK  status: ('A' for Active; 'I' for Inactive)
REMARK    1  A    between atoms: C3_3  and  C4_4 
REMARK    2  A    between atoms: C4_4  and  O2_6 
REMARK    3  A    between atoms: O2_6  and  C5_7 
REMARK    4  A    between atoms: C9_11  and  O3_12 
REMARK    5  A    between atoms: O3_12  and  C10_13 
REMARK    6  A    between atoms: C10_13  and  C11_15 
REMARK    7  A    between atoms: C11_15  and  S1_16 
REMARK    8  A    between atoms: S1_16  and  C12_17 
REMARK    9  A    between atoms: C16_24  and  C17_25 
ROOT
HETATM    1  C1  UNL     1      22.769  11.367 -20.451  1.00  0.00     0.112 C 
HETATM    2  C2  UNL     1      21.571  12.009 -21.008  1.00  0.00    -0.100 C 
HETATM    3  C3  UNL     1      20.593  12.552 -21.457  1.00  0.00     0.002 C 
ENDROOT
BRANCH   3   4
HETATM    4  C4  UNL     1      19.420  13.219 -21.978  1.00  0.00     0.339 C 
HETATM    5  O1  UNL     1      19.469  13.818 -23.108  1.00  0.00    -0.249 OA
BRANCH   4   6
HETATM    6  O2  UNL     1      18.214  13.266 -21.341  1.00  0.00    -0.300 OA
BRANCH   6   7
HETATM    7  C5  UNL     1      17.584  14.330 -20.731  1.00  0.00     0.068 C 
HETATM    8  C6  UNL     1      16.515  14.834 -21.711  1.00  0.00     0.047 C 
HETATM    9  C7  UNL     1      18.445  15.501 -20.367  1.00  0.00     0.041 C 
HETATM   10  C8  UNL     1      17.558  16.687 -20.120  1.00  0.00     0.035 C 
HETATM   11  C9  UNL     1      16.521  16.434 -19.091  1.00  0.00     0.132 C 
HETATM   12  C23 UNL     1      16.067  15.042 -18.860  1.00  0.00     0.035 C 
HETATM   13  C24 UNL     1      16.838  13.939 -19.484  1.00  0.00     0.041 C 
BRANCH  11  14
HETATM   14  O3  UNL     1      16.908  16.946 -17.799  1.00  0.00    -0.315 OA
BRANCH  14  15
HETATM   15  C10 UNL     1      16.359  18.097 -17.251  1.00  0.00     0.269 C 
HETATM   16  O4  UNL     1      15.329  17.964 -16.560  1.00  0.00    -0.264 OA
BRANCH  15  17
HETATM   17  C11 UNL     1      16.977  19.425 -17.481  1.00  0.00     0.193 C 
BRANCH  17  18
HETATM   18  S1  UNL     1      16.954  20.378 -15.947  1.00  0.00    -0.084 SA
BRANCH  18  19
HETATM   19  C12 UNL     1      16.826  22.119 -16.307  1.00  0.00     0.145 A 
HETATM   20  N1  UNL     1      17.863  22.936 -16.574  1.00  0.00    -0.335 N 
HETATM   21  C13 UNL     1      17.335  24.150 -16.791  1.00  0.00     0.062 A 
ATOM     22  H1  UNL     1      18.851  22.683 -16.605  1.00  0.00     0.168 HD
HETATM   23  C14 UNL     1      17.908  25.386 -17.110  1.00  0.00     0.056 A 
HETATM   24  C22 UNL     1      15.964  24.107 -16.664  1.00  0.00     0.061 A 
HETATM   25  C15 UNL     1      17.119  26.500 -17.283  1.00  0.00     0.043 A 
HETATM   26 CL1  UNL     1      17.887  28.031 -17.682  1.00  0.00    -0.084 Cl
HETATM   27  C16 UNL     1      15.738  26.397 -17.141  1.00  0.00    -0.026 A 
HETATM   28  C21 UNL     1      15.153  25.207 -16.833  1.00  0.00     0.041 A 
HETATM   29  N2  UNL     1      15.678  22.808 -16.356  1.00  0.00    -0.335 N 
ATOM     30  H2  UNL     1      14.746  22.426 -16.191  1.00  0.00     0.168 HD
BRANCH  27  31
HETATM   31  C17 UNL     1      14.893  27.610 -17.321  1.00  0.00    -0.022 C 
HETATM   32  C18 UNL     1      14.928  28.143 -18.718  1.00  0.00     0.019 C 
HETATM   33  C19 UNL     1      13.427  27.224 -17.041  1.00  0.00     0.019 C 
HETATM   34  C20 UNL     1      15.251  28.622 -16.261  1.00  0.00     0.019 C 
ENDBRANCH  27  31
ENDBRANCH  18  19
ENDBRANCH  17  18
ENDBRANCH  15  17
ENDBRANCH  14  15
ENDBRANCH  11  14
ENDBRANCH   6   7
ENDBRANCH   4   6
ENDBRANCH   3   4
TORSDOF 9
ENDMDL
MODEL 2
REMARK VINA RESULT: -8.927966701      3.553      3.982
REMARK  9 active torsions:
REMARK  status: ('A' for Active; 'I' for Inactive)
REMARK    1  A    between atoms: C3_3  and  C4_4 
REMARK    2  A    between atoms: C4_4  and  O2_6 
REMARK    3  A    between atoms: O2_6  and  C5_7 
REMARK    4  A    between atoms: C9_11  and  O3_12 
REMARK    5  A    between atoms: O3_12  and  C10_13 
REMARK    6  A    between atoms: C10_13  and  C11_15 
REMARK    7  A    between atoms: C11_15  and  S1_16 
REMARK    8  A    between atoms: S1_16  and  C12_17 
REMARK    9  A    between atoms: C16_24  and  C17_25 
ROOT
HETATM    1  C1  UNL     1      22.799  11.172 -20.197  1.00  0.00     0.112 C 
HETATM    2  C2  UNL     1      21.683  11.780 -20.933  1.00  0.00    -0.100 C 
HETATM    3  C3  UNL     1      20.766  12.293 -21.523  1.00  0.00     0.002 C 
ENDROOT
BRANCH   3   4
HETATM    4  C4  UNL     1      19.655  12.914 -22.211  1.00  0.00     0.339 C 
HETATM    5  O1  UNL     1      19.802  13.352 -23.404  1.00  0.00    -0.249 OA
BRANCH   4   6
HETATM    6  O2  UNL     1      18.411  13.079 -21.674  1.00  0.00    -0.300 OA
BRANCH   6   7
HETATM    7  C5  UNL     1      17.796  14.228 -21.221  1.00  0.00     0.068 C 
HETATM    8  C6  UNL     1      17.012  14.808 -22.406  1.00  0.00     0.047 C 
HETATM    9  C7  UNL     1      18.694  15.310 -20.704  1.00  0.00     0.041 C 
HETATM   10  C8  UNL     1      17.915  16.594 -20.660  1.00  0.00     0.035 C 
HETATM   11  C9  UNL     1      16.670  16.492 -19.862  1.00  0.00     0.132 C 
HETATM   12  C23 UNL     1      16.023  15.168 -19.711  1.00  0.00     0.035 C 
HETATM   13  C24 UNL     1      16.774  13.965 -20.148  1.00  0.00     0.041 C 
BRANCH  11  14
HETATM   14  O3  UNL     1      16.842  17.007 -18.526  1.00  0.00    -0.315 OA
BRANCH  14  15
HETATM   15  C10 UNL     1      16.677  16.226 -17.391  1.00  0.00     0.269 C 
HETATM   16  O4  UNL     1      17.382  15.201 -17.298  1.00  0.00    -0.264 OA
BRANCH  15  17
HETATM   17  C11 UNL     1      15.702  16.599 -16.339  1.00  0.00     0.193 C 
BRANCH  17  18
HETATM   18  S1  UNL     1      15.149  18.299 -16.600  1.00  0.00    -0.084 SA
BRANCH  18  19
HETATM   19  C12 UNL     1      16.494  19.434 -16.318  1.00  0.00     0.145 A 
HETATM   20  N1  UNL     1      17.499  19.677 -17.182  1.00  0.00    -0.335 N 
HETATM   21  C13 UNL     1      18.286  20.590 -16.590  1.00  0.00     0.062 A 
ATOM     22  H1  UNL     1      17.636  19.253 -18.100  1.00  0.00     0.168 HD
HETATM   23  C14 UNL     1      19.466  21.223 -16.994  1.00  0.00     0.056 A 
HETATM   24  C22 UNL     1      17.782  20.927 -15.353  1.00  0.00     0.061 A 
HETATM   25  C15 UNL     1      20.083  22.142 -16.176  1.00  0.00     0.043 A 
HETATM   26 CL1  UNL     1      21.565  22.911 -16.728  1.00  0.00    -0.084 Cl
HETATM   27  C16 UNL     1      19.529  22.443 -14.935  1.00  0.00    -0.026 A 
HETATM   28  C21 UNL     1      18.381  21.843 -14.516  1.00  0.00     0.041 A 
HETATM   29  N2  UNL     1      16.651  20.177 -15.214  1.00  0.00    -0.335 N 
ATOM     30  H2  UNL     1      16.028  20.181 -14.406  1.00  0.00     0.168 HD
BRANCH  27  31
HETATM   31  C17 UNL     1      20.209  23.431 -14.052  1.00  0.00    -0.022 C 
HETATM   32  C18 UNL     1      20.270  24.802 -14.648  1.00  0.00     0.019 C 
HETATM   33  C19 UNL     1      19.391  23.561 -12.752  1.00  0.00     0.019 C 
HETATM   34  C20 UNL     1      21.548  22.877 -13.632  1.00  0.00     0.019 C 
ENDBRANCH  27  31
ENDBRANCH  18  19
ENDBRANCH  17  18
ENDBRANCH  15  17
ENDBRANCH  14  15
ENDBRANCH  11  14
ENDBRANCH   6   7
ENDBRANCH   4   6
ENDBRANCH   3   4
TORSDOF 9
ENDMDL
MODEL 3
REMARK VINA RESULT: -8.880106709      3.082      3.959
REMARK  9 active torsions:
REMARK  status: ('A' for Active; 'I' for Inactive)
REMARK    1  A    between atoms: C3_3  and  C4_4 
REMARK    2  A    between atoms: C4_4  and  O2_6 
REMARK    3  A    between atoms: O2_6  and  C5_7 
REMARK    4  A    between atoms: C9_11  and  O3_12 
REMARK    5  A    between atoms: O3_12  and  C10_13 
REMARK    6  A    between atoms: C10_13  and  C11_15 
REMARK    7  A    between atoms: C11_15  and  S1_16 
REMARK    8  A    between atoms: S1_16  and  C12_17 
REMARK    9  A    between atoms: C16_24  and  C17_25 
ROOT
HETATM    1  C1  UNL     1      22.777  10.994 -20.063  1.00  0.00     0.112 C 
HETATM    2  C2  UNL     1      21.781  11.761 -20.823  1.00  0.00    -0.100 C 
HETATM    3  C3  UNL     1      20.966  12.377 -21.461  1.00  0.00     0.002 C 
ENDROOT
BRANCH   3   4
HETATM    4  C4  UNL     1      20.000  13.112 -22.248  1.00  0.00     0.339 C 
HETATM    5  O1  UNL     1      19.417  12.551 -23.239  1.00  0.00    -0.249 OA
BRANCH   4   6
HETATM    6  O2  UNL     1      19.641  14.408 -22.013  1.00  0.00    -0.300 OA
BRANCH   6   7
HETATM    7  C5  UNL     1      18.493  14.911 -21.439  1.00  0.00     0.068 C 
HETATM    8  C6  UNL     1      17.989  16.030 -22.361  1.00  0.00     0.047 C 
HETATM    9  C7  UNL     1      18.629  15.490 -20.064  1.00  0.00     0.041 C 
HETATM   10  C8  UNL     1      17.424  16.343 -19.785  1.00  0.00     0.035 C 
HETATM   11  C9  UNL     1      16.144  15.610 -19.943  1.00  0.00     0.132 C 
HETATM   12  C23 UNL     1      16.095  14.443 -20.855  1.00  0.00     0.035 C 
HETATM   13  C24 UNL     1      17.376  13.905 -21.375  1.00  0.00     0.041 C 
BRANCH  11  14
HETATM   14  O3  UNL     1      15.626  15.150 -18.677  1.00  0.00    -0.315 OA
BRANCH  14  15
HETATM   15  C10 UNL     1      16.436  14.639 -17.673  1.00  0.00     0.269 C 
HETATM   16  O4  UNL     1      16.835  13.465 -17.807  1.00  0.00    -0.264 OA
BRANCH  15  17
HETATM   17  C11 UNL     1      16.807  15.460 -16.496  1.00  0.00     0.193 C 
BRANCH  17  18
HETATM   18  S1  UNL     1      15.678  16.863 -16.355  1.00  0.00    -0.084 SA
BRANCH  18  19
HETATM   19  C12 UNL     1      16.577  18.393 -16.515  1.00  0.00     0.145 A 
HETATM   20  N1  UNL     1      16.859  19.011 -17.678  1.00  0.00    -0.335 N 
HETATM   21  C13 UNL     1      17.537  20.124 -17.355  1.00  0.00     0.062 A 
ATOM     22  H1  UNL     1      16.609  18.697 -18.616  1.00  0.00     0.168 HD
HETATM   23  C14 UNL     1      18.088  21.152 -18.127  1.00  0.00     0.056 A 
HETATM   24  C22 UNL     1      17.685  20.214 -15.988  1.00  0.00     0.061 A 
HETATM   25  C15 UNL     1      18.747  22.201 -17.528  1.00  0.00     0.043 A 
HETATM   26 CL1  UNL     1      19.423  23.469 -18.542  1.00  0.00    -0.084 Cl
HETATM   27  C16 UNL     1      18.867  22.240 -16.142  1.00  0.00    -0.026 A 
HETATM   28  C21 UNL     1      18.340  21.254 -15.366  1.00  0.00     0.041 A 
HETATM   29  N2  UNL     1      17.067  19.104 -15.490  1.00  0.00    -0.335 N 
ATOM     30  H2  UNL     1      16.991  18.856 -14.503  1.00  0.00     0.168 HD
BRANCH  27  31
HETATM   31  C17 UNL     1      19.591  23.374 -15.504  1.00  0.00    -0.022 C 
HETATM   32  C18 UNL     1      19.144  24.710 -16.009  1.00  0.00     0.019 C 
HETATM   33  C19 UNL     1      19.281  23.357 -13.993  1.00  0.00     0.019 C 
HETATM   34  C20 UNL     1      21.076  23.134 -15.612  1.00  0.00     0.019 C 
ENDBRANCH  27  31
ENDBRANCH  18  19
ENDBRANCH  17  18
ENDBRANCH  15  17
ENDBRANCH  14  15
ENDBRANCH  11  14
ENDBRANCH   6   7
ENDBRANCH   4   6
ENDBRANCH   3   4
TORSDOF 9
ENDMDL
MODEL 4
REMARK VINA RESULT: -8.811896421      1.304      1.975
REMARK  9 active torsions:
REMARK  status: ('A' for Active; 'I' for Inactive)
REMARK    1  A    between atoms: C3_3  and  C4_4 
REMARK    2  A    between atoms: C4_4  and  O2_6 
REMARK    3  A    between atoms: O2_6  and  C5_7 
REMARK    4  A    between atoms: C9_11  and  O3_12 
REMARK    5  A    between atoms: O3_12  and  C10_13 
REMARK    6  A    between atoms: C10_13  and  C11_15 
REMARK    7  A    between atoms: C11_15  and  S1_16 
REMARK    8  A    between atoms: S1_16  and  C12_17 
REMARK    9  A    between atoms: C16_24  and  C17_25 
ROOT
HETATM    1  C1  UNL     1      22.084  11.986 -20.778  1.00  0.00     0.112 C 
HETATM    2  C2  UNL     1      20.831  12.592 -21.248  1.00  0.00    -0.100 C 
HETATM    3  C3  UNL     1      19.810  13.107 -21.626  1.00  0.00     0.002 C 
ENDROOT
BRANCH   3   4
HETATM    4  C4  UNL     1      18.582  13.738 -22.060  1.00  0.00     0.339 C 
HETATM    5  O1  UNL     1      17.689  13.055 -22.671  1.00  0.00    -0.249 OA
BRANCH   4   6
HETATM    6  O2  UNL     1      18.283  15.055 -21.866  1.00  0.00    -0.300 OA
BRANCH   6   7
HETATM    7  C5  UNL     1      17.542  15.649 -20.865  1.00  0.00     0.068 C 
HETATM    8  C6  UNL     1      16.088  15.198 -21.062  1.00  0.00     0.047 C 
HETATM    9  C7  UNL     1      17.546  17.147 -20.827  1.00  0.00     0.041 C 
HETATM   10  C8  UNL     1      16.393  17.604 -19.980  1.00  0.00     0.035 C 
HETATM   11  C9  UNL     1      16.408  17.025 -18.616  1.00  0.00     0.132 C 
HETATM   12  C23 UNL     1      17.085  15.725 -18.397  1.00  0.00     0.035 C 
HETATM   13  C24 UNL     1      17.930  15.181 -19.489  1.00  0.00     0.041 C 
BRANCH  11  14
HETATM   14  O3  UNL     1      16.972  17.935 -17.649  1.00  0.00    -0.315 OA
BRANCH  14  15
HETATM   15  C10 UNL     1      16.239  18.466 -16.597  1.00  0.00     0.269 C 
HETATM   16  O4  UNL     1      15.028  18.171 -16.541  1.00  0.00    -0.264 OA
BRANCH  15  17
HETATM   17  C11 UNL     1      16.874  19.345 -15.587  1.00  0.00     0.193 C 
BRANCH  17  18
HETATM   18  S1  UNL     1      18.070  20.431 -16.394  1.00  0.00    -0.084 SA
BRANCH  18  19
HETATM   19  C12 UNL     1      17.367  22.051 -16.634  1.00  0.00     0.145 A 
HETATM   20  N1  UNL     1      16.083  22.384 -16.398  1.00  0.00    -0.335 N 
HETATM   21  C13 UNL     1      15.974  23.687 -16.700  1.00  0.00     0.062 A 
ATOM     22  H1  UNL     1      15.342  21.769 -16.059  1.00  0.00     0.168 HD
HETATM   23  C14 UNL     1      14.898  24.579 -16.656  1.00  0.00     0.056 A 
HETATM   24  C22 UNL     1      17.186  24.183 -17.126  1.00  0.00     0.061 A 
HETATM   25  C15 UNL     1      15.063  25.894 -17.028  1.00  0.00     0.043 A 
HETATM   26 CL1  UNL     1      13.679  26.977 -16.956  1.00  0.00    -0.084 Cl
HETATM   27  C16 UNL     1      16.311  26.340 -17.452  1.00  0.00    -0.026 A 
HETATM   28  C21 UNL     1      17.376  25.494 -17.503  1.00  0.00     0.041 A 
HETATM   29  N2  UNL     1      18.042  23.122 -17.073  1.00  0.00    -0.335 N 
ATOM     30  H2  UNL     1      19.031  23.140 -17.325  1.00  0.00     0.168 HD
BRANCH  27  31
HETATM   31  C17 UNL     1      16.478  27.762 -17.862  1.00  0.00    -0.022 C 
HETATM   32  C18 UNL     1      15.774  28.718 -16.952  1.00  0.00     0.019 C 
HETATM   33  C19 UNL     1      17.977  28.115 -17.785  1.00  0.00     0.019 C 
HETATM   34  C20 UNL     1      16.106  27.902 -19.317  1.00  0.00     0.019 C 
ENDBRANCH  27  31
ENDBRANCH  18  19
ENDBRANCH  17  18
ENDBRANCH  15  17
ENDBRANCH  14  15
ENDBRANCH  11  14
ENDBRANCH   6   7
ENDBRANCH   4   6
ENDBRANCH   3   4
TORSDOF 9
ENDMDL
MODEL 5
REMARK VINA RESULT: -8.690433444      3.723      4.160
REMARK  9 active torsions:
REMARK  status: ('A' for Active; 'I' for Inactive)
REMARK    1  A    between atoms: C3_3  and  C4_4 
REMARK    2  A    between atoms: C4_4  and  O2_6 
REMARK    3  A    between atoms: O2_6  and  C5_7 
REMARK    4  A    between atoms: C9_11  and  O3_12 
REMARK    5  A    between atoms: O3_12  and  C10_13 
REMARK    6  A    between atoms: C10_13  and  C11_15 
REMARK    7  A    between atoms: C11_15  and  S1_16 
REMARK    8  A    between atoms: S1_16  and  C12_17 
REMARK    9  A    between atoms: C16_24  and  C17_25 
ROOT
HETATM    1  C1  UNL     1      22.652  11.461 -20.483  1.00  0.00     0.112 C 
HETATM    2  C2  UNL     1      21.468  12.121 -21.047  1.00  0.00    -0.100 C 
HETATM    3  C3  UNL     1      20.489  12.645 -21.517  1.00  0.00     0.002 C 
ENDROOT
BRANCH   3   4
HETATM    4  C4  UNL     1      19.315  13.258 -22.098  1.00  0.00     0.339 C 
HETATM    5  O1  UNL     1      19.381  13.807 -23.252  1.00  0.00    -0.249 OA
BRANCH   4   6
HETATM    6  O2  UNL     1      18.091  13.303 -21.496  1.00  0.00    -0.300 OA
BRANCH   6   7
HETATM    7  C5  UNL     1      17.510  14.317 -20.763  1.00  0.00     0.068 C 
HETATM    8  C6  UNL     1      16.316  14.829 -21.582  1.00  0.00     0.047 C 
HETATM    9  C7  UNL     1      18.376  15.498 -20.447  1.00  0.00     0.041 C 
HETATM   10  C8  UNL     1      17.492  16.641 -20.037  1.00  0.00     0.035 C 
HETATM   11  C9  UNL     1      16.595  16.306 -18.906  1.00  0.00     0.132 C 
HETATM   12  C23 UNL     1      16.211  14.891 -18.691  1.00  0.00     0.035 C 
HETATM   13  C24 UNL     1      16.932  13.844 -19.457  1.00  0.00     0.041 C 
BRANCH  11  14
HETATM   14  O3  UNL     1      17.120  16.772 -17.645  1.00  0.00    -0.315 OA
BRANCH  14  15
HETATM   15  C10 UNL     1      16.326  16.968 -16.525  1.00  0.00     0.269 C 
HETATM   16  O4  UNL     1      16.346  16.079 -15.650  1.00  0.00    -0.264 OA
BRANCH  15  17
HETATM   17  C11 UNL     1      15.491  18.185 -16.381  1.00  0.00     0.193 C 
BRANCH  17  18
HETATM   18  S1  UNL     1      16.093  19.469 -17.499  1.00  0.00    -0.084 SA
BRANCH  18  19
HETATM   19  C12 UNL     1      17.427  20.372 -16.737  1.00  0.00     0.145 A 
HETATM   20  N1  UNL     1      18.689  20.435 -17.204  1.00  0.00    -0.335 N 
HETATM   21  C13 UNL     1      19.366  21.215 -16.345  1.00  0.00     0.062 A 
ATOM     22  H1  UNL     1      19.057  19.982 -18.041  1.00  0.00     0.168 HD
HETATM   23  C14 UNL     1      20.697  21.641 -16.305  1.00  0.00     0.056 A 
HETATM   24  C22 UNL     1      18.536  21.647 -15.334  1.00  0.00     0.061 A 
HETATM   25  C15 UNL     1      21.141  22.457 -15.290  1.00  0.00     0.043 A 
HETATM   26 CL1  UNL     1      22.825  22.966 -15.283  1.00  0.00    -0.084 Cl
HETATM   27  C16 UNL     1      20.257  22.862 -14.294  1.00  0.00    -0.026 A 
HETATM   28  C21 UNL     1      18.956  22.464 -14.308  1.00  0.00     0.041 A 
HETATM   29  N2  UNL     1      17.320  21.094 -15.613  1.00  0.00    -0.335 N 
ATOM     30  H2  UNL     1      16.471  21.212 -15.059  1.00  0.00     0.168 HD
BRANCH  27  31
HETATM   31  C17 UNL     1      20.749  23.737 -13.194  1.00  0.00    -0.022 C 
HETATM   32  C18 UNL     1      22.061  23.287 -12.632  1.00  0.00     0.019 C 
HETATM   33  C19 UNL     1      20.986  25.149 -13.767  1.00  0.00     0.019 C 
HETATM   34  C20 UNL     1      19.656  23.899 -12.166  1.00  0.00     0.019 C 
ENDBRANCH  27  31
ENDBRANCH  18  19
ENDBRANCH  17  18
ENDBRANCH  15  17
ENDBRANCH  14  15
ENDBRANCH  11  14
ENDBRANCH   6   7
ENDBRANCH   4   6
ENDBRANCH   3   4
TORSDOF 9
ENDMDL
