MODEL 1
REMARK VINA RESULT: -9.513855386      0.000      0.000
REMARK  6 active torsions:
REMARK  status: ('A' for Active; 'I' for Inactive)
REMARK    1  A    between atoms: C3_6  and  C4_7 
REMARK    2  A    between atoms: C4_7  and  N2_8 
REMARK    3  A    between atoms: C5_13  and  C6_14 
REMARK    4  A    between atoms: C6_14  and  N5_15 
REMARK    5  A    between atoms: N5_15  and  C7_18 
REMARK    6  A    between atoms: C18_30  and  C19_31 
ROOT
HETATM    1  N2  UNL     1      17.377  20.524 -18.329  1.00  0.00    -0.263 N 
HETATM    2  N3  UNL     1      16.526  21.244 -17.657  1.00  0.00    -0.239 N 
ATOM      3  H3  UNL     1      15.578  20.947 -17.426  1.00  0.00     0.208 HD
HETATM    4  N4  UNL     1      17.045  22.414 -17.309  1.00  0.00    -0.286 N 
ATOM      5  H4  UNL     1      16.572  23.148 -16.781  1.00  0.00     0.188 HD
HETATM    6  C5  UNL     1      18.326  22.464 -17.784  1.00  0.00     0.088 A 
HETATM    7  C17 UNL     1      18.527  21.277 -18.423  1.00  0.00     0.124 A 
HETATM    8 BR1  UNL     1      20.117  20.715 -19.291  1.00  0.00    -0.027 Br
ENDROOT
BRANCH   6   9
HETATM    9  C6  UNL     1      19.311  23.579 -17.578  1.00  0.00     0.294 C 
BRANCH   9  10
HETATM   10  N5  UNL     1      18.956  24.312 -16.384  1.00  0.00    -0.061 N 
ATOM     11  H52 UNL     1      19.094  25.313 -16.527  1.00  0.00     0.278 HD
ATOM     12  H51 UNL     1      17.946  24.294 -16.243  1.00  0.00     0.278 HD
BRANCH  10  13
HETATM   13  C7  UNL     1      19.635  23.877 -15.196  1.00  0.00     0.127 C 
HETATM   14  C8  UNL     1      20.682  22.815 -15.440  1.00  0.00     0.043 C 
HETATM   15  C9  UNL     1      21.242  22.393 -14.096  1.00  0.00    -0.012 C 
HETATM   16  C10 UNL     1      20.198  21.865 -13.149  1.00  0.00     0.009 C 
HETATM   17  C14 UNL     1      21.941  23.545 -13.403  1.00  0.00     0.009 C 
HETATM   18  C11 UNL     1      19.202  22.967 -12.903  1.00  0.00    -0.012 C 
HETATM   19  C12 UNL     1      19.813  24.205 -12.308  1.00  0.00     0.009 C 
HETATM   20  C16 UNL     1      18.609  23.348 -14.243  1.00  0.00     0.043 C 
HETATM   21  C13 UNL     1      20.924  24.660 -13.228  1.00  0.00    -0.012 C 
HETATM   22  C15 UNL     1      20.416  25.045 -14.582  1.00  0.00     0.043 C 
ENDBRANCH  10  13
ENDBRANCH   9  10
ENDBRANCH   6   9
BRANCH   1  23
HETATM   23  C4  UNL     1      17.197  19.227 -18.948  1.00  0.00     0.219 C 
BRANCH  23  24
HETATM   24  C3  UNL     1      16.827  18.183 -17.982  1.00  0.00     0.105 A 
HETATM   25  O1  UNL     1      16.638  18.594 -16.690  1.00  0.00    -0.240 OA
HETATM   26  N1  UNL     1      16.306  17.609 -15.971  1.00  0.00    -0.265 N 
HETATM   27  C2  UNL     1      16.247  16.481 -16.691  1.00  0.00     0.038 A 
ATOM     28  H1  UNL     1      16.109  17.666 -14.972  1.00  0.00     0.194 HD
HETATM   29  C1  UNL     1      15.931  15.112 -16.258  1.00  0.00     0.071 C 
HETATM   30  C18 UNL     1      16.590  16.852 -18.011  1.00  0.00     0.007 A 
BRANCH  30  31
HETATM   31  C19 UNL     1      16.629  15.919 -19.115  1.00  0.00    -0.020 C 
HETATM   32  C20 UNL     1      18.087  15.441 -19.389  1.00  0.00     0.019 C 
HETATM   33  C21 UNL     1      15.762  14.702 -19.049  1.00  0.00     0.019 C 
HETATM   34  C22 UNL     1      16.303  16.568 -20.497  1.00  0.00     0.019 C 
ENDBRANCH  30  31
ENDBRANCH  23  24
ENDBRANCH   1  23
TORSDOF 6
ENDMDL
MODEL 2
REMARK VINA RESULT: -9.476632967      0.500      1.539
REMARK  6 active torsions:
REMARK  status: ('A' for Active; 'I' for Inactive)
REMARK    1  A    between atoms: C3_6  and  C4_7 
REMARK    2  A    between atoms: C4_7  and  N2_8 
REMARK    3  A    between atoms: C5_13  and  C6_14 
REMARK    4  A    between atoms: C6_14  and  N5_15 
REMARK    5  A    between atoms: N5_15  and  C7_18 
REMARK    6  A    between atoms: C18_30  and  C19_31 
ROOT
HETATM    1  N2  UNL     1      17.364  20.581 -18.293  1.00  0.00    -0.263 N 
HETATM    2  N3  UNL     1      16.464  21.249 -17.631  1.00  0.00    -0.239 N 
ATOM      3  H3  UNL     1      15.540  20.889 -17.395  1.00  0.00     0.208 HD
HETATM    4  N4  UNL     1      16.898  22.459 -17.303  1.00  0.00    -0.286 N 
ATOM      5  H4  UNL     1      16.375  23.165 -16.786  1.00  0.00     0.188 HD
HETATM    6  C5  UNL     1      18.173  22.592 -17.781  1.00  0.00     0.088 A 
HETATM    7  C17 UNL     1      18.458  21.412 -18.400  1.00  0.00     0.124 A 
HETATM    8 BR1  UNL     1      20.084  20.952 -19.261  1.00  0.00    -0.027 Br
ENDROOT
BRANCH   6   9
HETATM    9  C6  UNL     1      19.075  23.778 -17.594  1.00  0.00     0.294 C 
BRANCH   9  10
HETATM   10  N5  UNL     1      18.872  24.326 -16.272  1.00  0.00    -0.061 N 
ATOM     11  H52 UNL     1      18.857  25.346 -16.308  1.00  0.00     0.278 HD
ATOM     12  H51 UNL     1      17.919  24.149 -15.955  1.00  0.00     0.278 HD
BRANCH  10  13
HETATM   13  C7  UNL     1      19.818  23.874 -15.291  1.00  0.00     0.127 C 
HETATM   14  C8  UNL     1      20.380  24.975 -14.423  1.00  0.00     0.043 C 
HETATM   15  C9  UNL     1      21.423  24.363 -13.509  1.00  0.00    -0.012 C 
HETATM   16  C10 UNL     1      22.544  23.680 -14.246  1.00  0.00     0.009 C 
HETATM   17  C14 UNL     1      20.808  23.341 -12.574  1.00  0.00     0.009 C 
HETATM   18  C11 UNL     1      21.943  22.567 -15.063  1.00  0.00    -0.012 C 
HETATM   19  C12 UNL     1      21.214  21.544 -14.237  1.00  0.00     0.009 C 
HETATM   20  C16 UNL     1      20.941  23.191 -16.010  1.00  0.00     0.043 C 
HETATM   21  C13 UNL     1      20.159  22.268 -13.432  1.00  0.00    -0.012 C 
HETATM   22  C15 UNL     1      19.132  22.924 -14.301  1.00  0.00     0.043 C 
ENDBRANCH  10  13
ENDBRANCH   9  10
ENDBRANCH   6   9
BRANCH   1  23
HETATM   23  C4  UNL     1      17.278  19.264 -18.890  1.00  0.00     0.219 C 
BRANCH  23  24
HETATM   24  C3  UNL     1      16.883  18.228 -17.927  1.00  0.00     0.105 A 
HETATM   25  O1  UNL     1      16.704  18.641 -16.634  1.00  0.00    -0.240 OA
HETATM   26  N1  UNL     1      16.349  17.662 -15.917  1.00  0.00    -0.265 N 
HETATM   27  C2  UNL     1      16.265  16.537 -16.639  1.00  0.00     0.038 A 
ATOM     28  H1  UNL     1      16.153  17.722 -14.918  1.00  0.00     0.194 HD
HETATM   29  C1  UNL     1      15.917  15.175 -16.208  1.00  0.00     0.071 C 
HETATM   30  C18 UNL     1      16.616  16.902 -17.959  1.00  0.00     0.007 A 
BRANCH  30  31
HETATM   31  C19 UNL     1      16.634  15.970 -19.063  1.00  0.00    -0.020 C 
HETATM   32  C20 UNL     1      18.087  15.494 -19.368  1.00  0.00     0.019 C 
HETATM   33  C21 UNL     1      15.770  14.753 -18.981  1.00  0.00     0.019 C 
HETATM   34  C22 UNL     1      16.280  16.621 -20.438  1.00  0.00     0.019 C 
ENDBRANCH  30  31
ENDBRANCH  23  24
ENDBRANCH   1  23
TORSDOF 6
ENDMDL
MODEL 3
REMARK VINA RESULT: -9.345159061      0.120      1.399
REMARK  6 active torsions:
REMARK  status: ('A' for Active; 'I' for Inactive)
REMARK    1  A    between atoms: C3_6  and  C4_7 
REMARK    2  A    between atoms: C4_7  and  N2_8 
REMARK    3  A    between atoms: C5_13  and  C6_14 
REMARK    4  A    between atoms: C6_14  and  N5_15 
REMARK    5  A    between atoms: N5_15  and  C7_18 
REMARK    6  A    between atoms: C18_30  and  C19_31 
ROOT
HETATM    1  N2  UNL     1      17.415  20.509 -18.353  1.00  0.00    -0.263 N 
HETATM    2  N3  UNL     1      16.604  21.257 -17.663  1.00  0.00    -0.239 N 
ATOM      3  H3  UNL     1      15.647  20.997 -17.425  1.00  0.00     0.208 HD
HETATM    4  N4  UNL     1      17.177  22.399 -17.308  1.00  0.00    -0.286 N 
ATOM      5  H4  UNL     1      16.742  23.146 -16.767  1.00  0.00     0.188 HD
HETATM    6  C5  UNL     1      18.454  22.399 -17.797  1.00  0.00     0.088 A 
HETATM    7  C17 UNL     1      18.596  21.212 -18.451  1.00  0.00     0.124 A 
HETATM    8 BR1  UNL     1      20.151  20.593 -19.343  1.00  0.00    -0.027 Br
ENDROOT
BRANCH   6   9
HETATM    9  C6  UNL     1      19.488  23.468 -17.590  1.00  0.00     0.294 C 
BRANCH   9  10
HETATM   10  N5  UNL     1      19.094  24.300 -16.475  1.00  0.00    -0.061 N 
ATOM     11  H52 UNL     1      19.345  25.273 -16.652  1.00  0.00     0.278 HD
ATOM     12  H51 UNL     1      18.078  24.387 -16.437  1.00  0.00     0.278 HD
BRANCH  10  13
HETATM   13  C7  UNL     1      19.608  23.873 -15.205  1.00  0.00     0.127 C 
HETATM   14  C8  UNL     1      18.546  23.414 -14.233  1.00  0.00     0.043 C 
HETATM   15  C9  UNL     1      19.227  23.086 -12.919  1.00  0.00    -0.012 C 
HETATM   16  C10 UNL     1      19.986  24.244 -12.328  1.00  0.00     0.009 C 
HETATM   17  C14 UNL     1      20.203  21.937 -13.073  1.00  0.00     0.009 C 
HETATM   18  C11 UNL     1      21.057  24.639 -13.310  1.00  0.00    -0.012 C 
HETATM   19  C12 UNL     1      22.026  23.532 -13.617  1.00  0.00     0.009 C 
HETATM   20  C16 UNL     1      20.367  25.016 -14.604  1.00  0.00     0.043 C 
HETATM   21  C13 UNL     1      21.231  22.346 -14.115  1.00  0.00    -0.012 C 
HETATM   22  C15 UNL     1      20.508  22.644 -15.391  1.00  0.00     0.043 C 
ENDBRANCH  10  13
ENDBRANCH   9  10
ENDBRANCH   6   9
BRANCH   1  23
HETATM   23  C4  UNL     1      17.173  19.227 -18.984  1.00  0.00     0.219 C 
BRANCH  23  24
HETATM   24  C3  UNL     1      16.783  18.185 -18.025  1.00  0.00     0.105 A 
HETATM   25  O1  UNL     1      16.555  18.601 -16.740  1.00  0.00    -0.240 OA
HETATM   26  N1  UNL     1      16.210  17.617 -16.026  1.00  0.00    -0.265 N 
HETATM   27  C2  UNL     1      16.180  16.485 -16.742  1.00  0.00     0.038 A 
ATOM     28  H1  UNL     1      15.985  17.677 -15.033  1.00  0.00     0.194 HD
HETATM   29  C1  UNL     1      15.861  15.116 -16.311  1.00  0.00     0.071 C 
HETATM   30  C18 UNL     1      16.557  16.853 -18.054  1.00  0.00     0.007 A 
BRANCH  30  31
HETATM   31  C19 UNL     1      16.634  15.914 -19.151  1.00  0.00    -0.020 C 
HETATM   32  C20 UNL     1      18.107  15.475 -19.406  1.00  0.00     0.019 C 
HETATM   33  C21 UNL     1      15.800  14.675 -19.087  1.00  0.00     0.019 C 
HETATM   34  C22 UNL     1      16.307  16.547 -20.541  1.00  0.00     0.019 C 
ENDBRANCH  30  31
ENDBRANCH  23  24
ENDBRANCH   1  23
TORSDOF 6
ENDMDL
MODEL 4
REMARK VINA RESULT: -9.317626484      2.526      9.083
REMARK  6 active torsions:
REMARK  status: ('A' for Active; 'I' for Inactive)
REMARK    1  A    between atoms: C3_6  and  C4_7 
REMARK    2  A    between atoms: C4_7  and  N2_8 
REMARK    3  A    between atoms: C5_13  and  C6_14 
REMARK    4  A    between atoms: C6_14  and  N5_15 
REMARK    5  A    between atoms: N5_15  and  C7_18 
REMARK    6  A    between atoms: C18_30  and  C19_31 
ROOT
HETATM    1  N2  UNL     1      16.991  19.367 -18.068  1.00  0.00    -0.263 N 
HETATM    2  N3  UNL     1      16.709  18.876 -16.896  1.00  0.00    -0.239 N 
ATOM      3  H3  UNL     1      16.710  19.417 -16.032  1.00  0.00     0.208 HD
HETATM    4  N4  UNL     1      16.421  17.583 -16.966  1.00  0.00    -0.286 N 
ATOM      5  H4  UNL     1      16.171  16.981 -16.182  1.00  0.00     0.188 HD
HETATM    6  C5  UNL     1      16.518  17.201 -18.275  1.00  0.00     0.088 A 
HETATM    7  C17 UNL     1      16.876  18.323 -18.960  1.00  0.00     0.124 A 
HETATM    8 BR1  UNL     1      17.161  18.463 -20.830  1.00  0.00    -0.027 Br
ENDROOT
BRANCH   6   9
HETATM    9  C6  UNL     1      16.224  15.836 -18.830  1.00  0.00     0.294 C 
BRANCH   9  10
HETATM   10  N5  UNL     1      17.450  15.071 -18.884  1.00  0.00    -0.061 N 
ATOM     11  H52 UNL     1      18.236  15.636 -18.561  1.00  0.00     0.278 HD
ATOM     12  H51 UNL     1      17.449  14.347 -18.166  1.00  0.00     0.278 HD
BRANCH  10  13
HETATM   13  C7  UNL     1      17.737  14.502 -20.170  1.00  0.00     0.127 C 
HETATM   14  C8  UNL     1      17.805  12.992 -20.175  1.00  0.00     0.043 C 
HETATM   15  C9  UNL     1      18.205  12.547 -21.567  1.00  0.00    -0.012 C 
HETATM   16  C10 UNL     1      19.522  13.114 -22.025  1.00  0.00     0.009 C 
HETATM   17  C14 UNL     1      17.162  12.940 -22.594  1.00  0.00     0.009 C 
HETATM   18  C11 UNL     1      19.394  14.614 -22.045  1.00  0.00    -0.012 C 
HETATM   19  C12 UNL     1      18.310  15.110 -22.961  1.00  0.00     0.009 C 
HETATM   20  C16 UNL     1      19.047  15.057 -20.640  1.00  0.00     0.043 C 
HETATM   21  C13 UNL     1      17.015  14.452 -22.542  1.00  0.00    -0.012 C 
HETATM   22  C15 UNL     1      16.607  14.833 -21.153  1.00  0.00     0.043 C 
ENDBRANCH  10  13
ENDBRANCH   9  10
ENDBRANCH   6   9
BRANCH   1  23
HETATM   23  C4  UNL     1      17.420  20.704 -18.427  1.00  0.00     0.219 C 
BRANCH  23  24
HETATM   24  C3  UNL     1      18.164  21.370 -17.350  1.00  0.00     0.105 A 
HETATM   25  O1  UNL     1      19.418  20.884 -17.093  1.00  0.00    -0.240 OA
HETATM   26  N1  UNL     1      19.955  21.553 -16.164  1.00  0.00    -0.265 N 
HETATM   27  C2  UNL     1      19.134  22.517 -15.724  1.00  0.00     0.038 A 
ATOM     28  H1  UNL     1      20.891  21.382 -15.797  1.00  0.00     0.194 HD
HETATM   29  C1  UNL     1      19.340  23.500 -14.650  1.00  0.00     0.071 C 
HETATM   30  C18 UNL     1      17.957  22.399 -16.498  1.00  0.00     0.007 A 
BRANCH  30  31
HETATM   31  C19 UNL     1      16.816  23.274 -16.347  1.00  0.00    -0.020 C 
HETATM   32  C20 UNL     1      16.342  23.321 -14.863  1.00  0.00     0.019 C 
HETATM   33  C21 UNL     1      16.933  24.685 -16.827  1.00  0.00     0.019 C 
HETATM   34  C22 UNL     1      15.516  22.729 -17.018  1.00  0.00     0.019 C 
ENDBRANCH  30  31
ENDBRANCH  23  24
ENDBRANCH   1  23
TORSDOF 6
ENDMDL
MODEL 5
REMARK VINA RESULT: -9.267385119      1.207      1.401
REMARK  6 active torsions:
REMARK  status: ('A' for Active; 'I' for Inactive)
REMARK    1  A    between atoms: C3_6  and  C4_7 
REMARK    2  A    between atoms: C4_7  and  N2_8 
REMARK    3  A    between atoms: C5_13  and  C6_14 
REMARK    4  A    between atoms: C6_14  and  N5_15 
REMARK    5  A    between atoms: N5_15  and  C7_18 
REMARK    6  A    between atoms: C18_30  and  C19_31 
ROOT
HETATM    1  N2  UNL     1      16.806  19.986 -17.786  1.00  0.00    -0.263 N 
HETATM    2  N3  UNL     1      15.736  20.153 -17.065  1.00  0.00    -0.239 N 
ATOM      3  H3  UNL     1      14.999  19.455 -16.961  1.00  0.00     0.208 HD
HETATM    4  N4  UNL     1      15.721  21.345 -16.483  1.00  0.00    -0.286 N 
ATOM      5  H4  UNL     1      14.988  21.706 -15.873  1.00  0.00     0.188 HD
HETATM    6  C5  UNL     1      16.863  22.003 -16.845  1.00  0.00     0.088 A 
HETATM    7  C17 UNL     1      17.538  21.146 -17.662  1.00  0.00     0.124 A 
HETATM    8 BR1  UNL     1      19.214  21.461 -18.492  1.00  0.00    -0.027 Br
ENDROOT
BRANCH   6   9
HETATM    9  C6  UNL     1      17.295  23.364 -16.377  1.00  0.00     0.294 C 
BRANCH   9  10
HETATM   10  N5  UNL     1      17.365  23.369 -14.933  1.00  0.00    -0.061 N 
ATOM     11  H52 UNL     1      16.862  24.173 -14.555  1.00  0.00     0.278 HD
ATOM     12  H51 UNL     1      16.800  22.613 -14.546  1.00  0.00     0.278 HD
BRANCH  10  13
HETATM   13  C7  UNL     1      18.699  23.319 -14.404  1.00  0.00     0.127 C 
HETATM   14  C8  UNL     1      19.319  21.941 -14.427  1.00  0.00     0.043 C 
HETATM   15  C9  UNL     1      20.676  22.029 -13.757  1.00  0.00    -0.012 C 
HETATM   16  C10 UNL     1      20.617  22.532 -12.340  1.00  0.00     0.009 C 
HETATM   17  C14 UNL     1      21.612  22.942 -14.524  1.00  0.00     0.009 C 
HETATM   18  C11 UNL     1      20.033  23.920 -12.371  1.00  0.00    -0.012 C 
HETATM   19  C12 UNL     1      20.834  24.889 -13.196  1.00  0.00     0.009 C 
HETATM   20  C16 UNL     1      18.656  23.818 -12.992  1.00  0.00     0.043 C 
HETATM   21  C13 UNL     1      20.962  24.314 -14.588  1.00  0.00    -0.012 C 
HETATM   22  C15 UNL     1      19.637  24.171 -15.268  1.00  0.00     0.043 C 
ENDBRANCH  10  13
ENDBRANCH   9  10
ENDBRANCH   6   9
BRANCH   1  23
HETATM   23  C4  UNL     1      17.182  18.870 -18.631  1.00  0.00     0.219 C 
BRANCH  23  24
HETATM   24  C3  UNL     1      16.690  17.582 -18.124  1.00  0.00     0.105 A 
HETATM   25  O1  UNL     1      16.188  17.586 -16.850  1.00  0.00    -0.240 OA
HETATM   26  N1  UNL     1      15.783  16.428 -16.545  1.00  0.00    -0.265 N 
HETATM   27  C2  UNL     1      15.974  15.566 -17.553  1.00  0.00     0.038 A 
ATOM     28  H1  UNL     1      15.366  16.181 -15.648  1.00  0.00     0.194 HD
HETATM   29  C1  UNL     1      15.677  14.128 -17.622  1.00  0.00     0.071 C 
HETATM   30  C18 UNL     1      16.570  16.319 -18.591  1.00  0.00     0.007 A 
BRANCH  30  31
HETATM   31  C19 UNL     1      16.925  15.759 -19.876  1.00  0.00    -0.020 C 
HETATM   32  C20 UNL     1      18.307  15.041 -19.808  1.00  0.00     0.019 C 
HETATM   33  C21 UNL     1      15.963  14.823 -20.534  1.00  0.00     0.019 C 
HETATM   34  C22 UNL     1      17.243  16.835 -20.962  1.00  0.00     0.019 C 
ENDBRANCH  30  31
ENDBRANCH  23  24
ENDBRANCH   1  23
TORSDOF 6
ENDMDL
