MODEL 1
REMARK VINA RESULT: -9.661219607      0.000      0.000
REMARK  5 active torsions:
REMARK  status: ('A' for Active; 'I' for Inactive)
REMARK    1  A    between atoms: C3_3  and  C4_4 
REMARK       I    between atoms: C4_4  and  N1_6 
REMARK    2  A    between atoms: N1_6  and  C5_8 
REMARK    3  A    between atoms: C7_10  and  C8_11 
REMARK    4  A    between atoms: C8_11  and  C9_12 
REMARK    5  A    between atoms: C15_19  and  C16_20 
ROOT
HETATM    1  C4  UNL     1      17.124  20.545 -17.286  1.00  0.00     0.263 C 
HETATM    2  O1  UNL     1      16.180  21.219 -16.892  1.00  0.00    -0.267 OA
HETATM    3  N1  UNL     1      18.396  21.180 -17.385  1.00  0.00    -0.322 N 
ATOM      4  H1  UNL     1      19.191  20.677 -17.776  1.00  0.00     0.169 HD
ENDROOT
BRANCH   3   5
HETATM    5  C5  UNL     1      18.552  22.542 -16.927  1.00  0.00     0.036 A 
HETATM    6  C6  UNL     1      18.047  23.634 -17.586  1.00  0.00     0.040 A 
HETATM    7  C7  UNL     1      18.322  24.917 -17.211  1.00  0.00    -0.013 A 
HETATM    8  C14 UNL     1      19.171  25.050 -16.094  1.00  0.00     0.133 A 
HETATM    9  F1  UNL     1      19.496  26.312 -15.648  1.00  0.00    -0.205 F 
HETATM   10  C15 UNL     1      19.691  24.000 -15.407  1.00  0.00     0.007 A 
HETATM   11  C19 UNL     1      19.376  22.716 -15.828  1.00  0.00     0.044 A 
BRANCH   7  12
HETATM   12  C8  UNL     1      17.803  26.166 -17.744  1.00  0.00     0.075 C 
BRANCH  12  13
HETATM   13  C9  UNL     1      16.514  26.649 -17.213  1.00  0.00    -0.079 C 
HETATM   14  C10 UNL     1      16.133  27.948 -17.134  1.00  0.00    -0.024 C 
HETATM   15  C11 UNL     1      14.764  28.034 -16.541  1.00  0.00     0.027 C 
HETATM   16  C12 UNL     1      14.185  26.711 -17.099  1.00  0.00     0.008 C 
HETATM   17  C13 UNL     1      15.393  25.815 -16.718  1.00  0.00     0.034 C 
ENDBRANCH  12  13
ENDBRANCH   7  12
BRANCH  10  18
HETATM   18  C16 UNL     1      20.682  24.246 -14.335  1.00  0.00    -0.074 C 
HETATM   19  C17 UNL     1      21.973  23.492 -14.539  1.00  0.00     0.044 C 
HETATM   20  C18 UNL     1      20.195  24.414 -12.959  1.00  0.00     0.044 C 
ENDBRANCH  10  18
ENDBRANCH   3   5
BRANCH   1  21
HETATM   21  C3  UNL     1      16.866  19.127 -17.633  1.00  0.00     0.082 A 
HETATM   22  C2  UNL     1      16.930  18.369 -18.751  1.00  0.00    -0.021 A 
HETATM   23  C1  UNL     1      17.277  19.032 -20.084  1.00  0.00     0.051 C 
HETATM   24  C21 UNL     1      16.700  17.026 -18.631  1.00  0.00     0.074 A 
HETATM   25  C20 UNL     1      16.422  16.559 -17.381  1.00  0.00     0.097 A 
HETATM   26  C22 UNL     1      16.730  16.030 -19.633  1.00  0.00     0.264 A 
HETATM   27  S1  UNL     1      16.484  17.935 -16.410  1.00  0.00    -0.065 SA
HETATM   28  N3  UNL     1      16.183  15.239 -17.100  1.00  0.00    -0.297 N 
HETATM   29  C24 UNL     1      16.211  14.313 -18.062  1.00  0.00     0.331 A 
HETATM   30  C25 UNL     1      15.888  14.889 -15.729  1.00  0.00     0.162 C 
HETATM   31  N2  UNL     1      16.485  14.752 -19.282  1.00  0.00    -0.270 N 
HETATM   32  O3  UNL     1      15.986  13.125 -17.780  1.00  0.00    -0.246 OA
HETATM   33  C23 UNL     1      16.534  13.720 -20.330  1.00  0.00     0.164 C 
HETATM   34  O2  UNL     1      16.971  16.252 -20.841  1.00  0.00    -0.267 OA
ENDBRANCH   1  21
TORSDOF 5
ENDMDL
MODEL 2
REMARK VINA RESULT: -9.619606351      3.503      9.864
REMARK  5 active torsions:
REMARK  status: ('A' for Active; 'I' for Inactive)
REMARK    1  A    between atoms: C3_3  and  C4_4 
REMARK       I    between atoms: C4_4  and  N1_6 
REMARK    2  A    between atoms: N1_6  and  C5_8 
REMARK    3  A    between atoms: C7_10  and  C8_11 
REMARK    4  A    between atoms: C8_11  and  C9_12 
REMARK    5  A    between atoms: C15_19  and  C16_20 
ROOT
HETATM    1  C4  UNL     1      16.942  19.812 -17.120  1.00  0.00     0.263 C 
HETATM    2  O1  UNL     1      17.179  19.164 -16.108  1.00  0.00    -0.267 OA
HETATM    3  N1  UNL     1      16.632  19.091 -18.310  1.00  0.00    -0.322 N 
ATOM      4  H1  UNL     1      16.500  19.588 -19.190  1.00  0.00     0.169 HD
ENDROOT
BRANCH   3   5
HETATM    5  C5  UNL     1      16.506  17.653 -18.261  1.00  0.00     0.036 A 
HETATM    6  C6  UNL     1      16.138  16.954 -17.140  1.00  0.00     0.040 A 
HETATM    7  C7  UNL     1      16.158  15.591 -17.078  1.00  0.00    -0.013 A 
HETATM    8  C14 UNL     1      16.590  14.940 -18.250  1.00  0.00     0.133 A 
HETATM    9  F1  UNL     1      16.638  13.564 -18.272  1.00  0.00    -0.205 F 
HETATM   10  C15 UNL     1      16.960  15.588 -19.385  1.00  0.00     0.007 A 
HETATM   11  C19 UNL     1      16.918  16.975 -19.397  1.00  0.00     0.044 A 
BRANCH   7  12
HETATM   12  C8  UNL     1      15.722  14.709 -16.008  1.00  0.00     0.075 C 
BRANCH  12  13
HETATM   13  C9  UNL     1      16.398  14.836 -14.703  1.00  0.00    -0.079 C 
HETATM   14  C10 UNL     1      17.180  15.874 -14.319  1.00  0.00    -0.024 C 
HETATM   15  C11 UNL     1      17.684  15.637 -12.932  1.00  0.00     0.027 C 
HETATM   16  C12 UNL     1      16.467  14.864 -12.371  1.00  0.00     0.008 C 
HETATM   17  C13 UNL     1      16.312  13.887 -13.566  1.00  0.00     0.034 C 
ENDBRANCH  12  13
ENDBRANCH   7  12
BRANCH  10  18
HETATM   18  C16 UNL     1      17.532  14.818 -20.514  1.00  0.00    -0.074 C 
HETATM   19  C17 UNL     1      19.038  14.754 -20.484  1.00  0.00     0.044 C 
HETATM   20  C18 UNL     1      16.874  14.911 -21.825  1.00  0.00     0.044 C 
ENDBRANCH  10  18
ENDBRANCH   3   5
BRANCH   1  21
HETATM   21  C3  UNL     1      17.002  21.290 -17.026  1.00  0.00     0.082 A 
HETATM   22  C2  UNL     1      17.977  22.228 -17.013  1.00  0.00    -0.021 A 
HETATM   23  C1  UNL     1      19.440  21.785 -17.023  1.00  0.00     0.051 C 
HETATM   24  C21 UNL     1      17.602  23.544 -17.015  1.00  0.00     0.074 A 
HETATM   25  C20 UNL     1      16.265  23.802 -17.030  1.00  0.00     0.097 A 
HETATM   26  C22 UNL     1      18.421  24.696 -17.026  1.00  0.00     0.264 A 
HETATM   27  S1  UNL     1      15.555  22.274 -17.046  1.00  0.00    -0.065 SA
HETATM   28  N3  UNL     1      15.736  25.067 -17.048  1.00  0.00    -0.297 N 
HETATM   29  C24 UNL     1      16.526  26.144 -17.052  1.00  0.00     0.331 A 
HETATM   30  C25 UNL     1      14.297  25.192 -17.048  1.00  0.00     0.162 C 
HETATM   31  N2  UNL     1      17.830  25.908 -17.043  1.00  0.00    -0.270 N 
HETATM   32  O3  UNL     1      16.021  27.278 -17.063  1.00  0.00    -0.246 OA
HETATM   33  C23 UNL     1      18.691  27.101 -17.070  1.00  0.00     0.164 C 
HETATM   34  O2  UNL     1      19.672  24.673 -17.020  1.00  0.00    -0.267 OA
ENDBRANCH   1  21
TORSDOF 5
ENDMDL
MODEL 3
REMARK VINA RESULT: -9.362395522      3.523      9.718
REMARK  5 active torsions:
REMARK  status: ('A' for Active; 'I' for Inactive)
REMARK    1  A    between atoms: C3_3  and  C4_4 
REMARK       I    between atoms: C4_4  and  N1_6 
REMARK    2  A    between atoms: N1_6  and  C5_8 
REMARK    3  A    between atoms: C7_10  and  C8_11 
REMARK    4  A    between atoms: C8_11  and  C9_12 
REMARK    5  A    between atoms: C15_19  and  C16_20 
ROOT
HETATM    1  C4  UNL     1      16.952  19.966 -17.045  1.00  0.00     0.263 C 
HETATM    2  O1  UNL     1      17.584  19.421 -17.942  1.00  0.00    -0.267 OA
HETATM    3  N1  UNL     1      16.226  19.131 -16.146  1.00  0.00    -0.322 N 
ATOM      4  H1  UNL     1      15.630  19.546 -15.431  1.00  0.00     0.169 HD
ENDROOT
BRANCH   3   5
HETATM    5  C5  UNL     1      16.341  17.695 -16.254  1.00  0.00     0.036 A 
HETATM    6  C6  UNL     1      15.921  16.974 -17.342  1.00  0.00     0.040 A 
HETATM    7  C7  UNL     1      15.913  15.609 -17.367  1.00  0.00    -0.013 A 
HETATM    8  C14 UNL     1      16.363  14.982 -16.189  1.00  0.00     0.133 A 
HETATM    9  F1  UNL     1      16.389  13.606 -16.131  1.00  0.00    -0.205 F 
HETATM   10  C15 UNL     1      16.792  15.653 -15.089  1.00  0.00     0.007 A 
HETATM   11  C19 UNL     1      16.784  17.040 -15.117  1.00  0.00     0.044 A 
BRANCH   7  12
HETATM   12  C8  UNL     1      15.584  14.707 -18.459  1.00  0.00     0.075 C 
BRANCH  12  13
HETATM   13  C9  UNL     1      16.430  14.764 -19.667  1.00  0.00    -0.079 C 
HETATM   14  C10 UNL     1      15.989  15.007 -20.925  1.00  0.00    -0.024 C 
HETATM   15  C11 UNL     1      17.143  14.982 -21.875  1.00  0.00     0.027 C 
HETATM   16  C12 UNL     1      18.236  15.532 -20.927  1.00  0.00     0.008 C 
HETATM   17  C13 UNL     1      17.904  14.614 -19.722  1.00  0.00     0.034 C 
ENDBRANCH  12  13
ENDBRANCH   7  12
BRANCH  10  18
HETATM   18  C16 UNL     1      17.113  14.903 -13.853  1.00  0.00    -0.074 C 
HETATM   19  C17 UNL     1      15.891  14.348 -13.164  1.00  0.00     0.044 C 
HETATM   20  C18 UNL     1      18.216  15.385 -13.010  1.00  0.00     0.044 C 
ENDBRANCH  10  18
ENDBRANCH   3   5
BRANCH   1  21
HETATM   21  C3  UNL     1      16.989  21.446 -16.971  1.00  0.00     0.082 A 
HETATM   22  C2  UNL     1      17.951  22.396 -16.923  1.00  0.00    -0.021 A 
HETATM   23  C1  UNL     1      19.417  21.972 -16.852  1.00  0.00     0.051 C 
HETATM   24  C21 UNL     1      17.560  23.707 -16.964  1.00  0.00     0.074 A 
HETATM   25  C20 UNL     1      16.222  23.948 -17.051  1.00  0.00     0.097 A 
HETATM   26  C22 UNL     1      18.364  24.869 -16.951  1.00  0.00     0.264 A 
HETATM   27  S1  UNL     1      15.533  22.411 -17.079  1.00  0.00    -0.065 SA
HETATM   28  N3  UNL     1      15.680  25.205 -17.114  1.00  0.00    -0.297 N 
HETATM   29  C24 UNL     1      16.456  26.292 -17.095  1.00  0.00     0.331 A 
HETATM   30  C25 UNL     1      14.241  25.311 -17.189  1.00  0.00     0.162 C 
HETATM   31  N2  UNL     1      17.760  26.073 -17.016  1.00  0.00    -0.270 N 
HETATM   32  O3  UNL     1      15.938  27.420 -17.149  1.00  0.00    -0.246 OA
HETATM   33  C23 UNL     1      18.606  27.277 -17.018  1.00  0.00     0.164 C 
HETATM   34  O2  UNL     1      19.614  24.863 -16.882  1.00  0.00    -0.267 OA
ENDBRANCH   1  21
TORSDOF 5
ENDMDL
MODEL 4
REMARK VINA RESULT: -9.244379504      0.837      3.784
REMARK  5 active torsions:
REMARK  status: ('A' for Active; 'I' for Inactive)
REMARK    1  A    between atoms: C3_3  and  C4_4 
REMARK       I    between atoms: C4_4  and  N1_6 
REMARK    2  A    between atoms: N1_6  and  C5_8 
REMARK    3  A    between atoms: C7_10  and  C8_11 
REMARK    4  A    between atoms: C8_11  and  C9_12 
REMARK    5  A    between atoms: C15_19  and  C16_20 
ROOT
HETATM    1  C4  UNL     1      17.235  20.771 -17.351  1.00  0.00     0.263 C 
HETATM    2  O1  UNL     1      16.559  21.339 -16.502  1.00  0.00    -0.267 OA
HETATM    3  N1  UNL     1      18.317  21.496 -17.929  1.00  0.00    -0.322 N 
ATOM      4  H1  UNL     1      18.859  21.088 -18.690  1.00  0.00     0.169 HD
ENDROOT
BRANCH   3   5
HETATM    5  C5  UNL     1      18.641  22.814 -17.433  1.00  0.00     0.036 A 
HETATM    6  C6  UNL     1      19.463  23.047 -16.360  1.00  0.00     0.040 A 
HETATM    7  C7  UNL     1      19.646  24.288 -15.823  1.00  0.00    -0.013 A 
HETATM    8  C14 UNL     1      18.925  25.326 -16.445  1.00  0.00     0.133 A 
HETATM    9  F1  UNL     1      19.055  26.611 -15.966  1.00  0.00    -0.205 F 
HETATM   10  C15 UNL     1      18.102  25.146 -17.511  1.00  0.00     0.007 A 
HETATM   11  C19 UNL     1      17.955  23.864 -18.020  1.00  0.00     0.044 A 
BRANCH   7  12
HETATM   12  C8  UNL     1      20.538  24.710 -14.756  1.00  0.00     0.075 C 
BRANCH  12  13
HETATM   13  C9  UNL     1      20.335  24.114 -13.422  1.00  0.00    -0.079 C 
HETATM   14  C10 UNL     1      19.197  24.194 -12.690  1.00  0.00    -0.024 C 
HETATM   15  C11 UNL     1      19.380  23.466 -11.397  1.00  0.00     0.027 C 
HETATM   16  C12 UNL     1      20.340  22.356 -11.889  1.00  0.00     0.008 C 
HETATM   17  C13 UNL     1      21.306  23.289 -12.665  1.00  0.00     0.034 C 
ENDBRANCH  12  13
ENDBRANCH   7  12
BRANCH  10  18
HETATM   18  C16 UNL     1      17.283  26.277 -18.002  1.00  0.00    -0.074 C 
HETATM   19  C17 UNL     1      15.877  26.270 -17.455  1.00  0.00     0.044 C 
HETATM   20  C18 UNL     1      17.479  26.732 -19.386  1.00  0.00     0.044 C 
ENDBRANCH  10  18
ENDBRANCH   3   5
BRANCH   1  21
HETATM   21  C3  UNL     1      16.871  19.380 -17.709  1.00  0.00     0.082 A 
HETATM   22  C2  UNL     1      16.894  18.623 -18.831  1.00  0.00    -0.021 A 
HETATM   23  C1  UNL     1      17.318  19.262 -20.153  1.00  0.00     0.051 C 
HETATM   24  C21 UNL     1      16.555  17.302 -18.721  1.00  0.00     0.074 A 
HETATM   25  C20 UNL     1      16.219  16.855 -17.480  1.00  0.00     0.097 A 
HETATM   26  C22 UNL     1      16.524  16.312 -19.729  1.00  0.00     0.264 A 
HETATM   27  S1  UNL     1      16.373  18.217 -16.500  1.00  0.00    -0.065 SA
HETATM   28  N3  UNL     1      15.871  15.556 -17.209  1.00  0.00    -0.297 N 
HETATM   29  C24 UNL     1      15.842  14.635 -18.176  1.00  0.00     0.331 A 
HETATM   30  C25 UNL     1      15.524  15.226 -15.846  1.00  0.00     0.162 C 
HETATM   31  N2  UNL     1      16.171  15.055 -19.388  1.00  0.00    -0.270 N 
HETATM   32  O3  UNL     1      15.518  13.468 -17.905  1.00  0.00    -0.246 OA
HETATM   33  C23 UNL     1      16.157  14.028 -20.442  1.00  0.00     0.164 C 
HETATM   34  O2  UNL     1      16.804  16.518 -20.931  1.00  0.00    -0.267 OA
ENDBRANCH   1  21
TORSDOF 5
ENDMDL
MODEL 5
REMARK VINA RESULT: -9.015451426      1.207      2.031
REMARK  5 active torsions:
REMARK  status: ('A' for Active; 'I' for Inactive)
REMARK    1  A    between atoms: C3_3  and  C4_4 
REMARK       I    between atoms: C4_4  and  N1_6 
REMARK    2  A    between atoms: N1_6  and  C5_8 
REMARK    3  A    between atoms: C7_10  and  C8_11 
REMARK    4  A    between atoms: C8_11  and  C9_12 
REMARK    5  A    between atoms: C15_19  and  C16_20 
ROOT
HETATM    1  C4  UNL     1      17.412  20.742 -17.740  1.00  0.00     0.263 C 
HETATM    2  O1  UNL     1      16.467  21.516 -17.833  1.00  0.00    -0.267 OA
HETATM    3  N1  UNL     1      18.655  21.267 -17.282  1.00  0.00    -0.322 N 
ATOM      4  H1  UNL     1      19.484  20.674 -17.258  1.00  0.00     0.169 HD
ENDROOT
BRANCH   3   5
HETATM    5  C5  UNL     1      18.734  22.644 -16.851  1.00  0.00     0.036 A 
HETATM    6  C6  UNL     1      18.203  23.696 -17.551  1.00  0.00     0.040 A 
HETATM    7  C7  UNL     1      18.407  24.999 -17.199  1.00  0.00    -0.013 A 
HETATM    8  C14 UNL     1      19.211  25.196 -16.058  1.00  0.00     0.133 A 
HETATM    9  F1  UNL     1      19.464  26.480 -15.632  1.00  0.00    -0.205 F 
HETATM   10  C15 UNL     1      19.755  24.186 -15.331  1.00  0.00     0.007 A 
HETATM   11  C19 UNL     1      19.514  22.880 -15.731  1.00  0.00     0.044 A 
BRANCH   7  12
HETATM   12  C8  UNL     1      17.850  26.210 -17.777  1.00  0.00     0.075 C 
BRANCH  12  13
HETATM   13  C9  UNL     1      16.559  26.687 -17.245  1.00  0.00    -0.079 C 
HETATM   14  C10 UNL     1      16.167  27.983 -17.176  1.00  0.00    -0.024 C 
HETATM   15  C11 UNL     1      14.799  28.063 -16.578  1.00  0.00     0.027 C 
HETATM   16  C12 UNL     1      14.230  26.731 -17.123  1.00  0.00     0.008 C 
HETATM   17  C13 UNL     1      15.446  25.848 -16.739  1.00  0.00     0.034 C 
ENDBRANCH  12  13
ENDBRANCH   7  12
BRANCH  10  18
HETATM   18  C16 UNL     1      20.699  24.501 -14.234  1.00  0.00    -0.074 C 
HETATM   19  C17 UNL     1      22.080  23.937 -14.461  1.00  0.00     0.044 C 
HETATM   20  C18 UNL     1      20.186  24.526 -12.857  1.00  0.00     0.044 C 
ENDBRANCH  10  18
ENDBRANCH   3   5
BRANCH   1  21
HETATM   21  C3  UNL     1      17.187  19.325 -18.114  1.00  0.00     0.082 A 
HETATM   22  C2  UNL     1      16.632  18.238 -17.531  1.00  0.00    -0.021 A 
HETATM   23  C1  UNL     1      16.132  18.338 -16.090  1.00  0.00     0.051 C 
HETATM   24  C21 UNL     1      16.524  17.095 -18.275  1.00  0.00     0.074 A 
HETATM   25  C20 UNL     1      16.988  17.148 -19.554  1.00  0.00     0.097 A 
HETATM   26  C22 UNL     1      15.968  15.850 -17.905  1.00  0.00     0.264 A 
HETATM   27  S1  UNL     1      17.550  18.728 -19.718  1.00  0.00    -0.065 SA
HETATM   28  N3  UNL     1      16.937  16.090 -20.425  1.00  0.00    -0.297 N 
HETATM   29  C24 UNL     1      16.413  14.918 -20.055  1.00  0.00     0.331 A 
HETATM   30  C25 UNL     1      17.481  16.285 -21.749  1.00  0.00     0.162 C 
HETATM   31  N2  UNL     1      15.952  14.854 -18.815  1.00  0.00    -0.270 N 
HETATM   32  O3  UNL     1      16.383  13.975 -20.862  1.00  0.00    -0.246 OA
HETATM   33  C23 UNL     1      15.358  13.565 -18.425  1.00  0.00     0.164 C 
HETATM   34  O2  UNL     1      15.483  15.598 -16.779  1.00  0.00    -0.267 OA
ENDBRANCH   1  21
TORSDOF 5
ENDMDL
