MODEL 1
REMARK VINA RESULT: -8.850636863      0.000      0.000
REMARK  4 active torsions:
REMARK  status: ('A' for Active; 'I' for Inactive)
REMARK    1  A    between atoms: C6_7  and  S2_8 
REMARK    2  A    between atoms: S2_8  and  N1_11 
REMARK    3  A    between atoms: N1_11  and  C7_13 
REMARK    4  A    between atoms: C15_27  and  N5_28 
ROOT
HETATM    1  S2  UNL     1      23.234  43.467  17.327  1.00  0.00     0.276 S 
HETATM    2  O1  UNL     1      23.620  43.914  15.936  1.00  0.00    -0.200 OA
HETATM    3  O2  UNL     1      24.452  43.694  18.212  1.00  0.00    -0.200 OA
ENDROOT
BRANCH   1   4
HETATM    4  C6  UNL     1      22.981  41.737  17.288  1.00  0.00     0.081 A 
HETATM    5  C5  UNL     1      23.187  41.061  16.096  1.00  0.00     0.027 A 
HETATM    6  C4  UNL     1      22.996  39.695  16.034  1.00  0.00     0.021 A 
HETATM    7  C3  UNL     1      22.600  39.057  17.183  1.00  0.00     0.018 A 
HETATM    8  S1  UNL     1      22.276  37.285  17.389  1.00  0.00    -0.088 SA
HETATM    9  C14 UNL     1      22.377  39.648  18.384  1.00  0.00     0.010 A 
HETATM   10  C2  UNL     1      21.847  37.413  19.113  1.00  0.00     0.023 A 
HETATM   11  C1  UNL     1      21.495  36.406  19.878  1.00  0.00     0.034 C 
HETATM   12  C15 UNL     1      21.966  38.795  19.462  1.00  0.00     0.054 A 
HETATM   13  C13 UNL     1      22.584  41.037  18.403  1.00  0.00     0.040 A 
BRANCH  12  14
HETATM   14  N5  UNL     1      21.708  39.178  20.677  1.00  0.00    -0.397 N 
ATOM     15  H52 UNL     1      20.804  39.111  21.143  1.00  0.00     0.156 HD
ATOM     16  H51 UNL     1      22.449  39.587  21.247  1.00  0.00     0.156 HD
ENDBRANCH  12  14
ENDBRANCH   1   4
BRANCH   1  17
HETATM   17  N1  UNL     1      21.874  44.321  17.886  1.00  0.00    -0.110 N 
ATOM     18  H1  UNL     1      21.561  44.249  18.854  1.00  0.00     0.197 HD
BRANCH  17  19
HETATM   19  C7  UNL     1      21.245  45.076  17.021  1.00  0.00     0.714 A 
HETATM   20  N2  UNL     1      21.438  46.373  16.741  1.00  0.00    -0.129 N 
HETATM   21  N3  UNL     1      20.596  46.766  15.802  1.00  0.00    -0.270 N 
ATOM     22  H2  UNL     1      22.134  46.970  17.189  1.00  0.00     0.205 HD
HETATM   23  C8  UNL     1      19.843  45.714  15.462  1.00  0.00     0.143 A 
ATOM     24  H3  UNL     1      20.532  47.704  15.406  1.00  0.00     0.189 HD
HETATM   25  C9  UNL     1      18.808  45.517  14.549  1.00  0.00     0.052 A 
HETATM   26  N4  UNL     1      20.239  44.669  16.211  1.00  0.00    -0.139 N 
HETATM   27  C10 UNL     1      18.190  44.295  14.398  1.00  0.00     0.024 A 
HETATM   28  C11 UNL     1      18.619  43.257  15.175  1.00  0.00     0.027 A 
HETATM   29 BR1  UNL     1      17.794  41.542  15.003  1.00  0.00    -0.050 Br
HETATM   30  C12 UNL     1      19.634  43.466  16.065  1.00  0.00     0.136 A 
ENDBRANCH  17  19
ENDBRANCH   1  17
TORSDOF 4
ENDMDL
MODEL 2
REMARK VINA RESULT: -8.172573808      1.354      1.732
REMARK  4 active torsions:
REMARK  status: ('A' for Active; 'I' for Inactive)
REMARK    1  A    between atoms: C6_7  and  S2_8 
REMARK    2  A    between atoms: S2_8  and  N1_11 
REMARK    3  A    between atoms: N1_11  and  C7_13 
REMARK    4  A    between atoms: C15_27  and  N5_28 
ROOT
HETATM    1  S2  UNL     1      23.245  43.680  17.448  1.00  0.00     0.276 S 
HETATM    2  O1  UNL     1      23.249  43.448  15.955  1.00  0.00    -0.200 OA
HETATM    3  O2  UNL     1      24.533  44.422  17.778  1.00  0.00    -0.200 OA
ENDROOT
BRANCH   1   4
HETATM    4  C6  UNL     1      23.367  42.125  18.238  1.00  0.00     0.081 A 
HETATM    5  C5  UNL     1      24.013  42.049  19.462  1.00  0.00     0.027 A 
HETATM    6  C4  UNL     1      24.125  40.835  20.110  1.00  0.00     0.021 A 
HETATM    7  C3  UNL     1      23.579  39.735  19.497  1.00  0.00     0.018 A 
HETATM    8  S1  UNL     1      23.579  38.031  20.114  1.00  0.00    -0.088 SA
HETATM    9  C14 UNL     1      22.934  39.730  18.303  1.00  0.00     0.010 A 
HETATM   10  C2  UNL     1      22.696  37.367  18.717  1.00  0.00     0.023 A 
HETATM   11  C1  UNL     1      22.367  36.106  18.564  1.00  0.00     0.034 C 
HETATM   12  C15 UNL     1      22.438  38.466  17.838  1.00  0.00     0.054 A 
HETATM   13  C13 UNL     1      22.842  40.985  17.678  1.00  0.00     0.040 A 
BRANCH  12  14
HETATM   14  N5  UNL     1      21.798  38.265  16.725  1.00  0.00    -0.397 N 
ATOM     15  H52 UNL     1      20.819  37.992  16.642  1.00  0.00     0.156 HD
ATOM     16  H51 UNL     1      22.282  38.379  15.834  1.00  0.00     0.156 HD
ENDBRANCH  12  14
ENDBRANCH   1   4
BRANCH   1  17
HETATM   17  N1  UNL     1      21.867  44.557  17.925  1.00  0.00    -0.110 N 
ATOM     18  H1  UNL     1      21.540  44.549  18.891  1.00  0.00     0.197 HD
BRANCH  17  19
HETATM   19  C7  UNL     1      21.245  45.243  16.999  1.00  0.00     0.714 A 
HETATM   20  N2  UNL     1      21.425  46.521  16.638  1.00  0.00    -0.129 N 
HETATM   21  N3  UNL     1      20.597  46.839  15.658  1.00  0.00    -0.270 N 
ATOM     22  H2  UNL     1      22.103  47.158  17.059  1.00  0.00     0.205 HD
HETATM   23  C8  UNL     1      19.868  45.754  15.374  1.00  0.00     0.143 A 
ATOM     24  H3  UNL     1      20.528  47.747  15.200  1.00  0.00     0.189 HD
HETATM   25  C9  UNL     1      18.855  45.481  14.455  1.00  0.00     0.052 A 
HETATM   26  N4  UNL     1      20.263  44.767  16.197  1.00  0.00    -0.139 N 
HETATM   27  C10 UNL     1      18.258  44.241  14.373  1.00  0.00     0.024 A 
HETATM   28  C11 UNL     1      18.686  43.264  15.226  1.00  0.00     0.027 A 
HETATM   29 BR1  UNL     1      17.891  41.528  15.151  1.00  0.00    -0.050 Br
HETATM   30  C12 UNL     1      19.680  43.547  16.120  1.00  0.00     0.136 A 
ENDBRANCH  17  19
ENDBRANCH   1  17
TORSDOF 4
ENDMDL
MODEL 3
REMARK VINA RESULT: -8.033121187      2.616      6.696
REMARK  4 active torsions:
REMARK  status: ('A' for Active; 'I' for Inactive)
REMARK    1  A    between atoms: C6_7  and  S2_8 
REMARK    2  A    between atoms: S2_8  and  N1_11 
REMARK    3  A    between atoms: N1_11  and  C7_13 
REMARK    4  A    between atoms: C15_27  and  N5_28 
ROOT
HETATM    1  S2  UNL     1      23.384  41.440  19.965  1.00  0.00     0.276 S 
HETATM    2  O1  UNL     1      23.652  42.297  21.181  1.00  0.00    -0.200 OA
HETATM    3  O2  UNL     1      24.697  40.749  19.621  1.00  0.00    -0.200 OA
ENDROOT
BRANCH   1   4
HETATM    4  C6  UNL     1      23.031  42.502  18.622  1.00  0.00     0.081 A 
HETATM    5  C5  UNL     1      24.085  43.096  17.947  1.00  0.00     0.027 A 
HETATM    6  C4  UNL     1      23.838  43.939  16.882  1.00  0.00     0.021 A 
HETATM    7  C3  UNL     1      22.528  44.156  16.535  1.00  0.00     0.018 A 
HETATM    8  S1  UNL     1      21.915  45.207  15.191  1.00  0.00    -0.088 SA
HETATM    9  C14 UNL     1      21.444  43.612  17.146  1.00  0.00     0.010 A 
HETATM   10  C2  UNL     1      20.196  44.868  15.510  1.00  0.00     0.023 A 
HETATM   11  C1  UNL     1      19.191  45.367  14.829  1.00  0.00     0.034 C 
HETATM   12  C15 UNL     1      20.157  43.971  16.624  1.00  0.00     0.054 A 
HETATM   13  C13 UNL     1      21.741  42.761  18.223  1.00  0.00     0.040 A 
BRANCH  12  14
HETATM   14  N5  UNL     1      19.011  43.553  17.075  1.00  0.00    -0.397 N 
ATOM     15  H52 UNL     1      18.195  43.327  16.508  1.00  0.00     0.156 HD
ATOM     16  H51 UNL     1      18.877  43.429  18.079  1.00  0.00     0.156 HD
ENDBRANCH  12  14
ENDBRANCH   1   4
BRANCH   1  17
HETATM   17  N1  UNL     1      22.139  40.322  20.269  1.00  0.00    -0.110 N 
ATOM     18  H1  UNL     1      21.296  40.590  20.775  1.00  0.00     0.197 HD
BRANCH  17  19
HETATM   19  C7  UNL     1      22.310  39.102  19.825  1.00  0.00     0.714 A 
HETATM   20  N2  UNL     1      22.295  37.949  20.509  1.00  0.00    -0.129 N 
HETATM   21  N3  UNL     1      22.507  36.932  19.693  1.00  0.00    -0.270 N 
ATOM     22  H2  UNL     1      22.142  37.869  21.515  1.00  0.00     0.205 HD
HETATM   23  C8  UNL     1      22.662  37.425  18.460  1.00  0.00     0.143 A 
ATOM     24  H3  UNL     1      22.546  35.947  19.957  1.00  0.00     0.189 HD
HETATM   25  C9  UNL     1      22.906  36.853  17.211  1.00  0.00     0.052 A 
HETATM   26  N4  UNL     1      22.542  38.762  18.534  1.00  0.00    -0.139 N 
HETATM   27  C10 UNL     1      23.024  37.616  16.069  1.00  0.00     0.024 A 
HETATM   28  C11 UNL     1      22.896  38.971  16.184  1.00  0.00     0.027 A 
HETATM   29 BR1  UNL     1      23.051  40.072  14.630  1.00  0.00    -0.050 Br
HETATM   30  C12 UNL     1      22.657  39.515  17.415  1.00  0.00     0.136 A 
ENDBRANCH  17  19
ENDBRANCH   1  17
TORSDOF 4
ENDMDL
MODEL 4
REMARK VINA RESULT: -7.916668792      1.150      1.263
REMARK  4 active torsions:
REMARK  status: ('A' for Active; 'I' for Inactive)
REMARK    1  A    between atoms: C6_7  and  S2_8 
REMARK    2  A    between atoms: S2_8  and  N1_11 
REMARK    3  A    between atoms: N1_11  and  C7_13 
REMARK    4  A    between atoms: C15_27  and  N5_28 
ROOT
HETATM    1  S2  UNL     1      23.228  43.164  17.646  1.00  0.00     0.276 S 
HETATM    2  O1  UNL     1      24.451  43.363  18.512  1.00  0.00    -0.200 OA
HETATM    3  O2  UNL     1      22.024  43.540  18.498  1.00  0.00    -0.200 OA
ENDROOT
BRANCH   1   4
HETATM    4  C6  UNL     1      23.072  41.453  17.317  1.00  0.00     0.081 A 
HETATM    5  C5  UNL     1      23.014  41.032  15.998  1.00  0.00     0.027 A 
HETATM    6  C4  UNL     1      22.891  39.688  15.707  1.00  0.00     0.021 A 
HETATM    7  C3  UNL     1      22.829  38.813  16.762  1.00  0.00     0.018 A 
HETATM    8  S1  UNL     1      22.669  37.009  16.675  1.00  0.00    -0.088 SA
HETATM    9  C14 UNL     1      22.880  39.149  18.076  1.00  0.00     0.010 A 
HETATM   10  C2  UNL     1      22.675  36.774  18.440  1.00  0.00     0.023 A 
HETATM   11  C1  UNL     1      22.582  35.614  19.046  1.00  0.00     0.034 C 
HETATM   12  C15 UNL     1      22.798  38.074  19.024  1.00  0.00     0.054 A 
HETATM   13  C13 UNL     1      23.005  40.524  18.328  1.00  0.00     0.040 A 
BRANCH  12  14
HETATM   14  N5  UNL     1      22.830  38.200  20.318  1.00  0.00    -0.397 N 
ATOM     15  H52 UNL     1      23.150  39.022  20.829  1.00  0.00     0.156 HD
ATOM     16  H51 UNL     1      22.516  37.430  20.909  1.00  0.00     0.156 HD
ENDBRANCH  12  14
ENDBRANCH   1   4
BRANCH   1  17
HETATM   17  N1  UNL     1      23.323  44.103  16.231  1.00  0.00    -0.110 N 
ATOM     18  H1  UNL     1      24.052  43.944  15.535  1.00  0.00     0.197 HD
BRANCH  17  19
HETATM   19  C7  UNL     1      22.421  45.038  16.072  1.00  0.00     0.714 A 
HETATM   20  N2  UNL     1      22.525  46.354  16.307  1.00  0.00    -0.129 N 
HETATM   21  N3  UNL     1      21.387  46.960  16.019  1.00  0.00    -0.270 N 
ATOM     22  H2  UNL     1      23.362  46.820  16.657  1.00  0.00     0.205 HD
HETATM   23  C8  UNL     1      20.527  46.029  15.590  1.00  0.00     0.143 A 
ATOM     24  H3  UNL     1      21.198  47.958  16.107  1.00  0.00     0.189 HD
HETATM   25  C9  UNL     1      19.204  46.060  15.151  1.00  0.00     0.052 A 
HETATM   26  N4  UNL     1      21.159  44.843  15.621  1.00  0.00    -0.139 N 
HETATM   27  C10 UNL     1      18.538  44.920  14.755  1.00  0.00     0.024 A 
HETATM   28  C11 UNL     1      19.213  43.733  14.801  1.00  0.00     0.027 A 
HETATM   29 BR1  UNL     1      18.334  42.124  14.261  1.00  0.00    -0.050 Br
HETATM   30  C12 UNL     1      20.509  43.720  15.232  1.00  0.00     0.136 A 
ENDBRANCH  17  19
ENDBRANCH   1  17
TORSDOF 4
ENDMDL
MODEL 5
REMARK VINA RESULT: -7.839898728      2.625      6.722
REMARK  4 active torsions:
REMARK  status: ('A' for Active; 'I' for Inactive)
REMARK    1  A    between atoms: C6_7  and  S2_8 
REMARK    2  A    between atoms: S2_8  and  N1_11 
REMARK    3  A    between atoms: N1_11  and  C7_13 
REMARK    4  A    between atoms: C15_27  and  N5_28 
ROOT
HETATM    1  S2  UNL     1      23.968  41.803  19.943  1.00  0.00     0.276 S 
HETATM    2  O1  UNL     1      23.413  41.955  21.341  1.00  0.00    -0.200 OA
HETATM    3  O2  UNL     1      24.873  43.003  19.700  1.00  0.00    -0.200 OA
ENDROOT
BRANCH   1   4
HETATM    4  C6  UNL     1      22.641  41.962  18.815  1.00  0.00     0.081 A 
HETATM    5  C5  UNL     1      21.561  41.103  18.933  1.00  0.00     0.027 A 
HETATM    6  C4  UNL     1      20.498  41.204  18.057  1.00  0.00     0.021 A 
HETATM    7  C3  UNL     1      20.565  42.173  17.087  1.00  0.00     0.018 A 
HETATM    8  S1  UNL     1      19.324  42.528  15.815  1.00  0.00    -0.088 SA
HETATM    9  C14 UNL     1      21.587  43.048  16.909  1.00  0.00     0.010 A 
HETATM   10  C2  UNL     1      20.245  43.864  15.079  1.00  0.00     0.023 A 
HETATM   11  C1  UNL     1      19.850  44.573  14.048  1.00  0.00     0.034 C 
HETATM   12  C15 UNL     1      21.457  43.985  15.829  1.00  0.00     0.054 A 
HETATM   13  C13 UNL     1      22.646  42.911  17.820  1.00  0.00     0.040 A 
BRANCH  12  14
HETATM   14  N5  UNL     1      22.328  44.895  15.505  1.00  0.00    -0.397 N 
ATOM     15  H52 UNL     1      22.116  45.793  15.072  1.00  0.00     0.156 HD
ATOM     16  H51 UNL     1      23.319  44.733  15.683  1.00  0.00     0.156 HD
ENDBRANCH  12  14
ENDBRANCH   1   4
BRANCH   1  17
HETATM   17  N1  UNL     1      24.805  40.332  19.776  1.00  0.00    -0.110 N 
ATOM     18  H1  UNL     1      25.824  40.299  19.760  1.00  0.00     0.197 HD
BRANCH  17  19
HETATM   19  C7  UNL     1      24.085  39.243  19.670  1.00  0.00     0.714 A 
HETATM   20  N2  UNL     1      23.555  38.489  20.643  1.00  0.00    -0.129 N 
HETATM   21  N3  UNL     1      22.894  37.471  20.121  1.00  0.00    -0.270 N 
ATOM     22  H2  UNL     1      23.649  38.673  21.642  1.00  0.00     0.205 HD
HETATM   23  C8  UNL     1      22.991  37.561  18.791  1.00  0.00     0.143 A 
ATOM     24  H3  UNL     1      22.397  36.747  20.640  1.00  0.00     0.189 HD
HETATM   25  C9  UNL     1      22.511  36.794  17.729  1.00  0.00     0.052 A 
HETATM   26  N4  UNL     1      23.724  38.652  18.507  1.00  0.00    -0.139 N 
HETATM   27  C10 UNL     1      22.767  37.124  16.416  1.00  0.00     0.024 A 
HETATM   28  C11 UNL     1      23.515  38.238  16.166  1.00  0.00     0.027 A 
HETATM   29 BR1  UNL     1      23.897  38.738  14.362  1.00  0.00    -0.050 Br
HETATM   30  C12 UNL     1      23.978  38.979  17.217  1.00  0.00     0.136 A 
ENDBRANCH  17  19
ENDBRANCH   1  17
TORSDOF 4
ENDMDL
