MODEL 1
REMARK VINA RESULT: -6.398280405      0.000      0.000
REMARK  4 active torsions:
REMARK  status: ('A' for Active; 'I' for Inactive)
REMARK    1  A    between atoms: N1_2  and  C2_4 
REMARK    2  A    between atoms: C5_9  and  N3_10 
REMARK    3  A    between atoms: N3_10  and  C6_12 
REMARK    4  A    between atoms: C17_28  and  O1_29 
ROOT
HETATM    1  O1  UNL     1      18.250  42.615  15.108  1.00  0.00    -0.221 OA
HETATM    2  C18 UNL     1      17.673  41.629  15.045  1.00  0.00     0.235 C 
HETATM    3  N6  UNL     1      17.112  40.637  14.978  1.00  0.00    -0.164 NA
ENDROOT
BRANCH   1   4
HETATM    4  C17 UNL     1      18.934  43.783  15.267  1.00  0.00     0.169 A 
HETATM    5  C13 UNL     1      20.099  43.827  16.064  1.00  0.00     0.025 A 
HETATM    6  C12 UNL     1      20.477  42.530  16.673  1.00  0.00     0.092 A 
HETATM    7  C14 UNL     1      20.815  44.982  16.249  1.00  0.00     0.047 A 
HETATM    8  C4  UNL     1      21.724  42.574  17.470  1.00  0.00     0.036 A 
HETATM    9  C3  UNL     1      22.442  43.735  17.653  1.00  0.00     0.133 A 
HETATM   10  C5  UNL     1      22.207  41.392  18.063  1.00  0.00     0.132 A 
HETATM   11  N2  UNL     1      23.574  43.694  18.388  1.00  0.00    -0.176 N 
HETATM   12  N7  UNL     1      22.008  44.952  17.055  1.00  0.00    -0.336 N 
HETATM   13  C2  UNL     1      24.043  42.548  18.963  1.00  0.00     0.680 A 
ATOM     14  H2  UNL     1      24.102  44.557  18.519  1.00  0.00     0.186 HD
HETATM   15  N4  UNL     1      23.339  41.417  18.782  1.00  0.00    -0.176 N 
ATOM     16  H4  UNL     1      23.676  40.551  19.204  1.00  0.00     0.186 HD
HETATM   17  C19 UNL     1      22.690  46.193  17.212  1.00  0.00     0.158 C 
HETATM   18  C15 UNL     1      20.369  46.121  15.634  1.00  0.00     0.047 A 
HETATM   19  C16 UNL     1      19.226  46.086  14.850  1.00  0.00     0.092 A 
HETATM   20  N5  UNL     1      18.555  44.937  14.694  1.00  0.00    -0.345 N 
ATOM     21  H5  UNL     1      17.718  44.939  14.111  1.00  0.00     0.167 HD
BRANCH  13  22
HETATM   22  N1  UNL     1      25.118  42.527  19.651  1.00  0.00    -0.230 N 
HETATM   23  C1  UNL     1      25.340  41.675  20.787  1.00  0.00     0.165 C 
ATOM     24  H1  UNL     1      25.871  43.159  19.376  1.00  0.00     0.177 HD
ENDBRANCH  13  22
BRANCH  10  25
HETATM   25  N3  UNL     1      21.538  40.308  17.901  1.00  0.00    -0.341 N 
ATOM     26  H3  UNL     1      21.039  40.215  17.016  1.00  0.00     0.167 HD
BRANCH  25  27
HETATM   27  C6  UNL     1      21.413  39.241  18.796  1.00  0.00     0.034 A 
HETATM   28  C7  UNL     1      20.726  39.365  19.989  1.00  0.00     0.029 A 
HETATM   29  C8  UNL     1      20.618  38.281  20.854  1.00  0.00     0.004 A 
HETATM   30  C9  UNL     1      21.185  37.073  20.549  1.00  0.00     0.019 A 
HETATM   31  C10 UNL     1      21.869  36.931  19.372  1.00  0.00     0.013 A 
HETATM   32 BR1  UNL     1      22.637  35.243  18.968  1.00  0.00    -0.051 Br
HETATM   33  C11 UNL     1      21.967  38.009  18.529  1.00  0.00     0.048 A 
ENDBRANCH  25  27
ENDBRANCH  10  25
ENDBRANCH   1   4
TORSDOF 4
ENDMDL
MODEL 2
REMARK VINA RESULT: -6.141650065      3.243      6.074
REMARK  4 active torsions:
REMARK  status: ('A' for Active; 'I' for Inactive)
REMARK    1  A    between atoms: N1_2  and  C2_4 
REMARK    2  A    between atoms: C5_9  and  N3_10 
REMARK    3  A    between atoms: N3_10  and  C6_12 
REMARK    4  A    between atoms: C17_28  and  O1_29 
ROOT
HETATM    1  O1  UNL     1      23.194  44.927  16.922  1.00  0.00    -0.221 OA
HETATM    2  C18 UNL     1      22.620  45.490  16.107  1.00  0.00     0.235 C 
HETATM    3  N6  UNL     1      22.036  46.037  15.293  1.00  0.00    -0.164 NA
ENDROOT
BRANCH   1   4
HETATM    4  C17 UNL     1      23.839  44.307  17.949  1.00  0.00     0.169 A 
HETATM    5  C13 UNL     1      23.767  42.904  18.096  1.00  0.00     0.025 A 
HETATM    6  C12 UNL     1      22.955  42.219  17.063  1.00  0.00     0.092 A 
HETATM    7  C14 UNL     1      24.402  42.242  19.116  1.00  0.00     0.047 A 
HETATM    8  C4  UNL     1      22.921  40.745  17.198  1.00  0.00     0.036 A 
HETATM    9  C3  UNL     1      23.561  40.082  18.221  1.00  0.00     0.133 A 
HETATM   10  C5  UNL     1      22.215  39.981  16.248  1.00  0.00     0.132 A 
HETATM   11  N2  UNL     1      23.489  38.734  18.273  1.00  0.00    -0.176 N 
HETATM   12  N7  UNL     1      24.306  40.807  19.193  1.00  0.00    -0.336 N 
HETATM   13  C2  UNL     1      22.805  37.993  17.353  1.00  0.00     0.680 A 
ATOM     14  H2  UNL     1      23.966  38.249  19.033  1.00  0.00     0.186 HD
HETATM   15  N4  UNL     1      22.181  38.644  16.355  1.00  0.00    -0.176 N 
ATOM     16  H4  UNL     1      21.667  38.106  15.658  1.00  0.00     0.186 HD
HETATM   17  C19 UNL     1      24.981  40.192  20.287  1.00  0.00     0.158 C 
HETATM   18  C15 UNL     1      25.125  42.983  20.012  1.00  0.00     0.047 A 
HETATM   19  C16 UNL     1      25.201  44.360  19.875  1.00  0.00     0.092 A 
HETATM   20  N5  UNL     1      24.567  44.969  18.864  1.00  0.00    -0.345 N 
ATOM     21  H5  UNL     1      24.640  45.983  18.785  1.00  0.00     0.167 HD
BRANCH  13  22
HETATM   22  N1  UNL     1      22.752  36.720  17.415  1.00  0.00    -0.230 N 
HETATM   23  C1  UNL     1      22.139  35.982  18.486  1.00  0.00     0.165 C 
ATOM     24  H1  UNL     1      23.172  36.188  16.652  1.00  0.00     0.177 HD
ENDBRANCH  13  22
BRANCH  10  25
HETATM   25  N3  UNL     1      21.612  40.594  15.295  1.00  0.00    -0.341 N 
ATOM     26  H3  UNL     1      22.044  40.531  14.374  1.00  0.00     0.167 HD
BRANCH  25  27
HETATM   27  C6  UNL     1      20.430  41.338  15.373  1.00  0.00     0.034 A 
HETATM   28  C7  UNL     1      19.336  40.897  16.095  1.00  0.00     0.029 A 
HETATM   29  C8  UNL     1      18.178  41.664  16.155  1.00  0.00     0.004 A 
HETATM   30  C9  UNL     1      18.092  42.867  15.506  1.00  0.00     0.019 A 
HETATM   31  C10 UNL     1      19.164  43.320  14.787  1.00  0.00     0.013 A 
HETATM   32 BR1  UNL     1      19.022  44.994  13.905  1.00  0.00    -0.051 Br
HETATM   33  C11 UNL     1      20.299  42.552  14.737  1.00  0.00     0.048 A 
ENDBRANCH  25  27
ENDBRANCH  10  25
ENDBRANCH   1   4
TORSDOF 4
ENDMDL
MODEL 3
REMARK VINA RESULT: -6.051848198      1.231      1.788
REMARK  4 active torsions:
REMARK  status: ('A' for Active; 'I' for Inactive)
REMARK    1  A    between atoms: N1_2  and  C2_4 
REMARK    2  A    between atoms: C5_9  and  N3_10 
REMARK    3  A    between atoms: N3_10  and  C6_12 
REMARK    4  A    between atoms: C17_28  and  O1_29 
ROOT
HETATM    1  O1  UNL     1      18.017  42.395  15.242  1.00  0.00    -0.221 OA
HETATM    2  C18 UNL     1      17.504  41.372  15.247  1.00  0.00     0.235 C 
HETATM    3  N6  UNL     1      16.978  40.358  15.261  1.00  0.00    -0.164 NA
ENDROOT
BRANCH   1   4
HETATM    4  C17 UNL     1      18.603  43.621  15.155  1.00  0.00     0.169 A 
HETATM    5  C13 UNL     1      19.797  43.894  15.858  1.00  0.00     0.025 A 
HETATM    6  C12 UNL     1      20.315  42.758  16.655  1.00  0.00     0.092 A 
HETATM    7  C14 UNL     1      20.419  45.115  15.797  1.00  0.00     0.047 A 
HETATM    8  C4  UNL     1      21.591  43.037  17.353  1.00  0.00     0.036 A 
HETATM    9  C3  UNL     1      22.214  44.263  17.289  1.00  0.00     0.133 A 
HETATM   10  C5  UNL     1      22.202  42.018  18.109  1.00  0.00     0.132 A 
HETATM   11  N2  UNL     1      23.379  44.439  17.948  1.00  0.00    -0.176 N 
HETATM   12  N7  UNL     1      21.648  45.319  16.520  1.00  0.00    -0.336 N 
HETATM   13  C2  UNL     1      23.973  43.452  18.681  1.00  0.00     0.680 A 
ATOM     14  H2  UNL     1      23.836  45.350  17.896  1.00  0.00     0.186 HD
HETATM   15  N4  UNL     1      23.361  42.256  18.741  1.00  0.00    -0.176 N 
ATOM     16  H4  UNL     1      23.791  41.507  19.283  1.00  0.00     0.186 HD
HETATM   17  C19 UNL     1      22.226  46.617  16.419  1.00  0.00     0.158 C 
HETATM   18  C15 UNL     1      19.847  46.091  15.025  1.00  0.00     0.047 A 
HETATM   19  C16 UNL     1      18.674  45.831  14.332  1.00  0.00     0.092 A 
HETATM   20  N5  UNL     1      18.099  44.624  14.417  1.00  0.00    -0.345 N 
ATOM     21  H5  UNL     1      17.238  44.459  13.896  1.00  0.00     0.167 HD
BRANCH  13  22
HETATM   22  N1  UNL     1      25.077  43.635  19.293  1.00  0.00    -0.230 N 
HETATM   23  C1  UNL     1      25.507  44.894  19.836  1.00  0.00     0.165 C 
ATOM     24  H1  UNL     1      25.698  42.833  19.404  1.00  0.00     0.177 HD
ENDBRANCH  13  22
BRANCH  10  25
HETATM   25  N3  UNL     1      21.622  40.874  18.177  1.00  0.00    -0.341 N 
ATOM     26  H3  UNL     1      20.708  40.859  18.630  1.00  0.00     0.167 HD
BRANCH  25  27
HETATM   27  C6  UNL     1      22.097  39.648  17.703  1.00  0.00     0.034 A 
HETATM   28  C7  UNL     1      22.815  39.549  16.525  1.00  0.00     0.029 A 
HETATM   29  C8  UNL     1      23.277  38.313  16.085  1.00  0.00     0.004 A 
HETATM   30  C9  UNL     1      23.034  37.172  16.801  1.00  0.00     0.019 A 
HETATM   31  C10 UNL     1      22.325  37.250  17.969  1.00  0.00     0.013 A 
HETATM   32 BR1  UNL     1      22.011  35.654  18.947  1.00  0.00    -0.051 Br
HETATM   33  C11 UNL     1      21.876  38.475  18.390  1.00  0.00     0.048 A 
ENDBRANCH  25  27
ENDBRANCH  10  25
ENDBRANCH   1   4
TORSDOF 4
ENDMDL
MODEL 4
REMARK VINA RESULT: -5.443727557      1.188      1.304
REMARK  4 active torsions:
REMARK  status: ('A' for Active; 'I' for Inactive)
REMARK    1  A    between atoms: N1_2  and  C2_4 
REMARK    2  A    between atoms: C5_9  and  N3_10 
REMARK    3  A    between atoms: N3_10  and  C6_12 
REMARK    4  A    between atoms: C17_28  and  O1_29 
ROOT
HETATM    1  O1  UNL     1      17.767  42.166  15.510  1.00  0.00    -0.221 OA
HETATM    2  C18 UNL     1      17.062  41.302  15.771  1.00  0.00     0.235 C 
HETATM    3  N6  UNL     1      16.351  40.451  16.042  1.00  0.00    -0.164 NA
ENDROOT
BRANCH   1   4
HETATM    4  C17 UNL     1      18.560  43.206  15.130  1.00  0.00     0.169 A 
HETATM    5  C13 UNL     1      19.756  43.486  15.827  1.00  0.00     0.025 A 
HETATM    6  C12 UNL     1      20.038  42.569  16.957  1.00  0.00     0.092 A 
HETATM    7  C14 UNL     1      20.581  44.523  15.476  1.00  0.00     0.047 A 
HETATM    8  C4  UNL     1      21.315  42.841  17.654  1.00  0.00     0.036 A 
HETATM    9  C3  UNL     1      22.144  43.882  17.300  1.00  0.00     0.133 A 
HETATM   10  C5  UNL     1      21.711  42.008  18.719  1.00  0.00     0.132 A 
HETATM   11  N2  UNL     1      23.296  44.061  17.980  1.00  0.00    -0.176 N 
HETATM   12  N7  UNL     1      21.799  44.738  16.216  1.00  0.00    -0.336 N 
HETATM   13  C2  UNL     1      23.680  43.255  19.011  1.00  0.00     0.680 A 
ATOM     14  H2  UNL     1      23.906  44.834  17.711  1.00  0.00     0.186 HD
HETATM   15  N4  UNL     1      22.869  42.239  19.356  1.00  0.00    -0.176 N 
ATOM     16  H4  UNL     1      23.142  41.626  20.124  1.00  0.00     0.186 HD
HETATM   17  C19 UNL     1      22.597  45.842  15.800  1.00  0.00     0.158 C 
HETATM   18  C15 UNL     1      20.217  45.304  14.412  1.00  0.00     0.047 A 
HETATM   19  C16 UNL     1      19.045  45.036  13.722  1.00  0.00     0.092 A 
HETATM   20  N5  UNL     1      18.266  44.013  14.096  1.00  0.00    -0.345 N 
ATOM     21  H5  UNL     1      17.409  43.837  13.571  1.00  0.00     0.167 HD
BRANCH  13  22
HETATM   22  N1  UNL     1      24.776  43.437  19.640  1.00  0.00    -0.230 N 
HETATM   23  C1  UNL     1      25.420  44.712  19.800  1.00  0.00     0.165 C 
ATOM     24  H1  UNL     1      25.226  42.621  20.058  1.00  0.00     0.177 HD
ENDBRANCH  13  22
BRANCH  10  25
HETATM   25  N3  UNL     1      20.939  41.040  19.059  1.00  0.00    -0.341 N 
ATOM     26  H3  UNL     1      19.985  41.293  19.315  1.00  0.00     0.167 HD
BRANCH  25  27
HETATM   27  C6  UNL     1      21.254  39.679  19.119  1.00  0.00     0.034 A 
HETATM   28  C7  UNL     1      21.007  38.922  20.249  1.00  0.00     0.029 A 
HETATM   29  C8  UNL     1      21.329  37.569  20.273  1.00  0.00     0.004 A 
HETATM   30  C9  UNL     1      21.896  36.957  19.187  1.00  0.00     0.019 A 
HETATM   31  C10 UNL     1      22.148  37.691  18.060  1.00  0.00     0.013 A 
HETATM   32 BR1  UNL     1      22.925  36.817  16.565  1.00  0.00    -0.051 Br
HETATM   33  C11 UNL     1      21.825  39.024  18.051  1.00  0.00     0.048 A 
ENDBRANCH  25  27
ENDBRANCH  10  25
ENDBRANCH   1   4
TORSDOF 4
ENDMDL
MODEL 5
REMARK VINA RESULT: -5.408559713      2.376      5.400
REMARK  4 active torsions:
REMARK  status: ('A' for Active; 'I' for Inactive)
REMARK    1  A    between atoms: N1_2  and  C2_4 
REMARK    2  A    between atoms: C5_9  and  N3_10 
REMARK    3  A    between atoms: N3_10  and  C6_12 
REMARK    4  A    between atoms: C17_28  and  O1_29 
ROOT
HETATM    1  O1  UNL     1      24.133  41.138  19.473  1.00  0.00    -0.221 OA
HETATM    2  C18 UNL     1      24.151  40.037  19.783  1.00  0.00     0.235 C 
HETATM    3  N6  UNL     1      24.173  38.933  20.075  1.00  0.00    -0.164 NA
ENDROOT
BRANCH   1   4
HETATM    4  C17 UNL     1      24.189  42.456  19.135  1.00  0.00     0.169 A 
HETATM    5  C13 UNL     1      23.307  42.985  18.166  1.00  0.00     0.025 A 
HETATM    6  C12 UNL     1      22.363  41.998  17.591  1.00  0.00     0.092 A 
HETATM    7  C14 UNL     1      23.332  44.306  17.798  1.00  0.00     0.047 A 
HETATM    8  C4  UNL     1      21.412  42.568  16.610  1.00  0.00     0.036 A 
HETATM    9  C3  UNL     1      21.437  43.895  16.242  1.00  0.00     0.133 A 
HETATM   10  C5  UNL     1      20.439  41.735  16.026  1.00  0.00     0.132 A 
HETATM   11  N2  UNL     1      20.533  44.343  15.345  1.00  0.00    -0.176 N 
HETATM   12  N7  UNL     1      22.388  44.784  16.820  1.00  0.00    -0.336 N 
HETATM   13  C2  UNL     1      19.589  43.535  14.780  1.00  0.00     0.680 A 
ATOM     14  H2  UNL     1      20.556  45.327  15.079  1.00  0.00     0.186 HD
HETATM   15  N4  UNL     1      19.568  42.240  15.140  1.00  0.00    -0.176 N 
ATOM     16  H4  UNL     1      18.868  41.623  14.728  1.00  0.00     0.186 HD
HETATM   17  C19 UNL     1      22.483  46.164  16.480  1.00  0.00     0.158 C 
HETATM   18  C15 UNL     1      24.249  45.125  18.400  1.00  0.00     0.047 A 
HETATM   19  C16 UNL     1      25.118  44.614  19.352  1.00  0.00     0.092 A 
HETATM   20  N5  UNL     1      25.061  43.318  19.684  1.00  0.00    -0.345 N 
ATOM     21  H5  UNL     1      25.712  42.968  20.388  1.00  0.00     0.167 HD
BRANCH  13  22
HETATM   22  N1  UNL     1      18.739  43.977  13.937  1.00  0.00    -0.230 N 
HETATM   23  C1  UNL     1      17.602  43.234  13.463  1.00  0.00     0.165 C 
ATOM     24  H1  UNL     1      18.874  44.920  13.573  1.00  0.00     0.177 HD
ENDBRANCH  13  22
BRANCH  10  25
HETATM   25  N3  UNL     1      20.415  40.495  16.359  1.00  0.00    -0.341 N 
ATOM     26  H3  UNL     1      19.510  40.123  16.646  1.00  0.00     0.167 HD
BRANCH  25  27
HETATM   27  C6  UNL     1      21.485  39.595  16.376  1.00  0.00     0.034 A 
HETATM   28  C7  UNL     1      22.562  39.725  15.517  1.00  0.00     0.029 A 
HETATM   29  C8  UNL     1      23.612  38.815  15.564  1.00  0.00     0.004 A 
HETATM   30  C9  UNL     1      23.607  37.774  16.453  1.00  0.00     0.019 A 
HETATM   31  C10 UNL     1      22.550  37.629  17.311  1.00  0.00     0.013 A 
HETATM   32 BR1  UNL     1      22.573  36.184  18.541  1.00  0.00    -0.051 Br
HETATM   33  C11 UNL     1      21.522  38.535  17.253  1.00  0.00     0.048 A 
ENDBRANCH  25  27
ENDBRANCH  10  25
ENDBRANCH   1   4
TORSDOF 4
ENDMDL
