MODEL 1
REMARK VINA RESULT: 1.781494154      0.000      0.000
REMARK  5 active torsions:
REMARK  status: ('A' for Active; 'I' for Inactive)
REMARK    1  A    between atoms: S1_3  and  C3_5 
REMARK    2  A    between atoms: S1_3  and  C15_24 
REMARK    3  A    between atoms: C6_8  and  C7_9 
REMARK    4  A    between atoms: C8_10  and  C9_11 
REMARK    5  A    between atoms: C12_14  and  N1_15 
ROOT
HETATM    1  C1  UNL     1      19.648  40.129  19.285  1.00  0.00     0.027 C 
HETATM    2  C2  UNL     1      20.428  39.926  18.386  1.00  0.00    -0.014 C 
HETATM    3  S1  UNL     1      21.761  39.536  16.828  1.00  0.00     0.093 S 
HETATM    4  O1  UNL     1      22.441  39.340  15.801  1.00  0.00    -0.246 OA
ENDROOT
BRANCH   3   5
HETATM    5  C3  UNL     1      22.506  38.031  17.858  1.00  0.00     0.105 A 
HETATM    6  C4  UNL     1      22.041  36.741  17.661  1.00  0.00     0.041 A 
HETATM    7  C5  UNL     1      22.547  35.665  18.358  1.00  0.00     0.025 A 
HETATM    8  C6  UNL     1      23.535  35.843  19.276  1.00  0.00     0.033 A 
HETATM    9  C14 UNL     1      23.994  37.134  19.467  1.00  0.00     0.109 A 
HETATM   10  N3  UNL     1      23.477  38.159  18.769  1.00  0.00    -0.357 N 
ATOM     11  H3  UNL     1      23.847  39.093  18.944  1.00  0.00     0.166 HD
BRANCH   8  12
HETATM   12  C7  UNL     1      24.071  34.730  20.006  1.00  0.00    -0.060 C 
HETATM   13  C8  UNL     1      24.538  33.795  20.605  1.00  0.00    -0.060 C 
BRANCH  13  14
HETATM   14  C9  UNL     1      25.097  32.671  21.305  1.00  0.00     0.033 A 
HETATM   15  C10 UNL     1      24.354  31.965  22.255  1.00  0.00     0.026 A 
HETATM   16  C11 UNL     1      24.870  30.894  22.928  1.00  0.00     0.049 A 
HETATM   17  C12 UNL     1      26.161  30.499  22.666  1.00  0.00     0.098 A 
HETATM   18  N2  UNL     1      26.905  31.163  21.751  1.00  0.00    -0.351 N 
HETATM   19  C13 UNL     1      26.382  32.226  21.086  1.00  0.00     0.110 A 
ATOM     20  H2  UNL     1      27.862  30.864  21.560  1.00  0.00     0.166 HD
BRANCH  17  21
HETATM   21  N1  UNL     1      26.630  29.492  23.307  1.00  0.00    -0.385 N 
ATOM     22  H12 UNL     1      27.634  29.359  23.427  1.00  0.00     0.157 HD
ATOM     23  H11 UNL     1      25.972  28.817  23.697  1.00  0.00     0.157 HD
ENDBRANCH  17  21
ENDBRANCH  13  14
ENDBRANCH   8  12
ENDBRANCH   3   5
BRANCH   3  24
HETATM   24  C15 UNL     1      22.733  41.242  17.375  1.00  0.00     0.082 A 
HETATM   25  C16 UNL     1      23.736  41.353  18.254  1.00  0.00     0.114 A 
HETATM   26  N4  UNL     1      24.103  42.661  18.324  1.00  0.00    -0.358 N 
HETATM   27  C17 UNL     1      25.154  43.190  19.164  1.00  0.00     0.156 C 
HETATM   28  C18 UNL     1      23.352  43.401  17.502  1.00  0.00     0.064 A 
HETATM   29  C19 UNL     1      23.244  44.726  17.140  1.00  0.00     0.057 A 
HETATM   30  C22 UNL     1      22.475  42.484  16.895  1.00  0.00     0.080 A 
HETATM   31  C20 UNL     1      22.328  45.153  16.231  1.00  0.00     0.051 A 
HETATM   32 CL1  UNL     1      22.168  46.836  15.752  1.00  0.00    -0.083 Cl
HETATM   33  C21 UNL     1      21.476  44.221  15.651  1.00  0.00     0.112 A 
HETATM   34  N5  UNL     1      21.575  42.926  15.998  1.00  0.00    -0.361 N 
ATOM     35  H5  UNL     1      20.943  42.252  15.564  1.00  0.00     0.165 HD
ENDBRANCH   3  24
TORSDOF 5
ENDMDL
MODEL 2
REMARK VINA RESULT: 3.165878438      2.110      2.633
REMARK  5 active torsions:
REMARK  status: ('A' for Active; 'I' for Inactive)
REMARK    1  A    between atoms: S1_3  and  C3_5 
REMARK    2  A    between atoms: S1_3  and  C15_24 
REMARK    3  A    between atoms: C6_8  and  C7_9 
REMARK    4  A    between atoms: C8_10  and  C9_11 
REMARK    5  A    between atoms: C12_14  and  N1_15 
ROOT
HETATM    1  C1  UNL     1      23.658  41.886  20.095  1.00  0.00     0.027 C 
HETATM    2  C2  UNL     1      22.720  41.250  19.679  1.00  0.00    -0.014 C 
HETATM    3  S1  UNL     1      21.095  40.131  18.997  1.00  0.00     0.093 S 
HETATM    4  O1  UNL     1      20.034  39.571  18.657  1.00  0.00    -0.246 OA
ENDROOT
BRANCH   3   5
HETATM    5  C3  UNL     1      22.083  38.475  19.397  1.00  0.00     0.105 A 
HETATM    6  C4  UNL     1      23.086  38.464  20.353  1.00  0.00     0.041 A 
HETATM    7  C5  UNL     1      23.790  37.321  20.665  1.00  0.00     0.025 A 
HETATM    8  C6  UNL     1      23.515  36.149  20.030  1.00  0.00     0.033 A 
HETATM    9  C14 UNL     1      22.512  36.168  19.077  1.00  0.00     0.109 A 
HETATM   10  N3  UNL     1      21.847  37.302  18.800  1.00  0.00    -0.357 N 
ATOM     11  H3  UNL     1      21.116  37.267  18.090  1.00  0.00     0.166 HD
BRANCH   8  12
HETATM   12  C7  UNL     1      24.240  34.952  20.347  1.00  0.00    -0.060 C 
HETATM   13  C8  UNL     1      24.840  33.948  20.634  1.00  0.00    -0.060 C 
BRANCH  13  14
HETATM   14  C9  UNL     1      25.562  32.757  20.990  1.00  0.00     0.033 A 
HETATM   15  C10 UNL     1      24.927  31.687  21.627  1.00  0.00     0.026 A 
HETATM   16  C11 UNL     1      25.598  30.549  21.971  1.00  0.00     0.049 A 
HETATM   17  C12 UNL     1      26.939  30.450  21.684  1.00  0.00     0.098 A 
HETATM   18  N2  UNL     1      27.581  31.470  21.068  1.00  0.00    -0.351 N 
HETATM   19  C13 UNL     1      26.905  32.598  20.729  1.00  0.00     0.110 A 
ATOM     20  H2  UNL     1      28.576  31.390  20.857  1.00  0.00     0.166 HD
BRANCH  17  21
HETATM   21  N1  UNL     1      27.554  29.374  22.014  1.00  0.00    -0.385 N 
ATOM     22  H12 UNL     1      27.776  29.165  22.988  1.00  0.00     0.157 HD
ATOM     23  H11 UNL     1      27.821  28.723  21.276  1.00  0.00     0.157 HD
ENDBRANCH  17  21
ENDBRANCH  13  14
ENDBRANCH   8  12
ENDBRANCH   3   5
BRANCH   3  24
HETATM   24  C15 UNL     1      21.595  40.748  17.120  1.00  0.00     0.082 A 
HETATM   25  C16 UNL     1      22.551  40.242  16.332  1.00  0.00     0.114 A 
HETATM   26  N4  UNL     1      22.553  40.933  15.160  1.00  0.00    -0.358 N 
HETATM   27  C17 UNL     1      23.441  40.688  14.047  1.00  0.00     0.156 C 
HETATM   28  C18 UNL     1      21.610  41.882  15.177  1.00  0.00     0.064 A 
HETATM   29  C19 UNL     1      21.139  42.861  14.330  1.00  0.00     0.057 A 
HETATM   30  C22 UNL     1      20.999  41.757  16.438  1.00  0.00     0.080 A 
HETATM   31  C20 UNL     1      20.120  43.689  14.683  1.00  0.00     0.051 A 
HETATM   32 CL1  UNL     1      19.500  44.947  13.623  1.00  0.00    -0.083 Cl
HETATM   33  C21 UNL     1      19.539  43.540  15.935  1.00  0.00     0.112 A 
HETATM   34  N5  UNL     1      19.992  42.586  16.768  1.00  0.00    -0.361 N 
ATOM     35  H5  UNL     1      19.556  42.488  17.685  1.00  0.00     0.165 HD
ENDBRANCH   3  24
TORSDOF 5
ENDMDL
MODEL 3
REMARK VINA RESULT: 5.529068815      1.609      2.289
REMARK  5 active torsions:
REMARK  status: ('A' for Active; 'I' for Inactive)
REMARK    1  A    between atoms: S1_3  and  C3_5 
REMARK    2  A    between atoms: S1_3  and  C15_24 
REMARK    3  A    between atoms: C6_8  and  C7_9 
REMARK    4  A    between atoms: C8_10  and  C9_11 
REMARK    5  A    between atoms: C12_14  and  N1_15 
ROOT
HETATM    1  C1  UNL     1      19.905  40.379  19.595  1.00  0.00     0.027 C 
HETATM    2  C2  UNL     1      20.337  39.960  18.549  1.00  0.00    -0.014 C 
HETATM    3  S1  UNL     1      21.066  39.199  16.746  1.00  0.00     0.093 S 
HETATM    4  O1  UNL     1      21.361  38.778  15.610  1.00  0.00    -0.246 OA
ENDROOT
BRANCH   3   5
HETATM    5  C3  UNL     1      22.037  37.804  17.742  1.00  0.00     0.105 A 
HETATM    6  C4  UNL     1      21.463  36.562  17.958  1.00  0.00     0.041 A 
HETATM    7  C5  UNL     1      22.117  35.560  18.642  1.00  0.00     0.025 A 
HETATM    8  C6  UNL     1      23.368  35.768  19.134  1.00  0.00     0.033 A 
HETATM    9  C14 UNL     1      23.935  37.011  18.914  1.00  0.00     0.109 A 
HETATM   10  N3  UNL     1      23.266  37.963  18.242  1.00  0.00    -0.357 N 
ATOM     11  H3  UNL     1      23.725  38.863  18.105  1.00  0.00     0.166 HD
BRANCH   8  12
HETATM   12  C7  UNL     1      24.061  34.731  19.846  1.00  0.00    -0.060 C 
HETATM   13  C8  UNL     1      24.634  33.847  20.429  1.00  0.00    -0.060 C 
BRANCH  13  14
HETATM   14  C9  UNL     1      25.302  32.783  21.127  1.00  0.00     0.033 A 
HETATM   15  C10 UNL     1      24.636  32.012  22.084  1.00  0.00     0.026 A 
HETATM   16  C11 UNL     1      25.256  30.997  22.755  1.00  0.00     0.049 A 
HETATM   17  C12 UNL     1      26.576  30.724  22.482  1.00  0.00     0.098 A 
HETATM   18  N2  UNL     1      27.247  31.453  21.560  1.00  0.00    -0.351 N 
HETATM   19  C13 UNL     1      26.621  32.460  20.898  1.00  0.00     0.110 A 
ATOM     20  H2  UNL     1      28.226  31.244  21.361  1.00  0.00     0.166 HD
BRANCH  17  21
HETATM   21  N1  UNL     1      27.144  29.767  23.121  1.00  0.00    -0.385 N 
ATOM     22  H12 UNL     1      27.198  29.766  24.140  1.00  0.00     0.157 HD
ATOM     23  H11 UNL     1      27.545  28.998  22.585  1.00  0.00     0.157 HD
ENDBRANCH  17  21
ENDBRANCH  13  14
ENDBRANCH   8  12
ENDBRANCH   3   5
BRANCH   3  24
HETATM   24  C15 UNL     1      22.242  40.861  16.644  1.00  0.00     0.082 A 
HETATM   25  C16 UNL     1      22.467  41.626  15.569  1.00  0.00     0.114 A 
HETATM   26  N4  UNL     1      23.303  42.637  15.928  1.00  0.00    -0.358 N 
HETATM   27  C17 UNL     1      23.784  43.677  15.047  1.00  0.00     0.156 C 
HETATM   28  C18 UNL     1      23.624  42.539  17.223  1.00  0.00     0.064 A 
HETATM   29  C19 UNL     1      24.395  43.229  18.134  1.00  0.00     0.057 A 
HETATM   30  C22 UNL     1      22.940  41.397  17.676  1.00  0.00     0.080 A 
HETATM   31  C20 UNL     1      24.503  42.834  19.430  1.00  0.00     0.051 A 
HETATM   32 CL1  UNL     1      25.479  43.694  20.613  1.00  0.00    -0.083 Cl
HETATM   33  C21 UNL     1      23.814  41.701  19.845  1.00  0.00     0.112 A 
HETATM   34  N5  UNL     1      23.060  41.023  18.963  1.00  0.00    -0.361 N 
ATOM     35  H5  UNL     1      22.560  40.193  19.282  1.00  0.00     0.165 HD
ENDBRANCH   3  24
TORSDOF 5
ENDMDL
