MODEL 1
REMARK VINA RESULT: -8.391632478      0.000      0.000
REMARK  9 active torsions:
REMARK  status: ('A' for Active; 'I' for Inactive)
REMARK    1  A    between atoms: C4_5  and  C5_6 
REMARK    2  A    between atoms: C6_7  and  C7_8 
REMARK    3  A    between atoms: C7_8  and  N1_9 
REMARK    4  A    between atoms: N1_9  and  C8_11 
REMARK    5  A    between atoms: C9_14  and  N3_15 
REMARK    6  A    between atoms: N3_15  and  C10_17 
REMARK    7  A    between atoms: C10_17  and  C11_18 
REMARK    8  A    between atoms: C11_18  and  C12_19 
REMARK    9  A    between atoms: C12_19  and  N4_20 
ROOT
HETATM    1  C8  UNL     1     -23.310 -39.377   8.872  1.00  0.00     0.680 A 
HETATM    2  N2  UNL     1     -23.795 -39.947   9.998  1.00  0.00    -0.175 N 
ATOM      3  H2  UNL     1     -24.413 -40.754   9.910  1.00  0.00     0.186 HD
HETATM    4  C9  UNL     1     -23.498 -39.495  11.223  1.00  0.00     0.139 A 
HETATM    5  C17 UNL     1     -22.665 -38.406  11.336  1.00  0.00     0.104 A 
HETATM    6  C18 UNL     1     -22.308 -37.872  12.637  1.00  0.00     0.104 C 
HETATM    7  N5  UNL     1     -22.044 -37.442  13.679  1.00  0.00    -0.191 NA
HETATM    8  C19 UNL     1     -22.168 -37.822  10.183  1.00  0.00     0.132 A 
HETATM    9  N6  UNL     1     -22.496 -38.313   8.971  1.00  0.00    -0.200 N 
ATOM     10  H6  UNL     1     -22.124 -37.877   8.128  1.00  0.00     0.183 HD
ENDROOT
BRANCH   4  11
HETATM   11  N3  UNL     1     -23.953 -40.035  12.261  1.00  0.00    -0.374 N 
ATOM     12  H3  UNL     1     -23.242 -40.452  12.862  1.00  0.00     0.161 HD
BRANCH  11  13
HETATM   13  C10 UNL     1     -25.275 -40.166  12.746  1.00  0.00     0.123 C 
BRANCH  13  14
HETATM   14  C11 UNL     1     -25.722 -39.080  13.673  1.00  0.00     0.050 C 
BRANCH  14  15
HETATM   15  C12 UNL     1     -27.195 -39.343  14.011  1.00  0.00     0.274 C 
BRANCH  15  16
HETATM   16  N4  UNL     1     -27.332 -40.565  14.770  1.00  0.00     0.092 N 
HETATM   17  C13 UNL     1     -27.372 -40.260  16.161  1.00  0.00     0.298 C 
HETATM   18  C14 UNL     1     -28.316 -41.161  16.877  1.00  0.00     0.198 C 
HETATM   19  O1  UNL     1     -28.196 -42.462  16.404  1.00  0.00    -0.388 OA
HETATM   20  C15 UNL     1     -28.671 -42.592  15.104  1.00  0.00     0.198 C 
HETATM   21  C16 UNL     1     -28.393 -41.373  14.266  1.00  0.00     0.298 C 
ENDBRANCH  15  16
ENDBRANCH  14  15
ENDBRANCH  13  14
ENDBRANCH  11  13
ENDBRANCH   4  11
BRANCH   1  22
HETATM   22  N1  UNL     1     -23.633 -39.872   7.578  1.00  0.00    -0.216 N 
ATOM     23  H1  UNL     1     -23.222 -40.745   7.247  1.00  0.00     0.178 HD
BRANCH  22  24
HETATM   24  C7  UNL     1     -24.535 -39.141   6.745  1.00  0.00     0.232 C 
BRANCH  24  25
HETATM   25  C6  UNL     1     -25.906 -39.464   7.136  1.00  0.00    -0.086 C 
HETATM   26  C5  UNL     1     -27.022 -39.747   7.469  1.00  0.00    -0.097 C 
BRANCH  26  27
HETATM   27  C4  UNL     1     -28.392 -40.121   7.891  1.00  0.00     0.107 A 
HETATM   28  C2  UNL     1     -28.774 -39.751   9.285  1.00  0.00     0.115 A 
HETATM   29  C1  UNL     1     -27.720 -39.073  10.148  1.00  0.00     0.053 C 
HETATM   30  F1  UNL     1     -29.685 -40.500   9.998  1.00  0.00    -0.242 F 
HETATM   31  C3  UNL     1     -29.309 -38.973   8.093  1.00  0.00     0.065 A 
ENDBRANCH  26  27
ENDBRANCH  24  25
ENDBRANCH  22  24
ENDBRANCH   1  22
TORSDOF 9
ENDMDL
MODEL 2
REMARK VINA RESULT: -8.269412586      2.892      6.240
REMARK  9 active torsions:
REMARK  status: ('A' for Active; 'I' for Inactive)
REMARK    1  A    between atoms: C4_5  and  C5_6 
REMARK    2  A    between atoms: C6_7  and  C7_8 
REMARK    3  A    between atoms: C7_8  and  N1_9 
REMARK    4  A    between atoms: N1_9  and  C8_11 
REMARK    5  A    between atoms: C9_14  and  N3_15 
REMARK    6  A    between atoms: N3_15  and  C10_17 
REMARK    7  A    between atoms: C10_17  and  C11_18 
REMARK    8  A    between atoms: C11_18  and  C12_19 
REMARK    9  A    between atoms: C12_19  and  N4_20 
ROOT
HETATM    1  C8  UNL     1     -25.252 -40.408  13.592  1.00  0.00     0.680 A 
HETATM    2  N2  UNL     1     -24.370 -40.217  12.587  1.00  0.00    -0.175 N 
ATOM      3  H2  UNL     1     -24.446 -40.797  11.751  1.00  0.00     0.186 HD
HETATM    4  C9  UNL     1     -23.399 -39.296  12.643  1.00  0.00     0.139 A 
HETATM    5  C17 UNL     1     -23.299 -38.515  13.772  1.00  0.00     0.104 A 
HETATM    6  C18 UNL     1     -22.267 -37.502  13.889  1.00  0.00     0.104 C 
HETATM    7  N5  UNL     1     -21.429 -36.709  13.981  1.00  0.00    -0.191 NA
HETATM    8  C19 UNL     1     -24.204 -38.712  14.802  1.00  0.00     0.132 A 
HETATM    9  N6  UNL     1     -25.165 -39.651  14.699  1.00  0.00    -0.200 N 
ATOM     10  H6  UNL     1     -25.826 -39.788  15.463  1.00  0.00     0.183 HD
ENDROOT
BRANCH   4  11
HETATM   11  N3  UNL     1     -22.586 -39.125  11.701  1.00  0.00    -0.374 N 
ATOM     12  H3  UNL     1     -21.629 -39.405  11.918  1.00  0.00     0.161 HD
BRANCH  11  13
HETATM   13  C10 UNL     1     -22.762 -38.614  10.394  1.00  0.00     0.123 C 
BRANCH  13  14
HETATM   14  C11 UNL     1     -23.037 -39.642   9.343  1.00  0.00     0.050 C 
BRANCH  14  15
HETATM   15  C12 UNL     1     -24.459 -39.394   8.821  1.00  0.00     0.274 C 
BRANCH  15  16
HETATM   16  N4  UNL     1     -24.517 -39.587   7.390  1.00  0.00     0.092 N 
HETATM   17  C13 UNL     1     -25.857 -39.413   6.940  1.00  0.00     0.298 C 
HETATM   18  C14 UNL     1     -25.890 -38.743   5.612  1.00  0.00     0.198 C 
HETATM   19  O1  UNL     1     -24.889 -39.247   4.791  1.00  0.00    -0.388 OA
HETATM   20  C15 UNL     1     -23.621 -38.876   5.222  1.00  0.00     0.198 C 
HETATM   21  C16 UNL     1     -23.518 -38.821   6.722  1.00  0.00     0.298 C 
ENDBRANCH  15  16
ENDBRANCH  14  15
ENDBRANCH  13  14
ENDBRANCH  11  13
ENDBRANCH   4  11
BRANCH   1  22
HETATM   22  N1  UNL     1     -26.280 -41.388  13.515  1.00  0.00    -0.216 N 
ATOM     23  H1  UNL     1     -26.051 -42.354  13.280  1.00  0.00     0.178 HD
BRANCH  22  24
HETATM   24  C7  UNL     1     -27.636 -41.013  13.767  1.00  0.00     0.232 C 
BRANCH  24  25
HETATM   25  C6  UNL     1     -28.143 -40.269  12.616  1.00  0.00    -0.086 C 
HETATM   26  C5  UNL     1     -28.574 -39.647  11.686  1.00  0.00    -0.097 C 
BRANCH  26  27
HETATM   27  C4  UNL     1     -29.126 -38.866  10.555  1.00  0.00     0.107 A 
HETATM   28  C2  UNL     1     -29.196 -39.572   9.242  1.00  0.00     0.115 A 
HETATM   29  C1  UNL     1     -28.660 -40.994   9.178  1.00  0.00     0.053 C 
HETATM   30  F1  UNL     1     -29.097 -38.881   8.054  1.00  0.00    -0.242 F 
HETATM   31  C3  UNL     1     -30.448 -39.333  10.072  1.00  0.00     0.065 A 
ENDBRANCH  26  27
ENDBRANCH  24  25
ENDBRANCH  22  24
ENDBRANCH   1  22
TORSDOF 9
ENDMDL
MODEL 3
REMARK VINA RESULT: -8.186004154      1.882      2.879
REMARK  9 active torsions:
REMARK  status: ('A' for Active; 'I' for Inactive)
REMARK    1  A    between atoms: C4_5  and  C5_6 
REMARK    2  A    between atoms: C6_7  and  C7_8 
REMARK    3  A    between atoms: C7_8  and  N1_9 
REMARK    4  A    between atoms: N1_9  and  C8_11 
REMARK    5  A    between atoms: C9_14  and  N3_15 
REMARK    6  A    between atoms: N3_15  and  C10_17 
REMARK    7  A    between atoms: C10_17  and  C11_18 
REMARK    8  A    between atoms: C11_18  and  C12_19 
REMARK    9  A    between atoms: C12_19  and  N4_20 
ROOT
HETATM    1  C8  UNL     1     -23.067 -38.122  12.111  1.00  0.00     0.680 A 
HETATM    2  N2  UNL     1     -23.922 -38.485  13.093  1.00  0.00    -0.175 N 
ATOM      3  H2  UNL     1     -24.872 -38.753  12.839  1.00  0.00     0.186 HD
HETATM    4  C9  UNL     1     -23.571 -38.507  14.385  1.00  0.00     0.139 A 
HETATM    5  C17 UNL     1     -22.287 -38.144  14.722  1.00  0.00     0.104 A 
HETATM    6  C18 UNL     1     -21.850 -38.148  16.106  1.00  0.00     0.104 C 
HETATM    7  N5  UNL     1     -21.517 -38.138  17.215  1.00  0.00    -0.191 NA
HETATM    8  C19 UNL     1     -21.411 -37.773  13.716  1.00  0.00     0.132 A 
HETATM    9  N6  UNL     1     -21.811 -37.766  12.429  1.00  0.00    -0.200 N 
ATOM     10  H6  UNL     1     -21.158 -37.491  11.695  1.00  0.00     0.183 HD
ENDROOT
BRANCH   4  11
HETATM   11  N3  UNL     1     -24.373 -38.849  15.288  1.00  0.00    -0.374 N 
ATOM     12  H3  UNL     1     -24.271 -39.817  15.595  1.00  0.00     0.161 HD
BRANCH  11  13
HETATM   13  C10 UNL     1     -25.393 -38.131  15.956  1.00  0.00     0.123 C 
BRANCH  13  14
HETATM   14  C11 UNL     1     -26.699 -38.850  16.077  1.00  0.00     0.050 C 
BRANCH  14  15
HETATM   15  C12 UNL     1     -27.211 -39.112  14.654  1.00  0.00     0.274 C 
BRANCH  15  16
HETATM   16  N4  UNL     1     -27.708 -40.464  14.533  1.00  0.00     0.092 N 
HETATM   17  C13 UNL     1     -26.942 -41.168  13.562  1.00  0.00     0.298 C 
HETATM   18  C14 UNL     1     -26.748 -42.588  13.964  1.00  0.00     0.198 C 
HETATM   19  O1  UNL     1     -27.920 -43.103  14.503  1.00  0.00    -0.388 OA
HETATM   20  C15 UNL     1     -28.222 -42.538  15.736  1.00  0.00     0.198 C 
HETATM   21  C16 UNL     1     -27.840 -41.083  15.810  1.00  0.00     0.298 C 
ENDBRANCH  15  16
ENDBRANCH  14  15
ENDBRANCH  13  14
ENDBRANCH  11  13
ENDBRANCH   4  11
BRANCH   1  22
HETATM   22  N1  UNL     1     -23.454 -38.108  10.742  1.00  0.00    -0.216 N 
ATOM     23  H1  UNL     1     -23.410 -37.242  10.206  1.00  0.00     0.178 HD
BRANCH  22  24
HETATM   24  C7  UNL     1     -23.906 -39.314  10.122  1.00  0.00     0.232 C 
BRANCH  24  25
HETATM   25  C6  UNL     1     -25.353 -39.235   9.932  1.00  0.00    -0.086 C 
HETATM   26  C5  UNL     1     -26.542 -39.171   9.800  1.00  0.00    -0.097 C 
BRANCH  26  27
HETATM   27  C4  UNL     1     -28.016 -39.096   9.664  1.00  0.00     0.107 A 
HETATM   28  C2  UNL     1     -28.576 -39.510   8.345  1.00  0.00     0.115 A 
HETATM   29  C1  UNL     1     -27.593 -39.921   7.260  1.00  0.00     0.053 C 
HETATM   30  F1  UNL     1     -29.746 -38.963   7.863  1.00  0.00    -0.242 F 
HETATM   31  C3  UNL     1     -28.692 -40.412   9.563  1.00  0.00     0.065 A 
ENDBRANCH  26  27
ENDBRANCH  24  25
ENDBRANCH  22  24
ENDBRANCH   1  22
TORSDOF 9
ENDMDL
MODEL 4
REMARK VINA RESULT: -8.178000076      1.326      1.821
REMARK  9 active torsions:
REMARK  status: ('A' for Active; 'I' for Inactive)
REMARK    1  A    between atoms: C4_5  and  C5_6 
REMARK    2  A    between atoms: C6_7  and  C7_8 
REMARK    3  A    between atoms: C7_8  and  N1_9 
REMARK    4  A    between atoms: N1_9  and  C8_11 
REMARK    5  A    between atoms: C9_14  and  N3_15 
REMARK    6  A    between atoms: N3_15  and  C10_17 
REMARK    7  A    between atoms: C10_17  and  C11_18 
REMARK    8  A    between atoms: C11_18  and  C12_19 
REMARK    9  A    between atoms: C12_19  and  N4_20 
ROOT
HETATM    1  C8  UNL     1     -22.763 -38.195  10.373  1.00  0.00     0.680 A 
HETATM    2  N2  UNL     1     -23.652 -37.955  11.363  1.00  0.00    -0.175 N 
ATOM      3  H2  UNL     1     -24.615 -37.732  11.111  1.00  0.00     0.186 HD
HETATM    4  C9  UNL     1     -23.320 -37.999  12.659  1.00  0.00     0.139 A 
HETATM    5  C17 UNL     1     -22.019 -38.300  12.994  1.00  0.00     0.104 A 
HETATM    6  C18 UNL     1     -21.602 -38.361  14.382  1.00  0.00     0.104 C 
HETATM    7  N5  UNL     1     -21.274 -38.390  15.492  1.00  0.00    -0.191 NA
HETATM    8  C19 UNL     1     -21.109 -38.546  11.980  1.00  0.00     0.132 A 
HETATM    9  N6  UNL     1     -21.490 -38.491  10.688  1.00  0.00    -0.200 N 
ATOM     10  H6  UNL     1     -20.812 -38.673   9.949  1.00  0.00     0.183 HD
ENDROOT
BRANCH   4  11
HETATM   11  N3  UNL     1     -24.155 -37.777  13.570  1.00  0.00    -0.374 N 
ATOM     12  H3  UNL     1     -24.172 -36.811  13.897  1.00  0.00     0.161 HD
BRANCH  11  13
HETATM   13  C10 UNL     1     -25.078 -38.628  14.222  1.00  0.00     0.123 C 
BRANCH  13  14
HETATM   14  C11 UNL     1     -26.316 -38.938  13.442  1.00  0.00     0.050 C 
BRANCH  14  15
HETATM   15  C12 UNL     1     -27.463 -39.101  14.449  1.00  0.00     0.274 C 
BRANCH  15  16
HETATM   16  N4  UNL     1     -27.424 -40.411  15.058  1.00  0.00     0.092 N 
HETATM   17  C13 UNL     1     -27.763 -40.305  16.437  1.00  0.00     0.298 C 
HETATM   18  C14 UNL     1     -28.566 -41.477  16.879  1.00  0.00     0.198 C 
HETATM   19  O1  UNL     1     -28.060 -42.646  16.326  1.00  0.00    -0.388 OA
HETATM   20  C15 UNL     1     -28.270 -42.709  14.953  1.00  0.00     0.198 C 
HETATM   21  C16 UNL     1     -28.162 -41.361  14.293  1.00  0.00     0.298 C 
ENDBRANCH  15  16
ENDBRANCH  14  15
ENDBRANCH  13  14
ENDBRANCH  11  13
ENDBRANCH   4  11
BRANCH   1  22
HETATM   22  N1  UNL     1     -23.133 -38.148   9.001  1.00  0.00    -0.216 N 
ATOM     23  H1  UNL     1     -22.969 -37.303   8.454  1.00  0.00     0.178 HD
BRANCH  22  24
HETATM   24  C7  UNL     1     -23.736 -39.292   8.391  1.00  0.00     0.232 C 
BRANCH  24  25
HETATM   25  C6  UNL     1     -25.160 -39.307   8.718  1.00  0.00    -0.086 C 
HETATM   26  C5  UNL     1     -26.332 -39.334   8.968  1.00  0.00    -0.097 C 
BRANCH  26  27
HETATM   27  C4  UNL     1     -27.785 -39.382   9.253  1.00  0.00     0.107 A 
HETATM   28  C2  UNL     1     -28.683 -39.493   8.067  1.00  0.00     0.115 A 
HETATM   29  C1  UNL     1     -28.035 -39.503   6.691  1.00  0.00     0.053 C 
HETATM   30  F1  UNL     1     -29.956 -38.965   8.084  1.00  0.00    -0.242 F 
HETATM   31  C3  UNL     1     -28.425 -40.689   8.970  1.00  0.00     0.065 A 
ENDBRANCH  26  27
ENDBRANCH  24  25
ENDBRANCH  22  24
ENDBRANCH   1  22
TORSDOF 9
ENDMDL
MODEL 5
REMARK VINA RESULT: -8.091707467      1.456      1.846
REMARK  9 active torsions:
REMARK  status: ('A' for Active; 'I' for Inactive)
REMARK    1  A    between atoms: C4_5  and  C5_6 
REMARK    2  A    between atoms: C6_7  and  C7_8 
REMARK    3  A    between atoms: C7_8  and  N1_9 
REMARK    4  A    between atoms: N1_9  and  C8_11 
REMARK    5  A    between atoms: C9_14  and  N3_15 
REMARK    6  A    between atoms: N3_15  and  C10_17 
REMARK    7  A    between atoms: C10_17  and  C11_18 
REMARK    8  A    between atoms: C11_18  and  C12_19 
REMARK    9  A    between atoms: C12_19  and  N4_20 
ROOT
HETATM    1  C8  UNL     1     -23.057 -39.261   8.460  1.00  0.00     0.680 A 
HETATM    2  N2  UNL     1     -23.843 -39.519   9.528  1.00  0.00    -0.175 N 
ATOM      3  H2  UNL     1     -24.709 -40.039   9.383  1.00  0.00     0.186 HD
HETATM    4  C9  UNL     1     -23.532 -39.122  10.768  1.00  0.00     0.139 A 
HETATM    5  C17 UNL     1     -22.363 -38.421  10.958  1.00  0.00     0.104 A 
HETATM    6  C18 UNL     1     -21.974 -37.964  12.280  1.00  0.00     0.104 C 
HETATM    7  N5  UNL     1     -21.681 -37.589  13.335  1.00  0.00    -0.191 NA
HETATM    8  C19 UNL     1     -21.557 -38.156   9.864  1.00  0.00     0.132 A 
HETATM    9  N6  UNL     1     -21.913 -38.578   8.634  1.00  0.00    -0.200 N 
ATOM     10  H6  UNL     1     -21.313 -38.378   7.834  1.00  0.00     0.183 HD
ENDROOT
BRANCH   4  11
HETATM   11  N3  UNL     1     -24.269 -39.371  11.754  1.00  0.00    -0.374 N 
ATOM     12  H3  UNL     1     -24.741 -38.553  12.141  1.00  0.00     0.161 HD
BRANCH  11  13
HETATM   13  C10 UNL     1     -24.561 -40.583  12.423  1.00  0.00     0.123 C 
BRANCH  13  14
HETATM   14  C11 UNL     1     -25.506 -40.459  13.575  1.00  0.00     0.050 C 
BRANCH  14  15
HETATM   15  C12 UNL     1     -25.937 -38.988  13.659  1.00  0.00     0.274 C 
BRANCH  15  16
HETATM   16  N4  UNL     1     -26.173 -38.604  15.032  1.00  0.00     0.092 N 
HETATM   17  C13 UNL     1     -27.391 -39.185  15.486  1.00  0.00     0.298 C 
HETATM   18  C14 UNL     1     -27.285 -39.599  16.911  1.00  0.00     0.198 C 
HETATM   19  O1  UNL     1     -26.601 -38.638  17.644  1.00  0.00    -0.388 OA
HETATM   20  C15 UNL     1     -25.255 -38.579  17.305  1.00  0.00     0.198 C 
HETATM   21  C16 UNL     1     -25.020 -38.831  15.839  1.00  0.00     0.298 C 
ENDBRANCH  15  16
ENDBRANCH  14  15
ENDBRANCH  13  14
ENDBRANCH  11  13
ENDBRANCH   4  11
BRANCH   1  22
HETATM   22  N1  UNL     1     -23.401 -39.694   7.149  1.00  0.00    -0.216 N 
ATOM     23  H1  UNL     1     -22.959 -40.522   6.751  1.00  0.00     0.178 HD
BRANCH  22  24
HETATM   24  C7  UNL     1     -24.368 -38.963   6.393  1.00  0.00     0.232 C 
BRANCH  24  25
HETATM   25  C6  UNL     1     -25.706 -39.397   6.790  1.00  0.00    -0.086 C 
HETATM   26  C5  UNL     1     -26.795 -39.756   7.138  1.00  0.00    -0.097 C 
BRANCH  26  27
HETATM   27  C4  UNL     1     -28.130 -40.208   7.594  1.00  0.00     0.107 A 
HETATM   28  C2  UNL     1     -28.456 -39.953   9.027  1.00  0.00     0.115 A 
HETATM   29  C1  UNL     1     -27.385 -39.302   9.888  1.00  0.00     0.053 C 
HETATM   30  F1  UNL     1     -29.308 -40.783   9.724  1.00  0.00    -0.242 F 
HETATM   31  C3  UNL     1     -29.072 -39.111   7.921  1.00  0.00     0.065 A 
ENDBRANCH  26  27
ENDBRANCH  24  25
ENDBRANCH  22  24
ENDBRANCH   1  22
TORSDOF 9
ENDMDL
