MODEL 1
REMARK VINA RESULT: -8.248702036      0.000      0.000
REMARK  7 active torsions:
REMARK  status: ('A' for Active; 'I' for Inactive)
REMARK    1  A    between atoms: C2_4  and  C3_5 
REMARK    2  A    between atoms: C2_4  and  N4_19 
REMARK    3  A    between atoms: C3_5  and  C4_6 
REMARK    4  A    between atoms: C4_6  and  N3_9 
REMARK       I    between atoms: N3_9  and  C6_11 
REMARK    5  A    between atoms: C6_11  and  C7_13 
REMARK    6  A    between atoms: N4_19  and  C13_21 
REMARK    7  A    between atoms: C13_21  and  C14_22 
ROOT
HETATM    1  C4  UNL     1     -28.519 -38.890  11.227  1.00  0.00     0.218 C 
HETATM    2  C5  UNL     1     -30.008 -39.230  10.774  1.00  0.00     0.088 C 
HETATM    3  N2  UNL     1     -31.093 -39.429  10.431  1.00  0.00    -0.195 NA
ENDROOT
BRANCH   1   4
HETATM    4  C3  UNL     1     -28.430 -39.684  12.466  1.00  0.00     0.061 C 
BRANCH   4   5
HETATM    5  C2  UNL     1     -27.619 -39.303  13.621  1.00  0.00     0.099 C 
HETATM    6  N1  UNL     1     -28.051 -39.446  14.861  1.00  0.00    -0.381 N 
HETATM    7  C1  UNL     1     -27.418 -39.132  16.054  1.00  0.00     0.147 C 
ATOM      8  H1  UNL     1     -28.985 -39.844  14.954  1.00  0.00     0.160 HD
BRANCH   5   9
HETATM    9  N4  UNL     1     -26.351 -38.826  13.340  1.00  0.00    -0.350 N 
ATOM     10  H4  UNL     1     -26.324 -37.846  13.062  1.00  0.00     0.166 HD
BRANCH   9  11
HETATM   11  C13 UNL     1     -25.104 -39.446  13.367  1.00  0.00     0.121 C 
BRANCH  11  12
HETATM   12  C14 UNL     1     -23.864 -38.789  12.919  1.00  0.00     0.071 A 
HETATM   13  N5  UNL     1     -23.347 -38.684  11.717  1.00  0.00    -0.350 N 
HETATM   14  C15 UNL     1     -22.108 -38.238  11.387  1.00  0.00     0.180 A 
ATOM     15  H5  UNL     1     -23.945 -38.972  10.941  1.00  0.00     0.166 HD
HETATM   16  N6  UNL     1     -21.360 -37.860  12.437  1.00  0.00    -0.360 N 
HETATM   17  C16 UNL     1     -21.723 -37.898  13.687  1.00  0.00     0.115 A 
ATOM     18  H6  UNL     1     -20.423 -37.512  12.236  1.00  0.00     0.166 HD
HETATM   19  C17 UNL     1     -23.004 -38.362  13.973  1.00  0.00     0.077 A 
HETATM   20 CL1  UNL     1     -23.689 -38.401  15.589  1.00  0.00    -0.080 Cl
ENDBRANCH  11  12
ENDBRANCH   9  11
ENDBRANCH   5   9
ENDBRANCH   4   5
ENDBRANCH   1   4
BRANCH   1  21
HETATM   21  N3  UNL     1     -27.916 -39.591  10.015  1.00  0.00    -0.340 N 
HETATM   22  C6  UNL     1     -26.612 -39.206   9.593  1.00  0.00     0.223 C 
HETATM   23  O1  UNL     1     -25.976 -38.362  10.300  1.00  0.00    -0.273 OA
ATOM     24  H3  UNL     1     -28.434 -40.318   9.520  1.00  0.00     0.164 HD
BRANCH  22  25
HETATM   25  C7  UNL     1     -25.986 -39.702   8.386  1.00  0.00     0.078 C 
HETATM   26  C8  UNL     1     -24.471 -39.538   8.434  1.00  0.00     0.014 C 
HETATM   27  C9  UNL     1     -24.198 -38.133   7.944  1.00  0.00     0.001 C 
HETATM   28  C10 UNL     1     -24.371 -38.107   6.429  1.00  0.00     0.000 C 
HETATM   29  C11 UNL     1     -25.387 -39.131   6.038  1.00  0.00     0.001 C 
HETATM   30  C12 UNL     1     -26.498 -39.244   7.072  1.00  0.00     0.014 C 
ENDBRANCH  22  25
ENDBRANCH   1  21
TORSDOF 7
ENDMDL
MODEL 2
REMARK VINA RESULT: -8.158115516      2.436      4.209
REMARK  7 active torsions:
REMARK  status: ('A' for Active; 'I' for Inactive)
REMARK    1  A    between atoms: C2_4  and  C3_5 
REMARK    2  A    between atoms: C2_4  and  N4_19 
REMARK    3  A    between atoms: C3_5  and  C4_6 
REMARK    4  A    between atoms: C4_6  and  N3_9 
REMARK       I    between atoms: N3_9  and  C6_11 
REMARK    5  A    between atoms: C6_11  and  C7_13 
REMARK    6  A    between atoms: N4_19  and  C13_21 
REMARK    7  A    between atoms: C13_21  and  C14_22 
ROOT
HETATM    1  C4  UNL     1     -26.491 -40.229  13.399  1.00  0.00     0.218 C 
HETATM    2  C5  UNL     1     -26.764 -41.596  14.169  1.00  0.00     0.088 C 
HETATM    3  N2  UNL     1     -26.989 -42.562  14.761  1.00  0.00    -0.195 NA
ENDROOT
BRANCH   1   4
HETATM    4  C3  UNL     1     -25.083 -40.422  13.003  1.00  0.00     0.061 C 
BRANCH   4   5
HETATM    5  C2  UNL     1     -24.047 -39.402  13.153  1.00  0.00     0.099 C 
HETATM    6  N1  UNL     1     -22.900 -39.648  13.759  1.00  0.00    -0.381 N 
HETATM    7  C1  UNL     1     -21.827 -38.801  13.988  1.00  0.00     0.147 C 
ATOM      8  H1  UNL     1     -22.788 -40.600  14.109  1.00  0.00     0.160 HD
BRANCH   5   9
HETATM    9  N4  UNL     1     -24.321 -38.172  12.581  1.00  0.00    -0.350 N 
ATOM     10  H4  UNL     1     -24.766 -37.506  13.212  1.00  0.00     0.166 HD
BRANCH   9  11
HETATM   11  C13 UNL     1     -24.099 -37.681  11.297  1.00  0.00     0.121 C 
BRANCH  11  12
HETATM   12  C14 UNL     1     -22.965 -38.100  10.456  1.00  0.00     0.071 A 
HETATM   13  N5  UNL     1     -21.713 -37.704  10.462  1.00  0.00    -0.350 N 
HETATM   14  C15 UNL     1     -20.756 -37.980   9.539  1.00  0.00     0.180 A 
ATOM     15  H5  UNL     1     -21.427 -37.123  11.250  1.00  0.00     0.166 HD
HETATM   16  N6  UNL     1     -21.173 -38.756   8.527  1.00  0.00    -0.360 N 
HETATM   17  C16 UNL     1     -22.375 -39.233   8.373  1.00  0.00     0.115 A 
ATOM     18  H6  UNL     1     -20.485 -38.994   7.812  1.00  0.00     0.166 HD
HETATM   19  C17 UNL     1     -23.320 -38.923   9.347  1.00  0.00     0.077 A 
HETATM   20 CL1  UNL     1     -24.962 -39.547   9.347  1.00  0.00    -0.080 Cl
ENDBRANCH  11  12
ENDBRANCH   9  11
ENDBRANCH   5   9
ENDBRANCH   4   5
ENDBRANCH   1   4
BRANCH   1  21
HETATM   21  N3  UNL     1     -27.482 -40.573  12.293  1.00  0.00    -0.340 N 
HETATM   22  C6  UNL     1     -27.951 -39.521  11.456  1.00  0.00     0.223 C 
HETATM   23  O1  UNL     1     -27.452 -38.361  11.611  1.00  0.00    -0.273 OA
ATOM     24  H3  UNL     1     -27.800 -41.533  12.156  1.00  0.00     0.164 HD
BRANCH  22  25
HETATM   25  C7  UNL     1     -28.986 -39.696  10.460  1.00  0.00     0.078 C 
HETATM   26  C8  UNL     1     -28.636 -40.809   9.478  1.00  0.00     0.014 C 
HETATM   27  C9  UNL     1     -27.783 -40.158   8.412  1.00  0.00     0.001 C 
HETATM   28  C10 UNL     1     -28.690 -39.341   7.499  1.00  0.00     0.000 C 
HETATM   29  C11 UNL     1     -29.863 -38.855   8.287  1.00  0.00     0.001 C 
HETATM   30  C12 UNL     1     -29.475 -38.509   9.718  1.00  0.00     0.014 C 
ENDBRANCH  22  25
ENDBRANCH   1  21
TORSDOF 7
ENDMDL
MODEL 3
REMARK VINA RESULT: -8.137804590      1.150      1.349
REMARK  7 active torsions:
REMARK  status: ('A' for Active; 'I' for Inactive)
REMARK    1  A    between atoms: C2_4  and  C3_5 
REMARK    2  A    between atoms: C2_4  and  N4_19 
REMARK    3  A    between atoms: C3_5  and  C4_6 
REMARK    4  A    between atoms: C4_6  and  N3_9 
REMARK       I    between atoms: N3_9  and  C6_11 
REMARK    5  A    between atoms: C6_11  and  C7_13 
REMARK    6  A    between atoms: N4_19  and  C13_21 
REMARK    7  A    between atoms: C13_21  and  C14_22 
ROOT
HETATM    1  C4  UNL     1     -28.483 -38.804  11.191  1.00  0.00     0.218 C 
HETATM    2  C5  UNL     1     -29.977 -39.160  10.769  1.00  0.00     0.088 C 
HETATM    3  N2  UNL     1     -31.067 -39.372  10.449  1.00  0.00    -0.195 NA
ENDROOT
BRANCH   1   4
HETATM    4  C3  UNL     1     -28.363 -39.590  12.433  1.00  0.00     0.061 C 
BRANCH   4   5
HETATM    5  C2  UNL     1     -27.562 -39.177  13.585  1.00  0.00     0.099 C 
HETATM    6  N1  UNL     1     -28.055 -39.145  14.808  1.00  0.00    -0.381 N 
HETATM    7  C1  UNL     1     -27.441 -38.776  15.995  1.00  0.00     0.147 C 
ATOM      8  H1  UNL     1     -29.030 -39.434  14.893  1.00  0.00     0.160 HD
BRANCH   5   9
HETATM    9  N4  UNL     1     -26.240 -38.864  13.322  1.00  0.00    -0.350 N 
ATOM     10  H4  UNL     1     -26.107 -37.973  12.844  1.00  0.00     0.166 HD
BRANCH   9  11
HETATM   11  C13 UNL     1     -25.058 -39.548  13.592  1.00  0.00     0.121 C 
BRANCH  11  12
HETATM   12  C14 UNL     1     -23.726 -38.921  13.523  1.00  0.00     0.071 A 
HETATM   13  N5  UNL     1     -23.174 -38.017  14.299  1.00  0.00    -0.350 N 
HETATM   14  C15 UNL     1     -22.022 -37.332  14.078  1.00  0.00     0.180 A 
ATOM     15  H5  UNL     1     -23.667 -37.804  15.166  1.00  0.00     0.166 HD
HETATM   16  N6  UNL     1     -21.402 -37.652  12.931  1.00  0.00    -0.360 N 
HETATM   17  C16 UNL     1     -21.813 -38.524  12.057  1.00  0.00     0.115 A 
ATOM     18  H6  UNL     1     -20.528 -37.166  12.727  1.00  0.00     0.166 HD
HETATM   19  C17 UNL     1     -22.999 -39.201  12.330  1.00  0.00     0.077 A 
HETATM   20 CL1  UNL     1     -23.656 -40.468  11.307  1.00  0.00    -0.080 Cl
ENDBRANCH  11  12
ENDBRANCH   9  11
ENDBRANCH   5   9
ENDBRANCH   4   5
ENDBRANCH   1   4
BRANCH   1  21
HETATM   21  N3  UNL     1     -27.897 -39.507   9.972  1.00  0.00    -0.340 N 
HETATM   22  C6  UNL     1     -26.567 -39.184   9.582  1.00  0.00     0.223 C 
HETATM   23  O1  UNL     1     -25.898 -38.393  10.321  1.00  0.00    -0.273 OA
ATOM     24  H3  UNL     1     -28.444 -40.192   9.450  1.00  0.00     0.164 HD
BRANCH  22  25
HETATM   25  C7  UNL     1     -25.947 -39.683   8.373  1.00  0.00     0.078 C 
HETATM   26  C8  UNL     1     -24.450 -39.396   8.353  1.00  0.00     0.014 C 
HETATM   27  C9  UNL     1     -24.310 -37.998   7.793  1.00  0.00     0.001 C 
HETATM   28  C10 UNL     1     -24.539 -38.056   6.287  1.00  0.00     0.000 C 
HETATM   29  C11 UNL     1     -25.482 -39.174   5.981  1.00  0.00     0.001 C 
HETATM   30  C12 UNL     1     -26.542 -39.328   7.062  1.00  0.00     0.014 C 
ENDBRANCH  22  25
ENDBRANCH   1  21
TORSDOF 7
ENDMDL
MODEL 4
REMARK VINA RESULT: -8.080646534      2.477      5.087
REMARK  7 active torsions:
REMARK  status: ('A' for Active; 'I' for Inactive)
REMARK    1  A    between atoms: C2_4  and  C3_5 
REMARK    2  A    between atoms: C2_4  and  N4_19 
REMARK    3  A    between atoms: C3_5  and  C4_6 
REMARK    4  A    between atoms: C4_6  and  N3_9 
REMARK       I    between atoms: N3_9  and  C6_11 
REMARK    5  A    between atoms: C6_11  and  C7_13 
REMARK    6  A    between atoms: N4_19  and  C13_21 
REMARK    7  A    between atoms: C13_21  and  C14_22 
ROOT
HETATM    1  C4  UNL     1     -24.960 -38.960  12.828  1.00  0.00     0.218 C 
HETATM    2  C5  UNL     1     -25.374 -39.388  14.305  1.00  0.00     0.088 C 
HETATM    3  N2  UNL     1     -25.694 -39.652  15.384  1.00  0.00    -0.195 NA
ENDROOT
BRANCH   1   4
HETATM    4  C3  UNL     1     -23.650 -39.628  12.715  1.00  0.00     0.061 C 
BRANCH   4   5
HETATM    5  C2  UNL     1     -22.377 -38.984  13.039  1.00  0.00     0.099 C 
HETATM    6  N1  UNL     1     -21.796 -39.128  14.215  1.00  0.00    -0.381 N 
HETATM    7  C1  UNL     1     -20.607 -38.588  14.681  1.00  0.00     0.147 C 
ATOM      8  H1  UNL     1     -22.293 -39.723  14.877  1.00  0.00     0.160 HD
BRANCH   5   9
HETATM    9  N4  UNL     1     -21.794 -38.249  12.021  1.00  0.00    -0.350 N 
ATOM     10  H4  UNL     1     -20.844 -37.937  12.221  1.00  0.00     0.166 HD
BRANCH   9  11
HETATM   11  C13 UNL     1     -22.272 -37.860  10.773  1.00  0.00     0.121 C 
BRANCH  11  12
HETATM   12  C14 UNL     1     -21.702 -38.340   9.502  1.00  0.00     0.071 A 
HETATM   13  N5  UNL     1     -20.471 -38.277   9.049  1.00  0.00    -0.350 N 
HETATM   14  C15 UNL     1     -20.040 -38.560   7.793  1.00  0.00     0.180 A 
ATOM     15  H5  UNL     1     -19.758 -37.983   9.716  1.00  0.00     0.166 HD
HETATM   16  N6  UNL     1     -21.009 -38.953   6.951  1.00  0.00    -0.360 N 
HETATM   17  C16 UNL     1     -22.273 -39.070   7.242  1.00  0.00     0.115 A 
ATOM     18  H6  UNL     1     -20.730 -39.182   5.997  1.00  0.00     0.166 HD
HETATM   19  C17 UNL     1     -22.666 -38.770   8.544  1.00  0.00     0.077 A 
HETATM   20 CL1  UNL     1     -24.310 -38.953   9.133  1.00  0.00    -0.080 Cl
ENDBRANCH  11  12
ENDBRANCH   9  11
ENDBRANCH   5   9
ENDBRANCH   4   5
ENDBRANCH   1   4
BRANCH   1  21
HETATM   21  N3  UNL     1     -26.099 -39.758  12.203  1.00  0.00    -0.340 N 
HETATM   22  C6  UNL     1     -27.197 -39.043  11.645  1.00  0.00     0.223 C 
HETATM   23  O1  UNL     1     -27.132 -37.772  11.612  1.00  0.00    -0.273 OA
ATOM     24  H3  UNL     1     -26.076 -40.778  12.185  1.00  0.00     0.164 HD
BRANCH  22  25
HETATM   25  C7  UNL     1     -28.393 -39.683  11.143  1.00  0.00     0.078 C 
HETATM   26  C8  UNL     1     -28.153 -40.326   9.781  1.00  0.00     0.014 C 
HETATM   27  C9  UNL     1     -28.371 -39.226   8.767  1.00  0.00     0.001 C 
HETATM   28  C10 UNL     1     -29.870 -38.983   8.630  1.00  0.00     0.000 C 
HETATM   29  C11 UNL     1     -30.534 -39.300   9.931  1.00  0.00     0.001 C 
HETATM   30  C12 UNL     1     -29.661 -38.914  11.117  1.00  0.00     0.014 C 
ENDBRANCH  22  25
ENDBRANCH   1  21
TORSDOF 7
ENDMDL
MODEL 5
REMARK VINA RESULT: -8.044653946      2.025      2.849
REMARK  7 active torsions:
REMARK  status: ('A' for Active; 'I' for Inactive)
REMARK    1  A    between atoms: C2_4  and  C3_5 
REMARK    2  A    between atoms: C2_4  and  N4_19 
REMARK    3  A    between atoms: C3_5  and  C4_6 
REMARK    4  A    between atoms: C4_6  and  N3_9 
REMARK       I    between atoms: N3_9  and  C6_11 
REMARK    5  A    between atoms: C6_11  and  C7_13 
REMARK    6  A    between atoms: N4_19  and  C13_21 
REMARK    7  A    between atoms: C13_21  and  C14_22 
ROOT
HETATM    1  C4  UNL     1     -28.473 -39.751  12.874  1.00  0.00     0.218 C 
HETATM    2  C5  UNL     1     -27.784 -41.123  13.295  1.00  0.00     0.088 C 
HETATM    3  N2  UNL     1     -27.329 -42.137  13.613  1.00  0.00    -0.195 NA
ENDROOT
BRANCH   1   4
HETATM    4  C3  UNL     1     -27.494 -38.786  13.409  1.00  0.00     0.061 C 
BRANCH   4   5
HETATM    5  C2  UNL     1     -26.986 -38.817  14.780  1.00  0.00     0.099 C 
HETATM    6  N1  UNL     1     -27.785 -38.734  15.827  1.00  0.00    -0.381 N 
HETATM    7  C1  UNL     1     -27.469 -38.741  17.177  1.00  0.00     0.147 C 
ATOM      8  H1  UNL     1     -28.779 -38.651  15.612  1.00  0.00     0.160 HD
BRANCH   5   9
HETATM    9  N4  UNL     1     -25.619 -38.986  14.915  1.00  0.00    -0.350 N 
ATOM     10  H4  UNL     1     -25.212 -38.489  15.708  1.00  0.00     0.166 HD
BRANCH   9  11
HETATM   11  C13 UNL     1     -24.699 -39.712  14.163  1.00  0.00     0.121 C 
BRANCH  11  12
HETATM   12  C14 UNL     1     -23.415 -39.158  13.703  1.00  0.00     0.071 A 
HETATM   13  N5  UNL     1     -22.392 -38.705  14.390  1.00  0.00    -0.350 N 
HETATM   14  C15 UNL     1     -21.314 -38.028  13.917  1.00  0.00     0.180 A 
ATOM     15  H5  UNL     1     -22.409 -38.882  15.395  1.00  0.00     0.166 HD
HETATM   16  N6  UNL     1     -21.328 -37.828  12.589  1.00  0.00    -0.360 N 
HETATM   17  C16 UNL     1     -22.261 -38.213  11.768  1.00  0.00     0.115 A 
ATOM     18  H6  UNL     1     -20.534 -37.328  12.188  1.00  0.00     0.166 HD
HETATM   19  C17 UNL     1     -23.345 -38.906  12.301  1.00  0.00     0.077 A 
HETATM   20 CL1  UNL     1     -24.649 -39.573  11.333  1.00  0.00    -0.080 Cl
ENDBRANCH  11  12
ENDBRANCH   9  11
ENDBRANCH   5   9
ENDBRANCH   4   5
ENDBRANCH   1   4
BRANCH   1  21
HETATM   21  N3  UNL     1     -28.290 -40.035  11.387  1.00  0.00    -0.340 N 
HETATM   22  C6  UNL     1     -29.301 -39.595  10.487  1.00  0.00     0.223 C 
HETATM   23  O1  UNL     1     -30.263 -38.906  10.953  1.00  0.00    -0.273 OA
ATOM     24  H3  UNL     1     -27.464 -40.528  11.047  1.00  0.00     0.164 HD
BRANCH  22  25
HETATM   25  C7  UNL     1     -29.307 -39.917   9.076  1.00  0.00     0.078 C 
HETATM   26  C8  UNL     1     -28.150 -40.839   8.707  1.00  0.00     0.014 C 
HETATM   27  C9  UNL     1     -26.970 -39.929   8.449  1.00  0.00     0.001 C 
HETATM   28  C10 UNL     1     -27.159 -39.266   7.089  1.00  0.00     0.000 C 
HETATM   29  C11 UNL     1     -28.622 -39.120   6.819  1.00  0.00     0.001 C 
HETATM   30  C12 UNL     1     -29.401 -38.813   8.089  1.00  0.00     0.014 C 
ENDBRANCH  22  25
ENDBRANCH   1  21
TORSDOF 7
ENDMDL
