MODEL 1
REMARK VINA RESULT: -8.394405689      0.000      0.000
REMARK  8 active torsions:
REMARK  status: ('A' for Active; 'I' for Inactive)
REMARK    1  A    between atoms: C6_7  and  C7_8 
REMARK    2  A    between atoms: C8_9  and  C9_10 
REMARK    3  A    between atoms: N2_11  and  O1_13 
REMARK    4  A    between atoms: N3_15  and  C10_16 
REMARK    5  A    between atoms: C10_16  and  C11_17 
REMARK    6  A    between atoms: N4_20  and  C13_21 
REMARK    7  A    between atoms: C13_21  and  C14_22 
REMARK    8  A    between atoms: C14_22  and  O2_23 
ROOT
HETATM    1  N1  UNL     1     -31.015 -39.260  10.305  1.00  0.00    -0.191 NA
HETATM    2  C1  UNL     1     -29.907 -39.295   9.972  1.00  0.00     0.099 C 
HETATM    3  C2  UNL     1     -28.532 -39.339   9.569  1.00  0.00     0.045 A 
HETATM    4  C3  UNL     1     -28.248 -39.829   8.317  1.00  0.00     0.023 A 
HETATM    5  C4  UNL     1     -26.935 -39.882   7.905  1.00  0.00     0.002 A 
HETATM    6  C5  UNL     1     -25.934 -39.444   8.751  1.00  0.00     0.014 A 
HETATM    7  C6  UNL     1     -26.171 -38.955   9.992  1.00  0.00    -0.005 A 
HETATM    8  C15 UNL     1     -27.493 -38.908  10.395  1.00  0.00     0.036 A 
ENDROOT
BRANCH   7   9
HETATM    9  C7  UNL     1     -25.153 -38.606  10.965  1.00  0.00     0.074 A 
HETATM   10  C8  UNL     1     -25.194 -38.826  12.363  1.00  0.00     0.081 A 
HETATM   11  N3  UNL     1     -23.996 -38.567  12.903  1.00  0.00    -0.339 N 
HETATM   12  C12 UNL     1     -23.211 -38.177  11.861  1.00  0.00     0.186 A 
HETATM   13  N4  UNL     1     -23.897 -38.198  10.701  1.00  0.00    -0.338 N 
BRANCH  10  14
HETATM   14  C9  UNL     1     -26.388 -39.101  13.123  1.00  0.00     0.145 C 
HETATM   15  N2  UNL     1     -26.970 -38.259  13.856  1.00  0.00    -0.278 N 
ATOM     16  H2  UNL     1     -26.585 -37.317  13.927  1.00  0.00     0.193 HD
BRANCH  15  17
HETATM   17  O1  UNL     1     -28.098 -38.562  14.556  1.00  0.00    -0.290 OA
ATOM     18  H1  UNL     1     -28.463 -37.974  15.207  1.00  0.00     0.244 HD
ENDBRANCH  15  17
ENDBRANCH  10  14
BRANCH  11  19
HETATM   19  C10 UNL     1     -23.433 -38.708  14.226  1.00  0.00     0.141 C 
BRANCH  19  20
HETATM   20  C11 UNL     1     -22.158 -37.946  14.381  1.00  0.00     0.105 C 
HETATM   21 BR1  UNL     1     -20.585 -39.006  14.513  1.00  0.00    -0.095 Br
ENDBRANCH  19  20
ENDBRANCH  11  19
BRANCH  13  22
HETATM   22  C13 UNL     1     -23.261 -37.784   9.466  1.00  0.00     0.156 C 
BRANCH  22  23
HETATM   23  C14 UNL     1     -21.907 -38.408   9.243  1.00  0.00     0.184 C 
BRANCH  23  24
HETATM   24  O2  UNL     1     -20.933 -37.455   9.535  1.00  0.00    -0.399 OA
ATOM     25  H2  UNL     1     -20.186 -37.609   8.969  1.00  0.00     0.209 HD
ENDBRANCH  23  24
ENDBRANCH  22  23
ENDBRANCH  13  22
ENDBRANCH   7   9
TORSDOF 8
ENDMDL
MODEL 2
REMARK VINA RESULT: -8.383037051      2.310      3.170
REMARK  8 active torsions:
REMARK  status: ('A' for Active; 'I' for Inactive)
REMARK    1  A    between atoms: C6_7  and  C7_8 
REMARK    2  A    between atoms: C8_9  and  C9_10 
REMARK    3  A    between atoms: N2_11  and  O1_13 
REMARK    4  A    between atoms: N3_15  and  C10_16 
REMARK    5  A    between atoms: C10_16  and  C11_17 
REMARK    6  A    between atoms: N4_20  and  C13_21 
REMARK    7  A    between atoms: C13_21  and  C14_22 
REMARK    8  A    between atoms: C14_22  and  O2_23 
ROOT
HETATM    1  N1  UNL     1     -24.388 -39.190   4.683  1.00  0.00    -0.191 NA
HETATM    2  C1  UNL     1     -25.031 -39.285   5.640  1.00  0.00     0.099 C 
HETATM    3  C2  UNL     1     -25.822 -39.394   6.831  1.00  0.00     0.045 A 
HETATM    4  C3  UNL     1     -27.162 -39.661   6.686  1.00  0.00     0.023 A 
HETATM    5  C4  UNL     1     -27.945 -39.772   7.814  1.00  0.00     0.002 A 
HETATM    6  C5  UNL     1     -27.373 -39.616   9.061  1.00  0.00     0.014 A 
HETATM    7  C6  UNL     1     -26.057 -39.354   9.248  1.00  0.00    -0.005 A 
HETATM    8  C15 UNL     1     -25.282 -39.243   8.109  1.00  0.00     0.036 A 
ENDROOT
BRANCH   7   9
HETATM    9  C7  UNL     1     -25.434 -39.053  10.524  1.00  0.00     0.074 A 
HETATM   10  C8  UNL     1     -25.839 -39.507  11.802  1.00  0.00     0.081 A 
HETATM   11  N3  UNL     1     -24.907 -39.201  12.714  1.00  0.00    -0.339 N 
HETATM   12  C12 UNL     1     -23.930 -38.552  12.023  1.00  0.00     0.186 A 
HETATM   13  N4  UNL     1     -24.239 -38.460  10.714  1.00  0.00    -0.338 N 
BRANCH  10  14
HETATM   14  C9  UNL     1     -27.141 -40.044  12.116  1.00  0.00     0.145 C 
HETATM   15  N2  UNL     1     -28.067 -39.386  12.659  1.00  0.00    -0.278 N 
ATOM     16  H2  UNL     1     -27.902 -38.409  12.898  1.00  0.00     0.193 HD
BRANCH  15  17
HETATM   17  O1  UNL     1     -29.281 -39.935  12.936  1.00  0.00    -0.290 OA
ATOM     18  H1  UNL     1     -29.873 -39.558  13.575  1.00  0.00     0.244 HD
ENDBRANCH  15  17
ENDBRANCH  10  14
BRANCH  11  19
HETATM   19  C10 UNL     1     -24.735 -39.492  14.119  1.00  0.00     0.141 C 
BRANCH  19  20
HETATM   20  C11 UNL     1     -25.318 -38.430  14.991  1.00  0.00     0.105 C 
HETATM   21 BR1  UNL     1     -26.741 -38.993  16.120  1.00  0.00    -0.095 Br
ENDBRANCH  19  20
ENDBRANCH  11  19
BRANCH  13  22
HETATM   22  C13 UNL     1     -23.352 -37.774   9.797  1.00  0.00     0.156 C 
BRANCH  22  23
HETATM   23  C14 UNL     1     -21.965 -38.364   9.740  1.00  0.00     0.184 C 
BRANCH  23  24
HETATM   24  O2  UNL     1     -21.050 -37.358  10.042  1.00  0.00    -0.399 OA
ATOM     25  H2  UNL     1     -20.205 -37.762  10.202  1.00  0.00     0.209 HD
ENDBRANCH  23  24
ENDBRANCH  22  23
ENDBRANCH  13  22
ENDBRANCH   7   9
TORSDOF 8
ENDMDL
MODEL 3
REMARK VINA RESULT: -8.278392402      1.862      2.779
REMARK  8 active torsions:
REMARK  status: ('A' for Active; 'I' for Inactive)
REMARK    1  A    between atoms: C6_7  and  C7_8 
REMARK    2  A    between atoms: C8_9  and  C9_10 
REMARK    3  A    between atoms: N2_11  and  O1_13 
REMARK    4  A    between atoms: N3_15  and  C10_16 
REMARK    5  A    between atoms: C10_16  and  C11_17 
REMARK    6  A    between atoms: N4_20  and  C13_21 
REMARK    7  A    between atoms: C13_21  and  C14_22 
REMARK    8  A    between atoms: C14_22  and  O2_23 
ROOT
HETATM    1  N1  UNL     1     -24.733 -39.188   4.332  1.00  0.00    -0.191 NA
HETATM    2  C1  UNL     1     -25.213 -39.248   5.384  1.00  0.00     0.099 C 
HETATM    3  C2  UNL     1     -25.801 -39.315   6.690  1.00  0.00     0.045 A 
HETATM    4  C3  UNL     1     -27.112 -39.716   6.781  1.00  0.00     0.023 A 
HETATM    5  C4  UNL     1     -27.701 -39.788   8.024  1.00  0.00     0.002 A 
HETATM    6  C5  UNL     1     -26.969 -39.462   9.148  1.00  0.00     0.014 A 
HETATM    7  C6  UNL     1     -25.675 -39.063   9.102  1.00  0.00    -0.005 A 
HETATM    8  C15 UNL     1     -25.095 -38.992   7.849  1.00  0.00     0.036 A 
ENDROOT
BRANCH   7   9
HETATM    9  C7  UNL     1     -24.904 -38.585  10.235  1.00  0.00     0.074 A 
HETATM   10  C8  UNL     1     -25.306 -38.554  11.592  1.00  0.00     0.081 A 
HETATM   11  N3  UNL     1     -24.262 -38.247  12.372  1.00  0.00    -0.339 N 
HETATM   12  C12 UNL     1     -23.215 -38.076  11.518  1.00  0.00     0.186 A 
HETATM   13  N4  UNL     1     -23.593 -38.276  10.240  1.00  0.00    -0.338 N 
BRANCH  10  14
HETATM   14  C9  UNL     1     -26.669 -38.647  12.054  1.00  0.00     0.145 C 
HETATM   15  N2  UNL     1     -27.412 -37.654  12.273  1.00  0.00    -0.278 N 
ATOM     16  H2  UNL     1     -27.040 -36.717  12.117  1.00  0.00     0.193 HD
BRANCH  15  17
HETATM   17  O1  UNL     1     -28.694 -37.789  12.708  1.00  0.00    -0.290 OA
ATOM     18  H1  UNL     1     -28.902 -38.040  13.600  1.00  0.00     0.244 HD
ENDBRANCH  15  17
ENDBRANCH  10  14
BRANCH  11  19
HETATM   19  C10 UNL     1     -24.055 -38.173  13.801  1.00  0.00     0.141 C 
BRANCH  19  20
HETATM   20  C11 UNL     1     -22.760 -38.789  14.216  1.00  0.00     0.105 C 
HETATM   21 BR1  UNL     1     -21.374 -37.561  14.646  1.00  0.00    -0.095 Br
ENDBRANCH  19  20
ENDBRANCH  11  19
BRANCH  13  22
HETATM   22  C13 UNL     1     -22.641 -38.110   9.160  1.00  0.00     0.156 C 
BRANCH  22  23
HETATM   23  C14 UNL     1     -21.223 -38.446   9.545  1.00  0.00     0.184 C 
BRANCH  23  24
HETATM   24  O2  UNL     1     -20.454 -37.290   9.427  1.00  0.00    -0.399 OA
ATOM     25  H2  UNL     1     -19.539 -37.530   9.518  1.00  0.00     0.209 HD
ENDBRANCH  23  24
ENDBRANCH  22  23
ENDBRANCH  13  22
ENDBRANCH   7   9
TORSDOF 8
ENDMDL
MODEL 4
REMARK VINA RESULT: -8.188548543      1.947      4.578
REMARK  8 active torsions:
REMARK  status: ('A' for Active; 'I' for Inactive)
REMARK    1  A    between atoms: C6_7  and  C7_8 
REMARK    2  A    between atoms: C8_9  and  C9_10 
REMARK    3  A    between atoms: N2_11  and  O1_13 
REMARK    4  A    between atoms: N3_15  and  C10_16 
REMARK    5  A    between atoms: C10_16  and  C11_17 
REMARK    6  A    between atoms: N4_20  and  C13_21 
REMARK    7  A    between atoms: C13_21  and  C14_22 
REMARK    8  A    between atoms: C14_22  and  O2_23 
ROOT
HETATM    1  N1  UNL     1     -24.413 -39.151   4.735  1.00  0.00    -0.191 NA
HETATM    2  C1  UNL     1     -25.057 -39.253   5.692  1.00  0.00     0.099 C 
HETATM    3  C2  UNL     1     -25.848 -39.373   6.882  1.00  0.00     0.045 A 
HETATM    4  C3  UNL     1     -27.197 -39.587   6.733  1.00  0.00     0.023 A 
HETATM    5  C4  UNL     1     -27.980 -39.706   7.860  1.00  0.00     0.002 A 
HETATM    6  C5  UNL     1     -27.400 -39.611   9.109  1.00  0.00     0.014 A 
HETATM    7  C6  UNL     1     -26.075 -39.401   9.300  1.00  0.00    -0.005 A 
HETATM    8  C15 UNL     1     -25.300 -39.281   8.161  1.00  0.00     0.036 A 
ENDROOT
BRANCH   7   9
HETATM    9  C7  UNL     1     -25.439 -39.163  10.582  1.00  0.00     0.074 A 
HETATM   10  C8  UNL     1     -24.181 -38.556  10.813  1.00  0.00     0.081 A 
HETATM   11  N3  UNL     1     -24.021 -38.317  12.121  1.00  0.00    -0.339 N 
HETATM   12  C12 UNL     1     -25.159 -38.777  12.711  1.00  0.00     0.186 A 
HETATM   13  N4  UNL     1     -26.009 -39.284  11.796  1.00  0.00    -0.338 N 
BRANCH  10  14
HETATM   14  C9  UNL     1     -23.144 -38.394   9.823  1.00  0.00     0.145 C 
HETATM   15  N2  UNL     1     -22.106 -39.103   9.762  1.00  0.00    -0.278 N 
ATOM     16  H2  UNL     1     -21.974 -39.844  10.450  1.00  0.00     0.193 HD
BRANCH  15  17
HETATM   17  O1  UNL     1     -21.153 -38.915   8.808  1.00  0.00    -0.290 OA
ATOM     18  H1  UNL     1     -20.943 -39.580   8.164  1.00  0.00     0.244 HD
ENDBRANCH  15  17
ENDBRANCH  10  14
BRANCH  11  19
HETATM   19  C10 UNL     1     -23.013 -37.646  12.909  1.00  0.00     0.141 C 
BRANCH  19  20
HETATM   20  C11 UNL     1     -21.942 -38.580  13.369  1.00  0.00     0.105 C 
HETATM   21 BR1  UNL     1     -20.956 -38.005  14.890  1.00  0.00    -0.095 Br
ENDBRANCH  19  20
ENDBRANCH  11  19
BRANCH  13  22
HETATM   22  C13 UNL     1     -27.272 -39.862  12.210  1.00  0.00     0.156 C 
BRANCH  22  23
HETATM   23  C14 UNL     1     -28.092 -38.957  13.094  1.00  0.00     0.184 C 
BRANCH  23  24
HETATM   24  O2  UNL     1     -28.447 -37.830  12.354  1.00  0.00    -0.399 OA
ATOM     25  H2  UNL     1     -28.593 -37.112  12.958  1.00  0.00     0.209 HD
ENDBRANCH  23  24
ENDBRANCH  22  23
ENDBRANCH  13  22
ENDBRANCH   7   9
TORSDOF 8
ENDMDL
MODEL 5
REMARK VINA RESULT: -8.175006522      1.576      3.823
REMARK  8 active torsions:
REMARK  status: ('A' for Active; 'I' for Inactive)
REMARK    1  A    between atoms: C6_7  and  C7_8 
REMARK    2  A    between atoms: C8_9  and  C9_10 
REMARK    3  A    between atoms: N2_11  and  O1_13 
REMARK    4  A    between atoms: N3_15  and  C10_16 
REMARK    5  A    between atoms: C10_16  and  C11_17 
REMARK    6  A    between atoms: N4_20  and  C13_21 
REMARK    7  A    between atoms: C13_21  and  C14_22 
REMARK    8  A    between atoms: C14_22  and  O2_23 
ROOT
HETATM    1  N1  UNL     1     -31.501 -39.205  10.343  1.00  0.00    -0.191 NA
HETATM    2  C1  UNL     1     -30.365 -39.284  10.135  1.00  0.00     0.099 C 
HETATM    3  C2  UNL     1     -28.957 -39.386   9.887  1.00  0.00     0.045 A 
HETATM    4  C3  UNL     1     -28.549 -39.577   8.588  1.00  0.00     0.023 A 
HETATM    5  C4  UNL     1     -27.201 -39.678   8.322  1.00  0.00     0.002 A 
HETATM    6  C5  UNL     1     -26.291 -39.585   9.356  1.00  0.00     0.014 A 
HETATM    7  C6  UNL     1     -26.651 -39.397  10.649  1.00  0.00    -0.005 A 
HETATM    8  C15 UNL     1     -28.006 -39.299  10.904  1.00  0.00     0.036 A 
ENDROOT
BRANCH   7   9
HETATM    9  C7  UNL     1     -25.747 -39.423  11.784  1.00  0.00     0.074 A 
HETATM   10  C8  UNL     1     -24.604 -38.614  11.986  1.00  0.00     0.081 A 
HETATM   11  N3  UNL     1     -24.144 -38.772  13.234  1.00  0.00    -0.339 N 
HETATM   12  C12 UNL     1     -24.981 -39.679  13.810  1.00  0.00     0.186 A 
HETATM   13  N4  UNL     1     -25.940 -40.072  12.949  1.00  0.00    -0.338 N 
BRANCH  10  14
HETATM   14  C9  UNL     1     -23.918 -37.876  10.953  1.00  0.00     0.145 C 
HETATM   15  N2  UNL     1     -22.863 -38.266  10.386  1.00  0.00    -0.278 N 
ATOM     16  H2  UNL     1     -22.455 -39.158  10.664  1.00  0.00     0.193 HD
BRANCH  15  17
HETATM   17  O1  UNL     1     -22.250 -37.536   9.414  1.00  0.00    -0.290 OA
ATOM     18  H1  UNL     1     -22.038 -37.902   8.564  1.00  0.00     0.244 HD
ENDBRANCH  15  17
ENDBRANCH  10  14
BRANCH  11  19
HETATM   19  C10 UNL     1     -23.099 -38.148  14.013  1.00  0.00     0.141 C 
BRANCH  19  20
HETATM   20  C11 UNL     1     -21.797 -38.869  13.890  1.00  0.00     0.105 C 
HETATM   21 BR1  UNL     1     -20.450 -38.335  15.121  1.00  0.00    -0.095 Br
ENDBRANCH  19  20
ENDBRANCH  11  19
BRANCH  13  22
HETATM   22  C13 UNL     1     -26.920 -41.063  13.344  1.00  0.00     0.156 C 
BRANCH  22  23
HETATM   23  C14 UNL     1     -26.316 -42.382  13.757  1.00  0.00     0.184 C 
BRANCH  23  24
HETATM   24  O2  UNL     1     -26.928 -42.792  14.940  1.00  0.00    -0.399 OA
ATOM     25  H2  UNL     1     -26.291 -43.275  15.452  1.00  0.00     0.209 HD
ENDBRANCH  23  24
ENDBRANCH  22  23
ENDBRANCH  13  22
ENDBRANCH   7   9
TORSDOF 8
ENDMDL
