MODEL 1
REMARK VINA RESULT: -7.861637661      0.000      0.000
REMARK  8 active torsions:
REMARK  status: ('A' for Active; 'I' for Inactive)
REMARK    1  A    between atoms: C2_2  and  N1_4 
REMARK    2  A    between atoms: N1_4  and  C4_6 
REMARK    3  A    between atoms: C8_13  and  O1_14 
REMARK    4  A    between atoms: C8_13  and  N3_16 
REMARK    5  A    between atoms: N3_16  and  C9_18 
REMARK    6  A    between atoms: C9_18  and  C10_19 
REMARK    7  A    between atoms: C10_19  and  C11_20 
REMARK    8  A    between atoms: C11_20  and  N4_21 
ROOT
HETATM    1  C4  UNL     1     -24.664 -38.971   7.586  1.00  0.00     0.075 A 
HETATM    2  C5  UNL     1     -23.669 -39.029   6.591  1.00  0.00     0.077 A 
HETATM    3 CL1  UNL     1     -24.142 -39.266   4.897  1.00  0.00    -0.080 Cl
HETATM    4  C6  UNL     1     -22.371 -38.902   6.959  1.00  0.00     0.114 A 
HETATM    5  N2  UNL     1     -22.000 -38.722   8.223  1.00  0.00    -0.359 N 
ATOM      6  H2  UNL     1     -21.006 -38.632   8.434  1.00  0.00     0.165 HD
HETATM    7  C7  UNL     1     -22.904 -38.653   9.259  1.00  0.00     0.106 A 
HETATM    8  C8  UNL     1     -22.369 -38.482  10.592  1.00  0.00     0.165 C 
HETATM    9  C16 UNL     1     -24.210 -38.784   8.889  1.00  0.00     0.103 A 
HETATM   10  C17 UNL     1     -25.218 -38.800   9.923  1.00  0.00     0.104 C 
HETATM   11  N5  UNL     1     -26.039 -38.848  10.745  1.00  0.00    -0.191 NA
ENDROOT
BRANCH   1  12
HETATM   12  N1  UNL     1     -25.819 -39.090   7.181  1.00  0.00    -0.383 N 
ATOM     13  H1  UNL     1     -26.186 -38.141   7.115  1.00  0.00     0.160 HD
BRANCH  12  14
HETATM   14  C2  UNL     1     -26.836 -39.906   6.778  1.00  0.00     0.073 C 
HETATM   15  C1  UNL     1     -27.822 -40.266   7.922  1.00  0.00     0.031 C 
HETATM   16  C3  UNL     1     -27.739 -39.128   5.801  1.00  0.00     0.031 C 
ENDBRANCH  12  14
ENDBRANCH   1  12
BRANCH   8  17
HETATM   17  O1  UNL     1     -21.156 -38.924  10.783  1.00  0.00    -0.345 OA
ATOM     18  H1  UNL     1     -20.454 -38.349  10.501  1.00  0.00     0.219 HD
ENDBRANCH   8  17
BRANCH   8  19
HETATM   19  N3  UNL     1     -22.944 -37.908  11.719  1.00  0.00    -0.369 N 
ATOM     20  H3  UNL     1     -23.522 -37.071  11.647  1.00  0.00     0.161 HD
BRANCH  19  21
HETATM   21  C9  UNL     1     -22.692 -38.552  13.028  1.00  0.00     0.123 C 
BRANCH  21  22
HETATM   22  C10 UNL     1     -23.700 -39.643  13.300  1.00  0.00     0.050 C 
BRANCH  22  23
HETATM   23  C11 UNL     1     -24.876 -39.121  14.098  1.00  0.00     0.274 C 
BRANCH  23  24
HETATM   24  N4  UNL     1     -25.590 -40.207  14.703  1.00  0.00     0.092 N 
HETATM   25  C12 UNL     1     -25.940 -41.249  13.791  1.00  0.00     0.298 C 
HETATM   26  C13 UNL     1     -27.342 -40.957  13.256  1.00  0.00     0.198 C 
HETATM   27  O2  UNL     1     -28.305 -41.090  14.244  1.00  0.00    -0.388 OA
HETATM   28  C14 UNL     1     -27.782 -40.941  15.513  1.00  0.00     0.198 C 
HETATM   29  C15 UNL     1     -26.717 -39.838  15.498  1.00  0.00     0.298 C 
ENDBRANCH  23  24
ENDBRANCH  22  23
ENDBRANCH  21  22
ENDBRANCH  19  21
ENDBRANCH   8  19
TORSDOF 8
ENDMDL
MODEL 2
REMARK VINA RESULT: -7.830683989      3.758      7.982
REMARK  8 active torsions:
REMARK  status: ('A' for Active; 'I' for Inactive)
REMARK    1  A    between atoms: C2_2  and  N1_4 
REMARK    2  A    between atoms: N1_4  and  C4_6 
REMARK    3  A    between atoms: C8_13  and  O1_14 
REMARK    4  A    between atoms: C8_13  and  N3_16 
REMARK    5  A    between atoms: N3_16  and  C9_18 
REMARK    6  A    between atoms: C9_18  and  C10_19 
REMARK    7  A    between atoms: C10_19  and  C11_20 
REMARK    8  A    between atoms: C11_20  and  N4_21 
ROOT
HETATM    1  C4  UNL     1     -25.655 -38.905   9.615  1.00  0.00     0.075 A 
HETATM    2  C5  UNL     1     -25.785 -38.564  10.976  1.00  0.00     0.077 A 
HETATM    3 CL1  UNL     1     -27.384 -38.633  11.743  1.00  0.00    -0.080 Cl
HETATM    4  C6  UNL     1     -24.679 -38.189  11.663  1.00  0.00     0.114 A 
HETATM    5  N2  UNL     1     -23.474 -38.134  11.104  1.00  0.00    -0.359 N 
ATOM      6  H2  UNL     1     -22.681 -37.846  11.677  1.00  0.00     0.165 HD
HETATM    7  C7  UNL     1     -23.254 -38.449   9.782  1.00  0.00     0.106 A 
HETATM    8  C8  UNL     1     -21.900 -38.322   9.289  1.00  0.00     0.165 C 
HETATM    9  C16 UNL     1     -24.368 -38.823   9.090  1.00  0.00     0.103 A 
HETATM   10  C17 UNL     1     -24.239 -39.097   7.678  1.00  0.00     0.104 C 
HETATM   11  N5  UNL     1     -24.159 -39.289   6.534  1.00  0.00    -0.191 NA
ENDROOT
BRANCH   1  12
HETATM   12  N1  UNL     1     -26.698 -39.237   9.056  1.00  0.00    -0.383 N 
ATOM     13  H1  UNL     1     -27.256 -38.386   8.986  1.00  0.00     0.160 HD
BRANCH  12  14
HETATM   14  C2  UNL     1     -27.454 -40.219   8.486  1.00  0.00     0.073 C 
HETATM   15  C1  UNL     1     -28.859 -40.363   9.131  1.00  0.00     0.031 C 
HETATM   16  C3  UNL     1     -27.799 -39.806   7.042  1.00  0.00     0.031 C 
ENDBRANCH  12  14
ENDBRANCH   1  12
BRANCH   8  17
HETATM   17  O1  UNL     1     -21.143 -37.462   9.913  1.00  0.00    -0.345 OA
ATOM     18  H1  UNL     1     -20.613 -36.896   9.363  1.00  0.00     0.219 HD
ENDBRANCH   8  17
BRANCH   8  19
HETATM   19  N3  UNL     1     -21.263 -38.983   8.247  1.00  0.00    -0.369 N 
ATOM     20  H3  UNL     1     -21.706 -39.771   7.774  1.00  0.00     0.161 HD
BRANCH  19  21
HETATM   21  C9  UNL     1     -19.920 -38.506   7.844  1.00  0.00     0.123 C 
BRANCH  21  22
HETATM   22  C10 UNL     1     -19.630 -38.856   6.404  1.00  0.00     0.050 C 
BRANCH  22  23
HETATM   23  C11 UNL     1     -18.337 -39.633   6.275  1.00  0.00     0.274 C 
BRANCH  23  24
HETATM   24  N4  UNL     1     -17.419 -38.938   5.421  1.00  0.00     0.092 N 
HETATM   25  C12 UNL     1     -16.061 -38.997   5.860  1.00  0.00     0.298 C 
HETATM   26  C13 UNL     1     -15.792 -37.768   6.729  1.00  0.00     0.198 C 
HETATM   27  O2  UNL     1     -15.813 -36.599   5.983  1.00  0.00    -0.388 OA
HETATM   28  C14 UNL     1     -16.543 -36.731   4.819  1.00  0.00     0.198 C 
HETATM   29  C15 UNL     1     -17.780 -37.597   5.089  1.00  0.00     0.298 C 
ENDBRANCH  23  24
ENDBRANCH  22  23
ENDBRANCH  21  22
ENDBRANCH  19  21
ENDBRANCH   8  19
TORSDOF 8
ENDMDL
MODEL 3
REMARK VINA RESULT: -7.765028568      2.215      3.640
REMARK  8 active torsions:
REMARK  status: ('A' for Active; 'I' for Inactive)
REMARK    1  A    between atoms: C2_2  and  N1_4 
REMARK    2  A    between atoms: N1_4  and  C4_6 
REMARK    3  A    between atoms: C8_13  and  O1_14 
REMARK    4  A    between atoms: C8_13  and  N3_16 
REMARK    5  A    between atoms: N3_16  and  C9_18 
REMARK    6  A    between atoms: C9_18  and  C10_19 
REMARK    7  A    between atoms: C10_19  and  C11_20 
REMARK    8  A    between atoms: C11_20  and  N4_21 
ROOT
HETATM    1  C4  UNL     1     -25.713 -39.336   8.590  1.00  0.00     0.075 A 
HETATM    2  C5  UNL     1     -27.067 -39.617   8.322  1.00  0.00     0.077 A 
HETATM    3 CL1  UNL     1     -27.538 -40.174   6.704  1.00  0.00    -0.080 Cl
HETATM    4  C6  UNL     1     -27.976 -39.450   9.313  1.00  0.00     0.114 A 
HETATM    5  N2  UNL     1     -27.640 -39.035  10.530  1.00  0.00    -0.359 N 
ATOM      6  H2  UNL     1     -28.372 -38.932  11.232  1.00  0.00     0.165 HD
HETATM    7  C7  UNL     1     -26.342 -38.739  10.881  1.00  0.00     0.106 A 
HETATM    8  C8  UNL     1     -26.113 -38.271  12.230  1.00  0.00     0.165 C 
HETATM    9  C16 UNL     1     -25.427 -38.904   9.882  1.00  0.00     0.103 A 
HETATM   10  C17 UNL     1     -24.054 -38.541  10.143  1.00  0.00     0.104 C 
HETATM   11  N5  UNL     1     -22.951 -38.224  10.326  1.00  0.00    -0.191 NA
ENDROOT
BRANCH   1  12
HETATM   12  N1  UNL     1     -24.944 -39.512   7.647  1.00  0.00    -0.383 N 
ATOM     13  H1  UNL     1     -24.985 -40.511   7.442  1.00  0.00     0.160 HD
BRANCH  12  14
HETATM   14  C2  UNL     1     -24.062 -38.989   6.748  1.00  0.00     0.073 C 
HETATM   15  C1  UNL     1     -24.390 -39.365   5.277  1.00  0.00     0.031 C 
HETATM   16  C3  UNL     1     -24.217 -37.456   6.735  1.00  0.00     0.031 C 
ENDBRANCH  12  14
ENDBRANCH   1  12
BRANCH   8  17
HETATM   17  O1  UNL     1     -27.121 -37.678  12.809  1.00  0.00    -0.345 OA
ATOM     18  H1  UNL     1     -27.209 -36.747  12.642  1.00  0.00     0.219 HD
ENDBRANCH   8  17
BRANCH   8  19
HETATM   19  N3  UNL     1     -24.977 -38.359  13.025  1.00  0.00    -0.369 N 
ATOM     20  H3  UNL     1     -24.464 -37.523  13.305  1.00  0.00     0.161 HD
BRANCH  19  21
HETATM   21  C9  UNL     1     -24.536 -39.706  13.455  1.00  0.00     0.123 C 
BRANCH  21  22
HETATM   22  C10 UNL     1     -25.600 -40.387  14.283  1.00  0.00     0.050 C 
BRANCH  22  23
HETATM   23  C11 UNL     1     -25.935 -39.582  15.520  1.00  0.00     0.274 C 
BRANCH  23  24
HETATM   24  N4  UNL     1     -27.306 -39.782  15.891  1.00  0.00     0.092 N 
HETATM   25  C12 UNL     1     -27.717 -39.015  17.024  1.00  0.00     0.298 C 
HETATM   26  C13 UNL     1     -27.516 -39.874  18.273  1.00  0.00     0.198 C 
HETATM   27  O2  UNL     1     -28.394 -40.946  18.305  1.00  0.00    -0.388 OA
HETATM   28  C14 UNL     1     -28.853 -41.287  17.049  1.00  0.00     0.198 C 
HETATM   29  C15 UNL     1     -27.714 -41.144  16.033  1.00  0.00     0.298 C 
ENDBRANCH  23  24
ENDBRANCH  22  23
ENDBRANCH  21  22
ENDBRANCH  19  21
ENDBRANCH   8  19
TORSDOF 8
ENDMDL
MODEL 4
REMARK VINA RESULT: -7.698705581      0.549      1.002
REMARK  8 active torsions:
REMARK  status: ('A' for Active; 'I' for Inactive)
REMARK    1  A    between atoms: C2_2  and  N1_4 
REMARK    2  A    between atoms: N1_4  and  C4_6 
REMARK    3  A    between atoms: C8_13  and  O1_14 
REMARK    4  A    between atoms: C8_13  and  N3_16 
REMARK    5  A    between atoms: N3_16  and  C9_18 
REMARK    6  A    between atoms: C9_18  and  C10_19 
REMARK    7  A    between atoms: C10_19  and  C11_20 
REMARK    8  A    between atoms: C11_20  and  N4_21 
ROOT
HETATM    1  C4  UNL     1     -24.666 -38.993   7.620  1.00  0.00     0.075 A 
HETATM    2  C5  UNL     1     -23.672 -39.038   6.624  1.00  0.00     0.077 A 
HETATM    3 CL1  UNL     1     -24.145 -39.266   4.929  1.00  0.00    -0.080 Cl
HETATM    4  C6  UNL     1     -22.374 -38.906   6.991  1.00  0.00     0.114 A 
HETATM    5  N2  UNL     1     -22.003 -38.733   8.256  1.00  0.00    -0.359 N 
ATOM      6  H2  UNL     1     -21.009 -38.638   8.466  1.00  0.00     0.165 HD
HETATM    7  C7  UNL     1     -22.906 -38.676   9.293  1.00  0.00     0.106 A 
HETATM    8  C8  UNL     1     -22.371 -38.511  10.627  1.00  0.00     0.165 C 
HETATM    9  C16 UNL     1     -24.212 -38.813   8.924  1.00  0.00     0.103 A 
HETATM   10  C17 UNL     1     -25.219 -38.842   9.959  1.00  0.00     0.104 C 
HETATM   11  N5  UNL     1     -26.038 -38.901  10.781  1.00  0.00    -0.191 NA
ENDROOT
BRANCH   1  12
HETATM   12  N1  UNL     1     -25.821 -39.117   7.215  1.00  0.00    -0.383 N 
ATOM     13  H1  UNL     1     -26.195 -38.170   7.159  1.00  0.00     0.160 HD
BRANCH  12  14
HETATM   14  C2  UNL     1     -26.832 -39.936   6.805  1.00  0.00     0.073 C 
HETATM   15  C1  UNL     1     -27.810 -40.320   7.949  1.00  0.00     0.031 C 
HETATM   16  C3  UNL     1     -27.746 -39.153   5.843  1.00  0.00     0.031 C 
ENDBRANCH  12  14
ENDBRANCH   1  12
BRANCH   8  17
HETATM   17  O1  UNL     1     -21.155 -38.947  10.813  1.00  0.00    -0.345 OA
ATOM     18  H1  UNL     1     -20.862 -38.992  11.716  1.00  0.00     0.219 HD
ENDBRANCH   8  17
BRANCH   8  19
HETATM   19  N3  UNL     1     -22.948 -37.948  11.758  1.00  0.00    -0.369 N 
ATOM     20  H3  UNL     1     -23.561 -37.136  11.688  1.00  0.00     0.161 HD
BRANCH  19  21
HETATM   21  C9  UNL     1     -22.645 -38.567  13.070  1.00  0.00     0.123 C 
BRANCH  21  22
HETATM   22  C10 UNL     1     -23.680 -39.606  13.431  1.00  0.00     0.050 C 
BRANCH  22  23
HETATM   23  C11 UNL     1     -24.771 -39.018  14.302  1.00  0.00     0.274 C 
BRANCH  23  24
HETATM   24  N4  UNL     1     -26.031 -39.636  14.007  1.00  0.00     0.092 N 
HETATM   25  C12 UNL     1     -27.120 -39.122  14.775  1.00  0.00     0.298 C 
HETATM   26  C13 UNL     1     -27.271 -39.993  16.023  1.00  0.00     0.198 C 
HETATM   27  O2  UNL     1     -27.706 -41.270  15.706  1.00  0.00    -0.388 OA
HETATM   28  C14 UNL     1     -27.416 -41.617  14.402  1.00  0.00     0.198 C 
HETATM   29  C15 UNL     1     -26.038 -41.064  14.022  1.00  0.00     0.298 C 
ENDBRANCH  23  24
ENDBRANCH  22  23
ENDBRANCH  21  22
ENDBRANCH  19  21
ENDBRANCH   8  19
TORSDOF 8
ENDMDL
MODEL 5
REMARK VINA RESULT: -7.685873862      2.238      4.310
REMARK  8 active torsions:
REMARK  status: ('A' for Active; 'I' for Inactive)
REMARK    1  A    between atoms: C2_2  and  N1_4 
REMARK    2  A    between atoms: N1_4  and  C4_6 
REMARK    3  A    between atoms: C8_13  and  O1_14 
REMARK    4  A    between atoms: C8_13  and  N3_16 
REMARK    5  A    between atoms: N3_16  and  C9_18 
REMARK    6  A    between atoms: C9_18  and  C10_19 
REMARK    7  A    between atoms: C10_19  and  C11_20 
REMARK    8  A    between atoms: C11_20  and  N4_21 
ROOT
HETATM    1  C4  UNL     1     -25.190 -39.335   7.334  1.00  0.00     0.075 A 
HETATM    2  C5  UNL     1     -25.540 -39.279   5.971  1.00  0.00     0.077 A 
HETATM    3 CL1  UNL     1     -24.260 -39.203   4.744  1.00  0.00    -0.080 Cl
HETATM    4  C6  UNL     1     -26.853 -39.283   5.634  1.00  0.00     0.114 A 
HETATM    5  N2  UNL     1     -27.824 -39.341   6.541  1.00  0.00    -0.359 N 
ATOM      6  H2  UNL     1     -28.792 -39.343   6.222  1.00  0.00     0.165 HD
HETATM    7  C7  UNL     1     -27.573 -39.398   7.893  1.00  0.00     0.106 A 
HETATM    8  C8  UNL     1     -28.718 -39.431   8.776  1.00  0.00     0.165 C 
HETATM    9  C16 UNL     1     -26.252 -39.391   8.232  1.00  0.00     0.103 A 
HETATM   10  C17 UNL     1     -25.903 -39.371   9.633  1.00  0.00     0.104 C 
HETATM   11  N5  UNL     1     -25.605 -39.322  10.756  1.00  0.00    -0.191 NA
ENDROOT
BRANCH   1  12
HETATM   12  N1  UNL     1     -23.982 -39.330   7.566  1.00  0.00    -0.383 N 
ATOM     13  H1  UNL     1     -23.655 -40.269   7.337  1.00  0.00     0.160 HD
BRANCH  12  14
HETATM   14  C2  UNL     1     -22.878 -38.649   7.987  1.00  0.00     0.073 C 
HETATM   15  C1  UNL     1     -22.310 -39.177   9.333  1.00  0.00     0.031 C 
HETATM   16  C3  UNL     1     -21.718 -38.931   7.012  1.00  0.00     0.031 C 
ENDBRANCH  12  14
ENDBRANCH   1  12
BRANCH   8  17
HETATM   17  O1  UNL     1     -29.813 -38.889   8.314  1.00  0.00    -0.345 OA
ATOM     18  H1  UNL     1     -30.095 -38.090   8.743  1.00  0.00     0.219 HD
ENDBRANCH   8  17
BRANCH   8  19
HETATM   19  N3  UNL     1     -28.847 -39.960  10.054  1.00  0.00    -0.369 N 
ATOM     20  H3  UNL     1     -28.700 -40.954  10.230  1.00  0.00     0.161 HD
BRANCH  19  21
HETATM   21  C9  UNL     1     -29.204 -39.033  11.153  1.00  0.00     0.123 C 
BRANCH  21  22
HETATM   22  C10 UNL     1     -29.105 -39.720  12.495  1.00  0.00     0.050 C 
BRANCH  22  23
HETATM   23  C11 UNL     1     -28.010 -39.112  13.346  1.00  0.00     0.274 C 
BRANCH  23  24
HETATM   24  N4  UNL     1     -27.625 -40.019  14.387  1.00  0.00     0.092 N 
HETATM   25  C12 UNL     1     -26.214 -40.219  14.488  1.00  0.00     0.298 C 
HETATM   26  C13 UNL     1     -25.849 -41.437  13.638  1.00  0.00     0.198 C 
HETATM   27  O2  UNL     1     -26.356 -42.609  14.178  1.00  0.00    -0.388 OA
HETATM   28  C14 UNL     1     -27.442 -42.384  14.999  1.00  0.00     0.198 C 
HETATM   29  C15 UNL     1     -28.311 -41.271  14.400  1.00  0.00     0.298 C 
ENDBRANCH  23  24
ENDBRANCH  22  23
ENDBRANCH  21  22
ENDBRANCH  19  21
ENDBRANCH   8  19
TORSDOF 8
ENDMDL
