MODEL 1
REMARK VINA RESULT: -7.843301826      0.000      0.000
REMARK  7 active torsions:
REMARK  status: ('A' for Active; 'I' for Inactive)
REMARK    1  A    between atoms: C3_3  and  C4_4 
REMARK    2  A    between atoms: C4_4  and  C5_5 
REMARK    3  A    between atoms: C18_22  and  O5_23 
REMARK    4  A    between atoms: O5_23  and  C19_24 
REMARK    5  A    between atoms: C19_24  and  C20_26 
REMARK    6  A    between atoms: C20_26  and  C21_27 
REMARK    7  A    between atoms: C24_30  and  O7_31 
ROOT
HETATM    1  C1  UNL     1      -3.896  -9.252  23.492  1.00  0.00     0.015 C 
HETATM    2  C2  UNL     1      -3.310  -8.338  22.754  1.00  0.00    -0.076 C 
HETATM    3  C3  UNL     1      -3.180  -6.868  22.604  1.00  0.00     0.034 C 
HETATM    4  C7  UNL     1      -1.904  -7.105  21.854  1.00  0.00    -0.003 C 
HETATM    5  C8  UNL     1      -0.683  -7.147  22.757  1.00  0.00     0.021 C 
HETATM    6  C9  UNL     1      -1.637  -6.370  20.624  1.00  0.00    -0.062 C 
HETATM    7  C10 UNL     1      -2.295  -5.224  20.454  1.00  0.00     0.057 C 
HETATM    8  C11 UNL     1      -2.113  -4.400  19.265  1.00  0.00     0.179 C 
HETATM    9  O2  UNL     1      -2.589  -3.252  19.230  1.00  0.00    -0.290 OA
HETATM   10  C12 UNL     1      -1.375  -4.942  18.143  1.00  0.00     0.210 C 
HETATM   11  O3  UNL     1      -0.604  -4.006  17.397  1.00  0.00    -0.307 OA
HETATM   12  C13 UNL     1       0.465  -4.722  16.873  1.00  0.00     0.260 C 
HETATM   13  O4  UNL     1       1.248  -4.288  16.008  1.00  0.00    -0.265 OA
HETATM   14  C14 UNL     1       0.528  -6.075  17.501  1.00  0.00     0.119 C 
HETATM   15  C15 UNL     1      -0.263  -5.783  18.739  1.00  0.00     0.040 C 
HETATM   16  C16 UNL     1      -0.653  -6.886  19.598  1.00  0.00     0.025 C 
HETATM   17  C17 UNL     1      -1.200  -8.108  18.997  1.00  0.00     0.044 C 
HETATM   18  C18 UNL     1      -2.693  -8.274  19.032  1.00  0.00     0.162 C 
HETATM   19  C24 UNL     1      -3.275  -8.603  20.338  1.00  0.00     0.157 C 
HETATM   20  C25 UNL     1      -2.401  -8.461  21.528  1.00  0.00     0.058 C 
ENDROOT
BRANCH  18  21
HETATM   21  O5  UNL     1      -2.993  -9.300  18.091  1.00  0.00    -0.313 OA
BRANCH  21  22
HETATM   22  C19 UNL     1      -2.149  -9.701  17.102  1.00  0.00     0.259 C 
HETATM   23  O6  UNL     1      -1.717  -8.868  16.272  1.00  0.00    -0.265 OA
BRANCH  22  24
HETATM   24  C20 UNL     1      -1.725 -11.106  16.981  1.00  0.00     0.115 C 
BRANCH  24  25
HETATM   25  C21 UNL     1      -2.251 -12.028  18.030  1.00  0.00    -0.013 C 
HETATM   26  C22 UNL     1      -3.537 -12.641  17.450  1.00  0.00     0.010 C 
HETATM   27  C23 UNL     1      -1.310 -13.207  18.269  1.00  0.00     0.010 C 
ENDBRANCH  24  25
ENDBRANCH  22  24
ENDBRANCH  21  22
ENDBRANCH  18  21
BRANCH  19  28
HETATM   28  O7  UNL     1      -3.780  -9.925  20.392  1.00  0.00    -0.392 OA
ATOM     29  H7  UNL     1      -4.174 -10.132  21.232  1.00  0.00     0.210 HD
ENDBRANCH  19  28
BRANCH   3  30
HETATM   30  C4  UNL     1      -2.957  -6.060  23.851  1.00  0.00     0.087 C 
BRANCH  30  31
HETATM   31  C5  UNL     1      -3.643  -4.752  23.821  1.00  0.00     0.123 C 
HETATM   32  C6  UNL     1      -4.782  -4.579  22.892  1.00  0.00     0.091 C 
HETATM   33  O1  UNL     1      -3.241  -3.858  24.568  1.00  0.00    -0.298 OA
ENDBRANCH  30  31
ENDBRANCH   3  30
TORSDOF 7
ENDMDL
MODEL 2
REMARK VINA RESULT: -7.833014068      2.629      6.567
REMARK  7 active torsions:
REMARK  status: ('A' for Active; 'I' for Inactive)
REMARK    1  A    between atoms: C3_3  and  C4_4 
REMARK    2  A    between atoms: C4_4  and  C5_5 
REMARK    3  A    between atoms: C18_22  and  O5_23 
REMARK    4  A    between atoms: O5_23  and  C19_24 
REMARK    5  A    between atoms: C19_24  and  C20_26 
REMARK    6  A    between atoms: C20_26  and  C21_27 
REMARK    7  A    between atoms: C24_30  and  O7_31 
ROOT
HETATM    1  C1  UNL     1      -4.382 -11.888  19.341  1.00  0.00     0.015 C 
HETATM    2  C2  UNL     1      -3.578 -10.866  19.521  1.00  0.00    -0.076 C 
HETATM    3  C3  UNL     1      -2.204 -10.396  19.218  1.00  0.00     0.034 C 
HETATM    4  C7  UNL     1      -2.686  -8.993  19.437  1.00  0.00    -0.003 C 
HETATM    5  C8  UNL     1      -3.216  -8.344  18.171  1.00  0.00     0.021 C 
HETATM    6  C9  UNL     1      -1.885  -8.064  20.223  1.00  0.00    -0.062 C 
HETATM    7  C10 UNL     1      -0.584  -8.336  20.333  1.00  0.00     0.057 C 
HETATM    8  C11 UNL     1       0.320  -7.482  21.093  1.00  0.00     0.179 C 
HETATM    9  O2  UNL     1       1.548  -7.655  21.011  1.00  0.00    -0.290 OA
HETATM   10  C12 UNL     1      -0.239  -6.441  21.931  1.00  0.00     0.210 C 
HETATM   11  O3  UNL     1       0.534  -5.250  22.040  1.00  0.00    -0.307 OA
HETATM   12  C13 UNL     1      -0.374  -4.224  22.267  1.00  0.00     0.260 C 
HETATM   13  O4  UNL     1      -0.062  -3.068  22.605  1.00  0.00    -0.265 OA
HETATM   14  C14 UNL     1      -1.765  -4.717  22.042  1.00  0.00     0.119 C 
HETATM   15  C15 UNL     1      -1.446  -5.905  21.187  1.00  0.00     0.040 C 
HETATM   16  C16 UNL     1      -2.504  -6.847  20.873  1.00  0.00     0.025 C 
HETATM   17  C17 UNL     1      -3.410  -7.295  21.938  1.00  0.00     0.044 C 
HETATM   18  C18 UNL     1      -3.137  -8.644  22.539  1.00  0.00     0.162 C 
HETATM   19  C24 UNL     1      -3.476  -9.802  21.705  1.00  0.00     0.157 C 
HETATM   20  C25 UNL     1      -3.774  -9.547  20.275  1.00  0.00     0.058 C 
ENDROOT
BRANCH  18  21
HETATM   21  O5  UNL     1      -3.879  -8.685  23.755  1.00  0.00    -0.313 OA
BRANCH  21  22
HETATM   22  C19 UNL     1      -3.338  -8.492  24.988  1.00  0.00     0.259 C 
HETATM   23  O6  UNL     1      -3.940  -8.904  26.007  1.00  0.00    -0.265 OA
BRANCH  22  24
HETATM   24  C20 UNL     1      -2.047  -7.805  25.158  1.00  0.00     0.115 C 
BRANCH  24  25
HETATM   25  C21 UNL     1      -2.104  -6.502  25.884  1.00  0.00    -0.013 C 
HETATM   26  C22 UNL     1      -0.765  -5.800  25.603  1.00  0.00     0.010 C 
HETATM   27  C23 UNL     1      -3.176  -5.580  25.306  1.00  0.00     0.010 C 
ENDBRANCH  24  25
ENDBRANCH  22  24
ENDBRANCH  21  22
ENDBRANCH  18  21
BRANCH  19  28
HETATM   28  O7  UNL     1      -4.586 -10.527  22.202  1.00  0.00    -0.392 OA
ATOM     29  H7  UNL     1      -4.451 -11.467  22.176  1.00  0.00     0.210 HD
ENDBRANCH  19  28
BRANCH   3  30
HETATM   30  C4  UNL     1      -1.692 -10.603  17.821  1.00  0.00     0.087 C 
BRANCH  30  31
HETATM   31  C5  UNL     1      -1.776 -12.010  17.377  1.00  0.00     0.123 C 
HETATM   32  C6  UNL     1      -1.188 -13.054  18.246  1.00  0.00     0.091 C 
HETATM   33  O1  UNL     1      -2.331 -12.259  16.306  1.00  0.00    -0.298 OA
ENDBRANCH  30  31
ENDBRANCH   3  30
TORSDOF 7
ENDMDL
MODEL 3
REMARK VINA RESULT: -7.731164088      2.151      5.212
REMARK  7 active torsions:
REMARK  status: ('A' for Active; 'I' for Inactive)
REMARK    1  A    between atoms: C3_3  and  C4_4 
REMARK    2  A    between atoms: C4_4  and  C5_5 
REMARK    3  A    between atoms: C18_22  and  O5_23 
REMARK    4  A    between atoms: O5_23  and  C19_24 
REMARK    5  A    between atoms: C19_24  and  C20_26 
REMARK    6  A    between atoms: C20_26  and  C21_27 
REMARK    7  A    between atoms: C24_30  and  O7_31 
ROOT
HETATM    1  C1  UNL     1      -0.581  -3.494  18.758  1.00  0.00     0.015 C 
HETATM    2  C2  UNL     1      -1.073  -4.205  19.747  1.00  0.00    -0.076 C 
HETATM    3  C3  UNL     1      -1.188  -4.222  21.226  1.00  0.00     0.034 C 
HETATM    4  C7  UNL     1      -2.358  -5.148  21.076  1.00  0.00    -0.003 C 
HETATM    5  C8  UNL     1      -3.683  -4.415  20.955  1.00  0.00     0.021 C 
HETATM    6  C9  UNL     1      -2.470  -6.321  21.933  1.00  0.00    -0.062 C 
HETATM    7  C10 UNL     1      -1.800  -6.291  23.084  1.00  0.00     0.057 C 
HETATM    8  C11 UNL     1      -1.833  -7.404  24.024  1.00  0.00     0.179 C 
HETATM    9  O2  UNL     1      -1.361  -7.264  25.166  1.00  0.00    -0.290 OA
HETATM   10  C12 UNL     1      -2.422  -8.660  23.604  1.00  0.00     0.210 C 
HETATM   11  O3  UNL     1      -3.095  -9.399  24.617  1.00  0.00    -0.307 OA
HETATM   12  C13 UNL     1      -4.087 -10.123  23.967  1.00  0.00     0.260 C 
HETATM   13  O4  UNL     1      -4.756 -11.032  24.491  1.00  0.00    -0.265 OA
HETATM   14  C14 UNL     1      -4.224  -9.647  22.558  1.00  0.00     0.119 C 
HETATM   15  C15 UNL     1      -3.597  -8.295  22.718  1.00  0.00     0.040 C 
HETATM   16  C16 UNL     1      -3.315  -7.510  21.531  1.00  0.00     0.025 C 
HETATM   17  C17 UNL     1      -2.691  -8.156  20.370  1.00  0.00     0.044 C 
HETATM   18  C18 UNL     1      -1.214  -7.950  20.189  1.00  0.00     0.162 C 
HETATM   19  C24 UNL     1      -0.801  -6.621  19.725  1.00  0.00     0.157 C 
HETATM   20  C25 UNL     1      -1.819  -5.542  19.755  1.00  0.00     0.058 C 
ENDROOT
BRANCH  18  21
HETATM   21  O5  UNL     1      -0.794  -8.944  19.259  1.00  0.00    -0.313 OA
BRANCH  21  22
HETATM   22  C19 UNL     1      -1.614  -9.534  18.348  1.00  0.00     0.259 C 
HETATM   23  O6  UNL     1      -1.880  -8.947  17.273  1.00  0.00    -0.265 OA
BRANCH  22  24
HETATM   24  C20 UNL     1      -2.203 -10.861  18.594  1.00  0.00     0.115 C 
BRANCH  24  25
HETATM   25  C21 UNL     1      -1.970 -11.875  17.524  1.00  0.00    -0.013 C 
HETATM   26  C22 UNL     1      -1.318 -13.083  18.218  1.00  0.00     0.010 C 
HETATM   27  C23 UNL     1      -3.282 -12.398  16.945  1.00  0.00     0.010 C 
ENDBRANCH  24  25
ENDBRANCH  22  24
ENDBRANCH  21  22
ENDBRANCH  18  21
BRANCH  19  28
HETATM   28  O7  UNL     1      -0.302  -6.636  18.399  1.00  0.00    -0.392 OA
ATOM     29  H7  UNL     1       0.510  -6.152  18.310  1.00  0.00     0.210 HD
ENDBRANCH  19  28
BRANCH   3  30
HETATM   30  C4  UNL     1      -1.570  -2.939  21.907  1.00  0.00     0.087 C 
BRANCH  30  31
HETATM   31  C5  UNL     1      -0.706  -2.620  23.062  1.00  0.00     0.123 C 
HETATM   32  C6  UNL     1      -1.244  -2.849  24.423  1.00  0.00     0.091 C 
HETATM   33  O1  UNL     1       0.423  -2.176  22.850  1.00  0.00    -0.298 OA
ENDBRANCH  30  31
ENDBRANCH   3  30
TORSDOF 7
ENDMDL
MODEL 4
REMARK VINA RESULT: -7.621937474      1.142      1.379
REMARK  7 active torsions:
REMARK  status: ('A' for Active; 'I' for Inactive)
REMARK    1  A    between atoms: C3_3  and  C4_4 
REMARK    2  A    between atoms: C4_4  and  C5_5 
REMARK    3  A    between atoms: C18_22  and  O5_23 
REMARK    4  A    between atoms: O5_23  and  C19_24 
REMARK    5  A    between atoms: C19_24  and  C20_26 
REMARK    6  A    between atoms: C20_26  and  C21_27 
REMARK    7  A    between atoms: C24_30  and  O7_31 
ROOT
HETATM    1  C1  UNL     1      -2.816  -8.877  24.209  1.00  0.00     0.015 C 
HETATM    2  C2  UNL     1      -2.257  -7.984  23.426  1.00  0.00    -0.076 C 
HETATM    3  C3  UNL     1      -1.978  -6.530  23.330  1.00  0.00     0.034 C 
HETATM    4  C7  UNL     1      -0.887  -6.852  22.353  1.00  0.00    -0.003 C 
HETATM    5  C8  UNL     1       0.455  -7.093  23.022  1.00  0.00     0.021 C 
HETATM    6  C9  UNL     1      -0.747  -6.066  21.134  1.00  0.00    -0.062 C 
HETATM    7  C10 UNL     1      -1.281  -4.845  21.142  1.00  0.00     0.057 C 
HETATM    8  C11 UNL     1      -1.206  -3.963  19.984  1.00  0.00     0.179 C 
HETATM    9  O2  UNL     1      -1.538  -2.770  20.092  1.00  0.00    -0.290 OA
HETATM   10  C12 UNL     1      -0.741  -4.503  18.722  1.00  0.00     0.210 C 
HETATM   11  O3  UNL     1      -0.002  -3.606  17.899  1.00  0.00    -0.307 OA
HETATM   12  C13 UNL     1       0.868  -4.397  17.158  1.00  0.00     0.260 C 
HETATM   13  O4  UNL     1       1.539  -3.992  16.191  1.00  0.00    -0.265 OA
HETATM   14  C14 UNL     1       0.873  -5.789  17.696  1.00  0.00     0.119 C 
HETATM   15  C15 UNL     1       0.347  -5.501  19.068  1.00  0.00     0.040 C 
HETATM   16  C16 UNL     1      -0.022  -6.613  19.925  1.00  0.00     0.025 C 
HETATM   17  C17 UNL     1      -0.808  -7.721  19.370  1.00  0.00     0.044 C 
HETATM   18  C18 UNL     1      -2.282  -7.723  19.661  1.00  0.00     0.162 C 
HETATM   19  C24 UNL     1      -2.668  -8.078  21.031  1.00  0.00     0.157 C 
HETATM   20  C25 UNL     1      -1.593  -8.118  22.053  1.00  0.00     0.058 C 
ENDROOT
BRANCH  18  21
HETATM   21  O5  UNL     1      -2.860  -8.640  18.738  1.00  0.00    -0.313 OA
BRANCH  21  22
HETATM   22  C19 UNL     1      -2.143  -9.494  17.958  1.00  0.00     0.259 C 
HETATM   23  O6  UNL     1      -1.848  -9.170  16.783  1.00  0.00    -0.265 OA
BRANCH  22  24
HETATM   24  C20 UNL     1      -1.699 -10.803  18.463  1.00  0.00     0.115 C 
BRANCH  24  25
HETATM   25  C21 UNL     1      -1.993 -11.967  17.577  1.00  0.00    -0.013 C 
HETATM   26  C22 UNL     1      -1.285 -13.175  18.212  1.00  0.00     0.010 C 
HETATM   27  C23 UNL     1      -3.479 -12.318  17.580  1.00  0.00     0.010 C 
ENDBRANCH  24  25
ENDBRANCH  22  24
ENDBRANCH  21  22
ENDBRANCH  18  21
BRANCH  19  28
HETATM   28  O7  UNL     1      -3.313  -9.337  21.107  1.00  0.00    -0.392 OA
ATOM     29  H7  UNL     1      -3.403  -9.647  22.001  1.00  0.00     0.210 HD
ENDBRANCH  19  28
BRANCH   3  30
HETATM   30  C4  UNL     1      -1.450  -5.842  24.556  1.00  0.00     0.087 C 
BRANCH  30  31
HETATM   31  C5  UNL     1      -2.520  -5.378  25.464  1.00  0.00     0.123 C 
HETATM   32  C6  UNL     1      -3.523  -4.426  24.936  1.00  0.00     0.091 C 
HETATM   33  O1  UNL     1      -2.535  -5.800  26.621  1.00  0.00    -0.298 OA
ENDBRANCH  30  31
ENDBRANCH   3  30
TORSDOF 7
ENDMDL
MODEL 5
REMARK VINA RESULT: -7.571284530      1.036      1.403
REMARK  7 active torsions:
REMARK  status: ('A' for Active; 'I' for Inactive)
REMARK    1  A    between atoms: C3_3  and  C4_4 
REMARK    2  A    between atoms: C4_4  and  C5_5 
REMARK    3  A    between atoms: C18_22  and  O5_23 
REMARK    4  A    between atoms: O5_23  and  C19_24 
REMARK    5  A    between atoms: C19_24  and  C20_26 
REMARK    6  A    between atoms: C20_26  and  C21_27 
REMARK    7  A    between atoms: C24_30  and  O7_31 
ROOT
HETATM    1  C1  UNL     1      -3.537  -9.114  24.268  1.00  0.00     0.015 C 
HETATM    2  C2  UNL     1      -3.088  -8.273  23.365  1.00  0.00    -0.076 C 
HETATM    3  C3  UNL     1      -3.018  -6.824  23.054  1.00  0.00     0.034 C 
HETATM    4  C7  UNL     1      -1.860  -7.122  22.151  1.00  0.00    -0.003 C 
HETATM    5  C8  UNL     1      -0.520  -7.060  22.863  1.00  0.00     0.021 C 
HETATM    6  C9  UNL     1      -1.794  -6.511  20.829  1.00  0.00    -0.062 C 
HETATM    7  C10 UNL     1      -2.499  -5.395  20.646  1.00  0.00     0.057 C 
HETATM    8  C11 UNL     1      -2.514  -4.693  19.369  1.00  0.00     0.179 C 
HETATM    9  O2  UNL     1      -3.019  -3.560  19.293  1.00  0.00    -0.290 OA
HETATM   10  C12 UNL     1      -1.934  -5.338  18.209  1.00  0.00     0.210 C 
HETATM   11  O3  UNL     1      -1.305  -4.473  17.269  1.00  0.00    -0.307 OA
HETATM   12  C13 UNL     1      -0.306  -5.226  16.665  1.00  0.00     0.260 C 
HETATM   13  O4  UNL     1       0.332  -4.873  15.656  1.00  0.00    -0.265 OA
HETATM   14  C14 UNL     1      -0.117  -6.508  17.407  1.00  0.00     0.119 C 
HETATM   15  C15 UNL     1      -0.725  -6.102  18.714  1.00  0.00     0.040 C 
HETATM   16  C16 UNL     1      -0.958  -7.117  19.724  1.00  0.00     0.025 C 
HETATM   17  C17 UNL     1      -1.556  -8.400  19.334  1.00  0.00     0.044 C 
HETATM   18  C18 UNL     1      -3.023  -8.576  19.605  1.00  0.00     0.162 C 
HETATM   19  C24 UNL     1      -3.399  -8.779  21.008  1.00  0.00     0.157 C 
HETATM   20  C25 UNL     1      -2.365  -8.508  22.036  1.00  0.00     0.058 C 
ENDROOT
BRANCH  18  21
HETATM   21  O5  UNL     1      -3.431  -9.695  18.823  1.00  0.00    -0.313 OA
BRANCH  21  22
HETATM   22  C19 UNL     1      -2.623 -10.743  18.509  1.00  0.00     0.259 C 
HETATM   23  O6  UNL     1      -2.266 -11.549  19.401  1.00  0.00    -0.265 OA
BRANCH  22  24
HETATM   24  C20 UNL     1      -2.151 -10.960  17.131  1.00  0.00     0.115 C 
BRANCH  24  25
HETATM   25  C21 UNL     1      -3.205 -10.908  16.076  1.00  0.00    -0.013 C 
HETATM   26  C22 UNL     1      -2.462 -10.722  14.742  1.00  0.00     0.010 C 
HETATM   27  C23 UNL     1      -3.944 -12.238  15.949  1.00  0.00     0.010 C 
ENDBRANCH  24  25
ENDBRANCH  22  24
ENDBRANCH  21  22
ENDBRANCH  18  21
BRANCH  19  28
HETATM   28  O7  UNL     1      -3.857 -10.094  21.266  1.00  0.00    -0.392 OA
ATOM     29  H7  UNL     1      -4.606 -10.112  21.851  1.00  0.00     0.210 HD
ENDBRANCH  19  28
BRANCH   3  30
HETATM   30  C4  UNL     1      -2.637  -5.892  24.169  1.00  0.00     0.087 C 
BRANCH  30  31
HETATM   31  C5  UNL     1      -3.405  -4.630  24.156  1.00  0.00     0.123 C 
HETATM   32  C6  UNL     1      -4.585  -4.538  23.267  1.00  0.00     0.091 C 
HETATM   33  O1  UNL     1      -3.035  -3.707  24.882  1.00  0.00    -0.298 OA
ENDBRANCH  30  31
ENDBRANCH   3  30
TORSDOF 7
ENDMDL
