MODEL 1
REMARK VINA RESULT: -7.910821155      0.000      0.000
REMARK  14 active torsions:
REMARK  status: ('A' for Active; 'I' for Inactive)
REMARK    1  A    between atoms: O1_2  and  C2_3 
REMARK    2  A    between atoms: C2_3  and  O2_4 
REMARK    3  A    between atoms: C4_7  and  C5_8 
REMARK    4  A    between atoms: C12_16  and  C13_17 
REMARK    5  A    between atoms: C13_17  and  C14_18 
REMARK    6  A    between atoms: C13_17  and  N4_26 
REMARK    7  A    between atoms: C14_18  and  C15_19 
REMARK    8  A    between atoms: C15_19  and  C16_20 
REMARK    9  A    between atoms: C16_20  and  N1_21 
REMARK   10  A    between atoms: N4_26  and  C18_27 
REMARK   11  A    between atoms: C18_27  and  O3_28 
REMARK   12  A    between atoms: C18_27  and  O4_30 
REMARK   13  A    between atoms: O4_30  and  C19_31 
REMARK   14  A    between atoms: C19_31  and  C20_32 
ROOT
HETATM    1  C13 UNL     1      13.308  -1.237  52.000  1.00  0.00     0.117 C 
ENDROOT
BRANCH   1   2
HETATM    2  C12 UNL     1      12.446  -2.391  51.763  1.00  0.00     0.013 C 
HETATM    3  C3  UNL     1      12.205  -2.989  50.427  1.00  0.00     0.025 C 
HETATM    4  C2  UNL     1      11.884  -2.236  49.262  1.00  0.00     0.186 C 
HETATM    5  C4  UNL     1      12.719  -4.353  50.258  1.00  0.00     0.094 C 
HETATM    6  S1  UNL     1      11.864  -5.017  51.812  1.00  0.00    -0.144 SA
HETATM    7  C9  UNL     1      12.541  -3.513  52.750  1.00  0.00     0.032 C 
HETATM    8  C10 UNL     1      13.839  -4.059  53.161  1.00  0.00     0.032 C 
HETATM    9  C11 UNL     1      11.563  -3.448  53.904  1.00  0.00     0.032 C 
BRANCH   4  10
HETATM   10  O1  UNL     1      12.447  -2.254  48.001  1.00  0.00    -0.335 OA
HETATM   11  C1  UNL     1      13.796  -1.947  47.699  1.00  0.00     0.212 C 
ENDBRANCH   4  10
BRANCH   4  12
HETATM   12  O2  UNL     1      10.911  -1.362  49.294  1.00  0.00    -0.341 OA
ATOM     13  H2  UNL     1      10.330  -1.561  50.019  1.00  0.00     0.220 HD
ENDBRANCH   4  12
BRANCH   5  14
HETATM   14  C5  UNL     1      12.234  -5.300  49.265  1.00  0.00    -0.035 C 
HETATM   15  C6  UNL     1      10.756  -5.199  48.940  1.00  0.00     0.016 C 
HETATM   16  C7  UNL     1      13.022  -5.632  48.050  1.00  0.00     0.016 C 
HETATM   17  C8  UNL     1      12.249  -6.704  50.015  1.00  0.00     0.016 C 
ENDBRANCH   5  14
ENDBRANCH   1   2
BRANCH   1  18
HETATM   18  C14 UNL     1      14.627  -1.086  51.311  1.00  0.00     0.024 C 
BRANCH  18  19
HETATM   19  C15 UNL     1      15.431   0.051  51.020  1.00  0.00     0.075 C 
BRANCH  19  20
HETATM   20  C16 UNL     1      16.626   0.295  51.931  1.00  0.00     0.067 C 
BRANCH  20  21
HETATM   21  N1  UNL     1      16.675  -0.618  52.967  1.00  0.00    -0.346 N 
HETATM   22  C17 UNL     1      16.609  -0.777  54.182  1.00  0.00     0.200 C 
HETATM   23  N2  UNL     1      16.745  -2.103  54.753  1.00  0.00    -0.067 NA
HETATM   24  N3  UNL     1      16.402   0.209  55.217  1.00  0.00    -0.067 NA
ATOM     25  H1  UNL     1      16.830  -1.537  52.553  1.00  0.00     0.167 HD
ENDBRANCH  20  21
ENDBRANCH  19  20
ENDBRANCH  18  19
ENDBRANCH   1  18
BRANCH   1  26
HETATM   26  N4  UNL     1      13.215  -0.369  53.102  1.00  0.00    -0.359 NA
BRANCH  26  27
HETATM   27  C18 UNL     1      13.126   0.461  54.158  1.00  0.00     0.341 C 
BRANCH  27  28
HETATM   28  O3  UNL     1      12.608   0.181  55.330  1.00  0.00    -0.315 OA
ATOM     29  H3  UNL     1      13.011   0.334  56.176  1.00  0.00     0.222 HD
ENDBRANCH  27  28
BRANCH  27  30
HETATM   30  O4  UNL     1      13.589   1.789  54.197  1.00  0.00    -0.301 OA
BRANCH  30  31
HETATM   31  C19 UNL     1      13.925   2.597  53.135  1.00  0.00     0.219 C 
BRANCH  31  32
HETATM   32  C20 UNL     1      15.045   3.526  53.361  1.00  0.00    -0.028 A 
HETATM   33  C21 UNL     1      16.307   3.403  53.682  1.00  0.00     0.051 A 
HETATM   34  C22 UNL     1      16.465   4.843  53.639  1.00  0.00     0.117 A 
HETATM   35  F1  UNL     1      17.441   5.774  53.830  1.00  0.00    -0.206 F 
HETATM   36  C23 UNL     1      15.200   4.955  53.316  1.00  0.00     0.051 A 
ENDBRANCH  31  32
ENDBRANCH  30  31
ENDBRANCH  27  30
ENDBRANCH  26  27
ENDBRANCH   1  26
TORSDOF 14
ENDMDL
MODEL 2
REMARK VINA RESULT: -7.845356669      1.552      1.816
REMARK  14 active torsions:
REMARK  status: ('A' for Active; 'I' for Inactive)
REMARK    1  A    between atoms: O1_2  and  C2_3 
REMARK    2  A    between atoms: C2_3  and  O2_4 
REMARK    3  A    between atoms: C4_7  and  C5_8 
REMARK    4  A    between atoms: C12_16  and  C13_17 
REMARK    5  A    between atoms: C13_17  and  C14_18 
REMARK    6  A    between atoms: C13_17  and  N4_26 
REMARK    7  A    between atoms: C14_18  and  C15_19 
REMARK    8  A    between atoms: C15_19  and  C16_20 
REMARK    9  A    between atoms: C16_20  and  N1_21 
REMARK   10  A    between atoms: N4_26  and  C18_27 
REMARK   11  A    between atoms: C18_27  and  O3_28 
REMARK   12  A    between atoms: C18_27  and  O4_30 
REMARK   13  A    between atoms: O4_30  and  C19_31 
REMARK   14  A    between atoms: C19_31  and  C20_32 
ROOT
HETATM    1  C13 UNL     1      13.254  -0.334  50.934  1.00  0.00     0.117 C 
ENDROOT
BRANCH   1   2
HETATM    2  C12 UNL     1      12.464  -1.536  51.178  1.00  0.00     0.013 C 
HETATM    3  C3  UNL     1      11.874  -2.376  50.106  1.00  0.00     0.025 C 
HETATM    4  C2  UNL     1      11.145  -1.858  48.998  1.00  0.00     0.186 C 
HETATM    5  C4  UNL     1      12.425  -3.732  50.009  1.00  0.00     0.094 C 
HETATM    6  S1  UNL     1      12.153  -4.125  51.841  1.00  0.00    -0.144 SA
HETATM    7  C9  UNL     1      12.955  -2.455  52.253  1.00  0.00     0.032 C 
HETATM    8  C10 UNL     1      14.358  -2.878  52.312  1.00  0.00     0.032 C 
HETATM    9  C11 UNL     1      12.379  -2.209  53.632  1.00  0.00     0.032 C 
BRANCH   4  10
HETATM   10  O1  UNL     1      11.290  -2.090  47.644  1.00  0.00    -0.335 OA
HETATM   11  C1  UNL     1      10.263  -1.978  46.677  1.00  0.00     0.212 C 
ENDBRANCH   4  10
BRANCH   4  12
HETATM   12  O2  UNL     1      10.159  -1.022  49.195  1.00  0.00    -0.341 OA
ATOM     13  H2  UNL     1      10.428  -0.354  49.814  1.00  0.00     0.220 HD
ENDBRANCH   4  12
BRANCH   5  14
HETATM   14  C5  UNL     1      11.740  -4.858  49.393  1.00  0.00    -0.035 C 
HETATM   15  C6  UNL     1      10.240  -4.905  49.612  1.00  0.00     0.016 C 
HETATM   16  C7  UNL     1      12.091  -5.337  48.031  1.00  0.00     0.016 C 
HETATM   17  C8  UNL     1      12.178  -6.116  50.266  1.00  0.00     0.016 C 
ENDBRANCH   5  14
ENDBRANCH   1   2
BRANCH   1  18
HETATM   18  C14 UNL     1      14.617  -0.399  50.322  1.00  0.00     0.024 C 
BRANCH  18  19
HETATM   19  C15 UNL     1      15.731   0.484  50.367  1.00  0.00     0.075 C 
BRANCH  19  20
HETATM   20  C16 UNL     1      16.616   0.405  51.603  1.00  0.00     0.067 C 
BRANCH  20  21
HETATM   21  N1  UNL     1      15.874   0.437  52.768  1.00  0.00    -0.346 N 
HETATM   22  C17 UNL     1      15.760   0.001  53.909  1.00  0.00     0.200 C 
HETATM   23  N2  UNL     1      14.670   0.448  54.755  1.00  0.00    -0.067 NA
HETATM   24  N3  UNL     1      16.591  -0.954  54.603  1.00  0.00    -0.067 NA
ATOM     25  H1  UNL     1      15.106   1.091  52.618  1.00  0.00     0.167 HD
ENDBRANCH  20  21
ENDBRANCH  19  20
ENDBRANCH  18  19
ENDBRANCH   1  18
BRANCH   1  26
HETATM   26  N4  UNL     1      13.036   0.916  51.540  1.00  0.00    -0.359 NA
BRANCH  26  27
HETATM   27  C18 UNL     1      12.826   2.112  52.120  1.00  0.00     0.341 C 
BRANCH  27  28
HETATM   28  O3  UNL     1      11.666   2.621  52.462  1.00  0.00    -0.315 OA
ATOM     29  H3  UNL     1      11.521   3.342  53.063  1.00  0.00     0.222 HD
ENDBRANCH  27  28
BRANCH  27  30
HETATM   30  O4  UNL     1      13.825   3.035  52.480  1.00  0.00    -0.301 OA
BRANCH  30  31
HETATM   31  C19 UNL     1      13.948   3.725  53.664  1.00  0.00     0.219 C 
BRANCH  31  32
HETATM   32  C20 UNL     1      14.565   5.059  53.572  1.00  0.00    -0.028 A 
HETATM   33  C21 UNL     1      14.129   6.275  53.365  1.00  0.00     0.051 A 
HETATM   34  C22 UNL     1      15.481   6.784  53.467  1.00  0.00     0.117 A 
HETATM   35  F1  UNL     1      16.136   7.977  53.395  1.00  0.00    -0.206 F 
HETATM   36  C23 UNL     1      15.909   5.563  53.673  1.00  0.00     0.051 A 
ENDBRANCH  31  32
ENDBRANCH  30  31
ENDBRANCH  27  30
ENDBRANCH  26  27
ENDBRANCH   1  26
TORSDOF 14
ENDMDL
MODEL 3
REMARK VINA RESULT: -7.774717939      1.947      3.168
REMARK  14 active torsions:
REMARK  status: ('A' for Active; 'I' for Inactive)
REMARK    1  A    between atoms: O1_2  and  C2_3 
REMARK    2  A    between atoms: C2_3  and  O2_4 
REMARK    3  A    between atoms: C4_7  and  C5_8 
REMARK    4  A    between atoms: C12_16  and  C13_17 
REMARK    5  A    between atoms: C13_17  and  C14_18 
REMARK    6  A    between atoms: C13_17  and  N4_26 
REMARK    7  A    between atoms: C14_18  and  C15_19 
REMARK    8  A    between atoms: C15_19  and  C16_20 
REMARK    9  A    between atoms: C16_20  and  N1_21 
REMARK   10  A    between atoms: N4_26  and  C18_27 
REMARK   11  A    between atoms: C18_27  and  O3_28 
REMARK   12  A    between atoms: C18_27  and  O4_30 
REMARK   13  A    between atoms: O4_30  and  C19_31 
REMARK   14  A    between atoms: C19_31  and  C20_32 
ROOT
HETATM    1  C13 UNL     1      13.724  -0.545  50.773  1.00  0.00     0.117 C 
ENDROOT
BRANCH   1   2
HETATM    2  C12 UNL     1      13.491  -1.960  50.503  1.00  0.00     0.013 C 
HETATM    3  C3  UNL     1      13.267  -2.983  51.555  1.00  0.00     0.025 C 
HETATM    4  C2  UNL     1      14.072  -3.114  52.723  1.00  0.00     0.186 C 
HETATM    5  C4  UNL     1      11.932  -3.590  51.554  1.00  0.00     0.094 C 
HETATM    6  S1  UNL     1      11.990  -4.051  49.719  1.00  0.00    -0.144 SA
HETATM    7  C9  UNL     1      12.581  -2.284  49.359  1.00  0.00     0.032 C 
HETATM    8  C10 UNL     1      11.278  -1.627  49.211  1.00  0.00     0.032 C 
HETATM    9  C11 UNL     1      13.265  -2.493  48.024  1.00  0.00     0.032 C 
BRANCH   4  10
HETATM   10  O1  UNL     1      13.712  -3.191  54.054  1.00  0.00    -0.335 OA
HETATM   11  C1  UNL     1      14.258  -4.089  55.002  1.00  0.00     0.212 C 
ENDBRANCH   4  10
BRANCH   4  12
HETATM   12  O2  UNL     1      15.374  -3.183  52.617  1.00  0.00    -0.341 OA
ATOM     13  H2  UNL     1      15.771  -2.484  53.123  1.00  0.00     0.220 HD
ENDBRANCH   4  12
BRANCH   5  14
HETATM   14  C5  UNL     1      11.614  -4.882  52.142  1.00  0.00    -0.035 C 
HETATM   15  C6  UNL     1      12.674  -5.953  51.969  1.00  0.00     0.016 C 
HETATM   16  C7  UNL     1      10.956  -4.997  53.469  1.00  0.00     0.016 C 
HETATM   17  C8  UNL     1      10.476  -5.477  51.200  1.00  0.00     0.016 C 
ENDBRANCH   5  14
ENDBRANCH   1   2
BRANCH   1  18
HETATM   18  C14 UNL     1      14.876   0.192  50.168  1.00  0.00     0.024 C 
BRANCH  18  19
HETATM   19  C15 UNL     1      16.255   0.260  50.509  1.00  0.00     0.075 C 
BRANCH  19  20
HETATM   20  C16 UNL     1      16.596   0.853  51.869  1.00  0.00     0.067 C 
BRANCH  20  21
HETATM   21  N1  UNL     1      16.761  -0.127  52.828  1.00  0.00    -0.346 N 
HETATM   22  C17 UNL     1      16.434  -0.517  53.945  1.00  0.00     0.200 C 
HETATM   23  N2  UNL     1      16.991  -1.744  54.481  1.00  0.00    -0.067 NA
HETATM   24  N3  UNL     1      15.519   0.086  54.886  1.00  0.00    -0.067 NA
ATOM     25  H1  UNL     1      17.427  -0.804  52.457  1.00  0.00     0.167 HD
ENDBRANCH  20  21
ENDBRANCH  19  20
ENDBRANCH  18  19
ENDBRANCH   1  18
BRANCH   1  26
HETATM   26  N4  UNL     1      13.178   0.174  51.850  1.00  0.00    -0.359 NA
BRANCH  26  27
HETATM   27  C18 UNL     1      12.654   0.862  52.882  1.00  0.00     0.341 C 
BRANCH  27  28
HETATM   28  O3  UNL     1      12.390   0.394  54.079  1.00  0.00    -0.315 OA
ATOM     29  H3  UNL     1      11.993   0.872  54.797  1.00  0.00     0.222 HD
ENDBRANCH  27  28
BRANCH  27  30
HETATM   30  O4  UNL     1      12.305   2.225  52.865  1.00  0.00    -0.301 OA
BRANCH  30  31
HETATM   31  C19 UNL     1      12.887   3.235  52.134  1.00  0.00     0.219 C 
BRANCH  31  32
HETATM   32  C20 UNL     1      13.970   3.974  52.802  1.00  0.00    -0.028 A 
HETATM   33  C21 UNL     1      14.950   3.663  53.610  1.00  0.00     0.051 A 
HETATM   34  C22 UNL     1      15.373   5.048  53.643  1.00  0.00     0.117 A 
HETATM   35  F1  UNL     1      16.342   5.811  54.222  1.00  0.00    -0.206 F 
HETATM   36  C23 UNL     1      14.389   5.351  52.833  1.00  0.00     0.051 A 
ENDBRANCH  31  32
ENDBRANCH  30  31
ENDBRANCH  27  30
ENDBRANCH  26  27
ENDBRANCH   1  26
TORSDOF 14
ENDMDL
MODEL 4
REMARK VINA RESULT: -7.672084404      2.357      3.599
REMARK  14 active torsions:
REMARK  status: ('A' for Active; 'I' for Inactive)
REMARK    1  A    between atoms: O1_2  and  C2_3 
REMARK    2  A    between atoms: C2_3  and  O2_4 
REMARK    3  A    between atoms: C4_7  and  C5_8 
REMARK    4  A    between atoms: C12_16  and  C13_17 
REMARK    5  A    between atoms: C13_17  and  C14_18 
REMARK    6  A    between atoms: C13_17  and  N4_26 
REMARK    7  A    between atoms: C14_18  and  C15_19 
REMARK    8  A    between atoms: C15_19  and  C16_20 
REMARK    9  A    between atoms: C16_20  and  N1_21 
REMARK   10  A    between atoms: N4_26  and  C18_27 
REMARK   11  A    between atoms: C18_27  and  O3_28 
REMARK   12  A    between atoms: C18_27  and  O4_30 
REMARK   13  A    between atoms: O4_30  and  C19_31 
REMARK   14  A    between atoms: C19_31  and  C20_32 
ROOT
HETATM    1  C13 UNL     1      13.649  -0.266  50.613  1.00  0.00     0.117 C 
ENDROOT
BRANCH   1   2
HETATM    2  C12 UNL     1      13.565  -1.721  50.543  1.00  0.00     0.013 C 
HETATM    3  C3  UNL     1      13.412  -2.603  51.727  1.00  0.00     0.025 C 
HETATM    4  C2  UNL     1      14.191  -2.488  52.914  1.00  0.00     0.186 C 
HETATM    5  C4  UNL     1      12.143  -3.337  51.792  1.00  0.00     0.094 C 
HETATM    6  S1  UNL     1      12.300  -4.042  50.041  1.00  0.00    -0.144 SA
HETATM    7  C9  UNL     1      12.725  -2.292  49.443  1.00  0.00     0.032 C 
HETATM    8  C10 UNL     1      11.369  -1.798  49.184  1.00  0.00     0.032 C 
HETATM    9  C11 UNL     1      13.465  -2.614  48.162  1.00  0.00     0.032 C 
BRANCH   4  10
HETATM   10  O1  UNL     1      13.801  -2.415  54.236  1.00  0.00    -0.335 OA
HETATM   11  C1  UNL     1      14.369  -3.154  55.302  1.00  0.00     0.212 C 
ENDBRANCH   4  10
BRANCH   4  12
HETATM   12  O2  UNL     1      15.496  -2.439  52.838  1.00  0.00    -0.341 OA
ATOM     13  H2  UNL     1      15.765  -1.571  52.562  1.00  0.00     0.220 HD
ENDBRANCH   4  12
BRANCH   5  14
HETATM   14  C5  UNL     1      11.936  -4.560  52.552  1.00  0.00    -0.035 C 
HETATM   15  C6  UNL     1      13.112  -5.519  52.572  1.00  0.00     0.016 C 
HETATM   16  C7  UNL     1      11.231  -4.559  53.859  1.00  0.00     0.016 C 
HETATM   17  C8  UNL     1      10.915  -5.407  51.671  1.00  0.00     0.016 C 
ENDBRANCH   5  14
ENDBRANCH   1   2
BRANCH   1  18
HETATM   18  C14 UNL     1      14.633   0.506  49.793  1.00  0.00     0.024 C 
BRANCH  18  19
HETATM   19  C15 UNL     1      16.022   0.764  49.954  1.00  0.00     0.075 C 
BRANCH  19  20
HETATM   20  C16 UNL     1      16.654   0.318  51.265  1.00  0.00     0.067 C 
BRANCH  20  21
HETATM   21  N1  UNL     1      16.360   1.188  52.297  1.00  0.00    -0.346 N 
HETATM   22  C17 UNL     1      16.119   1.294  53.495  1.00  0.00     0.200 C 
HETATM   23  N2  UNL     1      15.866   2.599  54.076  1.00  0.00    -0.067 NA
HETATM   24  N3  UNL     1      16.037   0.260  54.500  1.00  0.00    -0.067 NA
ATOM     25  H1  UNL     1      16.332   2.127  51.901  1.00  0.00     0.167 HD
ENDBRANCH  20  21
ENDBRANCH  19  20
ENDBRANCH  18  19
ENDBRANCH   1  18
BRANCH   1  26
HETATM   26  N4  UNL     1      13.135   0.526  51.655  1.00  0.00    -0.359 NA
BRANCH  26  27
HETATM   27  C18 UNL     1      12.642   1.284  52.653  1.00  0.00     0.341 C 
BRANCH  27  28
HETATM   28  O3  UNL     1      12.304   0.873  53.852  1.00  0.00    -0.315 OA
ATOM     29  H3  UNL     1      11.947   1.406  54.552  1.00  0.00     0.222 HD
ENDBRANCH  27  28
BRANCH  27  30
HETATM   30  O4  UNL     1      12.411   2.670  52.591  1.00  0.00    -0.301 OA
BRANCH  30  31
HETATM   31  C19 UNL     1      13.137   3.616  51.904  1.00  0.00     0.219 C 
BRANCH  31  32
HETATM   32  C20 UNL     1      13.400   4.874  52.621  1.00  0.00    -0.028 A 
HETATM   33  C21 UNL     1      13.274   5.287  53.856  1.00  0.00     0.051 A 
HETATM   34  C22 UNL     1      13.783   6.590  53.480  1.00  0.00     0.117 A 
HETATM   35  F1  UNL     1      14.055   7.792  54.061  1.00  0.00    -0.206 F 
HETATM   36  C23 UNL     1      13.906   6.168  52.246  1.00  0.00     0.051 A 
ENDBRANCH  31  32
ENDBRANCH  30  31
ENDBRANCH  27  30
ENDBRANCH  26  27
ENDBRANCH   1  26
TORSDOF 14
ENDMDL
MODEL 5
REMARK VINA RESULT: -7.545112400      1.328      1.868
REMARK  14 active torsions:
REMARK  status: ('A' for Active; 'I' for Inactive)
REMARK    1  A    between atoms: O1_2  and  C2_3 
REMARK    2  A    between atoms: C2_3  and  O2_4 
REMARK    3  A    between atoms: C4_7  and  C5_8 
REMARK    4  A    between atoms: C12_16  and  C13_17 
REMARK    5  A    between atoms: C13_17  and  C14_18 
REMARK    6  A    between atoms: C13_17  and  N4_26 
REMARK    7  A    between atoms: C14_18  and  C15_19 
REMARK    8  A    between atoms: C15_19  and  C16_20 
REMARK    9  A    between atoms: C16_20  and  N1_21 
REMARK   10  A    between atoms: N4_26  and  C18_27 
REMARK   11  A    between atoms: C18_27  and  O3_28 
REMARK   12  A    between atoms: C18_27  and  O4_30 
REMARK   13  A    between atoms: O4_30  and  C19_31 
REMARK   14  A    between atoms: C19_31  and  C20_32 
ROOT
HETATM    1  C13 UNL     1      13.516  -2.156  53.091  1.00  0.00     0.117 C 
ENDROOT
BRANCH   1   2
HETATM    2  C12 UNL     1      12.482  -2.976  52.469  1.00  0.00     0.013 C 
HETATM    3  C3  UNL     1      12.308  -3.126  51.002  1.00  0.00     0.025 C 
HETATM    4  C2  UNL     1      12.301  -2.036  50.086  1.00  0.00     0.186 C 
HETATM    5  C4  UNL     1      12.559  -4.475  50.484  1.00  0.00     0.094 C 
HETATM    6  S1  UNL     1      11.390  -5.317  51.712  1.00  0.00    -0.144 SA
HETATM    7  C9  UNL     1      12.220  -4.313  53.092  1.00  0.00     0.032 C 
HETATM    8  C10 UNL     1      13.317  -5.229  53.420  1.00  0.00     0.032 C 
HETATM    9  C11 UNL     1      11.129  -4.337  54.141  1.00  0.00     0.032 C 
BRANCH   4  10
HETATM   10  O1  UNL     1      13.012  -1.844  48.917  1.00  0.00    -0.335 OA
HETATM   11  C1  UNL     1      14.356  -1.408  48.836  1.00  0.00     0.212 C 
ENDBRANCH   4  10
BRANCH   4  12
HETATM   12  O2  UNL     1      11.525  -1.005  50.299  1.00  0.00    -0.341 OA
ATOM     13  H2  UNL     1      11.432  -0.866  51.235  1.00  0.00     0.220 HD
ENDBRANCH   4  12
BRANCH   5  14
HETATM   14  C5  UNL     1      12.033  -4.985  49.227  1.00  0.00    -0.035 C 
HETATM   15  C6  UNL     1      10.657  -4.475  48.843  1.00  0.00     0.016 C 
HETATM   16  C7  UNL     1      12.893  -5.143  48.026  1.00  0.00     0.016 C 
HETATM   17  C8  UNL     1      11.678  -6.507  49.533  1.00  0.00     0.016 C 
ENDBRANCH   5  14
ENDBRANCH   1   2
BRANCH   1  18
HETATM   18  C14 UNL     1      14.864  -2.709  53.427  1.00  0.00     0.024 C 
BRANCH  18  19
HETATM   19  C15 UNL     1      15.702  -2.564  54.567  1.00  0.00     0.075 C 
BRANCH  19  20
HETATM   20  C16 UNL     1      16.784  -1.496  54.489  1.00  0.00     0.067 C 
BRANCH  20  21
HETATM   21  N1  UNL     1      16.728  -0.796  53.299  1.00  0.00    -0.346 N 
HETATM   22  C17 UNL     1      16.737   0.313  52.775  1.00  0.00     0.200 C 
HETATM   23  N2  UNL     1      16.643   0.439  51.333  1.00  0.00    -0.067 NA
HETATM   24  N3  UNL     1      16.834   1.612  53.399  1.00  0.00    -0.067 NA
ATOM     25  H1  UNL     1      16.646  -1.482  52.549  1.00  0.00     0.167 HD
ENDBRANCH  20  21
ENDBRANCH  19  20
ENDBRANCH  18  19
ENDBRANCH   1  18
BRANCH   1  26
HETATM   26  N4  UNL     1      13.290  -0.941  53.762  1.00  0.00    -0.359 NA
BRANCH  26  27
HETATM   27  C18 UNL     1      13.074   0.222  54.405  1.00  0.00     0.341 C 
BRANCH  27  28
HETATM   28  O3  UNL     1      12.455   0.377  55.551  1.00  0.00    -0.315 OA
ATOM     29  H3  UNL     1      12.778   0.853  56.307  1.00  0.00     0.222 HD
ENDBRANCH  27  28
BRANCH  27  30
HETATM   30  O4  UNL     1      13.490   1.492  53.964  1.00  0.00    -0.301 OA
BRANCH  30  31
HETATM   31  C19 UNL     1      13.310   2.054  52.721  1.00  0.00     0.219 C 
BRANCH  31  32
HETATM   32  C20 UNL     1      13.637   3.484  52.607  1.00  0.00    -0.028 A 
HETATM   33  C21 UNL     1      13.281   4.461  51.813  1.00  0.00     0.051 A 
HETATM   34  C22 UNL     1      14.139   5.374  52.540  1.00  0.00     0.117 A 
HETATM   35  F1  UNL     1      14.502   6.687  52.508  1.00  0.00    -0.206 F 
HETATM   36  C23 UNL     1      14.490   4.390  53.331  1.00  0.00     0.051 A 
ENDBRANCH  31  32
ENDBRANCH  30  31
ENDBRANCH  27  30
ENDBRANCH  26  27
ENDBRANCH   1  26
TORSDOF 14
ENDMDL
