MODEL 1
REMARK VINA RESULT: -8.090181441      0.000      0.000
REMARK  11 active torsions:
REMARK  status: ('A' for Active; 'I' for Inactive)
REMARK    1  A    between atoms: N1_2  and  C2_5 
REMARK    2  A    between atoms: C11_14  and  O1_15 
REMARK    3  A    between atoms: O1_15  and  C12_16 
REMARK    4  A    between atoms: C12_16  and  C13_18 
REMARK    5  A    between atoms: C13_18  and  C14_20 
REMARK    6  A    between atoms: C14_20  and  C15_21 
REMARK    7  A    between atoms: C15_21  and  C16_22 
REMARK    8  A    between atoms: C16_22  and  C17_23 
REMARK    9  A    between atoms: C17_23  and  C19_25 
REMARK   10  A    between atoms: C19_25  and  O3_26 
REMARK   11  A    between atoms: C21_30  and  O5_31 
ROOT
HETATM    1  C2  UNL     1      13.987   1.178  52.648  1.00  0.00     0.194 C 
HETATM    2  C3  UNL     1      13.222   0.807  53.884  1.00  0.00     0.034 C 
HETATM    3  C4  UNL     1      13.859  -0.468  54.330  1.00  0.00     0.008 C 
HETATM    4  C5  UNL     1      14.527  -1.063  53.133  1.00  0.00     0.000 C 
HETATM    5  C6  UNL     1      14.078  -2.468  52.860  1.00  0.00    -0.005 C 
HETATM    6  C7  UNL     1      15.015  -3.230  51.983  1.00  0.00     0.009 C 
HETATM    7  C8  UNL     1      14.375  -4.244  51.102  1.00  0.00     0.035 C 
HETATM    8  C9  UNL     1      13.093  -4.763  51.627  1.00  0.00    -0.073 C 
HETATM    9  C10 UNL     1      12.854  -6.056  51.646  1.00  0.00     0.016 C 
HETATM   10  C11 UNL     1      11.562  -6.646  52.172  1.00  0.00     0.227 C 
HETATM   11  C20 UNL     1      10.988  -5.752  53.212  1.00  0.00     0.189 C 
HETATM   12  O4  UNL     1      10.063  -6.117  53.899  1.00  0.00    -0.292 OA
HETATM   13  C21 UNL     1      11.535  -4.389  53.435  1.00  0.00     0.199 C 
HETATM   14  C22 UNL     1      12.094  -3.821  52.126  1.00  0.00     0.055 C 
HETATM   15  C23 UNL     1      12.655  -2.450  52.424  1.00  0.00     0.001 C 
HETATM   16  C24 UNL     1      12.357  -1.493  51.305  1.00  0.00     0.006 C 
HETATM   17  C25 UNL     1      13.433  -0.568  50.924  1.00  0.00     0.012 C 
HETATM   18  C26 UNL     1      14.381  -0.132  51.987  1.00  0.00    -0.012 C 
HETATM   19  C27 UNL     1      15.724   0.152  51.297  1.00  0.00     0.018 C 
ENDROOT
BRANCH  10  20
HETATM   20  O1  UNL     1      10.633  -6.818  51.140  1.00  0.00    -0.302 OA
BRANCH  20  21
HETATM   21  C12 UNL     1      11.038  -7.555  50.005  1.00  0.00     0.294 C 
HETATM   22  O2  UNL     1      11.449  -8.704  50.192  1.00  0.00    -0.262 OA
BRANCH  21  23
HETATM   23  C13 UNL     1      10.962  -6.945  48.659  1.00  0.00     0.269 C 
HETATM   24  F1  UNL     1      10.499  -7.957  47.820  1.00  0.00    -0.239 F 
BRANCH  23  25
HETATM   25  C14 UNL     1      12.203  -6.312  48.167  1.00  0.00     0.048 C 
BRANCH  25  26
HETATM   26  C15 UNL     1      12.268  -4.832  48.129  1.00  0.00     0.004 C 
BRANCH  26  27
HETATM   27  C16 UNL     1      11.029  -4.105  48.522  1.00  0.00     0.006 C 
BRANCH  27  28
HETATM   28  C17 UNL     1      10.588  -2.983  47.664  1.00  0.00     0.005 C 
HETATM   29  C18 UNL     1      11.741  -1.966  47.635  1.00  0.00     0.012 C 
BRANCH  28  30
HETATM   30  C19 UNL     1       9.378  -2.225  48.146  1.00  0.00     0.168 C 
BRANCH  30  31
HETATM   31  O3  UNL     1       9.617  -0.903  48.456  1.00  0.00    -0.400 OA
ATOM     32  H3  UNL     1       9.186  -0.280  47.883  1.00  0.00     0.209 HD
ENDBRANCH  30  31
ENDBRANCH  28  30
ENDBRANCH  27  28
ENDBRANCH  26  27
ENDBRANCH  25  26
ENDBRANCH  23  25
ENDBRANCH  21  23
ENDBRANCH  20  21
ENDBRANCH  10  20
BRANCH  13  33
HETATM   33  O5  UNL     1      10.605  -3.529  53.990  1.00  0.00    -0.387 OA
ATOM     34  H5  UNL     1      10.619  -2.669  53.587  1.00  0.00     0.210 HD
ENDBRANCH  13  33
BRANCH   1  35
HETATM   35  N1  UNL     1      15.213   1.829  53.072  1.00  0.00    -0.074 N 
HETATM   36  C1  UNL     1      15.009   3.117  53.660  1.00  0.00     0.267 C 
ATOM     37  H12 UNL     1      15.875   1.888  52.299  1.00  0.00     0.277 HD
ATOM     38  H11 UNL     1      15.739   1.226  53.704  1.00  0.00     0.277 HD
ENDBRANCH   1  35
TORSDOF 11
ENDMDL
MODEL 2
REMARK VINA RESULT: -7.841140213      4.367      8.530
REMARK  11 active torsions:
REMARK  status: ('A' for Active; 'I' for Inactive)
REMARK    1  A    between atoms: N1_2  and  C2_5 
REMARK    2  A    between atoms: C11_14  and  O1_15 
REMARK    3  A    between atoms: O1_15  and  C12_16 
REMARK    4  A    between atoms: C12_16  and  C13_18 
REMARK    5  A    between atoms: C13_18  and  C14_20 
REMARK    6  A    between atoms: C14_20  and  C15_21 
REMARK    7  A    between atoms: C15_21  and  C16_22 
REMARK    8  A    between atoms: C16_22  and  C17_23 
REMARK    9  A    between atoms: C17_23  and  C19_25 
REMARK   10  A    between atoms: C19_25  and  O3_26 
REMARK   11  A    between atoms: C21_30  and  O5_31 
ROOT
HETATM    1  C2  UNL     1      10.238  -7.398  50.355  1.00  0.00     0.194 C 
HETATM    2  C3  UNL     1       9.458  -6.527  51.295  1.00  0.00     0.034 C 
HETATM    3  C4  UNL     1       9.414  -5.203  50.604  1.00  0.00     0.008 C 
HETATM    4  C5  UNL     1      10.560  -5.175  49.646  1.00  0.00     0.000 C 
HETATM    5  C6  UNL     1      11.457  -3.991  49.854  1.00  0.00    -0.005 C 
HETATM    6  C7  UNL     1      12.322  -3.688  48.675  1.00  0.00     0.009 C 
HETATM    7  C8  UNL     1      13.651  -3.103  48.998  1.00  0.00     0.035 C 
HETATM    8  C9  UNL     1      13.681  -2.371  50.284  1.00  0.00    -0.073 C 
HETATM    9  C10 UNL     1      14.227  -1.177  50.359  1.00  0.00     0.016 C 
HETATM   10  C11 UNL     1      14.287  -0.380  51.645  1.00  0.00     0.227 C 
HETATM   11  C20 UNL     1      13.142  -0.748  52.519  1.00  0.00     0.189 C 
HETATM   12  O4  UNL     1      12.886  -0.102  53.508  1.00  0.00    -0.292 OA
HETATM   13  C21 UNL     1      12.283  -1.918  52.200  1.00  0.00     0.199 C 
HETATM   14  C22 UNL     1      13.097  -2.991  51.471  1.00  0.00     0.055 C 
HETATM   15  C23 UNL     1      12.166  -4.138  51.154  1.00  0.00     0.001 C 
HETATM   16  C24 UNL     1      12.856  -5.458  51.344  1.00  0.00     0.006 C 
HETATM   17  C25 UNL     1      12.584  -6.494  50.338  1.00  0.00     0.012 C 
HETATM   18  C26 UNL     1      11.249  -6.488  49.679  1.00  0.00    -0.012 C 
HETATM   19  C27 UNL     1      11.443  -7.076  48.272  1.00  0.00     0.018 C 
ENDROOT
BRANCH  10  20
HETATM   20  O1  UNL     1      15.487  -0.614  52.325  1.00  0.00    -0.302 OA
BRANCH  20  21
HETATM   21  C12 UNL     1      16.349   0.485  52.538  1.00  0.00     0.294 C 
HETATM   22  O2  UNL     1      17.057   0.842  51.591  1.00  0.00    -0.262 OA
BRANCH  21  23
HETATM   23  C13 UNL     1      16.380   1.158  53.855  1.00  0.00     0.269 C 
HETATM   24  F1  UNL     1      16.102   0.161  54.788  1.00  0.00    -0.239 F 
BRANCH  23  25
HETATM   25  C14 UNL     1      15.504   2.340  53.997  1.00  0.00     0.048 C 
BRANCH  25  26
HETATM   26  C15 UNL     1      16.097   3.682  53.784  1.00  0.00     0.004 C 
BRANCH  26  27
HETATM   27  C16 UNL     1      15.179   4.736  53.270  1.00  0.00     0.006 C 
BRANCH  27  28
HETATM   28  C17 UNL     1      15.037   5.973  54.069  1.00  0.00     0.005 C 
HETATM   29  C18 UNL     1      13.536   6.149  54.355  1.00  0.00     0.012 C 
BRANCH  28  30
HETATM   30  C19 UNL     1      15.481   7.245  53.392  1.00  0.00     0.168 C 
BRANCH  30  31
HETATM   31  O3  UNL     1      14.697   8.344  53.667  1.00  0.00    -0.400 OA
ATOM     32  H3  UNL     1      15.150   9.177  53.607  1.00  0.00     0.209 HD
ENDBRANCH  30  31
ENDBRANCH  28  30
ENDBRANCH  27  28
ENDBRANCH  26  27
ENDBRANCH  25  26
ENDBRANCH  23  25
ENDBRANCH  21  23
ENDBRANCH  20  21
ENDBRANCH  10  20
BRANCH  13  33
HETATM   33  O5  UNL     1      11.666  -2.442  53.321  1.00  0.00    -0.387 OA
ATOM     34  H5  UNL     1      10.719  -2.423  53.257  1.00  0.00     0.210 HD
ENDBRANCH  13  33
BRANCH   1  35
HETATM   35  N1  UNL     1       9.322  -7.859  49.327  1.00  0.00    -0.074 N 
HETATM   36  C1  UNL     1       8.217  -8.612  49.834  1.00  0.00     0.267 C 
ATOM     37  H12 UNL     1       9.820  -8.389  48.613  1.00  0.00     0.277 HD
ATOM     38  H11 UNL     1       8.994  -7.076  48.762  1.00  0.00     0.277 HD
ENDBRANCH   1  35
TORSDOF 11
ENDMDL
MODEL 3
REMARK VINA RESULT: -7.836810763      4.236      8.629
REMARK  11 active torsions:
REMARK  status: ('A' for Active; 'I' for Inactive)
REMARK    1  A    between atoms: N1_2  and  C2_5 
REMARK    2  A    between atoms: C11_14  and  O1_15 
REMARK    3  A    between atoms: O1_15  and  C12_16 
REMARK    4  A    between atoms: C12_16  and  C13_18 
REMARK    5  A    between atoms: C13_18  and  C14_20 
REMARK    6  A    between atoms: C14_20  and  C15_21 
REMARK    7  A    between atoms: C15_21  and  C16_22 
REMARK    8  A    between atoms: C16_22  and  C17_23 
REMARK    9  A    between atoms: C17_23  and  C19_25 
REMARK   10  A    between atoms: C19_25  and  O3_26 
REMARK   11  A    between atoms: C21_30  and  O5_31 
ROOT
HETATM    1  C2  UNL     1      10.932  -6.257  49.346  1.00  0.00     0.194 C 
HETATM    2  C3  UNL     1      11.388  -5.649  48.052  1.00  0.00     0.034 C 
HETATM    3  C4  UNL     1      12.862  -5.491  48.230  1.00  0.00     0.008 C 
HETATM    4  C5  UNL     1      13.123  -5.467  49.701  1.00  0.00     0.000 C 
HETATM    5  C6  UNL     1      13.878  -4.245  50.133  1.00  0.00    -0.005 C 
HETATM    6  C7  UNL     1      14.532  -4.393  51.468  1.00  0.00     0.009 C 
HETATM    7  C8  UNL     1      14.635  -3.141  52.265  1.00  0.00     0.035 C 
HETATM    8  C9  UNL     1      14.656  -1.912  51.441  1.00  0.00    -0.073 C 
HETATM    9  C10 UNL     1      15.548  -0.973  51.666  1.00  0.00     0.016 C 
HETATM   10  C11 UNL     1      15.621   0.305  50.856  1.00  0.00     0.227 C 
HETATM   11  C20 UNL     1      15.106   0.059  49.483  1.00  0.00     0.189 C 
HETATM   12  O4  UNL     1      15.247   0.886  48.613  1.00  0.00    -0.292 OA
HETATM   13  C21 UNL     1      14.408  -1.208  49.144  1.00  0.00     0.199 C 
HETATM   14  C22 UNL     1      13.673  -1.754  50.372  1.00  0.00     0.055 C 
HETATM   15  C23 UNL     1      13.008  -3.049  49.970  1.00  0.00     0.001 C 
HETATM   16  C24 UNL     1      11.650  -3.174  50.600  1.00  0.00     0.006 C 
HETATM   17  C25 UNL     1      11.280  -4.501  51.112  1.00  0.00     0.012 C 
HETATM   18  C26 UNL     1      11.845  -5.692  50.421  1.00  0.00    -0.012 C 
HETATM   19  C27 UNL     1      11.964  -6.805  51.475  1.00  0.00     0.018 C 
ENDROOT
BRANCH  10  20
HETATM   20  O1  UNL     1      14.874   1.323  51.459  1.00  0.00    -0.302 OA
BRANCH  20  21
HETATM   21  C12 UNL     1      15.142   1.623  52.813  1.00  0.00     0.294 C 
HETATM   22  O2  UNL     1      14.201   1.546  53.609  1.00  0.00    -0.262 OA
BRANCH  21  23
HETATM   23  C13 UNL     1      16.508   2.014  53.230  1.00  0.00     0.269 C 
HETATM   24  F1  UNL     1      17.034   0.893  53.869  1.00  0.00    -0.239 F 
BRANCH  23  25
HETATM   25  C14 UNL     1      16.606   3.242  54.045  1.00  0.00     0.048 C 
BRANCH  25  26
HETATM   26  C15 UNL     1      16.723   4.542  53.343  1.00  0.00     0.004 C 
BRANCH  26  27
HETATM   27  C16 UNL     1      15.873   5.651  53.860  1.00  0.00     0.006 C 
BRANCH  27  28
HETATM   28  C17 UNL     1      14.751   6.109  53.012  1.00  0.00     0.005 C 
HETATM   29  C18 UNL     1      14.063   7.260  53.767  1.00  0.00     0.012 C 
BRANCH  28  30
HETATM   30  C19 UNL     1      13.673   5.089  52.743  1.00  0.00     0.168 C 
BRANCH  30  31
HETATM   31  O3  UNL     1      13.252   4.394  53.856  1.00  0.00    -0.400 OA
ATOM     32  H3  UNL     1      13.163   4.922  54.641  1.00  0.00     0.209 HD
ENDBRANCH  30  31
ENDBRANCH  28  30
ENDBRANCH  27  28
ENDBRANCH  26  27
ENDBRANCH  25  26
ENDBRANCH  23  25
ENDBRANCH  21  23
ENDBRANCH  20  21
ENDBRANCH  10  20
BRANCH  13  33
HETATM   33  O5  UNL     1      13.545  -1.065  48.073  1.00  0.00    -0.387 OA
ATOM     34  H5  UNL     1      12.781  -1.626  48.144  1.00  0.00     0.210 HD
ENDBRANCH  13  33
BRANCH   1  35
HETATM   35  N1  UNL     1      11.189  -7.684  49.272  1.00  0.00    -0.074 N 
HETATM   36  C1  UNL     1      10.478  -8.345  48.221  1.00  0.00     0.267 C 
ATOM     37  H12 UNL     1      11.001  -8.130  50.169  1.00  0.00     0.277 HD
ATOM     38  H11 UNL     1      12.190  -7.864  49.197  1.00  0.00     0.277 HD
ENDBRANCH   1  35
TORSDOF 11
ENDMDL
MODEL 4
REMARK VINA RESULT: -7.748669431      1.091      1.326
REMARK  11 active torsions:
REMARK  status: ('A' for Active; 'I' for Inactive)
REMARK    1  A    between atoms: N1_2  and  C2_5 
REMARK    2  A    between atoms: C11_14  and  O1_15 
REMARK    3  A    between atoms: O1_15  and  C12_16 
REMARK    4  A    between atoms: C12_16  and  C13_18 
REMARK    5  A    between atoms: C13_18  and  C14_20 
REMARK    6  A    between atoms: C14_20  and  C15_21 
REMARK    7  A    between atoms: C15_21  and  C16_22 
REMARK    8  A    between atoms: C16_22  and  C17_23 
REMARK    9  A    between atoms: C17_23  and  C19_25 
REMARK   10  A    between atoms: C19_25  and  O3_26 
REMARK   11  A    between atoms: C21_30  and  O5_31 
ROOT
HETATM    1  C2  UNL     1      14.084   1.033  53.061  1.00  0.00     0.194 C 
HETATM    2  C3  UNL     1      13.334   0.587  54.281  1.00  0.00     0.034 C 
HETATM    3  C4  UNL     1      13.942  -0.738  54.610  1.00  0.00     0.008 C 
HETATM    4  C5  UNL     1      14.565  -1.254  53.355  1.00  0.00     0.000 C 
HETATM    5  C6  UNL     1      14.068  -2.620  52.983  1.00  0.00    -0.005 C 
HETATM    6  C7  UNL     1      14.963  -3.336  52.026  1.00  0.00     0.009 C 
HETATM    7  C8  UNL     1      14.273  -4.258  51.083  1.00  0.00     0.035 C 
HETATM    8  C9  UNL     1      12.987  -4.779  51.596  1.00  0.00    -0.073 C 
HETATM    9  C10 UNL     1      12.708  -6.062  51.518  1.00  0.00     0.016 C 
HETATM   10  C11 UNL     1      11.410  -6.654  52.026  1.00  0.00     0.227 C 
HETATM   11  C20 UNL     1      10.886  -5.830  53.147  1.00  0.00     0.189 C 
HETATM   12  O4  UNL     1       9.965  -6.222  53.825  1.00  0.00    -0.292 OA
HETATM   13  C21 UNL     1      11.480  -4.505  53.463  1.00  0.00     0.199 C 
HETATM   14  C22 UNL     1      12.028  -3.851  52.191  1.00  0.00     0.055 C 
HETATM   15  C23 UNL     1      12.637  -2.526  52.583  1.00  0.00     0.001 C 
HETATM   16  C24 UNL     1      12.345  -1.475  51.550  1.00  0.00     0.006 C 
HETATM   17  C25 UNL     1      13.441  -0.553  51.219  1.00  0.00     0.012 C 
HETATM   18  C26 UNL     1      14.424  -0.231  52.289  1.00  0.00    -0.012 C 
HETATM   19  C27 UNL     1      15.761   0.068  51.593  1.00  0.00     0.018 C 
ENDROOT
BRANCH  10  20
HETATM   20  O1  UNL     1      10.455  -6.717  51.006  1.00  0.00    -0.302 OA
BRANCH  20  21
HETATM   21  C12 UNL     1      10.650  -7.666  49.978  1.00  0.00     0.294 C 
HETATM   22  O2  UNL     1      10.894  -8.828  50.318  1.00  0.00    -0.262 OA
BRANCH  21  23
HETATM   23  C13 UNL     1      10.560  -7.253  48.560  1.00  0.00     0.269 C 
HETATM   24  F1  UNL     1      10.464  -8.439  47.834  1.00  0.00    -0.239 F 
BRANCH  23  25
HETATM   25  C14 UNL     1      11.640  -6.368  48.077  1.00  0.00     0.048 C 
BRANCH  25  26
HETATM   26  C15 UNL     1      11.430  -4.902  48.148  1.00  0.00     0.004 C 
BRANCH  26  27
HETATM   27  C16 UNL     1      12.649  -4.054  48.040  1.00  0.00     0.006 C 
BRANCH  27  28
HETATM   28  C17 UNL     1      12.495  -2.598  48.255  1.00  0.00     0.005 C 
HETATM   29  C18 UNL     1      11.268  -2.155  47.438  1.00  0.00     0.012 C 
BRANCH  28  30
HETATM   30  C19 UNL     1      13.640  -1.740  47.780  1.00  0.00     0.168 C 
BRANCH  30  31
HETATM   31  O3  UNL     1      14.822  -2.421  47.582  1.00  0.00    -0.400 OA
ATOM     32  H3  UNL     1      14.816  -3.320  47.889  1.00  0.00     0.209 HD
ENDBRANCH  30  31
ENDBRANCH  28  30
ENDBRANCH  27  28
ENDBRANCH  26  27
ENDBRANCH  25  26
ENDBRANCH  23  25
ENDBRANCH  21  23
ENDBRANCH  20  21
ENDBRANCH  10  20
BRANCH  13  33
HETATM   33  O5  UNL     1      10.588  -3.666  54.106  1.00  0.00    -0.387 OA
ATOM     34  H5  UNL     1      10.781  -2.748  53.958  1.00  0.00     0.210 HD
ENDBRANCH  13  33
BRANCH   1  35
HETATM   35  N1  UNL     1      15.338   1.612  53.507  1.00  0.00    -0.074 N 
HETATM   36  C1  UNL     1      15.243   2.996  53.858  1.00  0.00     0.267 C 
ATOM     37  H12 UNL     1      16.069   1.468  52.810  1.00  0.00     0.277 HD
ATOM     38  H11 UNL     1      15.729   1.072  54.278  1.00  0.00     0.277 HD
ENDBRANCH   1  35
TORSDOF 11
ENDMDL
MODEL 5
REMARK VINA RESULT: -7.723758627      3.954      7.954
REMARK  11 active torsions:
REMARK  status: ('A' for Active; 'I' for Inactive)
REMARK    1  A    between atoms: N1_2  and  C2_5 
REMARK    2  A    between atoms: C11_14  and  O1_15 
REMARK    3  A    between atoms: O1_15  and  C12_16 
REMARK    4  A    between atoms: C12_16  and  C13_18 
REMARK    5  A    between atoms: C13_18  and  C14_20 
REMARK    6  A    between atoms: C14_20  and  C15_21 
REMARK    7  A    between atoms: C15_21  and  C16_22 
REMARK    8  A    between atoms: C16_22  and  C17_23 
REMARK    9  A    between atoms: C17_23  and  C19_25 
REMARK   10  A    between atoms: C19_25  and  O3_26 
REMARK   11  A    between atoms: C21_30  and  O5_31 
ROOT
HETATM    1  C2  UNL     1      10.485  -7.339  50.088  1.00  0.00     0.194 C 
HETATM    2  C3  UNL     1       9.628  -6.547  51.032  1.00  0.00     0.034 C 
HETATM    3  C4  UNL     1       9.550  -5.197  50.398  1.00  0.00     0.008 C 
HETATM    4  C5  UNL     1      10.731  -5.073  49.490  1.00  0.00     0.000 C 
HETATM    5  C6  UNL     1      11.563  -3.860  49.788  1.00  0.00    -0.005 C 
HETATM    6  C7  UNL     1      12.459  -3.466  48.660  1.00  0.00     0.009 C 
HETATM    7  C8  UNL     1      13.745  -2.837  49.065  1.00  0.00     0.035 C 
HETATM    8  C9  UNL     1      13.690  -2.164  50.381  1.00  0.00    -0.073 C 
HETATM    9  C10 UNL     1      14.176  -0.952  50.531  1.00  0.00     0.016 C 
HETATM   10  C11 UNL     1      14.147  -0.212  51.853  1.00  0.00     0.227 C 
HETATM   11  C20 UNL     1      12.987  -0.671  52.661  1.00  0.00     0.189 C 
HETATM   12  O4  UNL     1      12.662  -0.083  53.665  1.00  0.00    -0.292 OA
HETATM   13  C21 UNL     1      12.197  -1.863  52.255  1.00  0.00     0.199 C 
HETATM   14  C22 UNL     1      13.089  -2.864  51.514  1.00  0.00     0.055 C 
HETATM   15  C23 UNL     1      12.225  -4.035  51.109  1.00  0.00     0.001 C 
HETATM   16  C24 UNL     1      12.968  -5.331  51.269  1.00  0.00     0.006 C 
HETATM   17  C25 UNL     1      12.785  -6.331  50.208  1.00  0.00     0.012 C 
HETATM   18  C26 UNL     1      11.479  -6.354  49.495  1.00  0.00    -0.012 C 
HETATM   19  C27 UNL     1      11.756  -6.868  48.073  1.00  0.00     0.018 C 
ENDROOT
BRANCH  10  20
HETATM   20  O1  UNL     1      15.329  -0.423  52.571  1.00  0.00    -0.302 OA
BRANCH  20  21
HETATM   21  C12 UNL     1      16.238   0.653  52.676  1.00  0.00     0.294 C 
HETATM   22  O2  UNL     1      16.974   0.870  51.709  1.00  0.00    -0.262 OA
BRANCH  21  23
HETATM   23  C13 UNL     1      16.281   1.469  53.910  1.00  0.00     0.269 C 
HETATM   24  F1  UNL     1      15.624   0.712  54.878  1.00  0.00    -0.239 F 
BRANCH  23  25
HETATM   25  C14 UNL     1      15.750   2.843  53.794  1.00  0.00     0.048 C 
BRANCH  25  26
HETATM   26  C15 UNL     1      14.282   3.021  53.692  1.00  0.00     0.004 C 
BRANCH  26  27
HETATM   27  C16 UNL     1      13.753   3.390  52.350  1.00  0.00     0.006 C 
BRANCH  27  28
HETATM   28  C17 UNL     1      12.953   4.631  52.244  1.00  0.00     0.005 C 
HETATM   29  C18 UNL     1      13.221   5.444  53.522  1.00  0.00     0.012 C 
BRANCH  28  30
HETATM   30  C19 UNL     1      11.459   4.444  52.178  1.00  0.00     0.168 C 
BRANCH  30  31
HETATM   31  O3  UNL     1      11.044   3.130  52.196  1.00  0.00    -0.400 OA
ATOM     32  H3  UNL     1      10.148   3.003  52.483  1.00  0.00     0.209 HD
ENDBRANCH  30  31
ENDBRANCH  28  30
ENDBRANCH  27  28
ENDBRANCH  26  27
ENDBRANCH  25  26
ENDBRANCH  23  25
ENDBRANCH  21  23
ENDBRANCH  20  21
ENDBRANCH  10  20
BRANCH  13  33
HETATM   33  O5  UNL     1      11.561  -2.464  53.325  1.00  0.00    -0.387 OA
ATOM     34  H5  UNL     1      11.486  -1.887  54.075  1.00  0.00     0.210 HD
ENDBRANCH  13  33
BRANCH   1  35
HETATM   35  N1  UNL     1       9.633  -7.793  49.003  1.00  0.00    -0.074 N 
HETATM   36  C1  UNL     1       8.825  -8.924  49.339  1.00  0.00     0.267 C 
ATOM     37  H12 UNL     1      10.185  -7.981  48.167  1.00  0.00     0.277 HD
ATOM     38  H11 UNL     1       9.054  -7.028  48.657  1.00  0.00     0.277 HD
ENDBRANCH   1  35
TORSDOF 11
ENDMDL
