MODEL 1
REMARK VINA RESULT: -8.003649342      0.000      0.000
REMARK  12 active torsions:
REMARK  status: ('A' for Active; 'I' for Inactive)
REMARK    1  A    between atoms: C2_2  and  N1_3 
REMARK    2  A    between atoms: N1_3  and  C3_5 
REMARK    3  A    between atoms: C3_5  and  C5_7 
REMARK       I    between atoms: C5_7  and  N2_9 
REMARK    4  A    between atoms: N2_9  and  C6_11 
REMARK    5  A    between atoms: C6_11  and  C7_12 
REMARK    6  A    between atoms: C6_11  and  C17_29 
REMARK    7  A    between atoms: C7_12  and  O3_14 
REMARK    8  A    between atoms: O3_14  and  C8_15 
REMARK    9  A    between atoms: C8_15  and  C9_16 
REMARK   10  A    between atoms: C9_16  and  N3_18 
REMARK   11  A    between atoms: N3_18  and  C10_20 
REMARK   12  A    between atoms: C15_26  and  O4_27 
ROOT
HETATM    1  C7  UNL     1      15.832   0.744  51.766  1.00  0.00     0.282 C 
HETATM    2  O2  UNL     1      16.977   0.478  51.321  1.00  0.00    -0.263 OA
ENDROOT
BRANCH   1   3
HETATM    3  C6  UNL     1      15.561   1.350  53.065  1.00  0.00     0.191 C 
BRANCH   3   4
HETATM    4  N2  UNL     1      14.489   2.354  52.970  1.00  0.00    -0.345 N 
HETATM    5  C5  UNL     1      14.710   3.740  53.113  1.00  0.00     0.240 C 
HETATM    6  O1  UNL     1      15.867   4.169  53.336  1.00  0.00    -0.271 OA
ATOM      7  H2  UNL     1      13.538   2.032  52.792  1.00  0.00     0.163 HD
BRANCH   5   8
HETATM    8  C3  UNL     1      13.601   4.701  53.006  1.00  0.00     0.165 C 
HETATM    9  C4  UNL     1      12.452   4.196  52.186  1.00  0.00     0.042 C 
BRANCH   8  10
HETATM   10  N1  UNL     1      13.234   5.301  54.246  1.00  0.00    -0.410 N 
ATOM     11  H1  UNL     1      12.682   4.807  54.946  1.00  0.00     0.154 HD
BRANCH  10  12
HETATM   12  C2  UNL     1      13.687   6.638  54.443  1.00  0.00     0.110 C 
HETATM   13  C1  UNL     1      14.017   7.332  53.123  1.00  0.00     0.026 C 
ENDBRANCH  10  12
ENDBRANCH   8  10
ENDBRANCH   5   8
ENDBRANCH   3   4
BRANCH   3  14
HETATM   14  C17 UNL     1      15.190   0.364  54.140  1.00  0.00    -0.022 C 
HETATM   15  C18 UNL     1      13.715   0.311  54.427  1.00  0.00     0.017 C 
HETATM   16  C19 UNL     1      15.818   0.934  55.431  1.00  0.00     0.017 C 
HETATM   17  C20 UNL     1      15.819  -0.966  53.916  1.00  0.00     0.017 C 
ENDBRANCH   3  14
ENDBRANCH   1   3
BRANCH   1  18
HETATM   18  O3  UNL     1      14.764   0.423  50.930  1.00  0.00    -0.313 OA
BRANCH  18  19
HETATM   19  C8  UNL     1      14.684  -0.938  50.404  1.00  0.00     0.248 C 
BRANCH  19  20
HETATM   20  C9  UNL     1      14.610  -0.911  48.940  1.00  0.00     0.102 C 
HETATM   21  S1  UNL     1      15.139   0.512  48.174  1.00  0.00    -0.063 SA
BRANCH  20  22
HETATM   22  N3  UNL     1      14.161  -1.879  48.045  1.00  0.00    -0.347 N 
ATOM     23  H3  UNL     1      14.826  -2.158  47.323  1.00  0.00     0.167 HD
BRANCH  22  24
HETATM   24  C10 UNL     1      12.910  -2.522  48.008  1.00  0.00     0.068 A 
HETATM   25  C11 UNL     1      11.739  -2.040  47.496  1.00  0.00     0.051 A 
HETATM   26  C12 UNL     1      10.546  -2.781  47.485  1.00  0.00     0.013 A 
HETATM   27 BR1  UNL     1       8.969  -2.013  46.744  1.00  0.00    -0.051 Br
HETATM   28  C13 UNL     1      10.556  -4.031  48.006  1.00  0.00     0.022 A 
HETATM   29  C14 UNL     1      11.702  -4.545  48.523  1.00  0.00     0.040 A 
HETATM   30  C15 UNL     1      12.873  -3.836  48.541  1.00  0.00     0.095 A 
BRANCH  30  31
HETATM   31  O4  UNL     1      14.032  -4.357  49.066  1.00  0.00    -0.354 OA
HETATM   32  C16 UNL     1      14.054  -4.842  50.388  1.00  0.00     0.210 C 
ENDBRANCH  30  31
ENDBRANCH  22  24
ENDBRANCH  20  22
ENDBRANCH  19  20
ENDBRANCH  18  19
ENDBRANCH   1  18
TORSDOF 12
ENDMDL
MODEL 2
REMARK VINA RESULT: -7.958392077      0.835      1.310
REMARK  12 active torsions:
REMARK  status: ('A' for Active; 'I' for Inactive)
REMARK    1  A    between atoms: C2_2  and  N1_3 
REMARK    2  A    between atoms: N1_3  and  C3_5 
REMARK    3  A    between atoms: C3_5  and  C5_7 
REMARK       I    between atoms: C5_7  and  N2_9 
REMARK    4  A    between atoms: N2_9  and  C6_11 
REMARK    5  A    between atoms: C6_11  and  C7_12 
REMARK    6  A    between atoms: C6_11  and  C17_29 
REMARK    7  A    between atoms: C7_12  and  O3_14 
REMARK    8  A    between atoms: O3_14  and  C8_15 
REMARK    9  A    between atoms: C8_15  and  C9_16 
REMARK   10  A    between atoms: C9_16  and  N3_18 
REMARK   11  A    between atoms: N3_18  and  C10_20 
REMARK   12  A    between atoms: C15_26  and  O4_27 
ROOT
HETATM    1  C7  UNL     1      15.933   0.722  51.746  1.00  0.00     0.282 C 
HETATM    2  O2  UNL     1      16.966   0.235  51.221  1.00  0.00    -0.263 OA
ENDROOT
BRANCH   1   3
HETATM    3  C6  UNL     1      15.856   1.251  53.104  1.00  0.00     0.191 C 
BRANCH   3   4
HETATM    4  N2  UNL     1      15.140   2.537  53.133  1.00  0.00    -0.345 N 
HETATM    5  C5  UNL     1      15.758   3.760  53.465  1.00  0.00     0.240 C 
HETATM    6  O1  UNL     1      16.978   3.787  53.756  1.00  0.00    -0.271 OA
ATOM      7  H2  UNL     1      14.147   2.544  52.902  1.00  0.00     0.163 HD
BRANCH   5   8
HETATM    8  C3  UNL     1      14.995   5.018  53.476  1.00  0.00     0.165 C 
HETATM    9  C4  UNL     1      15.849   6.232  53.681  1.00  0.00     0.042 C 
BRANCH   8  10
HETATM   10  N1  UNL     1      14.044   5.126  52.419  1.00  0.00    -0.410 N 
ATOM     11  H1  UNL     1      14.320   5.123  51.438  1.00  0.00     0.154 HD
BRANCH  10  12
HETATM   12  C2  UNL     1      12.682   5.241  52.823  1.00  0.00     0.110 C 
HETATM   13  C1  UNL     1      11.778   4.266  52.072  1.00  0.00     0.026 C 
ENDBRANCH  10  12
ENDBRANCH   8  10
ENDBRANCH   5   8
ENDBRANCH   3   4
BRANCH   3  14
HETATM   14  C17 UNL     1      15.201   0.323  54.091  1.00  0.00    -0.022 C 
HETATM   15  C18 UNL     1      13.729   0.575  54.270  1.00  0.00     0.017 C 
HETATM   16  C19 UNL     1      15.828   0.690  55.453  1.00  0.00     0.017 C 
HETATM   17  C20 UNL     1      15.552  -1.100  53.834  1.00  0.00     0.017 C 
ENDBRANCH   3  14
ENDBRANCH   1   3
BRANCH   1  18
HETATM   18  O3  UNL     1      14.794   0.743  50.944  1.00  0.00    -0.313 OA
BRANCH  18  19
HETATM   19  C8  UNL     1      14.235  -0.534  50.503  1.00  0.00     0.248 C 
BRANCH  19  20
HETATM   20  C9  UNL     1      14.431  -0.702  49.060  1.00  0.00     0.102 C 
HETATM   21  S1  UNL     1      15.148   0.598  48.230  1.00  0.00    -0.063 SA
BRANCH  20  22
HETATM   22  N3  UNL     1      14.116  -1.774  48.230  1.00  0.00    -0.347 N 
ATOM     23  H3  UNL     1      14.873  -2.111  47.634  1.00  0.00     0.167 HD
BRANCH  22  24
HETATM   24  C10 UNL     1      12.889  -2.452  48.105  1.00  0.00     0.068 A 
HETATM   25  C11 UNL     1      11.725  -1.979  47.572  1.00  0.00     0.051 A 
HETATM   26  C12 UNL     1      10.557  -2.754  47.471  1.00  0.00     0.013 A 
HETATM   27 BR1  UNL     1       8.987  -1.995  46.707  1.00  0.00    -0.051 Br
HETATM   28  C13 UNL     1      10.587  -4.030  47.925  1.00  0.00     0.022 A 
HETATM   29  C14 UNL     1      11.729  -4.536  48.461  1.00  0.00     0.040 A 
HETATM   30  C15 UNL     1      12.874  -3.793  48.566  1.00  0.00     0.095 A 
BRANCH  30  31
HETATM   31  O4  UNL     1      14.028  -4.307  49.111  1.00  0.00    -0.354 OA
HETATM   32  C16 UNL     1      14.075  -4.644  50.476  1.00  0.00     0.210 C 
ENDBRANCH  30  31
ENDBRANCH  22  24
ENDBRANCH  20  22
ENDBRANCH  19  20
ENDBRANCH  18  19
ENDBRANCH   1  18
TORSDOF 12
ENDMDL
MODEL 3
REMARK VINA RESULT: -7.810117186      2.225      3.101
REMARK  12 active torsions:
REMARK  status: ('A' for Active; 'I' for Inactive)
REMARK    1  A    between atoms: C2_2  and  N1_3 
REMARK    2  A    between atoms: N1_3  and  C3_5 
REMARK    3  A    between atoms: C3_5  and  C5_7 
REMARK       I    between atoms: C5_7  and  N2_9 
REMARK    4  A    between atoms: N2_9  and  C6_11 
REMARK    5  A    between atoms: C6_11  and  C7_12 
REMARK    6  A    between atoms: C6_11  and  C17_29 
REMARK    7  A    between atoms: C7_12  and  O3_14 
REMARK    8  A    between atoms: O3_14  and  C8_15 
REMARK    9  A    between atoms: C8_15  and  C9_16 
REMARK   10  A    between atoms: C9_16  and  N3_18 
REMARK   11  A    between atoms: N3_18  and  C10_20 
REMARK   12  A    between atoms: C15_26  and  O4_27 
ROOT
HETATM    1  C7  UNL     1      13.547   0.354  54.654  1.00  0.00     0.282 C 
HETATM    2  O2  UNL     1      12.671   0.748  55.465  1.00  0.00    -0.263 OA
ENDROOT
BRANCH   1   3
HETATM    3  C6  UNL     1      14.317   1.222  53.770  1.00  0.00     0.191 C 
BRANCH   3   4
HETATM    4  N2  UNL     1      13.658   2.528  53.601  1.00  0.00    -0.345 N 
HETATM    5  C5  UNL     1      13.042   2.935  52.400  1.00  0.00     0.240 C 
HETATM    6  O1  UNL     1      13.040   2.169  51.406  1.00  0.00    -0.271 OA
ATOM      7  H2  UNL     1      13.647   3.170  54.393  1.00  0.00     0.163 HD
BRANCH   5   8
HETATM    8  C3  UNL     1      12.395   4.251  52.287  1.00  0.00     0.165 C 
HETATM    9  C4  UNL     1      10.936   4.171  51.952  1.00  0.00     0.042 C 
BRANCH   8  10
HETATM   10  N1  UNL     1      12.717   5.147  53.349  1.00  0.00    -0.410 N 
ATOM     11  H1  UNL     1      12.306   5.058  54.278  1.00  0.00     0.154 HD
BRANCH  10  12
HETATM   12  C2  UNL     1      13.649   6.176  53.028  1.00  0.00     0.110 C 
HETATM   13  C1  UNL     1      14.699   6.359  54.121  1.00  0.00     0.026 C 
ENDBRANCH  10  12
ENDBRANCH   8  10
ENDBRANCH   5   8
ENDBRANCH   3   4
BRANCH   3  14
HETATM   14  C17 UNL     1      15.733   1.462  54.222  1.00  0.00    -0.022 C 
HETATM   15  C18 UNL     1      16.173   2.894  54.089  1.00  0.00     0.017 C 
HETATM   16  C19 UNL     1      16.606   0.691  53.208  1.00  0.00     0.017 C 
HETATM   17  C20 UNL     1      16.001   0.859  55.555  1.00  0.00     0.017 C 
ENDBRANCH   3  14
ENDBRANCH   1   3
BRANCH   1  18
HETATM   18  O3  UNL     1      13.775  -1.021  54.624  1.00  0.00    -0.313 OA
BRANCH  18  19
HETATM   19  C8  UNL     1      13.062  -1.818  53.628  1.00  0.00     0.248 C 
BRANCH  19  20
HETATM   20  C9  UNL     1      13.744  -1.738  52.332  1.00  0.00     0.102 C 
HETATM   21  S1  UNL     1      15.095  -2.746  52.116  1.00  0.00    -0.063 SA
BRANCH  20  22
HETATM   22  N3  UNL     1      13.466  -0.949  51.219  1.00  0.00    -0.347 N 
ATOM     23  H3  UNL     1      13.721   0.037  51.298  1.00  0.00     0.167 HD
BRANCH  22  24
HETATM   24  C10 UNL     1      12.881  -1.334  49.999  1.00  0.00     0.068 A 
HETATM   25  C11 UNL     1      11.608  -1.781  49.789  1.00  0.00     0.051 A 
HETATM   26  C12 UNL     1      11.113  -2.115  48.517  1.00  0.00     0.013 A 
HETATM   27 BR1  UNL     1       9.319  -2.728  48.336  1.00  0.00    -0.051 Br
HETATM   28  C13 UNL     1      11.937  -1.988  47.449  1.00  0.00     0.022 A 
HETATM   29  C14 UNL     1      13.210  -1.545  47.619  1.00  0.00     0.040 A 
HETATM   30  C15 UNL     1      13.706  -1.216  48.852  1.00  0.00     0.095 A 
BRANCH  30  31
HETATM   31  O4  UNL     1      14.996  -0.768  49.021  1.00  0.00    -0.354 OA
HETATM   32  C16 UNL     1      15.394   0.464  48.470  1.00  0.00     0.210 C 
ENDBRANCH  30  31
ENDBRANCH  22  24
ENDBRANCH  20  22
ENDBRANCH  19  20
ENDBRANCH  18  19
ENDBRANCH   1  18
TORSDOF 12
ENDMDL
MODEL 4
REMARK VINA RESULT: -7.711605242      1.928      2.355
REMARK  12 active torsions:
REMARK  status: ('A' for Active; 'I' for Inactive)
REMARK    1  A    between atoms: C2_2  and  N1_3 
REMARK    2  A    between atoms: N1_3  and  C3_5 
REMARK    3  A    between atoms: C3_5  and  C5_7 
REMARK       I    between atoms: C5_7  and  N2_9 
REMARK    4  A    between atoms: N2_9  and  C6_11 
REMARK    5  A    between atoms: C6_11  and  C7_12 
REMARK    6  A    between atoms: C6_11  and  C17_29 
REMARK    7  A    between atoms: C7_12  and  O3_14 
REMARK    8  A    between atoms: O3_14  and  C8_15 
REMARK    9  A    between atoms: C8_15  and  C9_16 
REMARK   10  A    between atoms: C9_16  and  N3_18 
REMARK   11  A    between atoms: N3_18  and  C10_20 
REMARK   12  A    between atoms: C15_26  and  O4_27 
ROOT
HETATM    1  C7  UNL     1      13.497   0.310  54.195  1.00  0.00     0.282 C 
HETATM    2  O2  UNL     1      12.846   0.528  55.247  1.00  0.00    -0.263 OA
ENDROOT
BRANCH   1   3
HETATM    3  C6  UNL     1      14.332   1.292  53.510  1.00  0.00     0.191 C 
BRANCH   3   4
HETATM    4  N2  UNL     1      13.743   2.639  53.593  1.00  0.00    -0.345 N 
HETATM    5  C5  UNL     1      13.214   3.323  52.479  1.00  0.00     0.240 C 
HETATM    6  O1  UNL     1      13.231   2.784  51.347  1.00  0.00    -0.271 OA
ATOM      7  H2  UNL     1      13.718   3.101  54.502  1.00  0.00     0.163 HD
BRANCH   5   8
HETATM    8  C3  UNL     1      12.634   4.668  52.620  1.00  0.00     0.165 C 
HETATM    9  C4  UNL     1      11.187   4.737  52.236  1.00  0.00     0.042 C 
BRANCH   8  10
HETATM   10  N1  UNL     1      12.958   5.311  53.851  1.00  0.00    -0.410 N 
ATOM     11  H1  UNL     1      12.674   4.931  54.754  1.00  0.00     0.154 HD
BRANCH  10  12
HETATM   12  C2  UNL     1      13.704   6.520  53.739  1.00  0.00     0.110 C 
HETATM   13  C1  UNL     1      15.169   6.327  54.126  1.00  0.00     0.026 C 
ENDBRANCH  10  12
ENDBRANCH   8  10
ENDBRANCH   5   8
ENDBRANCH   3   4
BRANCH   3  14
HETATM   14  C17 UNL     1      15.746   1.362  54.020  1.00  0.00    -0.022 C 
HETATM   15  C18 UNL     1      16.235   2.765  54.251  1.00  0.00     0.017 C 
HETATM   16  C19 UNL     1      16.612   0.834  52.855  1.00  0.00     0.017 C 
HETATM   17  C20 UNL     1      15.970   0.438  55.165  1.00  0.00     0.017 C 
ENDBRANCH   3  14
ENDBRANCH   1   3
BRANCH   1  18
HETATM   18  O3  UNL     1      13.394  -0.977  53.669  1.00  0.00    -0.313 OA
BRANCH  18  19
HETATM   19  C8  UNL     1      12.883  -1.128  52.308  1.00  0.00     0.248 C 
BRANCH  19  20
HETATM   20  C9  UNL     1      13.803  -1.944  51.510  1.00  0.00     0.102 C 
HETATM   21  S1  UNL     1      15.129  -2.624  52.329  1.00  0.00    -0.063 SA
BRANCH  20  22
HETATM   22  N3  UNL     1      13.776  -2.262  50.155  1.00  0.00    -0.347 N 
ATOM     23  H3  UNL     1      14.609  -2.007  49.622  1.00  0.00     0.167 HD
BRANCH  22  24
HETATM   24  C10 UNL     1      12.750  -2.890  49.424  1.00  0.00     0.068 A 
HETATM   25  C11 UNL     1      11.593  -2.331  48.962  1.00  0.00     0.051 A 
HETATM   26  C12 UNL     1      10.642  -3.046  48.214  1.00  0.00     0.013 A 
HETATM   27 BR1  UNL     1       9.062  -2.168  47.616  1.00  0.00    -0.051 Br
HETATM   28  C13 UNL     1      10.884  -4.351  47.939  1.00  0.00     0.022 A 
HETATM   29  C14 UNL     1      12.025  -4.941  48.382  1.00  0.00     0.040 A 
HETATM   30  C15 UNL     1      12.961  -4.258  49.111  1.00  0.00     0.095 A 
BRANCH  30  31
HETATM   31  O4  UNL     1      14.114  -4.857  49.559  1.00  0.00    -0.354 OA
HETATM   32  C16 UNL     1      14.048  -5.900  50.502  1.00  0.00     0.210 C 
ENDBRANCH  30  31
ENDBRANCH  22  24
ENDBRANCH  20  22
ENDBRANCH  19  20
ENDBRANCH  18  19
ENDBRANCH   1  18
TORSDOF 12
ENDMDL
MODEL 5
REMARK VINA RESULT: -7.677412534      2.118      4.493
REMARK  12 active torsions:
REMARK  status: ('A' for Active; 'I' for Inactive)
REMARK    1  A    between atoms: C2_2  and  N1_3 
REMARK    2  A    between atoms: N1_3  and  C3_5 
REMARK    3  A    between atoms: C3_5  and  C5_7 
REMARK       I    between atoms: C5_7  and  N2_9 
REMARK    4  A    between atoms: N2_9  and  C6_11 
REMARK    5  A    between atoms: C6_11  and  C7_12 
REMARK    6  A    between atoms: C6_11  and  C17_29 
REMARK    7  A    between atoms: C7_12  and  O3_14 
REMARK    8  A    between atoms: O3_14  and  C8_15 
REMARK    9  A    between atoms: C8_15  and  C9_16 
REMARK   10  A    between atoms: C9_16  and  N3_18 
REMARK   11  A    between atoms: N3_18  and  C10_20 
REMARK   12  A    between atoms: C15_26  and  O4_27 
ROOT
HETATM    1  C7  UNL     1      13.888   1.412  52.021  1.00  0.00     0.282 C 
HETATM    2  O2  UNL     1      12.881   2.090  51.693  1.00  0.00    -0.263 OA
ENDROOT
BRANCH   1   3
HETATM    3  C6  UNL     1      14.436   1.329  53.370  1.00  0.00     0.191 C 
BRANCH   3   4
HETATM    4  N2  UNL     1      14.762  -0.062  53.727  1.00  0.00    -0.345 N 
HETATM    5  C5  UNL     1      13.841  -0.942  54.332  1.00  0.00     0.240 C 
HETATM    6  O1  UNL     1      12.679  -0.551  54.593  1.00  0.00    -0.271 OA
ATOM      7  H2  UNL     1      15.701  -0.406  53.527  1.00  0.00     0.163 HD
BRANCH   5   8
HETATM    8  C3  UNL     1      14.220  -2.325  54.665  1.00  0.00     0.165 C 
HETATM    9  C4  UNL     1      15.642  -2.461  55.118  1.00  0.00     0.042 C 
BRANCH   8  10
HETATM   10  N1  UNL     1      13.266  -3.006  55.476  1.00  0.00    -0.410 N 
ATOM     11  H1  UNL     1      12.805  -2.557  56.267  1.00  0.00     0.154 HD
BRANCH  10  12
HETATM   12  C2  UNL     1      12.996  -4.357  55.110  1.00  0.00     0.110 C 
HETATM   13  C1  UNL     1      11.949  -4.453  54.003  1.00  0.00     0.026 C 
ENDBRANCH  10  12
ENDBRANCH   8  10
ENDBRANCH   5   8
ENDBRANCH   3   4
BRANCH   3  14
HETATM   14  C17 UNL     1      15.663   2.173  53.590  1.00  0.00    -0.022 C 
HETATM   15  C18 UNL     1      16.814   1.807  52.695  1.00  0.00     0.017 C 
HETATM   16  C19 UNL     1      16.143   1.806  55.012  1.00  0.00     0.017 C 
HETATM   17  C20 UNL     1      15.342   3.625  53.614  1.00  0.00     0.017 C 
ENDBRANCH   3  14
ENDBRANCH   1   3
BRANCH   1  18
HETATM   18  O3  UNL     1      14.502   0.698  50.994  1.00  0.00    -0.313 OA
BRANCH  18  19
HETATM   19  C8  UNL     1      13.748  -0.379  50.354  1.00  0.00     0.248 C 
BRANCH  19  20
HETATM   20  C9  UNL     1      14.200  -0.562  48.972  1.00  0.00     0.102 C 
HETATM   21  S1  UNL     1      15.322   0.568  48.379  1.00  0.00    -0.063 SA
BRANCH  20  22
HETATM   22  N3  UNL     1      13.851  -1.531  48.034  1.00  0.00    -0.347 N 
ATOM     23  H3  UNL     1      14.551  -1.727  47.317  1.00  0.00     0.167 HD
BRANCH  22  24
HETATM   24  C10 UNL     1      12.659  -2.274  47.946  1.00  0.00     0.068 A 
HETATM   25  C11 UNL     1      11.463  -1.873  47.423  1.00  0.00     0.051 A 
HETATM   26  C12 UNL     1      10.336  -2.709  47.360  1.00  0.00     0.013 A 
HETATM   27 BR1  UNL     1       8.716  -2.049  46.607  1.00  0.00    -0.051 Br
HETATM   28  C13 UNL     1      10.439  -3.971  47.841  1.00  0.00     0.022 A 
HETATM   29  C14 UNL     1      11.614  -4.406  48.368  1.00  0.00     0.040 A 
HETATM   30  C15 UNL     1      12.721  -3.603  48.437  1.00  0.00     0.095 A 
BRANCH  30  31
HETATM   31  O4  UNL     1      13.908  -4.045  48.972  1.00  0.00    -0.354 OA
HETATM   32  C16 UNL     1      13.964  -4.467  50.313  1.00  0.00     0.210 C 
ENDBRANCH  30  31
ENDBRANCH  22  24
ENDBRANCH  20  22
ENDBRANCH  19  20
ENDBRANCH  18  19
ENDBRANCH   1  18
TORSDOF 12
ENDMDL
