MODEL 1
REMARK VINA RESULT: -9.068567251      0.000      0.000
REMARK  11 active torsions:
REMARK  status: ('A' for Active; 'I' for Inactive)
REMARK    1  A    between atoms: C1_4  and  O1_5 
REMARK    2  A    between atoms: C1_4  and  C2_7 
REMARK    3  A    between atoms: C2_7  and  C3_8 
REMARK    4  A    between atoms: C3_8  and  C4_9 
REMARK    5  A    between atoms: C4_9  and  C5_10 
REMARK    6  A    between atoms: C5_10  and  C6_11 
REMARK    7  A    between atoms: C6_11  and  C7_12 
REMARK    8  A    between atoms: C7_12  and  C8_13 
REMARK    9  A    between atoms: C8_13  and  C9_14 
REMARK   10  A    between atoms: C9_14  and  C10_15 
REMARK       I    between atoms: C10_15  and  N2_17 
REMARK   11  A    between atoms: N2_17  and  C11_19 
ROOT
HETATM    1  C7  UNL     1     -47.629 111.427 -40.315  1.00  0.00     0.000 C 
ENDROOT
BRANCH   1   2
HETATM    2  C6  UNL     1     -49.119 111.676 -40.337  1.00  0.00     0.000 C 
BRANCH   2   3
HETATM    3  C5  UNL     1     -49.406 113.030 -40.929  1.00  0.00     0.000 C 
BRANCH   3   4
HETATM    4  C4  UNL     1     -50.570 113.029 -41.862  1.00  0.00     0.000 C 
BRANCH   4   5
HETATM    5  C3  UNL     1     -50.168 112.848 -43.307  1.00  0.00     0.008 C 
BRANCH   5   6
HETATM    6  C2  UNL     1     -51.447 112.891 -44.132  1.00  0.00     0.083 C 
BRANCH   6   7
HETATM    7  C1  UNL     1     -51.237 112.394 -45.509  1.00  0.00     0.108 C 
HETATM    8  N1  UNL     1     -51.406 111.141 -45.741  1.00  0.00    -0.384 N 
ATOM      9  H12 UNL     1     -51.261 110.799 -46.690  1.00  0.00     0.157 HD
ATOM     10  H11 UNL     1     -51.679 110.541 -44.963  1.00  0.00     0.157 HD
BRANCH   7  11
HETATM   11  O1  UNL     1     -50.871 113.201 -46.556  1.00  0.00    -0.350 OA
ATOM     12  H1  UNL     1     -49.964 113.480 -46.609  1.00  0.00     0.219 HD
ENDBRANCH   7  11
ENDBRANCH   6   7
ENDBRANCH   5   6
ENDBRANCH   4   5
ENDBRANCH   3   4
ENDBRANCH   2   3
ENDBRANCH   1   2
BRANCH   1  13
HETATM   13  C8  UNL     1     -47.062 111.517 -38.919  1.00  0.00     0.009 C 
BRANCH  13  14
HETATM   14  C9  UNL     1     -46.094 110.388 -38.738  1.00  0.00     0.103 C 
BRANCH  14  15
HETATM   15  C10 UNL     1     -45.016 110.697 -37.786  1.00  0.00     0.217 C 
HETATM   16  O2  UNL     1     -44.532 109.762 -37.107  1.00  0.00    -0.274 OA
HETATM   17  N2  UNL     1     -44.496 111.999 -37.592  1.00  0.00    -0.356 N 
ATOM     18  H2  UNL     1     -44.898 112.754 -38.147  1.00  0.00     0.162 HD
BRANCH  17  19
HETATM   19  C11 UNL     1     -43.454 112.334 -36.678  1.00  0.00     0.084 C 
HETATM   20  C12 UNL     1     -44.018 112.914 -35.387  1.00  0.00     0.025 C 
HETATM   21  C13 UNL     1     -42.940 113.667 -34.630  1.00  0.00     0.002 C 
HETATM   22  C14 UNL     1     -41.623 112.960 -34.910  1.00  0.00     0.000 C 
HETATM   23  C15 UNL     1     -41.232 113.318 -36.334  1.00  0.00     0.002 C 
HETATM   24  C16 UNL     1     -42.450 113.305 -37.232  1.00  0.00     0.025 C 
ENDBRANCH  17  19
ENDBRANCH  14  15
ENDBRANCH  13  14
ENDBRANCH   1  13
TORSDOF 11
ENDMDL
MODEL 2
REMARK VINA RESULT: -8.988514572      1.532      2.328
REMARK  11 active torsions:
REMARK  status: ('A' for Active; 'I' for Inactive)
REMARK    1  A    between atoms: C1_4  and  O1_5 
REMARK    2  A    between atoms: C1_4  and  C2_7 
REMARK    3  A    between atoms: C2_7  and  C3_8 
REMARK    4  A    between atoms: C3_8  and  C4_9 
REMARK    5  A    between atoms: C4_9  and  C5_10 
REMARK    6  A    between atoms: C5_10  and  C6_11 
REMARK    7  A    between atoms: C6_11  and  C7_12 
REMARK    8  A    between atoms: C7_12  and  C8_13 
REMARK    9  A    between atoms: C8_13  and  C9_14 
REMARK   10  A    between atoms: C9_14  and  C10_15 
REMARK       I    between atoms: C10_15  and  N2_17 
REMARK   11  A    between atoms: N2_17  and  C11_19 
ROOT
HETATM    1  C7  UNL     1     -46.520 110.368 -39.065  1.00  0.00     0.000 C 
ENDROOT
BRANCH   1   2
HETATM    2  C6  UNL     1     -47.065 111.772 -38.937  1.00  0.00     0.000 C 
BRANCH   2   3
HETATM    3  C5  UNL     1     -48.202 111.973 -39.903  1.00  0.00     0.000 C 
BRANCH   3   4
HETATM    4  C4  UNL     1     -48.941 113.250 -39.682  1.00  0.00     0.000 C 
BRANCH   4   5
HETATM    5  C3  UNL     1     -49.871 113.598 -40.822  1.00  0.00     0.008 C 
BRANCH   5   6
HETATM    6  C2  UNL     1     -49.634 112.567 -41.917  1.00  0.00     0.083 C 
BRANCH   6   7
HETATM    7  C1  UNL     1     -50.651 112.649 -42.987  1.00  0.00     0.108 C 
HETATM    8  N1  UNL     1     -50.278 112.461 -44.203  1.00  0.00    -0.384 N 
ATOM      9  H12 UNL     1     -50.979 112.518 -44.941  1.00  0.00     0.157 HD
ATOM     10  H11 UNL     1     -49.293 112.262 -44.378  1.00  0.00     0.157 HD
BRANCH   7  11
HETATM   11  O1  UNL     1     -51.976 112.917 -42.751  1.00  0.00    -0.350 OA
ATOM     12  H1  UNL     1     -52.258 113.824 -42.768  1.00  0.00     0.219 HD
ENDBRANCH   7  11
ENDBRANCH   6   7
ENDBRANCH   5   6
ENDBRANCH   4   5
ENDBRANCH   3   4
ENDBRANCH   2   3
ENDBRANCH   1   2
BRANCH   1  13
HETATM   13  C8  UNL     1     -45.029 110.360 -39.301  1.00  0.00     0.009 C 
BRANCH  13  14
HETATM   14  C9  UNL     1     -44.368 109.832 -38.065  1.00  0.00     0.103 C 
BRANCH  14  15
HETATM   15  C10 UNL     1     -44.103 110.876 -37.062  1.00  0.00     0.217 C 
HETATM   16  O2  UNL     1     -44.706 110.817 -35.965  1.00  0.00    -0.274 OA
HETATM   17  N2  UNL     1     -43.203 111.947 -37.269  1.00  0.00    -0.356 N 
ATOM     18  H2  UNL     1     -42.718 111.988 -38.165  1.00  0.00     0.162 HD
BRANCH  17  19
HETATM   19  C11 UNL     1     -42.923 112.974 -36.320  1.00  0.00     0.084 C 
HETATM   20  C12 UNL     1     -42.223 114.157 -36.980  1.00  0.00     0.025 C 
HETATM   21  C13 UNL     1     -41.540 115.017 -35.932  1.00  0.00     0.002 C 
HETATM   22  C14 UNL     1     -42.386 114.940 -34.671  1.00  0.00     0.000 C 
HETATM   23  C15 UNL     1     -42.144 113.566 -34.069  1.00  0.00     0.002 C 
HETATM   24  C16 UNL     1     -42.085 112.518 -35.160  1.00  0.00     0.025 C 
ENDBRANCH  17  19
ENDBRANCH  14  15
ENDBRANCH  13  14
ENDBRANCH   1  13
TORSDOF 11
ENDMDL
MODEL 3
REMARK VINA RESULT: -8.817074497      3.605     10.050
REMARK  11 active torsions:
REMARK  status: ('A' for Active; 'I' for Inactive)
REMARK    1  A    between atoms: C1_4  and  O1_5 
REMARK    2  A    between atoms: C1_4  and  C2_7 
REMARK    3  A    between atoms: C2_7  and  C3_8 
REMARK    4  A    between atoms: C3_8  and  C4_9 
REMARK    5  A    between atoms: C4_9  and  C5_10 
REMARK    6  A    between atoms: C5_10  and  C6_11 
REMARK    7  A    between atoms: C6_11  and  C7_12 
REMARK    8  A    between atoms: C7_12  and  C8_13 
REMARK    9  A    between atoms: C8_13  and  C9_14 
REMARK   10  A    between atoms: C9_14  and  C10_15 
REMARK       I    between atoms: C10_15  and  N2_17 
REMARK   11  A    between atoms: N2_17  and  C11_19 
ROOT
HETATM    1  C7  UNL     1     -48.728 113.061 -39.552  1.00  0.00     0.000 C 
ENDROOT
BRANCH   1   2
HETATM    2  C6  UNL     1     -48.221 111.797 -40.207  1.00  0.00     0.000 C 
BRANCH   2   3
HETATM    3  C5  UNL     1     -47.265 111.088 -39.285  1.00  0.00     0.000 C 
BRANCH   3   4
HETATM    4  C4  UNL     1     -46.028 110.615 -39.973  1.00  0.00     0.000 C 
BRANCH   4   5
HETATM    5  C3  UNL     1     -45.077 109.893 -39.047  1.00  0.00     0.008 C 
BRANCH   5   6
HETATM    6  C2  UNL     1     -44.180 110.952 -38.420  1.00  0.00     0.083 C 
BRANCH   6   7
HETATM    7  C1  UNL     1     -44.469 111.147 -36.984  1.00  0.00     0.108 C 
HETATM    8  N1  UNL     1     -44.693 112.340 -36.560  1.00  0.00    -0.384 N 
ATOM      9  H12 UNL     1     -44.893 112.475 -35.570  1.00  0.00     0.157 HD
ATOM     10  H11 UNL     1     -44.662 113.104 -37.236  1.00  0.00     0.157 HD
BRANCH   7  11
HETATM   11  O1  UNL     1     -44.513 110.120 -36.076  1.00  0.00    -0.350 OA
ATOM     12  H1  UNL     1     -43.755 109.984 -35.519  1.00  0.00     0.219 HD
ENDBRANCH   7  11
ENDBRANCH   6   7
ENDBRANCH   5   6
ENDBRANCH   4   5
ENDBRANCH   3   4
ENDBRANCH   2   3
ENDBRANCH   1   2
BRANCH   1  13
HETATM   13  C8  UNL     1     -49.804 113.730 -40.372  1.00  0.00     0.009 C 
BRANCH  13  14
HETATM   14  C9  UNL     1     -50.580 112.660 -41.079  1.00  0.00     0.103 C 
BRANCH  14  15
HETATM   15  C10 UNL     1     -52.009 112.980 -41.219  1.00  0.00     0.217 C 
HETATM   16  O2  UNL     1     -52.605 112.608 -42.256  1.00  0.00    -0.274 OA
HETATM   17  N2  UNL     1     -52.749 113.691 -40.245  1.00  0.00    -0.356 N 
ATOM     18  H2  UNL     1     -52.255 113.992 -39.405  1.00  0.00     0.162 HD
BRANCH  17  19
HETATM   19  C11 UNL     1     -54.133 114.018 -40.349  1.00  0.00     0.084 C 
HETATM   20  C12 UNL     1     -54.335 115.524 -40.464  1.00  0.00     0.025 C 
HETATM   21  C13 UNL     1     -55.768 115.892 -40.125  1.00  0.00     0.002 C 
HETATM   22  C14 UNL     1     -56.644 114.734 -40.576  1.00  0.00     0.000 C 
HETATM   23  C15 UNL     1     -56.427 113.610 -39.577  1.00  0.00     0.002 C 
HETATM   24  C16 UNL     1     -54.963 113.517 -39.202  1.00  0.00     0.025 C 
ENDBRANCH  17  19
ENDBRANCH  14  15
ENDBRANCH  13  14
ENDBRANCH   1  13
TORSDOF 11
ENDMDL
MODEL 4
REMARK VINA RESULT: -8.755474408      4.175     10.298
REMARK  11 active torsions:
REMARK  status: ('A' for Active; 'I' for Inactive)
REMARK    1  A    between atoms: C1_4  and  O1_5 
REMARK    2  A    between atoms: C1_4  and  C2_7 
REMARK    3  A    between atoms: C2_7  and  C3_8 
REMARK    4  A    between atoms: C3_8  and  C4_9 
REMARK    5  A    between atoms: C4_9  and  C5_10 
REMARK    6  A    between atoms: C5_10  and  C6_11 
REMARK    7  A    between atoms: C6_11  and  C7_12 
REMARK    8  A    between atoms: C7_12  and  C8_13 
REMARK    9  A    between atoms: C8_13  and  C9_14 
REMARK   10  A    between atoms: C9_14  and  C10_15 
REMARK       I    between atoms: C10_15  and  N2_17 
REMARK   11  A    between atoms: N2_17  and  C11_19 
ROOT
HETATM    1  C7  UNL     1     -49.221 113.181 -40.689  1.00  0.00     0.000 C 
ENDROOT
BRANCH   1   2
HETATM    2  C6  UNL     1     -48.402 112.686 -39.520  1.00  0.00     0.000 C 
BRANCH   2   3
HETATM    3  C5  UNL     1     -47.694 111.411 -39.891  1.00  0.00     0.000 C 
BRANCH   3   4
HETATM    4  C4  UNL     1     -46.660 111.002 -38.895  1.00  0.00     0.000 C 
BRANCH   4   5
HETATM    5  C3  UNL     1     -45.456 110.345 -39.530  1.00  0.00     0.008 C 
BRANCH   5   6
HETATM    6  C2  UNL     1     -44.683 109.660 -38.411  1.00  0.00     0.083 C 
BRANCH   6   7
HETATM    7  C1  UNL     1     -44.189 110.624 -37.406  1.00  0.00     0.108 C 
HETATM    8  N1  UNL     1     -43.331 111.508 -37.774  1.00  0.00    -0.384 N 
ATOM      9  H12 UNL     1     -42.991 112.173 -37.080  1.00  0.00     0.157 HD
ATOM     10  H11 UNL     1     -43.027 111.507 -38.747  1.00  0.00     0.157 HD
BRANCH   7  11
HETATM   11  O1  UNL     1     -44.598 110.627 -36.096  1.00  0.00    -0.350 OA
ATOM     12  H1  UNL     1     -44.312 109.914 -35.537  1.00  0.00     0.219 HD
ENDBRANCH   7  11
ENDBRANCH   6   7
ENDBRANCH   5   6
ENDBRANCH   4   5
ENDBRANCH   3   4
ENDBRANCH   2   3
ENDBRANCH   1   2
BRANCH   1  13
HETATM   13  C8  UNL     1     -50.589 113.654 -40.260  1.00  0.00     0.009 C 
BRANCH  13  14
HETATM   14  C9  UNL     1     -51.611 112.875 -41.031  1.00  0.00     0.103 C 
BRANCH  14  15
HETATM   15  C10 UNL     1     -52.951 113.480 -40.987  1.00  0.00     0.217 C 
HETATM   16  O2  UNL     1     -53.679 113.394 -42.004  1.00  0.00    -0.274 OA
HETATM   17  N2  UNL     1     -53.465 114.159 -39.857  1.00  0.00    -0.356 N 
ATOM     18  H2  UNL     1     -52.865 114.226 -39.035  1.00  0.00     0.162 HD
BRANCH  17  19
HETATM   19  C11 UNL     1     -54.758 114.756 -39.781  1.00  0.00     0.084 C 
HETATM   20  C12 UNL     1     -54.725 116.203 -40.258  1.00  0.00     0.025 C 
HETATM   21  C13 UNL     1     -55.950 116.950 -39.765  1.00  0.00     0.002 C 
HETATM   22  C14 UNL     1     -57.092 115.947 -39.712  1.00  0.00     0.000 C 
HETATM   23  C15 UNL     1     -56.833 115.059 -38.507  1.00  0.00     0.002 C 
HETATM   24  C16 UNL     1     -55.360 114.727 -38.405  1.00  0.00     0.025 C 
ENDBRANCH  17  19
ENDBRANCH  14  15
ENDBRANCH  13  14
ENDBRANCH   1  13
TORSDOF 11
ENDMDL
MODEL 5
REMARK VINA RESULT: -8.705853272      5.891      9.108
REMARK  11 active torsions:
REMARK  status: ('A' for Active; 'I' for Inactive)
REMARK    1  A    between atoms: C1_4  and  O1_5 
REMARK    2  A    between atoms: C1_4  and  C2_7 
REMARK    3  A    between atoms: C2_7  and  C3_8 
REMARK    4  A    between atoms: C3_8  and  C4_9 
REMARK    5  A    between atoms: C4_9  and  C5_10 
REMARK    6  A    between atoms: C5_10  and  C6_11 
REMARK    7  A    between atoms: C6_11  and  C7_12 
REMARK    8  A    between atoms: C7_12  and  C8_13 
REMARK    9  A    between atoms: C8_13  and  C9_14 
REMARK   10  A    between atoms: C9_14  and  C10_15 
REMARK       I    between atoms: C10_15  and  N2_17 
REMARK   11  A    between atoms: N2_17  and  C11_19 
ROOT
HETATM    1  C7  UNL     1     -54.780 115.515 -40.700  1.00  0.00     0.000 C 
ENDROOT
BRANCH   1   2
HETATM    2  C6  UNL     1     -55.768 116.199 -39.785  1.00  0.00     0.000 C 
BRANCH   2   3
HETATM    3  C5  UNL     1     -57.089 115.480 -39.824  1.00  0.00     0.000 C 
BRANCH   3   4
HETATM    4  C4  UNL     1     -57.532 114.992 -38.485  1.00  0.00     0.000 C 
BRANCH   4   5
HETATM    5  C3  UNL     1     -56.386 114.794 -37.520  1.00  0.00     0.008 C 
BRANCH   5   6
HETATM    6  C2  UNL     1     -56.054 113.307 -37.525  1.00  0.00     0.083 C 
BRANCH   6   7
HETATM    7  C1  UNL     1     -55.506 112.856 -36.229  1.00  0.00     0.108 C 
HETATM    8  N1  UNL     1     -54.821 111.768 -36.198  1.00  0.00    -0.384 N 
ATOM      9  H12 UNL     1     -54.443 111.457 -35.303  1.00  0.00     0.157 HD
ATOM     10  H11 UNL     1     -54.685 111.262 -37.072  1.00  0.00     0.157 HD
BRANCH   7  11
HETATM   11  O1  UNL     1     -55.689 113.538 -35.052  1.00  0.00    -0.350 OA
ATOM     12  H1  UNL     1     -55.011 113.475 -34.389  1.00  0.00     0.219 HD
ENDBRANCH   7  11
ENDBRANCH   6   7
ENDBRANCH   5   6
ENDBRANCH   4   5
ENDBRANCH   3   4
ENDBRANCH   2   3
ENDBRANCH   1   2
BRANCH   1  13
HETATM   13  C8  UNL     1     -55.290 114.181 -41.187  1.00  0.00     0.009 C 
BRANCH  13  14
HETATM   14  C9  UNL     1     -54.453 113.764 -42.358  1.00  0.00     0.103 C 
BRANCH  14  15
HETATM   15  C10 UNL     1     -53.248 113.015 -41.967  1.00  0.00     0.217 C 
HETATM   16  O2  UNL     1     -53.251 111.769 -42.094  1.00  0.00    -0.274 OA
HETATM   17  N2  UNL     1     -52.081 113.628 -41.454  1.00  0.00    -0.356 N 
ATOM     18  H2  UNL     1     -52.087 114.643 -41.353  1.00  0.00     0.162 HD
BRANCH  17  19
HETATM   19  C11 UNL     1     -50.896 112.935 -41.066  1.00  0.00     0.084 C 
HETATM   20  C12 UNL     1     -50.174 113.664 -39.940  1.00  0.00     0.025 C 
HETATM   21  C13 UNL     1     -48.735 113.195 -39.843  1.00  0.00     0.002 C 
HETATM   22  C14 UNL     1     -48.715 111.730 -40.251  1.00  0.00     0.000 C 
HETATM   23  C15 UNL     1     -48.894 111.697 -41.760  1.00  0.00     0.002 C 
HETATM   24  C16 UNL     1     -49.922 112.720 -42.190  1.00  0.00     0.025 C 
ENDBRANCH  17  19
ENDBRANCH  14  15
ENDBRANCH  13  14
ENDBRANCH   1  13
TORSDOF 11
ENDMDL
