MODEL 1
REMARK VINA RESULT: -5.905387181      0.000      0.000
REMARK  8 active torsions:
REMARK  status: ('A' for Active; 'I' for Inactive)
REMARK    1  A    between atoms: C4_4  and  C5_5 
REMARK    2  A    between atoms: C5_5  and  N2_12 
REMARK    3  A    between atoms: N1_6  and  C6_8 
REMARK    4  A    between atoms: N2_12  and  C11_14 
REMARK    5  A    between atoms: C13_16  and  O1_17 
REMARK    6  A    between atoms: C14_19  and  C15_20 
REMARK    7  A    between atoms: C17_24  and  O4_25 
REMARK    8  A    between atoms: O4_25  and  C18_26 
ROOT
HETATM    1  C11 UNL     1      12.379  -8.092  -4.585  1.00  0.00     0.072 A 
HETATM    2  C12 UNL     1      11.910  -8.804  -5.659  1.00  0.00     0.070 A 
HETATM    3  C13 UNL     1      10.560  -9.049  -5.878  1.00  0.00     0.085 A 
HETATM    4  C14 UNL     1       9.646  -8.568  -4.993  1.00  0.00     0.076 A 
HETATM    5  C16 UNL     1      10.104  -7.847  -3.902  1.00  0.00     0.060 A 
HETATM    6  C17 UNL     1      11.438  -7.597  -3.674  1.00  0.00     0.097 A 
ENDROOT
BRANCH   1   7
HETATM    7  N2  UNL     1      13.760  -7.870  -4.438  1.00  0.00    -0.335 N 
HETATM    8  C10 UNL     1      14.525  -8.844  -3.688  1.00  0.00     0.158 C 
BRANCH   7   9
HETATM    9  C5  UNL     1      14.403  -6.786  -5.056  1.00  0.00     0.104 C 
HETATM   10  N1  UNL     1      15.681  -6.797  -4.928  1.00  0.00    -0.368 N 
ATOM     11  H1  UNL     1      16.016  -7.601  -4.398  1.00  0.00     0.161 HD
BRANCH   9  12
HETATM   12  C4  UNL     1      13.758  -5.741  -5.766  1.00  0.00     0.050 C 
HETATM   13  C2  UNL     1      13.429  -5.556  -7.001  1.00  0.00    -0.084 C 
HETATM   14  C1  UNL     1      13.631  -6.431  -8.165  1.00  0.00     0.043 C 
HETATM   15  C3  UNL     1      12.727  -4.243  -7.335  1.00  0.00     0.043 C 
ENDBRANCH   9  12
BRANCH  10  16
HETATM   16  C6  UNL     1      16.710  -5.968  -5.345  1.00  0.00     0.021 C 
HETATM   17  C7  UNL     1      17.969  -6.326  -4.522  1.00  0.00     0.037 C 
HETATM   18  C8  UNL     1      16.518  -4.491  -5.141  1.00  0.00     0.037 C 
HETATM   19  C9  UNL     1      17.084  -6.253  -6.787  1.00  0.00     0.037 C 
ENDBRANCH  10  16
ENDBRANCH   7   9
ENDBRANCH   1   7
BRANCH   6  20
HETATM   20  O4  UNL     1      11.826  -6.881  -2.576  1.00  0.00    -0.344 OA
BRANCH  20  21
HETATM   21  C18 UNL     1      11.780  -7.203  -1.238  1.00  0.00     0.120 C 
HETATM   22  C19 UNL     1      10.965  -6.147  -0.477  1.00  0.00     0.040 C 
HETATM   23  C20 UNL     1      13.167  -7.144  -0.594  1.00  0.00     0.040 C 
ENDBRANCH  20  21
ENDBRANCH   6  20
BRANCH   3  24
HETATM   24  O1  UNL     1      10.115  -9.772  -6.975  1.00  0.00    -0.360 OA
ATOM     25  H1  UNL     1       9.491  -9.411  -7.593  1.00  0.00     0.217 HD
ENDBRANCH   3  24
BRANCH   4  26
HETATM   26  C15 UNL     1       8.236  -8.817  -5.211  1.00  0.00     0.212 C 
HETATM   27  O2  UNL     1       7.542  -9.201  -4.242  1.00  0.00    -0.644 OA
HETATM   28  O3  UNL     1       7.640  -8.645  -6.441  1.00  0.00    -0.644 OA
ENDBRANCH   4  26
TORSDOF 8
ENDMDL
MODEL 2
REMARK VINA RESULT: -5.786383230      1.729      3.269
REMARK  8 active torsions:
REMARK  status: ('A' for Active; 'I' for Inactive)
REMARK    1  A    between atoms: C4_4  and  C5_5 
REMARK    2  A    between atoms: C5_5  and  N2_12 
REMARK    3  A    between atoms: N1_6  and  C6_8 
REMARK    4  A    between atoms: N2_12  and  C11_14 
REMARK    5  A    between atoms: C13_16  and  O1_17 
REMARK    6  A    between atoms: C14_19  and  C15_20 
REMARK    7  A    between atoms: C17_24  and  O4_25 
REMARK    8  A    between atoms: O4_25  and  C18_26 
ROOT
HETATM    1  C11 UNL     1      10.972  -7.973  -4.933  1.00  0.00     0.072 A 
HETATM    2  C12 UNL     1      10.209  -8.601  -5.883  1.00  0.00     0.070 A 
HETATM    3  C13 UNL     1       8.923  -9.069  -5.638  1.00  0.00     0.085 A 
HETATM    4  C14 UNL     1       8.382  -8.904  -4.402  1.00  0.00     0.076 A 
HETATM    5  C16 UNL     1       9.141  -8.271  -3.431  1.00  0.00     0.060 A 
HETATM    6  C17 UNL     1      10.415  -7.803  -3.661  1.00  0.00     0.097 A 
ENDROOT
BRANCH   1   7
HETATM    7  N2  UNL     1      12.260  -7.512  -5.260  1.00  0.00    -0.335 N 
HETATM    8  C10 UNL     1      12.376  -6.207  -5.875  1.00  0.00     0.158 C 
BRANCH   7   9
HETATM    9  C5  UNL     1      13.411  -8.248  -4.936  1.00  0.00     0.104 C 
HETATM   10  N1  UNL     1      13.782  -9.066  -5.855  1.00  0.00    -0.368 N 
ATOM     11  H1  UNL     1      13.174  -9.038  -6.674  1.00  0.00     0.161 HD
BRANCH   9  12
HETATM   12  C4  UNL     1      14.139  -8.149  -3.723  1.00  0.00     0.050 C 
HETATM   13  C2  UNL     1      14.980  -7.295  -3.240  1.00  0.00    -0.084 C 
HETATM   14  C1  UNL     1      15.498  -6.054  -3.833  1.00  0.00     0.043 C 
HETATM   15  C3  UNL     1      15.536  -7.591  -1.851  1.00  0.00     0.043 C 
ENDBRANCH   9  12
BRANCH  10  16
HETATM   16  C6  UNL     1      14.818  -9.976  -5.991  1.00  0.00     0.021 C 
HETATM   17  C7  UNL     1      14.496 -10.881  -7.202  1.00  0.00     0.037 C 
HETATM   18  C8  UNL     1      15.044 -10.923  -4.846  1.00  0.00     0.037 C 
HETATM   19  C9  UNL     1      16.112  -9.273  -6.353  1.00  0.00     0.037 C 
ENDBRANCH  10  16
ENDBRANCH   7   9
ENDBRANCH   1   7
BRANCH   6  20
HETATM   20  O4  UNL     1      11.114  -7.189  -2.659  1.00  0.00    -0.344 OA
BRANCH  20  21
HETATM   21  C18 UNL     1      10.904  -7.183  -1.297  1.00  0.00     0.120 C 
HETATM   22  C19 UNL     1      10.563  -5.761  -0.830  1.00  0.00     0.040 C 
HETATM   23  C20 UNL     1      12.179  -7.537  -0.528  1.00  0.00     0.040 C 
ENDBRANCH  20  21
ENDBRANCH   6  20
BRANCH   3  24
HETATM   24  O1  UNL     1       8.174  -9.701  -6.619  1.00  0.00    -0.360 OA
ATOM     25  H1  UNL     1       8.221 -10.639  -6.758  1.00  0.00     0.217 HD
ENDBRANCH   3  24
BRANCH   4  26
HETATM   26  C15 UNL     1       7.042  -9.386  -4.134  1.00  0.00     0.212 C 
HETATM   27  O2  UNL     1       6.901 -10.335  -3.328  1.00  0.00    -0.644 OA
HETATM   28  O3  UNL     1       5.930  -8.839  -4.734  1.00  0.00    -0.644 OA
ENDBRANCH   4  26
TORSDOF 8
ENDMDL
MODEL 3
REMARK VINA RESULT: -5.770524229      2.421      5.262
REMARK  8 active torsions:
REMARK  status: ('A' for Active; 'I' for Inactive)
REMARK    1  A    between atoms: C4_4  and  C5_5 
REMARK    2  A    between atoms: C5_5  and  N2_12 
REMARK    3  A    between atoms: N1_6  and  C6_8 
REMARK    4  A    between atoms: N2_12  and  C11_14 
REMARK    5  A    between atoms: C13_16  and  O1_17 
REMARK    6  A    between atoms: C14_19  and  C15_20 
REMARK    7  A    between atoms: C17_24  and  O4_25 
REMARK    8  A    between atoms: O4_25  and  C18_26 
ROOT
HETATM    1  C11 UNL     1      11.534  -6.864  -1.903  1.00  0.00     0.072 A 
HETATM    2  C12 UNL     1      11.945  -6.274  -0.736  1.00  0.00     0.070 A 
HETATM    3  C13 UNL     1      11.111  -5.495   0.057  1.00  0.00     0.085 A 
HETATM    4  C14 UNL     1       9.822  -5.297  -0.330  1.00  0.00     0.076 A 
HETATM    5  C16 UNL     1       9.391  -5.887  -1.507  1.00  0.00     0.060 A 
HETATM    6  C17 UNL     1      10.208  -6.661  -2.301  1.00  0.00     0.097 A 
ENDROOT
BRANCH   1   7
HETATM    7  N2  UNL     1      12.431  -7.653  -2.645  1.00  0.00    -0.335 N 
HETATM    8  C10 UNL     1      12.603  -9.035  -2.251  1.00  0.00     0.158 C 
BRANCH   7   9
HETATM    9  C5  UNL     1      13.089  -7.152  -3.780  1.00  0.00     0.104 C 
HETATM   10  N1  UNL     1      12.523  -7.465  -4.891  1.00  0.00    -0.368 N 
ATOM     11  H1  UNL     1      11.681  -8.026  -4.758  1.00  0.00     0.161 HD
BRANCH   9  12
HETATM   12  C4  UNL     1      14.274  -6.373  -3.770  1.00  0.00     0.050 C 
HETATM   13  C2  UNL     1      15.455  -6.530  -3.271  1.00  0.00    -0.084 C 
HETATM   14  C1  UNL     1      16.000  -7.650  -2.490  1.00  0.00     0.043 C 
HETATM   15  C3  UNL     1      16.455  -5.403  -3.509  1.00  0.00     0.043 C 
ENDBRANCH   9  12
BRANCH  10  16
HETATM   16  C6  UNL     1      12.792  -7.216  -6.226  1.00  0.00     0.021 C 
HETATM   17  C7  UNL     1      12.083  -8.306  -7.063  1.00  0.00     0.037 C 
HETATM   18  C8  UNL     1      14.232  -7.274  -6.653  1.00  0.00     0.037 C 
HETATM   19  C9  UNL     1      12.167  -5.907  -6.670  1.00  0.00     0.037 C 
ENDBRANCH  10  16
ENDBRANCH   7   9
ENDBRANCH   1   7
BRANCH   6  20
HETATM   20  O4  UNL     1       9.723  -7.212  -3.455  1.00  0.00    -0.344 OA
BRANCH  20  21
HETATM   21  C18 UNL     1       9.294  -8.494  -3.720  1.00  0.00     0.120 C 
HETATM   22  C19 UNL     1       8.923  -8.621  -5.204  1.00  0.00     0.040 C 
HETATM   23  C20 UNL     1       7.996  -8.819  -2.978  1.00  0.00     0.040 C 
ENDBRANCH  20  21
ENDBRANCH   6  20
BRANCH   3  24
HETATM   24  O1  UNL     1      11.555  -4.911   1.234  1.00  0.00    -0.360 OA
ATOM     25  H1  UNL     1      11.655  -5.412   2.035  1.00  0.00     0.217 HD
ENDBRANCH   3  24
BRANCH   4  26
HETATM   26  C15 UNL     1       8.943  -4.488   0.489  1.00  0.00     0.212 C 
HETATM   27  O2  UNL     1       9.039  -3.242   0.413  1.00  0.00    -0.644 OA
HETATM   28  O3  UNL     1       8.013  -5.042   1.340  1.00  0.00    -0.644 OA
ENDBRANCH   4  26
TORSDOF 8
ENDMDL
MODEL 4
REMARK VINA RESULT: -5.753688474      1.356      2.730
REMARK  8 active torsions:
REMARK  status: ('A' for Active; 'I' for Inactive)
REMARK    1  A    between atoms: C4_4  and  C5_5 
REMARK    2  A    between atoms: C5_5  and  N2_12 
REMARK    3  A    between atoms: N1_6  and  C6_8 
REMARK    4  A    between atoms: N2_12  and  C11_14 
REMARK    5  A    between atoms: C13_16  and  O1_17 
REMARK    6  A    between atoms: C14_19  and  C15_20 
REMARK    7  A    between atoms: C17_24  and  O4_25 
REMARK    8  A    between atoms: O4_25  and  C18_26 
ROOT
HETATM    1  C11 UNL     1      11.090  -7.528  -5.080  1.00  0.00     0.072 A 
HETATM    2  C12 UNL     1      10.246  -8.178  -5.945  1.00  0.00     0.070 A 
HETATM    3  C13 UNL     1       9.093  -8.834  -5.532  1.00  0.00     0.085 A 
HETATM    4  C14 UNL     1       8.771  -8.843  -4.211  1.00  0.00     0.076 A 
HETATM    5  C16 UNL     1       9.613  -8.191  -3.325  1.00  0.00     0.060 A 
HETATM    6  C17 UNL     1      10.758  -7.537  -3.721  1.00  0.00     0.097 A 
ENDROOT
BRANCH   1   7
HETATM    7  N2  UNL     1      12.232  -6.872  -5.573  1.00  0.00    -0.335 N 
HETATM    8  C10 UNL     1      12.035  -5.784  -6.508  1.00  0.00     0.158 C 
BRANCH   7   9
HETATM    9  C5  UNL     1      13.521  -7.198  -5.125  1.00  0.00     0.104 C 
HETATM   10  N1  UNL     1      14.368  -6.238  -5.230  1.00  0.00    -0.368 N 
ATOM     11  H1  UNL     1      13.955  -5.391  -5.621  1.00  0.00     0.161 HD
BRANCH   9  12
HETATM   12  C4  UNL     1      13.918  -8.455  -4.600  1.00  0.00     0.050 C 
HETATM   13  C2  UNL     1      14.225  -9.596  -5.122  1.00  0.00    -0.084 C 
HETATM   14  C1  UNL     1      14.264 -10.000  -6.535  1.00  0.00     0.043 C 
HETATM   15  C3  UNL     1      14.605 -10.712  -4.153  1.00  0.00     0.043 C 
ENDBRANCH   9  12
BRANCH  10  16
HETATM   16  C6  UNL     1      15.713  -6.087  -4.934  1.00  0.00     0.021 C 
HETATM   17  C7  UNL     1      16.137  -4.666  -5.375  1.00  0.00     0.037 C 
HETATM   18  C8  UNL     1      16.671  -7.012  -5.631  1.00  0.00     0.037 C 
HETATM   19  C9  UNL     1      15.945  -6.123  -3.436  1.00  0.00     0.037 C 
ENDBRANCH  10  16
ENDBRANCH   7   9
ENDBRANCH   1   7
BRANCH   6  20
HETATM   20  O4  UNL     1      11.550  -6.915  -2.796  1.00  0.00    -0.344 OA
BRANCH  20  21
HETATM   21  C18 UNL     1      11.758  -7.197  -1.464  1.00  0.00     0.120 C 
HETATM   22  C19 UNL     1      10.998  -6.187  -0.593  1.00  0.00     0.040 C 
HETATM   23  C20 UNL     1      13.224  -7.008  -1.069  1.00  0.00     0.040 C 
ENDBRANCH  20  21
ENDBRANCH   6  20
BRANCH   3  24
HETATM   24  O1  UNL     1       8.259  -9.483  -6.430  1.00  0.00    -0.360 OA
ATOM     25  H1  UNL     1       8.521 -10.283  -6.869  1.00  0.00     0.217 HD
ENDBRANCH   3  24
BRANCH   4  26
HETATM   26  C15 UNL     1       7.571  -9.523  -3.769  1.00  0.00     0.212 C 
HETATM   27  O2  UNL     1       6.460  -9.048  -4.103  1.00  0.00    -0.644 OA
HETATM   28  O3  UNL     1       7.612 -10.664  -3.000  1.00  0.00    -0.644 OA
ENDBRANCH   4  26
TORSDOF 8
ENDMDL
MODEL 5
REMARK VINA RESULT: -5.679287789      2.319      4.345
REMARK  8 active torsions:
REMARK  status: ('A' for Active; 'I' for Inactive)
REMARK    1  A    between atoms: C4_4  and  C5_5 
REMARK    2  A    between atoms: C5_5  and  N2_12 
REMARK    3  A    between atoms: N1_6  and  C6_8 
REMARK    4  A    between atoms: N2_12  and  C11_14 
REMARK    5  A    between atoms: C13_16  and  O1_17 
REMARK    6  A    between atoms: C14_19  and  C15_20 
REMARK    7  A    between atoms: C17_24  and  O4_25 
REMARK    8  A    between atoms: O4_25  and  C18_26 
ROOT
HETATM    1  C11 UNL     1      11.665  -8.173  -4.897  1.00  0.00     0.072 A 
HETATM    2  C12 UNL     1      10.511  -7.680  -4.345  1.00  0.00     0.070 A 
HETATM    3  C13 UNL     1      10.401  -7.322  -3.007  1.00  0.00     0.085 A 
HETATM    4  C14 UNL     1      11.479  -7.462  -2.191  1.00  0.00     0.076 A 
HETATM    5  C16 UNL     1      12.653  -7.960  -2.734  1.00  0.00     0.060 A 
HETATM    6  C17 UNL     1      12.775  -8.318  -4.057  1.00  0.00     0.097 A 
ENDROOT
BRANCH   1   7
HETATM    7  N2  UNL     1      11.707  -8.499  -6.264  1.00  0.00    -0.335 N 
HETATM    8  C10 UNL     1      10.705  -9.413  -6.773  1.00  0.00     0.158 C 
BRANCH   7   9
HETATM    9  C5  UNL     1      12.635  -7.908  -7.136  1.00  0.00     0.104 C 
HETATM   10  N1  UNL     1      13.456  -8.741  -7.666  1.00  0.00    -0.368 N 
ATOM     11  H1  UNL     1      13.291  -9.702  -7.365  1.00  0.00     0.161 HD
BRANCH   9  12
HETATM   12  C4  UNL     1      12.715  -6.525  -7.441  1.00  0.00     0.050 C 
HETATM   13  C2  UNL     1      13.343  -5.520  -6.925  1.00  0.00    -0.084 C 
HETATM   14  C1  UNL     1      14.246  -5.476  -5.766  1.00  0.00     0.043 C 
HETATM   15  C3  UNL     1      13.135  -4.165  -7.594  1.00  0.00     0.043 C 
ENDBRANCH   9  12
BRANCH  10  16
HETATM   16  C6  UNL     1      14.515  -8.637  -8.554  1.00  0.00     0.021 C 
HETATM   17  C7  UNL     1      14.892 -10.066  -9.010  1.00  0.00     0.037 C 
HETATM   18  C8  UNL     1      15.792  -8.049  -8.023  1.00  0.00     0.037 C 
HETATM   19  C9  UNL     1      14.092  -7.915  -9.819  1.00  0.00     0.037 C 
ENDBRANCH  10  16
ENDBRANCH   7   9
ENDBRANCH   1   7
BRANCH   6  20
HETATM   20  O4  UNL     1      13.961  -8.806  -4.531  1.00  0.00    -0.344 OA
BRANCH  20  21
HETATM   21  C18 UNL     1      14.825  -9.734  -3.991  1.00  0.00     0.120 C 
HETATM   22  C19 UNL     1      16.202  -9.092  -3.766  1.00  0.00     0.040 C 
HETATM   23  C20 UNL     1      15.099 -10.883  -4.963  1.00  0.00     0.040 C 
ENDBRANCH  20  21
ENDBRANCH   6  20
BRANCH   3  24
HETATM   24  O1  UNL     1       9.220  -6.824  -2.477  1.00  0.00    -0.360 OA
ATOM     25  H1  UNL     1       9.103  -6.700  -1.542  1.00  0.00     0.217 HD
ENDBRANCH   3  24
BRANCH   4  26
HETATM   26  C15 UNL     1      11.377  -7.092  -0.795  1.00  0.00     0.212 C 
HETATM   27  O2  UNL     1      11.860  -7.865   0.064  1.00  0.00    -0.644 OA
HETATM   28  O3  UNL     1      10.769  -5.926  -0.386  1.00  0.00    -0.644 OA
ENDBRANCH   4  26
TORSDOF 8
ENDMDL
