MODEL 1
REMARK VINA RESULT: -8.111687054      0.000      0.000
REMARK  5 active torsions:
REMARK  status: ('A' for Active; 'I' for Inactive)
REMARK    1  A    between atoms: C2_2  and  C3_3 
REMARK    2  A    between atoms: C3_3  and  C4_4 
REMARK    3  A    between atoms: C6_13  and  C7_14 
REMARK    4  A    between atoms: C14_21  and  N4_22 
REMARK    5  A    between atoms: C15_24  and  C16_25 
ROOT
HETATM    1  C4  UNL     1       8.964  -8.060  -3.398  1.00  0.00     0.053 A 
HETATM    2  N1  UNL     1       7.843  -8.217  -2.616  1.00  0.00    -0.301 N 
ATOM      3  H1  UNL     1       7.878  -7.818  -1.678  1.00  0.00     0.186 HD
HETATM    4  N2  UNL     1       6.760  -8.813  -2.949  1.00  0.00    -0.277 N 
ATOM      5  H2  UNL     1       5.981  -8.875  -2.294  1.00  0.00     0.189 HD
HETATM    6  C5  UNL     1       6.666  -9.354  -4.172  1.00  0.00     0.199 A 
HETATM    7  O1  UNL     1       5.714 -10.022  -4.789  1.00  0.00    -0.217 OA
HETATM    8  N3  UNL     1       6.091 -10.355  -5.971  1.00  0.00    -0.262 N 
ATOM      9  H3  UNL     1       5.526 -10.879  -6.639  1.00  0.00     0.194 HD
HETATM   10  C6  UNL     1       7.369  -9.902  -6.206  1.00  0.00     0.053 A 
HETATM   11  C13 UNL     1       7.725  -9.261  -5.051  1.00  0.00     0.072 A 
HETATM   12  C14 UNL     1       8.933  -8.586  -4.656  1.00  0.00     0.073 A 
ENDROOT
BRANCH  12  13
HETATM   13  N4  UNL     1       9.814  -8.619  -5.507  1.00  0.00    -0.363 N 
HETATM   14  C15 UNL     1      11.120  -8.789  -5.791  1.00  0.00     0.100 C 
ATOM     15  H4  UNL     1       9.354  -8.435  -6.399  1.00  0.00     0.165 HD
BRANCH  14  16
HETATM   16  C16 UNL     1      12.041  -7.621  -5.933  1.00  0.00    -0.021 A 
HETATM   17  C17 UNL     1      13.297  -7.728  -5.314  1.00  0.00     0.016 A 
HETATM   18  C18 UNL     1      14.191  -6.684  -5.403  1.00  0.00     0.043 A 
HETATM   19  C19 UNL     1      13.853  -5.549  -6.093  1.00  0.00     0.116 A 
HETATM   20  F1  UNL     1      14.757  -4.537  -6.161  1.00  0.00    -0.206 F 
HETATM   21  C20 UNL     1      12.612  -5.452  -6.701  1.00  0.00     0.043 A 
HETATM   22  C21 UNL     1      11.726  -6.495  -6.608  1.00  0.00     0.016 A 
ENDBRANCH  14  16
ENDBRANCH  12  13
BRANCH   1  23
HETATM   23  C3  UNL     1      10.100  -7.338  -2.840  1.00  0.00     0.061 C 
BRANCH  23  24
HETATM   24  C2  UNL     1      11.129  -8.095  -2.099  1.00  0.00     0.002 C 
HETATM   25  C1  UNL     1      11.601  -7.379  -0.840  1.00  0.00     0.005 C 
ENDBRANCH  23  24
ENDBRANCH   1  23
BRANCH  10  26
HETATM   26  C7  UNL     1       8.117 -10.090  -7.440  1.00  0.00     0.038 C 
HETATM   27  C8  UNL     1       9.029 -11.303  -7.394  1.00  0.00     0.011 C 
HETATM   28  C9  UNL     1       8.364 -12.618  -7.262  1.00  0.00     0.001 C 
HETATM   29  C10 UNL     1       7.085 -12.734  -8.058  1.00  0.00     0.000 C 
HETATM   30  C11 UNL     1       7.109 -11.675  -9.139  1.00  0.00     0.001 C 
HETATM   31  C12 UNL     1       7.165 -10.296  -8.586  1.00  0.00     0.011 C 
ENDBRANCH  10  26
TORSDOF 5
ENDMDL
MODEL 2
REMARK VINA RESULT: -7.920241366      4.036      7.197
REMARK  5 active torsions:
REMARK  status: ('A' for Active; 'I' for Inactive)
REMARK    1  A    between atoms: C2_2  and  C3_3 
REMARK    2  A    between atoms: C3_3  and  C4_4 
REMARK    3  A    between atoms: C6_13  and  C7_14 
REMARK    4  A    between atoms: C14_21  and  N4_22 
REMARK    5  A    between atoms: C15_24  and  C16_25 
ROOT
HETATM    1  C4  UNL     1      13.080  -7.395  -2.611  1.00  0.00     0.053 A 
HETATM    2  N1  UNL     1      14.217  -6.929  -1.991  1.00  0.00    -0.301 N 
ATOM      3  H1  UNL     1      14.297  -7.100  -0.989  1.00  0.00     0.186 HD
HETATM    4  N2  UNL     1      15.184  -6.301  -2.547  1.00  0.00    -0.277 N 
ATOM      5  H2  UNL     1      15.987  -5.997  -1.997  1.00  0.00     0.189 HD
HETATM    6  C5  UNL     1      15.125  -6.051  -3.863  1.00  0.00     0.199 A 
HETATM    7  O1  UNL     1      15.935  -5.435  -4.699  1.00  0.00    -0.217 OA
HETATM    8  N3  UNL     1      15.441  -5.433  -5.885  1.00  0.00    -0.262 N 
ATOM      9  H3  UNL     1      15.885  -5.014  -6.701  1.00  0.00     0.194 HD
HETATM   10  C6  UNL     1      14.226  -6.077  -5.893  1.00  0.00     0.053 A 
HETATM   11  C13 UNL     1      14.034  -6.471  -4.596  1.00  0.00     0.072 A 
HETATM   12  C14 UNL     1      12.959  -7.175  -3.951  1.00  0.00     0.073 A 
ENDROOT
BRANCH  12  13
HETATM   13  N4  UNL     1      12.029  -7.446  -4.703  1.00  0.00    -0.363 N 
HETATM   14  C15 UNL     1      10.742  -7.243  -5.043  1.00  0.00     0.100 C 
ATOM     15  H4  UNL     1      12.392  -8.130  -5.367  1.00  0.00     0.165 HD
BRANCH  14  16
HETATM   16  C16 UNL     1       9.660  -8.157  -4.566  1.00  0.00    -0.021 A 
HETATM   17  C17 UNL     1       9.152  -9.077  -5.497  1.00  0.00     0.016 A 
HETATM   18  C18 UNL     1       8.151  -9.944  -5.120  1.00  0.00     0.043 A 
HETATM   19  C19 UNL     1       7.655  -9.906  -3.843  1.00  0.00     0.116 A 
HETATM   20  F1  UNL     1       6.667 -10.775  -3.505  1.00  0.00    -0.206 F 
HETATM   21  C20 UNL     1       8.161  -8.996  -2.931  1.00  0.00     0.043 A 
HETATM   22  C21 UNL     1       9.159  -8.134  -3.312  1.00  0.00     0.016 A 
ENDBRANCH  14  16
ENDBRANCH  12  13
BRANCH   1  23
HETATM   23  C3  UNL     1      12.093  -8.099  -1.804  1.00  0.00     0.061 C 
BRANCH  23  24
HETATM   24  C2  UNL     1      11.767  -7.574  -0.461  1.00  0.00     0.002 C 
HETATM   25  C1  UNL     1      11.088  -6.212  -0.505  1.00  0.00     0.005 C 
ENDBRANCH  23  24
ENDBRANCH   1  23
BRANCH  10  26
HETATM   26  C7  UNL     1      13.381  -6.271  -7.063  1.00  0.00     0.038 C 
HETATM   27  C8  UNL     1      12.357  -5.164  -7.236  1.00  0.00     0.011 C 
HETATM   28  C9  UNL     1      12.892  -3.809  -7.494  1.00  0.00     0.001 C 
HETATM   29  C10 UNL     1      14.097  -3.796  -8.406  1.00  0.00     0.000 C 
HETATM   30  C11 UNL     1      14.108  -5.093  -9.185  1.00  0.00     0.001 C 
HETATM   31  C12 UNL     1      14.230  -6.287  -8.305  1.00  0.00     0.011 C 
ENDBRANCH  10  26
TORSDOF 5
ENDMDL
MODEL 3
REMARK VINA RESULT: -7.579952003      3.745      7.354
REMARK  5 active torsions:
REMARK  status: ('A' for Active; 'I' for Inactive)
REMARK    1  A    between atoms: C2_2  and  C3_3 
REMARK    2  A    between atoms: C3_3  and  C4_4 
REMARK    3  A    between atoms: C6_13  and  C7_14 
REMARK    4  A    between atoms: C14_21  and  N4_22 
REMARK    5  A    between atoms: C15_24  and  C16_25 
ROOT
HETATM    1  C4  UNL     1      10.412  -8.185  -4.454  1.00  0.00     0.053 A 
HETATM    2  N1  UNL     1      10.439  -8.554  -5.779  1.00  0.00    -0.301 N 
ATOM      3  H1  UNL     1       9.586  -8.963  -6.159  1.00  0.00     0.186 HD
HETATM    4  N2  UNL     1      11.429  -8.437  -6.581  1.00  0.00    -0.277 N 
ATOM      5  H2  UNL     1      11.348  -8.742  -7.552  1.00  0.00     0.189 HD
HETATM    6  C5  UNL     1      12.574  -7.907  -6.128  1.00  0.00     0.199 A 
HETATM    7  O1  UNL     1      13.741  -7.669  -6.690  1.00  0.00    -0.217 OA
HETATM    8  N3  UNL     1      14.553  -7.150  -5.841  1.00  0.00    -0.262 N 
ATOM      9  H3  UNL     1      15.515  -6.881  -6.043  1.00  0.00     0.194 HD
HETATM   10  C6  UNL     1      13.936  -7.011  -4.620  1.00  0.00     0.053 A 
HETATM   11  C13 UNL     1      12.670  -7.495  -4.815  1.00  0.00     0.072 A 
HETATM   12  C14 UNL     1      11.545  -7.636  -3.930  1.00  0.00     0.073 A 
ENDROOT
BRANCH  12  13
HETATM   13  N4  UNL     1      11.778  -7.281  -2.780  1.00  0.00    -0.363 N 
HETATM   14  C15 UNL     1      11.409  -7.298  -1.485  1.00  0.00     0.100 C 
ATOM     15  H4  UNL     1      12.631  -6.724  -2.823  1.00  0.00     0.165 HD
BRANCH  14  16
HETATM   16  C16 UNL     1      10.612  -6.182  -0.890  1.00  0.00    -0.021 A 
HETATM   17  C17 UNL     1      11.132  -5.579   0.266  1.00  0.00     0.016 A 
HETATM   18  C18 UNL     1      10.443  -4.548   0.865  1.00  0.00     0.043 A 
HETATM   19  C19 UNL     1       9.257  -4.116   0.333  1.00  0.00     0.116 A 
HETATM   20  F1  UNL     1       8.602  -3.097   0.949  1.00  0.00    -0.206 F 
HETATM   21  C20 UNL     1       8.750  -4.716  -0.808  1.00  0.00     0.043 A 
HETATM   22  C21 UNL     1       9.442  -5.743  -1.400  1.00  0.00     0.016 A 
ENDBRANCH  14  16
ENDBRANCH  12  13
BRANCH   1  23
HETATM   23  C3  UNL     1       9.180  -8.391  -3.704  1.00  0.00     0.061 C 
BRANCH  23  24
HETATM   24  C2  UNL     1       8.091  -9.173  -4.327  1.00  0.00     0.002 C 
HETATM   25  C1  UNL     1       7.011  -9.581  -3.333  1.00  0.00     0.005 C 
ENDBRANCH  23  24
ENDBRANCH   1  23
BRANCH  10  26
HETATM   26  C7  UNL     1      14.550  -6.455  -3.423  1.00  0.00     0.038 C 
HETATM   27  C8  UNL     1      15.072  -7.524  -2.480  1.00  0.00     0.011 C 
HETATM   28  C9  UNL     1      16.170  -8.372  -2.994  1.00  0.00     0.001 C 
HETATM   29  C10 UNL     1      17.181  -7.617  -3.825  1.00  0.00     0.000 C 
HETATM   30  C11 UNL     1      17.063  -6.147  -3.484  1.00  0.00     0.001 C 
HETATM   31  C12 UNL     1      15.721  -5.593  -3.806  1.00  0.00     0.011 C 
ENDBRANCH  10  26
TORSDOF 5
ENDMDL
MODEL 4
REMARK VINA RESULT: -7.575530366      2.131      3.356
REMARK  5 active torsions:
REMARK  status: ('A' for Active; 'I' for Inactive)
REMARK    1  A    between atoms: C2_2  and  C3_3 
REMARK    2  A    between atoms: C3_3  and  C4_4 
REMARK    3  A    between atoms: C6_13  and  C7_14 
REMARK    4  A    between atoms: C14_21  and  N4_22 
REMARK    5  A    between atoms: C15_24  and  C16_25 
ROOT
HETATM    1  C4  UNL     1      12.664  -7.695  -3.386  1.00  0.00     0.053 A 
HETATM    2  N1  UNL     1      12.234  -7.713  -2.080  1.00  0.00    -0.301 N 
ATOM      3  H1  UNL     1      12.938  -7.541  -1.362  1.00  0.00     0.186 HD
HETATM    4  N2  UNL     1      11.038  -7.924  -1.675  1.00  0.00    -0.277 N 
ATOM      5  H2  UNL     1      10.820  -7.915  -0.679  1.00  0.00     0.189 HD
HETATM    6  C5  UNL     1      10.077  -8.156  -2.581  1.00  0.00     0.199 A 
HETATM    7  O1  UNL     1       8.789  -8.409  -2.481  1.00  0.00    -0.217 OA
HETATM    8  N3  UNL     1       8.271  -8.576  -3.645  1.00  0.00    -0.262 N 
ATOM      9  H3  UNL     1       7.289  -8.784  -3.823  1.00  0.00     0.194 HD
HETATM   10  C6  UNL     1       9.234  -8.433  -4.617  1.00  0.00     0.053 A 
HETATM   11  C13 UNL     1      10.384  -8.161  -3.926  1.00  0.00     0.072 A 
HETATM   12  C14 UNL     1      11.735  -7.921  -4.358  1.00  0.00     0.073 A 
ENDROOT
BRANCH  12  13
HETATM   13  N4  UNL     1      11.884  -8.005  -5.573  1.00  0.00    -0.363 N 
HETATM   14  C15 UNL     1      12.732  -8.038  -6.618  1.00  0.00     0.100 C 
ATOM     15  H4  UNL     1      10.947  -8.084  -5.968  1.00  0.00     0.165 HD
BRANCH  14  16
HETATM   16  C16 UNL     1      13.047  -6.805  -7.401  1.00  0.00    -0.021 A 
HETATM   17  C17 UNL     1      12.430  -5.615  -6.983  1.00  0.00     0.016 A 
HETATM   18  C18 UNL     1      12.675  -4.445  -7.666  1.00  0.00     0.043 A 
HETATM   19  C19 UNL     1      13.518  -4.445  -8.746  1.00  0.00     0.116 A 
HETATM   20  F1  UNL     1      13.738  -3.273  -9.398  1.00  0.00    -0.206 F 
HETATM   21  C20 UNL     1      14.123  -5.622  -9.152  1.00  0.00     0.043 A 
HETATM   22  C21 UNL     1      13.875  -6.785  -8.468  1.00  0.00     0.016 A 
ENDBRANCH  14  16
ENDBRANCH  12  13
BRANCH   1  23
HETATM   23  C3  UNL     1      14.072  -7.425  -3.647  1.00  0.00     0.061 C 
BRANCH  23  24
HETATM   24  C2  UNL     1      14.549  -6.027  -3.602  1.00  0.00     0.002 C 
HETATM   25  C1  UNL     1      15.399  -5.651  -4.808  1.00  0.00     0.005 C 
ENDBRANCH  23  24
ENDBRANCH   1  23
BRANCH  10  26
HETATM   26  C7  UNL     1       9.010  -8.548  -6.051  1.00  0.00     0.038 C 
HETATM   27  C8  UNL     1       9.424  -9.901  -6.601  1.00  0.00     0.011 C 
HETATM   28  C9  UNL     1       8.670 -11.072  -6.100  1.00  0.00     0.001 C 
HETATM   29  C10 UNL     1       7.192 -10.810  -5.924  1.00  0.00     0.000 C 
HETATM   30  C11 UNL     1       6.825  -9.609  -6.768  1.00  0.00     0.001 C 
HETATM   31  C12 UNL     1       7.547  -8.377  -6.352  1.00  0.00     0.011 C 
ENDBRANCH  10  26
TORSDOF 5
ENDMDL
MODEL 5
REMARK VINA RESULT: -7.561548235      3.747      6.640
REMARK  5 active torsions:
REMARK  status: ('A' for Active; 'I' for Inactive)
REMARK    1  A    between atoms: C2_2  and  C3_3 
REMARK    2  A    between atoms: C3_3  and  C4_4 
REMARK    3  A    between atoms: C6_13  and  C7_14 
REMARK    4  A    between atoms: C14_21  and  N4_22 
REMARK    5  A    between atoms: C15_24  and  C16_25 
ROOT
HETATM    1  C4  UNL     1      12.327  -6.992  -1.342  1.00  0.00     0.053 A 
HETATM    2  N1  UNL     1      13.605  -7.105  -0.846  1.00  0.00    -0.301 N 
ATOM      3  H1  UNL     1      13.721  -6.973   0.159  1.00  0.00     0.186 HD
HETATM    4  N2  UNL     1      14.663  -7.359  -1.520  1.00  0.00    -0.277 N 
ATOM      5  H2  UNL     1      15.569  -7.423  -1.056  1.00  0.00     0.189 HD
HETATM    6  C5  UNL     1      14.562  -7.539  -2.844  1.00  0.00     0.199 A 
HETATM    7  O1  UNL     1      15.444  -7.797  -3.787  1.00  0.00    -0.217 OA
HETATM    8  N3  UNL     1      14.869  -7.874  -4.933  1.00  0.00    -0.262 N 
ATOM      9  H3  UNL     1      15.346  -8.065  -5.814  1.00  0.00     0.194 HD
HETATM   10  C6  UNL     1      13.516  -7.663  -4.800  1.00  0.00     0.053 A 
HETATM   11  C13 UNL     1      13.330  -7.453  -3.460  1.00  0.00     0.072 A 
HETATM   12  C14 UNL     1      12.154  -7.167  -2.683  1.00  0.00     0.073 A 
ENDROOT
BRANCH  12  13
HETATM   13  N4  UNL     1      11.134  -7.065  -3.356  1.00  0.00    -0.363 N 
HETATM   14  C15 UNL     1       9.789  -7.106  -3.401  1.00  0.00     0.100 C 
ATOM     15  H4  UNL     1      11.442  -6.858  -4.306  1.00  0.00     0.165 HD
BRANCH  14  16
HETATM   16  C16 UNL     1       9.064  -8.344  -3.818  1.00  0.00    -0.021 A 
HETATM   17  C17 UNL     1       9.250  -8.771  -5.142  1.00  0.00     0.016 A 
HETATM   18  C18 UNL     1       8.606  -9.904  -5.589  1.00  0.00     0.043 A 
HETATM   19  C19 UNL     1       7.789 -10.607  -4.744  1.00  0.00     0.116 A 
HETATM   20  F1  UNL     1       7.168 -11.719  -5.218  1.00  0.00    -0.206 F 
HETATM   21  C20 UNL     1       7.610 -10.179  -3.439  1.00  0.00     0.043 A 
HETATM   22  C21 UNL     1       8.254  -9.051  -2.999  1.00  0.00     0.016 A 
ENDBRANCH  14  16
ENDBRANCH  12  13
BRANCH   1  23
HETATM   23  C3  UNL     1      11.246  -6.706  -0.408  1.00  0.00     0.061 C 
BRANCH  23  24
HETATM   24  C2  UNL     1      10.983  -5.302  -0.032  1.00  0.00     0.002 C 
HETATM   25  C1  UNL     1       9.605  -4.819  -0.465  1.00  0.00     0.005 C 
ENDBRANCH  23  24
ENDBRANCH   1  23
BRANCH  10  26
HETATM   26  C7  UNL     1      12.548  -7.681  -5.886  1.00  0.00     0.038 C 
HETATM   27  C8  UNL     1      12.124  -6.289  -6.317  1.00  0.00     0.011 C 
HETATM   28  C9  UNL     1      13.181  -5.429  -6.893  1.00  0.00     0.001 C 
HETATM   29  C10 UNL     1      14.147  -6.173  -7.786  1.00  0.00     0.000 C 
HETATM   30  C11 UNL     1      13.480  -7.456  -8.231  1.00  0.00     0.001 C 
HETATM   31  C12 UNL     1      13.149  -8.353  -7.091  1.00  0.00     0.011 C 
ENDBRANCH  10  26
TORSDOF 5
ENDMDL
