MODEL 1
REMARK VINA RESULT: -7.997416050      0.000      0.000
REMARK  7 active torsions:
REMARK  status: ('A' for Active; 'I' for Inactive)
REMARK    1  A    between atoms: C9_11  and  C10_12 
REMARK    2  A    between atoms: C10_12  and  C11_13 
REMARK    3  A    between atoms: C11_13  and  C12_14 
REMARK    4  A    between atoms: C12_14  and  C13_15 
REMARK    5  A    between atoms: C13_15  and  O2_18 
REMARK    6  A    between atoms: C17_21  and  C18_22 
REMARK    7  A    between atoms: C18_22  and  O3_23 
ROOT
HETATM    1  C1  UNL     1      13.689  -6.598  -1.767  1.00  0.00     0.077 C 
HETATM    2  C2  UNL     1      12.508  -7.186  -2.454  1.00  0.00     0.057 A 
HETATM    3  O1  UNL     1      12.426  -7.703  -3.660  1.00  0.00    -0.312 OA
HETATM    4  C3  UNL     1      11.212  -8.124  -3.913  1.00  0.00     0.108 A 
HETATM    5  C4  UNL     1      10.694  -8.728  -5.057  1.00  0.00     0.078 A 
HETATM    6 CL1  UNL     1      11.732  -9.023  -6.426  1.00  0.00    -0.081 Cl
HETATM    7  C5  UNL     1       9.395  -9.097  -5.131  1.00  0.00     0.001 A 
HETATM    8  C6  UNL     1       8.589  -8.845  -4.007  1.00  0.00    -0.044 A 
HETATM    9  C7  UNL     1       9.105  -8.250  -2.887  1.00  0.00     0.022 A 
HETATM   10  C8  UNL     1      10.432  -7.877  -2.820  1.00  0.00     0.009 A 
HETATM   11  C9  UNL     1      11.257  -7.281  -1.891  1.00  0.00    -0.016 A 
HETATM   12  C16 UNL     1       7.135  -9.220  -3.991  1.00  0.00     0.073 C 
HETATM   13  C17 UNL     1       6.594  -9.432  -5.362  1.00  0.00     0.150 C 
HETATM   14  O4  UNL     1       7.464  -9.027  -6.372  1.00  0.00    -0.374 OA
HETATM   15  C19 UNL     1       8.692  -9.728  -6.224  1.00  0.00     0.153 C 
HETATM   16  C20 UNL     1       9.340  -9.992  -7.506  1.00  0.00     0.045 C 
ENDROOT
BRANCH  11  17
HETATM   17  C10 UNL     1      10.828  -6.832  -0.527  1.00  0.00     0.042 C 
BRANCH  17  18
HETATM   18  C11 UNL     1      10.195  -5.489  -0.682  1.00  0.00     0.008 C 
BRANCH  18  19
HETATM   19  C12 UNL     1       9.804  -4.804   0.579  1.00  0.00     0.037 C 
BRANCH  19  20
HETATM   20  C13 UNL     1       8.350  -4.543   0.760  1.00  0.00     0.051 C 
HETATM   21  C14 UNL     1       8.022  -3.094   0.991  1.00  0.00     0.045 C 
HETATM   22  C15 UNL     1       7.678  -4.938  -0.566  1.00  0.00     0.045 C 
BRANCH  20  23
HETATM   23  O2  UNL     1       7.739  -5.323   1.727  1.00  0.00    -0.391 OA
ATOM     24  H2  UNL     1       7.759  -6.257   1.552  1.00  0.00     0.210 HD
ENDBRANCH  20  23
ENDBRANCH  19  20
ENDBRANCH  18  19
ENDBRANCH  17  18
ENDBRANCH  11  17
BRANCH  13  25
HETATM   25  C18 UNL     1       5.272  -8.737  -5.606  1.00  0.00     0.196 C 
BRANCH  25  26
HETATM   26  O3  UNL     1       4.987  -7.764  -4.675  1.00  0.00    -0.398 OA
ATOM     27  H3  UNL     1       5.603  -7.041  -4.684  1.00  0.00     0.209 HD
ENDBRANCH  25  26
ENDBRANCH  13  25
TORSDOF 7
ENDMDL
MODEL 2
REMARK VINA RESULT: -7.912967432      1.939      6.237
REMARK  7 active torsions:
REMARK  status: ('A' for Active; 'I' for Inactive)
REMARK    1  A    between atoms: C9_11  and  C10_12 
REMARK    2  A    between atoms: C10_12  and  C11_13 
REMARK    3  A    between atoms: C11_13  and  C12_14 
REMARK    4  A    between atoms: C12_14  and  C13_15 
REMARK    5  A    between atoms: C13_15  and  O2_18 
REMARK    6  A    between atoms: C17_21  and  C18_22 
REMARK    7  A    between atoms: C18_22  and  O3_23 
ROOT
HETATM    1  C1  UNL     1      12.892  -9.163  -4.807  1.00  0.00     0.077 C 
HETATM    2  C2  UNL     1      12.166  -8.279  -3.856  1.00  0.00     0.057 A 
HETATM    3  O1  UNL     1      12.564  -7.813  -2.694  1.00  0.00    -0.312 OA
HETATM    4  C3  UNL     1      11.641  -7.061  -2.145  1.00  0.00     0.108 A 
HETATM    5  C4  UNL     1      11.649  -6.379  -0.930  1.00  0.00     0.078 A 
HETATM    6 CL1  UNL     1      13.051  -6.464   0.103  1.00  0.00    -0.081 Cl
HETATM    7  C5  UNL     1      10.586  -5.644  -0.530  1.00  0.00     0.001 A 
HETATM    8  C6  UNL     1       9.475  -5.597  -1.390  1.00  0.00    -0.044 A 
HETATM    9  C7  UNL     1       9.475  -6.271  -2.582  1.00  0.00     0.022 A 
HETATM   10  C8  UNL     1      10.564  -7.019  -2.983  1.00  0.00     0.009 A 
HETATM   11  C9  UNL     1      10.898  -7.793  -4.072  1.00  0.00    -0.016 A 
HETATM   12  C16 UNL     1       8.249  -4.807  -1.035  1.00  0.00     0.073 C 
HETATM   13  C17 UNL     1       8.177  -4.501   0.421  1.00  0.00     0.150 C 
HETATM   14  O4  UNL     1       9.122  -5.189   1.179  1.00  0.00    -0.374 OA
HETATM   15  C19 UNL     1      10.418  -4.879   0.684  1.00  0.00     0.153 C 
HETATM   16  C20 UNL     1      11.429  -4.874   1.737  1.00  0.00     0.045 C 
ENDROOT
BRANCH  11  17
HETATM   17  C10 UNL     1      10.010  -8.037  -5.255  1.00  0.00     0.042 C 
BRANCH  17  18
HETATM   18  C11 UNL     1       9.033  -9.095  -4.864  1.00  0.00     0.008 C 
BRANCH  18  19
HETATM   19  C12 UNL     1       7.646  -8.920  -5.373  1.00  0.00     0.037 C 
BRANCH  19  20
HETATM   20  C13 UNL     1       6.552  -9.263  -4.424  1.00  0.00     0.051 C 
HETATM   21  C14 UNL     1       6.028 -10.662  -4.589  1.00  0.00     0.045 C 
HETATM   22  C15 UNL     1       7.169  -9.188  -3.017  1.00  0.00     0.045 C 
BRANCH  20  23
HETATM   23  O2  UNL     1       5.497  -8.366  -4.410  1.00  0.00    -0.391 OA
ATOM     24  H2  UNL     1       5.257  -8.051  -3.547  1.00  0.00     0.210 HD
ENDBRANCH  20  23
ENDBRANCH  19  20
ENDBRANCH  18  19
ENDBRANCH  17  18
ENDBRANCH  11  17
BRANCH  13  25
HETATM   25  C18 UNL     1       6.822  -4.781   1.033  1.00  0.00     0.196 C 
BRANCH  25  26
HETATM   26  O3  UNL     1       6.891  -5.205   2.341  1.00  0.00    -0.398 OA
ATOM     27  H3  UNL     1       6.084  -5.598   2.653  1.00  0.00     0.209 HD
ENDBRANCH  25  26
ENDBRANCH  13  25
TORSDOF 7
ENDMDL
MODEL 3
REMARK VINA RESULT: -7.112091880      3.189      6.648
REMARK  7 active torsions:
REMARK  status: ('A' for Active; 'I' for Inactive)
REMARK    1  A    between atoms: C9_11  and  C10_12 
REMARK    2  A    between atoms: C10_12  and  C11_13 
REMARK    3  A    between atoms: C11_13  and  C12_14 
REMARK    4  A    between atoms: C12_14  and  C13_15 
REMARK    5  A    between atoms: C13_15  and  O2_18 
REMARK    6  A    between atoms: C17_21  and  C18_22 
REMARK    7  A    between atoms: C18_22  and  O3_23 
ROOT
HETATM    1  C1  UNL     1      13.374  -9.355  -4.288  1.00  0.00     0.077 C 
HETATM    2  C2  UNL     1      12.547  -8.443  -3.454  1.00  0.00     0.057 A 
HETATM    3  O1  UNL     1      12.848  -7.866  -2.312  1.00  0.00    -0.312 OA
HETATM    4  C3  UNL     1      11.856  -7.127  -1.879  1.00  0.00     0.108 A 
HETATM    5  C4  UNL     1      11.754  -6.354  -0.725  1.00  0.00     0.078 A 
HETATM    6 CL1  UNL     1      13.092  -6.280   0.390  1.00  0.00    -0.081 Cl
HETATM    7  C5  UNL     1      10.632  -5.651  -0.446  1.00  0.00     0.001 A 
HETATM    8  C6  UNL     1       9.575  -5.733  -1.370  1.00  0.00    -0.044 A 
HETATM    9  C7  UNL     1       9.683  -6.496  -2.501  1.00  0.00     0.022 A 
HETATM   10  C8  UNL     1      10.832  -7.210  -2.778  1.00  0.00     0.009 A 
HETATM   11  C9  UNL     1      11.271  -8.047  -3.781  1.00  0.00    -0.016 A 
HETATM   12  C16 UNL     1       8.290  -4.988  -1.151  1.00  0.00     0.073 C 
HETATM   13  C17 UNL     1       8.114  -4.575   0.269  1.00  0.00     0.150 C 
HETATM   14  O4  UNL     1       9.044  -5.148   1.134  1.00  0.00    -0.374 OA
HETATM   15  C19 UNL     1      10.350  -4.805   0.690  1.00  0.00     0.153 C 
HETATM   16  C20 UNL     1      11.294  -4.662   1.795  1.00  0.00     0.045 C 
ENDROOT
BRANCH  11  17
HETATM   17  C10 UNL     1      10.471  -8.431  -4.989  1.00  0.00     0.042 C 
BRANCH  17  18
HETATM   18  C11 UNL     1      11.240  -7.985  -6.188  1.00  0.00     0.008 C 
BRANCH  18  19
HETATM   19  C12 UNL     1      11.457  -6.518  -6.314  1.00  0.00     0.037 C 
BRANCH  19  20
HETATM   20  C13 UNL     1      12.835  -6.088  -6.677  1.00  0.00     0.051 C 
HETATM   21  C14 UNL     1      13.478  -6.951  -7.726  1.00  0.00     0.045 C 
HETATM   22  C15 UNL     1      12.694  -4.684  -7.289  1.00  0.00     0.045 C 
BRANCH  20  23
HETATM   23  O2  UNL     1      13.694  -5.935  -5.602  1.00  0.00    -0.391 OA
ATOM     24  H2  UNL     1      13.595  -5.117  -5.130  1.00  0.00     0.210 HD
ENDBRANCH  20  23
ENDBRANCH  19  20
ENDBRANCH  18  19
ENDBRANCH  17  18
ENDBRANCH  11  17
BRANCH  13  25
HETATM   25  C18 UNL     1       6.740  -4.882   0.823  1.00  0.00     0.196 C 
BRANCH  25  26
HETATM   26  O3  UNL     1       6.763  -5.324   2.127  1.00  0.00    -0.398 OA
ATOM     27  H3  UNL     1       6.009  -5.045   2.633  1.00  0.00     0.209 HD
ENDBRANCH  25  26
ENDBRANCH  13  25
TORSDOF 7
ENDMDL
MODEL 4
REMARK VINA RESULT: -6.898107453      3.490      7.240
REMARK  7 active torsions:
REMARK  status: ('A' for Active; 'I' for Inactive)
REMARK    1  A    between atoms: C9_11  and  C10_12 
REMARK    2  A    between atoms: C10_12  and  C11_13 
REMARK    3  A    between atoms: C11_13  and  C12_14 
REMARK    4  A    between atoms: C12_14  and  C13_15 
REMARK    5  A    between atoms: C13_15  and  O2_18 
REMARK    6  A    between atoms: C17_21  and  C18_22 
REMARK    7  A    between atoms: C18_22  and  O3_23 
ROOT
HETATM    1  C1  UNL     1       7.378  -9.149  -2.950  1.00  0.00     0.077 C 
HETATM    2  C2  UNL     1       8.650  -8.654  -3.540  1.00  0.00     0.057 A 
HETATM    3  O1  UNL     1       9.769  -8.326  -2.934  1.00  0.00    -0.312 OA
HETATM    4  C3  UNL     1      10.676  -7.931  -3.794  1.00  0.00     0.108 A 
HETATM    5  C4  UNL     1      11.983  -7.500  -3.581  1.00  0.00     0.078 A 
HETATM    6 CL1  UNL     1      12.623  -7.436  -1.961  1.00  0.00    -0.081 Cl
HETATM    7  C5  UNL     1      12.777  -7.128  -4.611  1.00  0.00     0.001 A 
HETATM    8  C6  UNL     1      12.228  -7.194  -5.904  1.00  0.00    -0.044 A 
HETATM    9  C7  UNL     1      10.942  -7.619  -6.104  1.00  0.00     0.022 A 
HETATM   10  C8  UNL     1      10.139  -7.997  -5.047  1.00  0.00     0.009 A 
HETATM   11  C9  UNL     1       8.850  -8.457  -4.886  1.00  0.00    -0.016 A 
HETATM   12  C16 UNL     1      13.030  -6.805  -7.112  1.00  0.00     0.073 C 
HETATM   13  C17 UNL     1      14.207  -5.963  -6.759  1.00  0.00     0.150 C 
HETATM   14  O4  UNL     1      14.200  -5.525  -5.436  1.00  0.00    -0.374 OA
HETATM   15  C19 UNL     1      14.143  -6.659  -4.581  1.00  0.00     0.153 C 
HETATM   16  C20 UNL     1      14.855  -6.444  -3.324  1.00  0.00     0.045 C 
ENDROOT
BRANCH  11  17
HETATM   17  C10 UNL     1       7.875  -8.686  -6.002  1.00  0.00     0.042 C 
BRANCH  17  18
HETATM   18  C11 UNL     1       7.906 -10.143  -6.324  1.00  0.00     0.008 C 
BRANCH  18  19
HETATM   19  C12 UNL     1       6.593 -10.841  -6.305  1.00  0.00     0.037 C 
BRANCH  19  20
HETATM   20  C13 UNL     1       6.580 -12.196  -5.688  1.00  0.00     0.051 C 
HETATM   21  C14 UNL     1       7.948 -12.713  -5.341  1.00  0.00     0.045 C 
HETATM   22  C15 UNL     1       5.816 -12.052  -4.361  1.00  0.00     0.045 C 
BRANCH  20  23
HETATM   23  O2  UNL     1       5.885 -13.152  -6.409  1.00  0.00    -0.391 OA
ATOM     24  H2  UNL     1       6.431 -13.721  -6.941  1.00  0.00     0.210 HD
ENDBRANCH  20  23
ENDBRANCH  19  20
ENDBRANCH  18  19
ENDBRANCH  17  18
ENDBRANCH  11  17
BRANCH  13  25
HETATM   25  C18 UNL     1      14.360  -4.739  -7.634  1.00  0.00     0.196 C 
BRANCH  25  26
HETATM   26  O3  UNL     1      14.932  -3.669  -6.983  1.00  0.00    -0.398 OA
ATOM     27  H3  UNL     1      15.833  -3.822  -6.724  1.00  0.00     0.209 HD
ENDBRANCH  25  26
ENDBRANCH  13  25
TORSDOF 7
ENDMDL
MODEL 5
REMARK VINA RESULT: -6.866422593      3.388      6.951
REMARK  7 active torsions:
REMARK  status: ('A' for Active; 'I' for Inactive)
REMARK    1  A    between atoms: C9_11  and  C10_12 
REMARK    2  A    between atoms: C10_12  and  C11_13 
REMARK    3  A    between atoms: C11_13  and  C12_14 
REMARK    4  A    between atoms: C12_14  and  C13_15 
REMARK    5  A    between atoms: C13_15  and  O2_18 
REMARK    6  A    between atoms: C17_21  and  C18_22 
REMARK    7  A    between atoms: C18_22  and  O3_23 
ROOT
HETATM    1  C1  UNL     1      16.957  -8.546  -5.756  1.00  0.00     0.077 C 
HETATM    2  C2  UNL     1      15.847  -8.237  -4.815  1.00  0.00     0.057 A 
HETATM    3  O1  UNL     1      14.558  -8.446  -4.960  1.00  0.00    -0.312 OA
HETATM    4  C3  UNL     1      13.890  -8.039  -3.909  1.00  0.00     0.108 A 
HETATM    5  C4  UNL     1      12.522  -8.072  -3.650  1.00  0.00     0.078 A 
HETATM    6 CL1  UNL     1      11.431  -8.738  -4.835  1.00  0.00    -0.081 Cl
HETATM    7  C5  UNL     1      12.014  -7.597  -2.490  1.00  0.00     0.001 A 
HETATM    8  C6  UNL     1      12.925  -7.069  -1.557  1.00  0.00    -0.044 A 
HETATM    9  C7  UNL     1      14.268  -7.040  -1.819  1.00  0.00     0.022 A 
HETATM   10  C8  UNL     1      14.778  -7.527  -3.006  1.00  0.00     0.009 A 
HETATM   11  C9  UNL     1      16.023  -7.654  -3.582  1.00  0.00    -0.016 A 
HETATM   12  C16 UNL     1      12.459  -6.520  -0.239  1.00  0.00     0.073 C 
HETATM   13  C17 UNL     1      11.006  -6.195  -0.246  1.00  0.00     0.150 C 
HETATM   14  O4  UNL     1      10.431  -6.250  -1.514  1.00  0.00    -0.374 OA
HETATM   15  C19 UNL     1      10.638  -7.549  -2.053  1.00  0.00     0.153 C 
HETATM   16  C20 UNL     1       9.541  -7.973  -2.919  1.00  0.00     0.045 C 
ENDROOT
BRANCH  11  17
HETATM   17  C10 UNL     1      17.309  -7.220  -2.947  1.00  0.00     0.042 C 
BRANCH  17  18
HETATM   18  C11 UNL     1      17.845  -6.088  -3.760  1.00  0.00     0.008 C 
BRANCH  18  19
HETATM   19  C12 UNL     1      16.921  -4.941  -3.966  1.00  0.00     0.037 C 
BRANCH  19  20
HETATM   20  C13 UNL     1      16.810  -4.431  -5.361  1.00  0.00     0.051 C 
HETATM   21  C14 UNL     1      17.845  -4.996  -6.293  1.00  0.00     0.045 C 
HETATM   22  C15 UNL     1      15.444  -4.908  -5.881  1.00  0.00     0.045 C 
BRANCH  20  23
HETATM   23  O2  UNL     1      16.783  -3.051  -5.470  1.00  0.00    -0.391 OA
ATOM     24  H2  UNL     1      17.598  -2.661  -5.762  1.00  0.00     0.210 HD
ENDBRANCH  20  23
ENDBRANCH  19  20
ENDBRANCH  18  19
ENDBRANCH  17  18
ENDBRANCH  11  17
BRANCH  13  25
HETATM   25  C18 UNL     1      10.687  -4.834   0.331  1.00  0.00     0.196 C 
BRANCH  25  26
HETATM   26  O3  UNL     1       9.651  -4.854   1.238  1.00  0.00    -0.398 OA
ATOM     27  H3  UNL     1       9.869  -4.448   2.069  1.00  0.00     0.209 HD
ENDBRANCH  25  26
ENDBRANCH  13  25
TORSDOF 7
ENDMDL
