MODEL 1
REMARK VINA RESULT: -6.944761105      0.000      0.000
REMARK  3 active torsions:
REMARK  status: ('A' for Active; 'I' for Inactive)
REMARK    1  A    between atoms: C7_7  and  N1_8 
REMARK       I    between atoms: N1_8  and  C8_10 
REMARK    2  A    between atoms: C8_10  and  C9_12 
REMARK       I    between atoms: C9_12  and  N2_14 
REMARK    3  A    between atoms: N2_14  and  C10_16 
ROOT
HETATM    1  C9  UNL     1      -0.964   3.565  81.151  1.00  0.00     0.309 C 
HETATM    2  O2  UNL     1      -1.310   3.429  79.955  1.00  0.00    -0.262 OA
HETATM    3  N2  UNL     1       0.163   4.361  81.443  1.00  0.00    -0.346 N 
ATOM      4  H2  UNL     1       0.453   4.477  82.414  1.00  0.00     0.163 HD
ENDROOT
BRANCH   1   5
HETATM    5  C8  UNL     1      -1.738   2.895  82.178  1.00  0.00     0.309 C 
HETATM    6  N1  UNL     1      -1.698   3.316  83.535  1.00  0.00    -0.348 N 
ATOM      7  H1  UNL     1      -1.107   4.110  83.784  1.00  0.00     0.163 HD
HETATM    8  O1  UNL     1      -2.487   1.906  81.924  1.00  0.00    -0.262 OA
BRANCH   6   9
HETATM    9  C7  UNL     1      -2.464   2.663  84.582  1.00  0.00     0.088 C 
HETATM   10  C2  UNL     1      -1.545   1.780  85.353  1.00  0.00     0.004 C 
HETATM   11  C1  UNL     1      -0.348   2.471  85.922  1.00  0.00     0.012 C 
HETATM   12  C3  UNL     1      -2.357   1.157  86.493  1.00  0.00     0.006 C 
HETATM   13  C4  UNL     1      -2.720   2.287  87.415  1.00  0.00     0.001 C 
HETATM   14  C5  UNL     1      -3.617   3.263  86.731  1.00  0.00     0.002 C 
HETATM   15  C6  UNL     1      -3.100   3.748  85.409  1.00  0.00     0.025 C 
ENDBRANCH   6   9
ENDBRANCH   1   5
BRANCH   3  16
HETATM   16  C10 UNL     1       0.918   5.018  80.394  1.00  0.00     0.122 C 
HETATM   17  C11 UNL     1       0.999   6.489  80.621  1.00  0.00     0.065 C 
HETATM   18  C12 UNL     1       2.448   6.771  80.969  1.00  0.00     0.121 C 
HETATM   19  C13 UNL     1       2.706   6.795  82.438  1.00  0.00     0.046 C 
HETATM   20  C14 UNL     1       2.908   8.069  80.335  1.00  0.00     0.046 C 
HETATM   21  N3  UNL     1       3.197   5.689  80.361  1.00  0.00    -0.057 N 
HETATM   22  C15 UNL     1       2.325   4.542  80.303  1.00  0.00     0.139 C 
ATOM     23  H32 UNL     1       3.591   5.938  79.453  1.00  0.00     0.279 HD
ATOM     24  H31 UNL     1       4.078   5.496  80.838  1.00  0.00     0.279 HD
HETATM   25  C16 UNL     1       2.545   3.917  78.920  1.00  0.00     0.048 C 
HETATM   26  C17 UNL     1       2.676   3.542  81.390  1.00  0.00     0.048 C 
ENDBRANCH   3  16
TORSDOF 3
ENDMDL
MODEL 2
REMARK VINA RESULT: -6.760040064      3.210      4.377
REMARK  3 active torsions:
REMARK  status: ('A' for Active; 'I' for Inactive)
REMARK    1  A    between atoms: C7_7  and  N1_8 
REMARK       I    between atoms: N1_8  and  C8_10 
REMARK    2  A    between atoms: C8_10  and  C9_12 
REMARK       I    between atoms: C9_12  and  N2_14 
REMARK    3  A    between atoms: N2_14  and  C10_16 
ROOT
HETATM    1  C9  UNL     1      -0.774   4.776  80.336  1.00  0.00     0.309 C 
HETATM    2  O2  UNL     1      -0.568   4.404  79.157  1.00  0.00    -0.262 OA
HETATM    3  N2  UNL     1      -1.432   6.005  80.553  1.00  0.00    -0.346 N 
ATOM      4  H2  UNL     1      -1.605   6.316  81.508  1.00  0.00     0.163 HD
ENDROOT
BRANCH   1   5
HETATM    5  C8  UNL     1      -0.327   3.924  81.420  1.00  0.00     0.309 C 
HETATM    6  N1  UNL     1      -1.148   3.665  82.552  1.00  0.00    -0.348 N 
ATOM      7  H1  UNL     1      -2.073   4.093  82.594  1.00  0.00     0.163 HD
HETATM    8  O1  UNL     1       0.811   3.369  81.419  1.00  0.00    -0.262 OA
BRANCH   6   9
HETATM    9  C7  UNL     1      -0.723   2.816  83.651  1.00  0.00     0.088 C 
HETATM   10  C2  UNL     1      -1.221   3.411  84.922  1.00  0.00     0.004 C 
HETATM   11  C1  UNL     1      -2.698   3.639  84.967  1.00  0.00     0.012 C 
HETATM   12  C3  UNL     1      -0.823   2.464  86.059  1.00  0.00     0.006 C 
HETATM   13  C4  UNL     1      -1.614   1.203  85.851  1.00  0.00     0.001 C 
HETATM   14  C5  UNL     1      -1.223   0.535  84.576  1.00  0.00     0.002 C 
HETATM   15  C6  UNL     1      -1.256   1.435  83.376  1.00  0.00     0.025 C 
ENDBRANCH   6   9
ENDBRANCH   1   5
BRANCH   3  16
HETATM   16  C10 UNL     1      -1.867   6.835  79.447  1.00  0.00     0.122 C 
HETATM   17  C11 UNL     1      -3.351   6.810  79.298  1.00  0.00     0.065 C 
HETATM   18  C12 UNL     1      -3.826   8.194  79.699  1.00  0.00     0.121 C 
HETATM   19  C13 UNL     1      -4.234   8.285  81.131  1.00  0.00     0.046 C 
HETATM   20  C14 UNL     1      -4.960   8.651  78.801  1.00  0.00     0.046 C 
HETATM   21  N3  UNL     1      -2.691   9.064  79.459  1.00  0.00    -0.057 N 
HETATM   22  C15 UNL     1      -1.499   8.267  79.613  1.00  0.00     0.139 C 
ATOM     23  H32 UNL     1      -2.738   9.542  78.559  1.00  0.00     0.279 HD
ATOM     24  H31 UNL     1      -2.694   9.895  80.051  1.00  0.00     0.279 HD
HETATM   25  C16 UNL     1      -0.571   8.673  78.462  1.00  0.00     0.048 C 
HETATM   26  C17 UNL     1      -0.831   8.549  80.946  1.00  0.00     0.048 C 
ENDBRANCH   3  16
TORSDOF 3
ENDMDL
MODEL 3
REMARK VINA RESULT: -6.732512065      1.208      1.549
REMARK  3 active torsions:
REMARK  status: ('A' for Active; 'I' for Inactive)
REMARK    1  A    between atoms: C7_7  and  N1_8 
REMARK       I    between atoms: N1_8  and  C8_10 
REMARK    2  A    between atoms: C8_10  and  C9_12 
REMARK       I    between atoms: C9_12  and  N2_14 
REMARK    3  A    between atoms: N2_14  and  C10_16 
ROOT
HETATM    1  C9  UNL     1      -0.208   2.829  81.222  1.00  0.00     0.309 C 
HETATM    2  O2  UNL     1       0.183   1.867  80.521  1.00  0.00    -0.262 OA
HETATM    3  N2  UNL     1       0.464   4.064  81.113  1.00  0.00    -0.346 N 
ATOM      4  H2  UNL     1       0.154   4.853  81.679  1.00  0.00     0.163 HD
ENDROOT
BRANCH   1   5
HETATM    5  C8  UNL     1      -1.334   2.626  82.113  1.00  0.00     0.309 C 
HETATM    6  N1  UNL     1      -1.218   2.820  83.517  1.00  0.00    -0.348 N 
ATOM      7  H1  UNL     1      -0.317   3.108  83.898  1.00  0.00     0.163 HD
HETATM    8  O1  UNL     1      -2.473   2.268  81.693  1.00  0.00    -0.262 OA
BRANCH   6   9
HETATM    9  C7  UNL     1      -2.330   2.623  84.430  1.00  0.00     0.088 C 
HETATM   10  C2  UNL     1      -1.928   1.612  85.447  1.00  0.00     0.004 C 
HETATM   11  C1  UNL     1      -0.677   1.945  86.196  1.00  0.00     0.012 C 
HETATM   12  C3  UNL     1      -3.087   1.473  86.439  1.00  0.00     0.006 C 
HETATM   13  C4  UNL     1      -3.175   2.785  87.167  1.00  0.00     0.001 C 
HETATM   14  C5  UNL     1      -3.538   3.888  86.232  1.00  0.00     0.002 C 
HETATM   15  C6  UNL     1      -2.669   3.969  85.013  1.00  0.00     0.025 C 
ENDBRANCH   6   9
ENDBRANCH   1   5
BRANCH   3  16
HETATM   16  C10 UNL     1       1.588   4.236  80.212  1.00  0.00     0.122 C 
HETATM   17  C11 UNL     1       1.184   4.953  78.969  1.00  0.00     0.065 C 
HETATM   18  C12 UNL     1       1.851   6.314  79.046  1.00  0.00     0.121 C 
HETATM   19  C13 UNL     1       0.971   7.369  79.627  1.00  0.00     0.046 C 
HETATM   20  C14 UNL     1       2.352   6.743  77.681  1.00  0.00     0.046 C 
HETATM   21  N3  UNL     1       3.005   6.118  79.901  1.00  0.00    -0.057 N 
HETATM   22  C15 UNL     1       2.692   5.038  80.805  1.00  0.00     0.139 C 
ATOM     23  H32 UNL     1       3.868   5.963  79.378  1.00  0.00     0.279 HD
ATOM     24  H31 UNL     1       3.294   6.969  80.383  1.00  0.00     0.279 HD
HETATM   25  C16 UNL     1       3.952   4.167  80.871  1.00  0.00     0.048 C 
HETATM   26  C17 UNL     1       2.353   5.571  82.185  1.00  0.00     0.048 C 
ENDBRANCH   3  16
TORSDOF 3
ENDMDL
MODEL 4
REMARK VINA RESULT: -6.582458357      1.625      2.373
REMARK  3 active torsions:
REMARK  status: ('A' for Active; 'I' for Inactive)
REMARK    1  A    between atoms: C7_7  and  N1_8 
REMARK       I    between atoms: N1_8  and  C8_10 
REMARK    2  A    between atoms: C8_10  and  C9_12 
REMARK       I    between atoms: C9_12  and  N2_14 
REMARK    3  A    between atoms: N2_14  and  C10_16 
ROOT
HETATM    1  C9  UNL     1       0.940   2.481  81.356  1.00  0.00     0.309 C 
HETATM    2  O2  UNL     1       1.715   1.496  81.376  1.00  0.00    -0.262 OA
HETATM    3  N2  UNL     1       1.343   3.645  80.670  1.00  0.00    -0.346 N 
ATOM      4  H2  UNL     1       0.720   4.452  80.648  1.00  0.00     0.163 HD
ENDROOT
BRANCH   1   5
HETATM    5  C8  UNL     1      -0.333   2.376  82.041  1.00  0.00     0.309 C 
HETATM    6  N1  UNL     1      -0.529   2.919  83.339  1.00  0.00    -0.348 N 
ATOM      7  H1  UNL     1       0.252   3.393  83.794  1.00  0.00     0.163 HD
HETATM    8  O1  UNL     1      -1.334   1.798  81.523  1.00  0.00    -0.262 OA
BRANCH   6   9
HETATM    9  C7  UNL     1      -1.794   2.827  84.046  1.00  0.00     0.088 C 
HETATM   10  C2  UNL     1      -1.620   1.904  85.201  1.00  0.00     0.004 C 
HETATM   11  C1  UNL     1      -0.515   2.277  86.137  1.00  0.00     0.012 C 
HETATM   12  C3  UNL     1      -2.944   1.877  85.971  1.00  0.00     0.006 C 
HETATM   13  C4  UNL     1      -3.116   3.250  86.558  1.00  0.00     0.001 C 
HETATM   14  C5  UNL     1      -3.263   4.273  85.482  1.00  0.00     0.002 C 
HETATM   15  C6  UNL     1      -2.185   4.227  84.440  1.00  0.00     0.025 C 
ENDBRANCH   6   9
ENDBRANCH   1   5
BRANCH   3  16
HETATM   16  C10 UNL     1       2.625   3.720  79.995  1.00  0.00     0.122 C 
HETATM   17  C11 UNL     1       2.456   3.823  78.516  1.00  0.00     0.065 C 
HETATM   18  C12 UNL     1       2.894   5.228  78.151  1.00  0.00     0.121 C 
HETATM   19  C13 UNL     1       1.764   6.199  78.084  1.00  0.00     0.046 C 
HETATM   20  C14 UNL     1       3.662   5.227  76.843  1.00  0.00     0.046 C 
HETATM   21  N3  UNL     1       3.811   5.621  79.204  1.00  0.00    -0.057 N 
HETATM   22  C15 UNL     1       3.427   4.906  80.396  1.00  0.00     0.139 C 
ATOM     23  H32 UNL     1       4.790   5.480  78.953  1.00  0.00     0.279 HD
ATOM     24  H31 UNL     1       3.853   6.630  79.340  1.00  0.00     0.279 HD
HETATM   25  C16 UNL     1       4.734   4.424  81.036  1.00  0.00     0.048 C 
HETATM   26  C17 UNL     1       2.683   5.819  81.354  1.00  0.00     0.048 C 
ENDBRANCH   3  16
TORSDOF 3
ENDMDL
MODEL 5
REMARK VINA RESULT: -6.559570661      1.056      1.326
REMARK  3 active torsions:
REMARK  status: ('A' for Active; 'I' for Inactive)
REMARK    1  A    between atoms: C7_7  and  N1_8 
REMARK       I    between atoms: N1_8  and  C8_10 
REMARK    2  A    between atoms: C8_10  and  C9_12 
REMARK       I    between atoms: C9_12  and  N2_14 
REMARK    3  A    between atoms: N2_14  and  C10_16 
ROOT
HETATM    1  C9  UNL     1      -0.874   3.894  81.206  1.00  0.00     0.309 C 
HETATM    2  O2  UNL     1      -0.942   3.560  80.000  1.00  0.00    -0.262 OA
HETATM    3  N2  UNL     1      -0.018   4.955  81.567  1.00  0.00    -0.346 N 
ATOM      4  H2  UNL     1       0.045   5.235  82.546  1.00  0.00     0.163 HD
ENDROOT
BRANCH   1   5
HETATM    5  C8  UNL     1      -1.679   3.173  82.172  1.00  0.00     0.309 C 
HETATM    6  N1  UNL     1      -1.637   3.486  83.558  1.00  0.00    -0.348 N 
ATOM      7  H1  UNL     1      -1.023   4.238  83.872  1.00  0.00     0.163 HD
HETATM    8  O1  UNL     1      -2.457   2.232  81.837  1.00  0.00    -0.262 OA
BRANCH   6   9
HETATM    9  C7  UNL     1      -2.433   2.779  84.546  1.00  0.00     0.088 C 
HETATM   10  C2  UNL     1      -1.538   1.851  85.292  1.00  0.00     0.004 C 
HETATM   11  C1  UNL     1      -0.355   2.505  85.931  1.00  0.00     0.012 C 
HETATM   12  C3  UNL     1      -2.382   1.169  86.373  1.00  0.00     0.006 C 
HETATM   13  C4  UNL     1      -2.768   2.248  87.346  1.00  0.00     0.001 C 
HETATM   14  C5  UNL     1      -3.643   3.264  86.693  1.00  0.00     0.002 C 
HETATM   15  C6  UNL     1      -3.089   3.820  85.415  1.00  0.00     0.025 C 
ENDBRANCH   6   9
ENDBRANCH   1   5
BRANCH   3  16
HETATM   16  C10 UNL     1       0.776   5.658  80.577  1.00  0.00     0.122 C 
HETATM   17  C11 UNL     1       0.098   6.906  80.121  1.00  0.00     0.065 C 
HETATM   18  C12 UNL     1       0.929   8.048  80.674  1.00  0.00     0.121 C 
HETATM   19  C13 UNL     1       0.426   8.563  81.981  1.00  0.00     0.046 C 
HETATM   20  C14 UNL     1       1.025   9.177  79.667  1.00  0.00     0.046 C 
HETATM   21  N3  UNL     1       2.258   7.494  80.849  1.00  0.00    -0.057 N 
HETATM   22  C15 UNL     1       2.107   6.080  81.089  1.00  0.00     0.139 C 
ATOM     23  H32 UNL     1       2.882   7.702  80.068  1.00  0.00     0.279 HD
ATOM     24  H31 UNL     1       2.794   7.967  81.576  1.00  0.00     0.279 HD
HETATM   25  C16 UNL     1       3.196   5.394  80.257  1.00  0.00     0.048 C 
HETATM   26  C17 UNL     1       2.295   5.761  82.561  1.00  0.00     0.048 C 
ENDBRANCH   3  16
TORSDOF 3
ENDMDL
