MODEL 1
REMARK VINA RESULT: -7.421217980      0.000      0.000
REMARK  4 active torsions:
REMARK  status: ('A' for Active; 'I' for Inactive)
REMARK    1  A    between atoms: C2_2  and  N1_5 
REMARK    2  A    between atoms: C6_11  and  C7_12 
REMARK    3  A    between atoms: C8_15  and  N3_16 
REMARK    4  A    between atoms: N3_16  and  C9_18 
ROOT
HETATM    1  N1  UNL     1      -3.208   3.657  86.381  1.00  0.00    -0.204 N 
ATOM      2  H1  UNL     1      -3.734   4.381  86.870  1.00  0.00     0.179 HD
HETATM    3  C4  UNL     1      -2.727   4.014  85.263  1.00  0.00     0.681 A 
HETATM    4  N2  UNL     1      -2.994   5.305  84.899  1.00  0.00    -0.201 N 
ATOM      5  H2  UNL     1      -3.545   5.891  85.525  1.00  0.00     0.183 HD
HETATM    6  C5  UNL     1      -2.555   5.823  83.743  1.00  0.00     0.128 A 
HETATM    7  C6  UNL     1      -1.813   5.018  82.906  1.00  0.00     0.100 A 
HETATM    8  C8  UNL     1      -1.520   3.690  83.247  1.00  0.00     0.135 A 
HETATM    9  N4  UNL     1      -1.996   3.247  84.420  1.00  0.00    -0.176 N 
ATOM     10  H4  UNL     1      -1.796   2.285  84.691  1.00  0.00     0.186 HD
ENDROOT
BRANCH   8  11
HETATM   11  N3  UNL     1      -0.854   3.019  82.457  1.00  0.00    -0.370 N 
ATOM     12  H3  UNL     1      -0.507   3.597  81.691  1.00  0.00     0.161 HD
BRANCH  11  13
HETATM   13  C9  UNL     1      -0.437   1.692  82.308  1.00  0.00     0.083 C 
HETATM   14  C10 UNL     1      -1.497   0.725  81.796  1.00  0.00     0.025 C 
HETATM   15  C11 UNL     1      -0.941  -0.679  81.692  1.00  0.00     0.002 C 
HETATM   16  C12 UNL     1       0.284  -0.757  80.844  1.00  0.00     0.000 C 
HETATM   17  C13 UNL     1       0.754   0.585  80.377  1.00  0.00     0.002 C 
HETATM   18  C14 UNL     1       0.821   1.626  81.476  1.00  0.00     0.025 C 
ENDBRANCH  11  13
ENDBRANCH   8  11
BRANCH   7  19
HETATM   19  C7  UNL     1      -1.329   5.543  81.663  1.00  0.00     0.214 C 
HETATM   20  O1  UNL     1      -0.281   6.212  81.613  1.00  0.00    -0.644 OA
HETATM   21  O2  UNL     1      -2.019   5.317  80.471  1.00  0.00    -0.644 OA
ENDBRANCH   7  19
BRANCH   1  22
HETATM   22  C2  UNL     1      -3.132   2.417  87.063  1.00  0.00     0.117 C 
HETATM   23  C1  UNL     1      -3.184   2.651  88.554  1.00  0.00     0.056 C 
HETATM   24  C3  UNL     1      -4.336   1.522  86.738  1.00  0.00     0.056 C 
HETATM   25 CL1  UNL     1      -1.659   1.557  86.559  1.00  0.00    -0.096 Cl
ENDBRANCH   1  22
TORSDOF 4
ENDMDL
MODEL 2
REMARK VINA RESULT: -7.368208548      2.924      6.063
REMARK  4 active torsions:
REMARK  status: ('A' for Active; 'I' for Inactive)
REMARK    1  A    between atoms: C2_2  and  N1_5 
REMARK    2  A    between atoms: C6_11  and  C7_12 
REMARK    3  A    between atoms: C8_15  and  N3_16 
REMARK    4  A    between atoms: N3_16  and  C9_18 
ROOT
HETATM    1  N1  UNL     1       1.657   4.969  81.834  1.00  0.00    -0.204 N 
ATOM      2  H1  UNL     1       2.331   4.944  81.070  1.00  0.00     0.179 HD
HETATM    3  C4  UNL     1       0.960   3.917  81.961  1.00  0.00     0.681 A 
HETATM    4  N2  UNL     1       1.226   2.928  81.055  1.00  0.00    -0.201 N 
ATOM      5  H2  UNL     1       1.948   3.083  80.351  1.00  0.00     0.183 HD
HETATM    6  C5  UNL     1       0.568   1.760  81.064  1.00  0.00     0.128 A 
HETATM    7  C6  UNL     1      -0.405   1.565  82.019  1.00  0.00     0.100 A 
HETATM    8  C8  UNL     1      -0.705   2.557  82.963  1.00  0.00     0.135 A 
HETATM    9  N4  UNL     1      -0.002   3.697  82.889  1.00  0.00    -0.176 N 
ATOM     10  H4  UNL     1      -0.201   4.434  83.564  1.00  0.00     0.186 HD
ENDROOT
BRANCH   8  11
HETATM   11  N3  UNL     1      -1.587   2.325  83.792  1.00  0.00    -0.370 N 
ATOM     12  H3  UNL     1      -2.321   1.742  83.389  1.00  0.00     0.161 HD
BRANCH  11  13
HETATM   13  C9  UNL     1      -1.870   2.631  85.128  1.00  0.00     0.083 C 
HETATM   14  C10 UNL     1      -3.291   3.107  85.404  1.00  0.00     0.025 C 
HETATM   15  C11 UNL     1      -3.477   3.425  86.873  1.00  0.00     0.002 C 
HETATM   16  C12 UNL     1      -3.133   2.278  87.762  1.00  0.00     0.000 C 
HETATM   17  C13 UNL     1      -2.575   1.109  87.014  1.00  0.00     0.002 C 
HETATM   18  C14 UNL     1      -1.488   1.478  86.024  1.00  0.00     0.025 C 
ENDBRANCH  11  13
ENDBRANCH   8  11
BRANCH   7  19
HETATM   19  C7  UNL     1      -1.128   0.327  82.054  1.00  0.00     0.214 C 
HETATM   20  O1  UNL     1      -1.639  -0.146  81.022  1.00  0.00    -0.644 OA
HETATM   21  O2  UNL     1      -1.278  -0.384  83.245  1.00  0.00    -0.644 OA
ENDBRANCH   7  19
BRANCH   1  22
HETATM   22  C2  UNL     1       1.652   6.173  82.580  1.00  0.00     0.117 C 
HETATM   23  C1  UNL     1       2.884   6.982  82.251  1.00  0.00     0.056 C 
HETATM   24  C3  UNL     1       0.458   7.061  82.208  1.00  0.00     0.056 C 
HETATM   25 CL1  UNL     1       1.531   5.791  84.314  1.00  0.00    -0.096 Cl
ENDBRANCH   1  22
TORSDOF 4
ENDMDL
MODEL 3
REMARK VINA RESULT: -7.284820601      3.051      5.987
REMARK  4 active torsions:
REMARK  status: ('A' for Active; 'I' for Inactive)
REMARK    1  A    between atoms: C2_2  and  N1_5 
REMARK    2  A    between atoms: C6_11  and  C7_12 
REMARK    3  A    between atoms: C8_15  and  N3_16 
REMARK    4  A    between atoms: N3_16  and  C9_18 
ROOT
HETATM    1  N1  UNL     1       1.239   5.459  81.801  1.00  0.00    -0.204 N 
ATOM      2  H1  UNL     1       1.863   5.526  80.998  1.00  0.00     0.179 HD
HETATM    3  C4  UNL     1       0.623   4.355  81.903  1.00  0.00     0.681 A 
HETATM    4  N2  UNL     1       0.898   3.441  80.924  1.00  0.00    -0.201 N 
ATOM      5  H2  UNL     1       1.562   3.688  80.190  1.00  0.00     0.183 HD
HETATM    6  C5  UNL     1       0.321   2.231  80.899  1.00  0.00     0.128 A 
HETATM    7  C6  UNL     1      -0.574   1.913  81.896  1.00  0.00     0.100 A 
HETATM    8  C8  UNL     1      -0.880   2.825  82.916  1.00  0.00     0.135 A 
HETATM    9  N4  UNL     1      -0.261   4.014  82.870  1.00  0.00    -0.176 N 
ATOM     10  H4  UNL     1      -0.466   4.695  83.601  1.00  0.00     0.186 HD
ENDROOT
BRANCH   8  11
HETATM   11  N3  UNL     1      -1.691   2.484  83.779  1.00  0.00    -0.370 N 
ATOM     12  H3  UNL     1      -2.386   1.845  83.393  1.00  0.00     0.161 HD
BRANCH  11  13
HETATM   13  C9  UNL     1      -1.931   2.721  85.137  1.00  0.00     0.083 C 
HETATM   14  C10 UNL     1      -3.347   3.161  85.485  1.00  0.00     0.025 C 
HETATM   15  C11 UNL     1      -3.485   3.404  86.973  1.00  0.00     0.002 C 
HETATM   16  C12 UNL     1      -3.094   2.222  87.794  1.00  0.00     0.000 C 
HETATM   17  C13 UNL     1      -2.546   1.099  86.971  1.00  0.00     0.002 C 
HETATM   18  C14 UNL     1      -1.501   1.532  85.963  1.00  0.00     0.025 C 
ENDBRANCH  11  13
ENDBRANCH   8  11
BRANCH   7  19
HETATM   19  C7  UNL     1      -1.209   0.627  81.897  1.00  0.00     0.214 C 
HETATM   20  O1  UNL     1      -1.776   0.192  80.878  1.00  0.00    -0.644 OA
HETATM   21  O2  UNL     1      -1.207  -0.175  83.039  1.00  0.00    -0.644 OA
ENDBRANCH   7  19
BRANCH   1  22
HETATM   22  C2  UNL     1       1.200   6.615  82.619  1.00  0.00     0.117 C 
HETATM   23  C1  UNL     1       1.496   6.237  84.050  1.00  0.00     0.056 C 
HETATM   24  C3  UNL     1       2.286   7.623  82.221  1.00  0.00     0.056 C 
HETATM   25 CL1  UNL     1      -0.380   7.413  82.437  1.00  0.00    -0.096 Cl
ENDBRANCH   1  22
TORSDOF 4
ENDMDL
MODEL 4
REMARK VINA RESULT: -7.282964866      2.114      5.417
REMARK  4 active torsions:
REMARK  status: ('A' for Active; 'I' for Inactive)
REMARK    1  A    between atoms: C2_2  and  N1_5 
REMARK    2  A    between atoms: C6_11  and  C7_12 
REMARK    3  A    between atoms: C8_15  and  N3_16 
REMARK    4  A    between atoms: N3_16  and  C9_18 
ROOT
HETATM    1  N1  UNL     1       0.584   0.832  81.173  1.00  0.00    -0.204 N 
ATOM      2  H1  UNL     1       1.356   0.547  80.571  1.00  0.00     0.179 HD
HETATM    3  C4  UNL     1       0.687   2.003  81.648  1.00  0.00     0.681 A 
HETATM    4  N2  UNL     1       1.812   2.686  81.278  1.00  0.00    -0.201 N 
ATOM      5  H2  UNL     1       2.484   2.233  80.659  1.00  0.00     0.183 HD
HETATM    6  C5  UNL     1       2.059   3.933  81.704  1.00  0.00     0.128 A 
HETATM    7  C6  UNL     1       1.143   4.532  82.541  1.00  0.00     0.100 A 
HETATM    8  C8  UNL     1      -0.021   3.861  82.942  1.00  0.00     0.135 A 
HETATM    9  N4  UNL     1      -0.196   2.617  82.472  1.00  0.00    -0.176 N 
ATOM     10  H4  UNL     1      -1.035   2.108  82.748  1.00  0.00     0.186 HD
ENDROOT
BRANCH   8  11
HETATM   11  N3  UNL     1      -0.802   4.447  83.694  1.00  0.00    -0.370 N 
ATOM     12  H3  UNL     1      -1.032   5.372  83.330  1.00  0.00     0.161 HD
BRANCH  11  13
HETATM   13  C9  UNL     1      -1.464   4.208  84.903  1.00  0.00     0.083 C 
HETATM   14  C10 UNL     1      -2.969   3.998  84.796  1.00  0.00     0.025 C 
HETATM   15  C11 UNL     1      -3.579   3.766  86.163  1.00  0.00     0.002 C 
HETATM   16  C12 UNL     1      -2.948   2.630  86.895  1.00  0.00     0.000 C 
HETATM   17  C13 UNL     1      -1.780   2.045  86.165  1.00  0.00     0.002 C 
HETATM   18  C14 UNL     1      -0.798   3.079  85.652  1.00  0.00     0.025 C 
ENDBRANCH  11  13
ENDBRANCH   8  11
BRANCH   7  19
HETATM   19  C7  UNL     1       1.379   5.864  83.015  1.00  0.00     0.214 C 
HETATM   20  O1  UNL     1       1.530   6.096  84.229  1.00  0.00    -0.644 OA
HETATM   21  O2  UNL     1       1.447   6.940  82.130  1.00  0.00    -0.644 OA
ENDBRANCH   7  19
BRANCH   1  22
HETATM   22  C2  UNL     1      -0.428  -0.145  81.340  1.00  0.00     0.117 C 
HETATM   23  C1  UNL     1      -1.493   0.037  80.285  1.00  0.00     0.056 C 
HETATM   24  C3  UNL     1       0.120  -1.564  81.139  1.00  0.00     0.056 C 
HETATM   25 CL1  UNL     1      -1.081  -0.040  82.992  1.00  0.00    -0.096 Cl
ENDBRANCH   1  22
TORSDOF 4
ENDMDL
MODEL 5
REMARK VINA RESULT: -7.235251463      2.839      5.741
REMARK  4 active torsions:
REMARK  status: ('A' for Active; 'I' for Inactive)
REMARK    1  A    between atoms: C2_2  and  N1_5 
REMARK    2  A    between atoms: C6_11  and  C7_12 
REMARK    3  A    between atoms: C8_15  and  N3_16 
REMARK    4  A    between atoms: N3_16  and  C9_18 
ROOT
HETATM    1  N1  UNL     1      -1.461   5.894  81.089  1.00  0.00    -0.204 N 
ATOM      2  H1  UNL     1      -1.472   6.056  80.083  1.00  0.00     0.179 HD
HETATM    3  C4  UNL     1      -1.256   4.689  81.429  1.00  0.00     0.681 A 
HETATM    4  N2  UNL     1      -1.087   3.812  80.394  1.00  0.00    -0.201 N 
ATOM      5  H2  UNL     1      -1.131   4.162  79.437  1.00  0.00     0.183 HD
HETATM    6  C5  UNL     1      -0.865   2.505  80.598  1.00  0.00     0.128 A 
HETATM    7  C6  UNL     1      -0.810   2.047  81.896  1.00  0.00     0.100 A 
HETATM    8  C8  UNL     1      -0.980   2.918  82.982  1.00  0.00     0.135 A 
HETATM    9  N4  UNL     1      -1.197   4.209  82.694  1.00  0.00    -0.176 N 
ATOM     10  H4  UNL     1      -1.323   4.863  83.466  1.00  0.00     0.186 HD
ENDROOT
BRANCH   8  11
HETATM   11  N3  UNL     1      -0.921   2.448  84.120  1.00  0.00    -0.370 N 
ATOM     12  H3  UNL     1      -0.252   1.680  84.163  1.00  0.00     0.161 HD
BRANCH  11  13
HETATM   13  C9  UNL     1      -1.511   2.667  85.370  1.00  0.00     0.083 C 
HETATM   14  C10 UNL     1      -2.977   3.078  85.340  1.00  0.00     0.025 C 
HETATM   15  C11 UNL     1      -3.502   3.303  86.743  1.00  0.00     0.002 C 
HETATM   16  C12 UNL     1      -3.315   2.119  87.630  1.00  0.00     0.000 C 
HETATM   17  C13 UNL     1      -2.550   1.015  86.971  1.00  0.00     0.002 C 
HETATM   18  C14 UNL     1      -1.287   1.476  86.272  1.00  0.00     0.025 C 
ENDBRANCH  11  13
ENDBRANCH   8  11
BRANCH   7  19
HETATM   19  C7  UNL     1      -0.576   0.655  82.148  1.00  0.00     0.214 C 
HETATM   20  O1  UNL     1       0.354   0.049  81.584  1.00  0.00    -0.644 OA
HETATM   21  O2  UNL     1      -1.383  -0.061  83.033  1.00  0.00    -0.644 OA
ENDBRANCH   7  19
BRANCH   1  22
HETATM   22  C2  UNL     1      -1.675   7.050  81.879  1.00  0.00     0.117 C 
HETATM   23  C1  UNL     1      -0.386   7.452  82.555  1.00  0.00     0.056 C 
HETATM   24  C3  UNL     1      -2.088   8.251  81.018  1.00  0.00     0.056 C 
HETATM   25 CL1  UNL     1      -2.985   6.735  83.041  1.00  0.00    -0.096 Cl
ENDBRANCH   1  22
TORSDOF 4
ENDMDL
