MODEL 1
REMARK VINA RESULT: -8.682604150      0.000      0.000
REMARK  12 active torsions:
REMARK  status: ('A' for Active; 'I' for Inactive)
REMARK    1  A    between atoms: C2_2  and  N1_3 
REMARK    2  A    between atoms: C2_2  and  C9_13 
REMARK    3  A    between atoms: N1_3  and  N2_4 
REMARK    4  A    between atoms: N2_4  and  C3_6 
REMARK    5  A    between atoms: C3_6  and  C4_7 
REMARK       I    between atoms: C9_13  and  N4_15 
REMARK       I    between atoms: N4_15  and  C10_17 
REMARK    6  A    between atoms: C10_17  and  C11_19 
REMARK    7  A    between atoms: C11_19  and  N7_28 
REMARK    8  A    between atoms: N5_20  and  N6_22 
REMARK       I    between atoms: N6_22  and  C12_24 
REMARK    9  A    between atoms: C12_24  and  C13_26 
REMARK   10  A    between atoms: C15_30  and  O4_31 
REMARK   11  A    between atoms: C15_30  and  C16_33 
REMARK   12  A    between atoms: C16_33  and  O5_34 
ROOT
HETATM    1  C11 UNL     1      -2.374   1.679  25.490  1.00  0.00     0.188 C 
HETATM    2  N5  UNL     1      -1.925   1.696  26.684  1.00  0.00    -0.278 N 
ATOM      3  H5  UNL     1      -2.557   1.429  27.439  1.00  0.00     0.189 HD
ENDROOT
BRANCH   1   4
HETATM    4  C10 UNL     1      -3.789   1.265  25.353  1.00  0.00     0.293 C 
HETATM    5  N4  UNL     1      -4.299   0.090  25.969  1.00  0.00    -0.289 N 
HETATM    6  C9  UNL     1      -5.657  -0.245  25.795  1.00  0.00     0.245 C 
ATOM      7  H4  UNL     1      -3.689  -0.505  26.531  1.00  0.00     0.172 HD
HETATM    8  O1  UNL     1      -6.385   0.500  25.100  1.00  0.00    -0.271 OA
HETATM    9  O2  UNL     1      -4.557   1.984  24.667  1.00  0.00    -0.264 OA
BRANCH   6  10
HETATM   10  C2  UNL     1      -6.202  -1.449  26.421  1.00  0.00     0.187 C 
HETATM   11  C1  UNL     1      -7.490  -1.894  25.733  1.00  0.00     0.040 C 
BRANCH  10  12
HETATM   12  N1  UNL     1      -5.278  -2.561  26.421  1.00  0.00    -0.132 NA
BRANCH  12  13
HETATM   13  N2  UNL     1      -5.968  -3.728  26.277  1.00  0.00    -0.337 N 
ATOM     14  H2  UNL     1      -6.798  -3.800  25.689  1.00  0.00     0.175 HD
BRANCH  13  15
HETATM   15  C3  UNL     1      -5.451  -4.844  27.004  1.00  0.00     0.171 C 
BRANCH  15  16
HETATM   16  C4  UNL     1      -6.288  -5.302  28.138  1.00  0.00     0.241 C 
HETATM   17  C5  UNL     1      -6.556  -6.764  28.184  1.00  0.00     0.039 C 
HETATM   18  C6  UNL     1      -5.815  -7.266  29.426  1.00  0.00     0.032 C 
HETATM   19  C7  UNL     1      -5.893  -6.028  30.310  1.00  0.00     0.272 C 
HETATM   20  N3  UNL     1      -5.568  -4.987  29.378  1.00  0.00     0.090 N 
HETATM   21  C8  UNL     1      -5.825  -3.663  29.836  1.00  0.00     0.310 C 
ENDBRANCH  15  16
ENDBRANCH  13  15
ENDBRANCH  12  13
ENDBRANCH  10  12
ENDBRANCH   6  10
ENDBRANCH   1   4
BRANCH   1  22
HETATM   22  N7  UNL     1      -1.673   2.012  24.314  1.00  0.00    -0.354 N 
HETATM   23  C14 UNL     1      -1.126   1.078  23.363  1.00  0.00     0.165 C 
HETATM   24  C15 UNL     1      -0.358   1.875  22.363  1.00  0.00     0.097 C 
HETATM   25  C17 UNL     1      -0.115   3.195  23.018  1.00  0.00     0.066 C 
HETATM   26  C18 UNL     1      -1.371   3.363  23.879  1.00  0.00     0.085 C 
HETATM   27  C19 UNL     1      -2.481   3.993  23.104  1.00  0.00     0.032 C 
BRANCH  24  28
HETATM   28  O4  UNL     1      -1.137   2.043  21.221  1.00  0.00    -0.386 OA
ATOM     29  H4  UNL     1      -1.249   2.973  21.058  1.00  0.00     0.210 HD
ENDBRANCH  24  28
BRANCH  24  30
HETATM   30  C16 UNL     1       0.945   1.157  22.043  1.00  0.00     0.203 C 
BRANCH  30  31
HETATM   31  O5  UNL     1       0.659   0.074  21.219  1.00  0.00    -0.398 OA
ATOM     32  H5  UNL     1       1.415  -0.501  21.205  1.00  0.00     0.209 HD
ENDBRANCH  30  31
ENDBRANCH  24  30
ENDBRANCH   1  22
BRANCH   2  33
HETATM   33  N6  UNL     1      -0.643   2.050  27.013  1.00  0.00    -0.267 N 
HETATM   34  C12 UNL     1      -0.382   3.128  27.890  1.00  0.00     0.249 C 
HETATM   35  O3  UNL     1      -1.344   3.779  28.380  1.00  0.00    -0.271 OA
ATOM     36  H6  UNL     1       0.138   1.526  26.617  1.00  0.00     0.190 HD
BRANCH  34  37
HETATM   37  C13 UNL     1       1.010   3.493  28.233  1.00  0.00     0.219 C 
HETATM   38 CL1  UNL     1       1.022   4.875  29.362  1.00  0.00    -0.121 Cl
ENDBRANCH  34  37
ENDBRANCH   2  33
TORSDOF 12
ENDMDL
MODEL 2
REMARK VINA RESULT: -8.566237985      0.666      1.139
REMARK  12 active torsions:
REMARK  status: ('A' for Active; 'I' for Inactive)
REMARK    1  A    between atoms: C2_2  and  N1_3 
REMARK    2  A    between atoms: C2_2  and  C9_13 
REMARK    3  A    between atoms: N1_3  and  N2_4 
REMARK    4  A    between atoms: N2_4  and  C3_6 
REMARK    5  A    between atoms: C3_6  and  C4_7 
REMARK       I    between atoms: C9_13  and  N4_15 
REMARK       I    between atoms: N4_15  and  C10_17 
REMARK    6  A    between atoms: C10_17  and  C11_19 
REMARK    7  A    between atoms: C11_19  and  N7_28 
REMARK    8  A    between atoms: N5_20  and  N6_22 
REMARK       I    between atoms: N6_22  and  C12_24 
REMARK    9  A    between atoms: C12_24  and  C13_26 
REMARK   10  A    between atoms: C15_30  and  O4_31 
REMARK   11  A    between atoms: C15_30  and  C16_33 
REMARK   12  A    between atoms: C16_33  and  O5_34 
ROOT
HETATM    1  C11 UNL     1      -2.452   1.499  25.530  1.00  0.00     0.188 C 
HETATM    2  N5  UNL     1      -2.022   1.443  26.731  1.00  0.00    -0.278 N 
ATOM      3  H5  UNL     1      -2.672   1.150  27.460  1.00  0.00     0.189 HD
ENDROOT
BRANCH   1   4
HETATM    4  C10 UNL     1      -3.872   1.122  25.349  1.00  0.00     0.293 C 
HETATM    5  N4  UNL     1      -4.435  -0.031  25.961  1.00  0.00    -0.289 N 
HETATM    6  C9  UNL     1      -5.795  -0.331  25.744  1.00  0.00     0.245 C 
ATOM      7  H4  UNL     1      -3.862  -0.635  26.551  1.00  0.00     0.172 HD
HETATM    8  O1  UNL     1      -6.478   0.425  25.015  1.00  0.00    -0.271 OA
HETATM    9  O2  UNL     1      -4.595   1.853  24.628  1.00  0.00    -0.264 OA
BRANCH   6  10
HETATM   10  C2  UNL     1      -6.394  -1.511  26.365  1.00  0.00     0.187 C 
HETATM   11  C1  UNL     1      -7.659  -1.942  25.626  1.00  0.00     0.040 C 
BRANCH  10  12
HETATM   12  N1  UNL     1      -5.496  -2.643  26.426  1.00  0.00    -0.132 NA
BRANCH  12  13
HETATM   13  N2  UNL     1      -5.198  -2.919  27.727  1.00  0.00    -0.337 N 
ATOM     14  H2  UNL     1      -4.377  -2.530  28.191  1.00  0.00     0.175 HD
BRANCH  13  15
HETATM   15  C3  UNL     1      -6.111  -3.789  28.398  1.00  0.00     0.171 C 
BRANCH  15  16
HETATM   16  C4  UNL     1      -5.544  -5.089  28.828  1.00  0.00     0.241 C 
HETATM   17  C5  UNL     1      -5.790  -5.455  30.249  1.00  0.00     0.039 C 
HETATM   18  C6  UNL     1      -6.727  -6.664  30.192  1.00  0.00     0.032 C 
HETATM   19  C7  UNL     1      -6.284  -7.292  28.877  1.00  0.00     0.272 C 
HETATM   20  N3  UNL     1      -6.184  -6.140  28.027  1.00  0.00     0.090 N 
HETATM   21  C8  UNL     1      -5.520  -6.360  26.787  1.00  0.00     0.310 C 
ENDBRANCH  15  16
ENDBRANCH  13  15
ENDBRANCH  12  13
ENDBRANCH  10  12
ENDBRANCH   6  10
ENDBRANCH   1   4
BRANCH   1  22
HETATM   22  N7  UNL     1      -1.724   1.880  24.385  1.00  0.00    -0.354 N 
HETATM   23  C14 UNL     1      -1.156   0.986  23.408  1.00  0.00     0.165 C 
HETATM   24  C15 UNL     1      -0.366   1.822  22.460  1.00  0.00     0.097 C 
HETATM   25  C17 UNL     1      -0.138   3.114  23.174  1.00  0.00     0.066 C 
HETATM   26  C18 UNL     1      -1.413   3.247  24.014  1.00  0.00     0.085 C 
HETATM   27  C19 UNL     1      -2.505   3.910  23.241  1.00  0.00     0.032 C 
BRANCH  24  28
HETATM   28  O4  UNL     1      -1.119   2.039  21.309  1.00  0.00    -0.386 OA
ATOM     29  H4  UNL     1      -0.834   1.435  20.634  1.00  0.00     0.210 HD
ENDBRANCH  24  28
BRANCH  24  30
HETATM   30  C16 UNL     1       0.943   1.117  22.139  1.00  0.00     0.203 C 
BRANCH  30  31
HETATM   31  O5  UNL     1       0.680   0.089  21.241  1.00  0.00    -0.398 OA
ATOM     32  H5  UNL     1       1.487  -0.132  20.792  1.00  0.00     0.209 HD
ENDBRANCH  30  31
ENDBRANCH  24  30
ENDBRANCH   1  22
BRANCH   2  33
HETATM   33  N6  UNL     1      -0.739   1.753  27.098  1.00  0.00    -0.267 N 
HETATM   34  C12 UNL     1      -0.418   3.016  27.647  1.00  0.00     0.249 C 
HETATM   35  O3  UNL     1      -1.327   3.877  27.801  1.00  0.00    -0.271 OA
ATOM     36  H6  UNL     1      -0.002   1.059  26.973  1.00  0.00     0.190 HD
BRANCH  34  37
HETATM   37  C13 UNL     1       0.973   3.330  28.038  1.00  0.00     0.219 C 
HETATM   38 CL1  UNL     1       0.984   4.521  29.366  1.00  0.00    -0.121 Cl
ENDBRANCH  34  37
ENDBRANCH   2  33
TORSDOF 12
ENDMDL
MODEL 3
REMARK VINA RESULT: -8.464904346      1.726      2.040
REMARK  12 active torsions:
REMARK  status: ('A' for Active; 'I' for Inactive)
REMARK    1  A    between atoms: C2_2  and  N1_3 
REMARK    2  A    between atoms: C2_2  and  C9_13 
REMARK    3  A    between atoms: N1_3  and  N2_4 
REMARK    4  A    between atoms: N2_4  and  C3_6 
REMARK    5  A    between atoms: C3_6  and  C4_7 
REMARK       I    between atoms: C9_13  and  N4_15 
REMARK       I    between atoms: N4_15  and  C10_17 
REMARK    6  A    between atoms: C10_17  and  C11_19 
REMARK    7  A    between atoms: C11_19  and  N7_28 
REMARK    8  A    between atoms: N5_20  and  N6_22 
REMARK       I    between atoms: N6_22  and  C12_24 
REMARK    9  A    between atoms: C12_24  and  C13_26 
REMARK   10  A    between atoms: C15_30  and  O4_31 
REMARK   11  A    between atoms: C15_30  and  C16_33 
REMARK   12  A    between atoms: C16_33  and  O5_34 
ROOT
HETATM    1  C11 UNL     1      -1.374   1.336  26.385  1.00  0.00     0.188 C 
HETATM    2  N5  UNL     1      -0.723   1.794  27.382  1.00  0.00    -0.278 N 
ATOM      3  H5  UNL     1      -0.896   1.380  28.299  1.00  0.00     0.189 HD
ENDROOT
BRANCH   1   4
HETATM    4  C10 UNL     1      -2.316   0.237  26.695  1.00  0.00     0.293 C 
HETATM    5  N4  UNL     1      -3.707   0.460  26.882  1.00  0.00    -0.289 N 
HETATM    6  C9  UNL     1      -4.546  -0.633  27.178  1.00  0.00     0.245 C 
ATOM      7  H4  UNL     1      -4.095   1.401  26.804  1.00  0.00     0.172 HD
HETATM    8  O1  UNL     1      -4.048  -1.778  27.270  1.00  0.00    -0.271 OA
HETATM    9  O2  UNL     1      -1.860  -0.929  26.794  1.00  0.00    -0.264 OA
BRANCH   6  10
HETATM   10  C2  UNL     1      -5.981  -0.425  27.372  1.00  0.00     0.187 C 
HETATM   11  C1  UNL     1      -6.472   0.796  26.600  1.00  0.00     0.040 C 
BRANCH  10  12
HETATM   12  N1  UNL     1      -6.781  -1.564  26.978  1.00  0.00    -0.132 NA
BRANCH  12  13
HETATM   13  N2  UNL     1      -6.675  -2.544  27.919  1.00  0.00    -0.337 N 
ATOM     14  H2  UNL     1      -6.662  -2.339  28.918  1.00  0.00     0.175 HD
BRANCH  13  15
HETATM   15  C3  UNL     1      -6.583  -3.877  27.413  1.00  0.00     0.171 C 
BRANCH  15  16
HETATM   16  C4  UNL     1      -5.649  -4.767  28.143  1.00  0.00     0.241 C 
HETATM   17  C5  UNL     1      -5.574  -4.547  29.612  1.00  0.00     0.039 C 
HETATM   18  C6  UNL     1      -6.175  -5.810  30.235  1.00  0.00     0.032 C 
HETATM   19  C7  UNL     1      -5.796  -6.842  29.180  1.00  0.00     0.272 C 
HETATM   20  N3  UNL     1      -6.120  -6.146  27.968  1.00  0.00     0.090 N 
HETATM   21  C8  UNL     1      -5.621  -6.745  26.775  1.00  0.00     0.310 C 
ENDBRANCH  15  16
ENDBRANCH  13  15
ENDBRANCH  12  13
ENDBRANCH  10  12
ENDBRANCH   6  10
ENDBRANCH   1   4
BRANCH   1  22
HETATM   22  N7  UNL     1      -1.288   1.766  25.045  1.00  0.00    -0.354 N 
HETATM   23  C14 UNL     1      -0.712   1.022  23.954  1.00  0.00     0.165 C 
HETATM   24  C15 UNL     1      -0.717   1.921  22.764  1.00  0.00     0.097 C 
HETATM   25  C17 UNL     1      -0.884   3.299  23.315  1.00  0.00     0.066 C 
HETATM   26  C18 UNL     1      -1.754   3.048  24.552  1.00  0.00     0.085 C 
HETATM   27  C19 UNL     1      -3.206   3.052  24.203  1.00  0.00     0.032 C 
BRANCH  24  28
HETATM   28  O4  UNL     1      -1.802   1.596  21.954  1.00  0.00    -0.386 OA
ATOM     29  H4  UNL     1      -2.019   2.346  21.412  1.00  0.00     0.210 HD
ENDBRANCH  24  28
BRANCH  24  30
HETATM   30  C16 UNL     1       0.598   1.769  22.015  1.00  0.00     0.203 C 
BRANCH  30  31
HETATM   31  O5  UNL     1       0.558   0.582  21.293  1.00  0.00    -0.398 OA
ATOM     32  H5  UNL     1       1.165   0.652  20.565  1.00  0.00     0.209 HD
ENDBRANCH  30  31
ENDBRANCH  24  30
ENDBRANCH   1  22
BRANCH   2  33
HETATM   33  N6  UNL     1       0.193   2.808  27.296  1.00  0.00    -0.267 N 
HETATM   34  C12 UNL     1      -0.148   4.137  27.641  1.00  0.00     0.249 C 
HETATM   35  O3  UNL     1      -1.318   4.397  28.034  1.00  0.00    -0.271 OA
ATOM     36  H6  UNL     1       1.139   2.602  26.977  1.00  0.00     0.190 HD
BRANCH  34  37
HETATM   37  C13 UNL     1       0.857   5.217  27.541  1.00  0.00     0.219 C 
HETATM   38 CL1  UNL     1       1.509   5.299  25.882  1.00  0.00    -0.121 Cl
ENDBRANCH  34  37
ENDBRANCH   2  33
TORSDOF 12
ENDMDL
MODEL 4
REMARK VINA RESULT: -8.184289161      1.366      1.582
REMARK  12 active torsions:
REMARK  status: ('A' for Active; 'I' for Inactive)
REMARK    1  A    between atoms: C2_2  and  N1_3 
REMARK    2  A    between atoms: C2_2  and  C9_13 
REMARK    3  A    between atoms: N1_3  and  N2_4 
REMARK    4  A    between atoms: N2_4  and  C3_6 
REMARK    5  A    between atoms: C3_6  and  C4_7 
REMARK       I    between atoms: C9_13  and  N4_15 
REMARK       I    between atoms: N4_15  and  C10_17 
REMARK    6  A    between atoms: C10_17  and  C11_19 
REMARK    7  A    between atoms: C11_19  and  N7_28 
REMARK    8  A    between atoms: N5_20  and  N6_22 
REMARK       I    between atoms: N6_22  and  C12_24 
REMARK    9  A    between atoms: C12_24  and  C13_26 
REMARK   10  A    between atoms: C15_30  and  O4_31 
REMARK   11  A    between atoms: C15_30  and  C16_33 
REMARK   12  A    between atoms: C16_33  and  O5_34 
ROOT
HETATM    1  C11 UNL     1      -2.800   1.781  26.661  1.00  0.00     0.188 C 
HETATM    2  N5  UNL     1      -1.890   1.624  27.542  1.00  0.00    -0.278 N 
ATOM      3  H5  UNL     1      -2.149   1.185  28.425  1.00  0.00     0.189 HD
ENDROOT
BRANCH   1   4
HETATM    4  C10 UNL     1      -4.143   1.293  27.045  1.00  0.00     0.293 C 
HETATM    5  N4  UNL     1      -4.616   0.003  26.680  1.00  0.00    -0.289 N 
HETATM    6  C9  UNL     1      -5.907  -0.395  27.079  1.00  0.00     0.245 C 
ATOM      7  H4  UNL     1      -4.027  -0.627  26.135  1.00  0.00     0.172 HD
HETATM    8  O1  UNL     1      -6.612   0.396  27.747  1.00  0.00    -0.271 OA
HETATM    9  O2  UNL     1      -4.883   2.053  27.718  1.00  0.00    -0.264 OA
BRANCH   6  10
HETATM   10  C2  UNL     1      -6.412  -1.719  26.716  1.00  0.00     0.187 C 
HETATM   11  C1  UNL     1      -7.462  -1.625  25.611  1.00  0.00     0.040 C 
BRANCH  10  12
HETATM   12  N1  UNL     1      -5.374  -2.626  26.280  1.00  0.00    -0.132 NA
BRANCH  12  13
HETATM   13  N2  UNL     1      -5.861  -3.899  26.252  1.00  0.00    -0.337 N 
ATOM     14  H2  UNL     1      -6.578  -4.192  25.589  1.00  0.00     0.175 HD
BRANCH  13  15
HETATM   15  C3  UNL     1      -5.301  -4.795  27.214  1.00  0.00     0.171 C 
BRANCH  15  16
HETATM   16  C4  UNL     1      -6.261  -5.346  28.199  1.00  0.00     0.241 C 
HETATM   17  C5  UNL     1      -6.464  -6.818  28.140  1.00  0.00     0.039 C 
HETATM   18  C6  UNL     1      -5.874  -7.354  29.446  1.00  0.00     0.032 C 
HETATM   19  C7  UNL     1      -6.130  -6.169  30.368  1.00  0.00     0.272 C 
HETATM   20  N3  UNL     1      -5.731  -5.068  29.539  1.00  0.00     0.090 N 
HETATM   21  C8  UNL     1      -6.110  -3.782  30.020  1.00  0.00     0.310 C 
ENDBRANCH  15  16
ENDBRANCH  13  15
ENDBRANCH  12  13
ENDBRANCH  10  12
ENDBRANCH   6  10
ENDBRANCH   1   4
BRANCH   1  22
HETATM   22  N7  UNL     1      -2.655   2.364  25.386  1.00  0.00    -0.354 N 
HETATM   23  C14 UNL     1      -2.430   1.654  24.152  1.00  0.00     0.165 C 
HETATM   24  C15 UNL     1      -2.204   2.681  23.095  1.00  0.00     0.097 C 
HETATM   25  C17 UNL     1      -1.864   3.934  23.832  1.00  0.00     0.066 C 
HETATM   26  C18 UNL     1      -2.692   3.788  25.113  1.00  0.00     0.085 C 
HETATM   27  C19 UNL     1      -4.076   4.317  24.928  1.00  0.00     0.032 C 
BRANCH  24  28
HETATM   28  O4  UNL     1      -3.382   2.856  22.372  1.00  0.00    -0.386 OA
ATOM     29  H4  UNL     1      -3.824   2.018  22.294  1.00  0.00     0.210 HD
ENDBRANCH  24  28
BRANCH  24  30
HETATM   30  C16 UNL     1      -1.064   2.230  22.193  1.00  0.00     0.203 C 
BRANCH  30  31
HETATM   31  O5  UNL     1      -1.583   1.952  20.934  1.00  0.00    -0.398 OA
ATOM     32  H5  UNL     1      -2.103   1.158  20.992  1.00  0.00     0.209 HD
ENDBRANCH  30  31
ENDBRANCH  24  30
ENDBRANCH   1  22
BRANCH   2  33
HETATM   33  N6  UNL     1      -0.587   2.010  27.371  1.00  0.00    -0.267 N 
HETATM   34  C12 UNL     1      -0.133   3.275  27.812  1.00  0.00     0.249 C 
HETATM   35  O3  UNL     1      -0.941   4.066  28.371  1.00  0.00    -0.271 OA
ATOM     36  H6  UNL     1       0.068   1.373  26.918  1.00  0.00     0.190 HD
BRANCH  34  37
HETATM   37  C13 UNL     1       1.278   3.672  27.620  1.00  0.00     0.219 C 
HETATM   38 CL1  UNL     1       1.430   4.725  26.187  1.00  0.00    -0.121 Cl
ENDBRANCH  34  37
ENDBRANCH   2  33
TORSDOF 12
ENDMDL
MODEL 5
REMARK VINA RESULT: -8.159438913      2.983      3.999
REMARK  12 active torsions:
REMARK  status: ('A' for Active; 'I' for Inactive)
REMARK    1  A    between atoms: C2_2  and  N1_3 
REMARK    2  A    between atoms: C2_2  and  C9_13 
REMARK    3  A    between atoms: N1_3  and  N2_4 
REMARK    4  A    between atoms: N2_4  and  C3_6 
REMARK    5  A    between atoms: C3_6  and  C4_7 
REMARK       I    between atoms: C9_13  and  N4_15 
REMARK       I    between atoms: N4_15  and  C10_17 
REMARK    6  A    between atoms: C10_17  and  C11_19 
REMARK    7  A    between atoms: C11_19  and  N7_28 
REMARK    8  A    between atoms: N5_20  and  N6_22 
REMARK       I    between atoms: N6_22  and  C12_24 
REMARK    9  A    between atoms: C12_24  and  C13_26 
REMARK   10  A    between atoms: C15_30  and  O4_31 
REMARK   11  A    between atoms: C15_30  and  C16_33 
REMARK   12  A    between atoms: C16_33  and  O5_34 
ROOT
HETATM    1  C11 UNL     1      -1.597   1.095  26.176  1.00  0.00     0.188 C 
HETATM    2  N5  UNL     1      -1.005   1.446  27.251  1.00  0.00    -0.278 N 
ATOM      3  H5  UNL     1      -1.263   0.972  28.117  1.00  0.00     0.189 HD
ENDROOT
BRANCH   1   4
HETATM    4  C10 UNL     1      -2.603   0.021  26.330  1.00  0.00     0.293 C 
HETATM    5  N4  UNL     1      -3.900   0.106  25.755  1.00  0.00    -0.289 N 
HETATM    6  C9  UNL     1      -4.809  -0.954  25.944  1.00  0.00     0.245 C 
ATOM      7  H4  UNL     1      -4.170   0.926  25.211  1.00  0.00     0.172 HD
HETATM    8  O1  UNL     1      -4.454  -1.950  26.616  1.00  0.00    -0.271 OA
HETATM    9  O2  UNL     1      -2.290  -0.998  26.994  1.00  0.00    -0.264 OA
BRANCH   6  10
HETATM   10  C2  UNL     1      -6.148  -0.886  25.359  1.00  0.00     0.187 C 
HETATM   11  C1  UNL     1      -7.160  -1.649  26.209  1.00  0.00     0.040 C 
BRANCH  10  12
HETATM   12  N1  UNL     1      -6.627   0.467  25.185  1.00  0.00    -0.132 NA
BRANCH  12  13
HETATM   13  N2  UNL     1      -7.093   0.942  26.374  1.00  0.00    -0.337 N 
ATOM     14  H2  UNL     1      -7.741   0.412  26.955  1.00  0.00     0.175 HD
BRANCH  13  15
HETATM   15  C3  UNL     1      -6.612   2.233  26.753  1.00  0.00     0.171 C 
BRANCH  15  16
HETATM   16  C4  UNL     1      -6.090   2.332  28.137  1.00  0.00     0.241 C 
HETATM   17  C5  UNL     1      -6.358   1.155  29.006  1.00  0.00     0.039 C 
HETATM   18  C6  UNL     1      -4.984   0.532  29.267  1.00  0.00     0.032 C 
HETATM   19  C7  UNL     1      -4.105   1.775  29.209  1.00  0.00     0.272 C 
HETATM   20  N3  UNL     1      -4.629   2.445  28.053  1.00  0.00     0.090 N 
HETATM   21  C8  UNL     1      -4.196   3.792  27.887  1.00  0.00     0.310 C 
ENDBRANCH  15  16
ENDBRANCH  13  15
ENDBRANCH  12  13
ENDBRANCH  10  12
ENDBRANCH   6  10
ENDBRANCH   1   4
BRANCH   1  22
HETATM   22  N7  UNL     1      -1.393   1.621  24.884  1.00  0.00    -0.354 N 
HETATM   23  C14 UNL     1      -0.826   0.915  23.763  1.00  0.00     0.165 C 
HETATM   24  C15 UNL     1      -0.678   1.903  22.657  1.00  0.00     0.097 C 
HETATM   25  C17 UNL     1      -0.748   3.242  23.315  1.00  0.00     0.066 C 
HETATM   26  C18 UNL     1      -1.709   2.978  24.479  1.00  0.00     0.085 C 
HETATM   27  C19 UNL     1      -3.131   3.151  24.059  1.00  0.00     0.032 C 
BRANCH  24  28
HETATM   28  O4  UNL     1      -1.739   1.752  21.767  1.00  0.00    -0.386 OA
ATOM     29  H4  UNL     1      -2.408   2.396  21.971  1.00  0.00     0.210 HD
ENDBRANCH  24  28
BRANCH  24  30
HETATM   30  C16 UNL     1       0.659   1.685  21.964  1.00  0.00     0.203 C 
BRANCH  30  31
HETATM   31  O5  UNL     1       0.604   0.480  21.273  1.00  0.00    -0.398 OA
ATOM     32  H5  UNL     1       1.127   0.563  20.483  1.00  0.00     0.209 HD
ENDBRANCH  30  31
ENDBRANCH  24  30
ENDBRANCH   1  22
BRANCH   2  33
HETATM   33  N6  UNL     1      -0.044   2.421  27.311  1.00  0.00    -0.267 N 
HETATM   34  C12 UNL     1      -0.026   3.368  28.360  1.00  0.00     0.249 C 
HETATM   35  O3  UNL     1      -0.910   3.320  29.259  1.00  0.00    -0.271 OA
ATOM     36  H6  UNL     1       0.671   2.463  26.585  1.00  0.00     0.190 HD
BRANCH  34  37
HETATM   37  C13 UNL     1       1.021   4.412  28.407  1.00  0.00     0.219 C 
HETATM   38 CL1  UNL     1       1.013   5.359  26.894  1.00  0.00    -0.121 Cl
ENDBRANCH  34  37
ENDBRANCH   2  33
TORSDOF 12
ENDMDL
