MODEL 1
REMARK VINA RESULT: -8.363104169      0.000      0.000
REMARK  18 active torsions:
REMARK  status: ('A' for Active; 'I' for Inactive)
REMARK    1  A    between atoms: C2_2  and  C3_3 
REMARK    2  A    between atoms: C3_3  and  C4_4 
REMARK    3  A    between atoms: C7_11  and  C8_12 
REMARK    4  A    between atoms: C8_12  and  O1_13 
REMARK    5  A    between atoms: C8_12  and  N3_15 
REMARK    6  A    between atoms: C11_18  and  C12_19 
REMARK    7  A    between atoms: C12_19  and  N4_20 
REMARK    8  A    between atoms: C13_23  and  C14_24 
REMARK    9  A    between atoms: C14_24  and  C15_25 
REMARK   10  A    between atoms: C15_25  and  O2_26 
REMARK   11  A    between atoms: C15_25  and  N6_28 
REMARK   12  A    between atoms: N6_28  and  C16_29 
REMARK   13  A    between atoms: C16_29  and  C17_30 
REMARK   14  A    between atoms: C16_29  and  C20_35 
REMARK   15  A    between atoms: C17_30  and  C18_31 
REMARK   16  A    between atoms: C18_31  and  C19_32 
REMARK   17  A    between atoms: C20_35  and  O5_37 
REMARK   18  A    between atoms: O5_37  and  C21_38 
ROOT
HETATM    1  N4  UNL     1      12.671  19.958  17.981  1.00  0.00    -0.291 N 
HETATM    2  N5  UNL     1      11.926  20.559  17.093  1.00  0.00    -0.301 N 
ATOM      3  H5  UNL     1      12.082  21.509  16.757  1.00  0.00     0.187 HD
HETATM    4  C13 UNL     1      10.921  19.756  16.680  1.00  0.00     0.047 A 
HETATM    5  C23 UNL     1      11.091  18.582  17.386  1.00  0.00     0.017 A 
HETATM    6  C24 UNL     1      10.355  17.421  17.358  1.00  0.00     0.022 A 
HETATM    7  C25 UNL     1      10.735  16.392  18.158  1.00  0.00    -0.061 A 
HETATM    8  C26 UNL     1       9.938  15.124  18.133  1.00  0.00     0.048 C 
HETATM    9  C27 UNL     1      11.835  16.499  18.985  1.00  0.00     0.009 A 
HETATM   10  C28 UNL     1      12.594  17.670  19.027  1.00  0.00     0.033 A 
HETATM   11  C29 UNL     1      12.187  18.700  18.205  1.00  0.00     0.063 A 
ENDROOT
BRANCH   1  12
HETATM   12  C12 UNL     1      13.821  20.470  18.679  1.00  0.00     0.154 C 
BRANCH  12  13
HETATM   13  C11 UNL     1      14.851  21.134  17.816  1.00  0.00     0.009 C 
HETATM   14  C10 UNL     1      15.978  20.197  17.477  1.00  0.00     0.026 C 
HETATM   15  C9  UNL     1      17.286  20.916  17.146  1.00  0.00     0.125 C 
HETATM   16  N3  UNL     1      17.684  21.788  18.219  1.00  0.00    -0.360 N 
HETATM   17  C31 UNL     1      16.635  21.933  19.267  1.00  0.00     0.125 C 
HETATM   18  C30 UNL     1      15.397  22.370  18.474  1.00  0.00     0.026 C 
BRANCH  16  19
HETATM   19  C8  UNL     1      18.878  22.480  18.368  1.00  0.00     0.167 C 
BRANCH  19  20
HETATM   20  C7  UNL     1      19.232  23.824  17.936  1.00  0.00     0.107 A 
HETATM   21  C4  UNL     1      19.731  24.847  18.705  1.00  0.00     0.042 A 
HETATM   22  N1  UNL     1      19.934  25.900  17.888  1.00  0.00    -0.348 N 
HETATM   23  C5  UNL     1      19.595  25.613  16.645  1.00  0.00     0.077 A 
ATOM     24  H1  UNL     1      20.302  26.801  18.191  1.00  0.00     0.167 HD
HETATM   25  C6  UNL     1      19.675  26.503  15.459  1.00  0.00     0.089 C 
HETATM   26  N2  UNL     1      19.157  24.319  16.676  1.00  0.00    -0.341 N 
ATOM     27  H2  UNL     1      18.822  23.799  15.865  1.00  0.00     0.167 HD
BRANCH  21  28
HETATM   28  C3  UNL     1      19.979  24.874  20.151  1.00  0.00     0.059 C 
BRANCH  28  29
HETATM   29  C2  UNL     1      21.405  25.163  20.541  1.00  0.00     0.002 C 
HETATM   30  C1  UNL     1      22.334  24.050  20.063  1.00  0.00     0.005 C 
ENDBRANCH  28  29
ENDBRANCH  21  28
ENDBRANCH  19  20
BRANCH  19  31
HETATM   31  O1  UNL     1      19.807  21.812  18.989  1.00  0.00    -0.344 OA
ATOM     32  H1  UNL     1      20.151  21.051  18.536  1.00  0.00     0.219 HD
ENDBRANCH  19  31
ENDBRANCH  16  19
ENDBRANCH  12  13
ENDBRANCH   1  12
BRANCH   4  33
HETATM   33  C14 UNL     1       9.937  20.165  15.708  1.00  0.00     0.159 C 
BRANCH  33  34
HETATM   34  C15 UNL     1      10.344  21.135  14.681  1.00  0.00     0.195 C 
BRANCH  34  35
HETATM   35  O2  UNL     1       9.393  21.957  14.338  1.00  0.00    -0.339 OA
ATOM     36  H2  UNL     1       9.191  21.935  13.409  1.00  0.00     0.220 HD
ENDBRANCH  34  35
BRANCH  34  37
HETATM   37  N6  UNL     1      11.518  21.222  14.126  1.00  0.00    -0.383 NA
BRANCH  37  38
HETATM   38  C16 UNL     1      12.578  21.305  13.628  1.00  0.00     0.162 C 
BRANCH  38  39
HETATM   39  C17 UNL     1      13.346  22.587  13.519  1.00  0.00     0.088 C 
BRANCH  39  40
HETATM   40  C18 UNL     1      14.124  22.865  14.731  1.00  0.00     0.107 C 
BRANCH  40  41
HETATM   41  C19 UNL     1      15.570  22.979  14.657  1.00  0.00     0.231 C 
HETATM   42  N7  UNL     1      16.288  23.990  15.399  1.00  0.00    -0.062 NA
HETATM   43  O3  UNL     1      16.260  22.213  13.956  1.00  0.00    -0.277 OA
ENDBRANCH  40  41
ENDBRANCH  39  40
ENDBRANCH  38  39
BRANCH  38  44
HETATM   44  C20 UNL     1      13.235  20.075  13.077  1.00  0.00     0.320 C 
HETATM   45  O4  UNL     1      14.404  19.761  13.350  1.00  0.00    -0.257 OA
BRANCH  44  46
HETATM   46  O5  UNL     1      12.535  19.261  12.249  1.00  0.00    -0.316 OA
BRANCH  46  47
HETATM   47  C21 UNL     1      12.249  17.910  12.436  1.00  0.00     0.175 C 
HETATM   48  C22 UNL     1      11.297  17.556  13.511  1.00  0.00     0.034 C 
ENDBRANCH  46  47
ENDBRANCH  44  46
ENDBRANCH  38  44
ENDBRANCH  37  38
ENDBRANCH  34  37
ENDBRANCH  33  34
ENDBRANCH   4  33
TORSDOF 18
ENDMDL
MODEL 2
REMARK VINA RESULT: -8.215015000      1.671      2.022
REMARK  18 active torsions:
REMARK  status: ('A' for Active; 'I' for Inactive)
REMARK    1  A    between atoms: C2_2  and  C3_3 
REMARK    2  A    between atoms: C3_3  and  C4_4 
REMARK    3  A    between atoms: C7_11  and  C8_12 
REMARK    4  A    between atoms: C8_12  and  O1_13 
REMARK    5  A    between atoms: C8_12  and  N3_15 
REMARK    6  A    between atoms: C11_18  and  C12_19 
REMARK    7  A    between atoms: C12_19  and  N4_20 
REMARK    8  A    between atoms: C13_23  and  C14_24 
REMARK    9  A    between atoms: C14_24  and  C15_25 
REMARK   10  A    between atoms: C15_25  and  O2_26 
REMARK   11  A    between atoms: C15_25  and  N6_28 
REMARK   12  A    between atoms: N6_28  and  C16_29 
REMARK   13  A    between atoms: C16_29  and  C17_30 
REMARK   14  A    between atoms: C16_29  and  C20_35 
REMARK   15  A    between atoms: C17_30  and  C18_31 
REMARK   16  A    between atoms: C18_31  and  C19_32 
REMARK   17  A    between atoms: C20_35  and  O5_37 
REMARK   18  A    between atoms: O5_37  and  C21_38 
ROOT
HETATM    1  N4  UNL     1      12.881  20.249  17.516  1.00  0.00    -0.291 N 
HETATM    2  N5  UNL     1      12.060  20.771  16.646  1.00  0.00    -0.301 N 
ATOM      3  H5  UNL     1      12.173  21.693  16.225  1.00  0.00     0.187 HD
HETATM    4  C13 UNL     1      11.039  19.926  16.376  1.00  0.00     0.047 A 
HETATM    5  C23 UNL     1      11.284  18.814  17.156  1.00  0.00     0.017 A 
HETATM    6  C24 UNL     1      10.568  17.646  17.275  1.00  0.00     0.022 A 
HETATM    7  C25 UNL     1      11.026  16.688  18.120  1.00  0.00    -0.061 A 
HETATM    8  C26 UNL     1      10.252  15.413  18.257  1.00  0.00     0.048 C 
HETATM    9  C27 UNL     1      12.186  16.871  18.847  1.00  0.00     0.009 A 
HETATM   10  C28 UNL     1      12.925  18.050  18.739  1.00  0.00     0.033 A 
HETATM   11  C29 UNL     1      12.439  19.008  17.874  1.00  0.00     0.063 A 
ENDROOT
BRANCH   1  12
HETATM   12  C12 UNL     1      14.074  20.828  18.079  1.00  0.00     0.154 C 
BRANCH  12  13
HETATM   13  C11 UNL     1      15.028  21.421  17.088  1.00  0.00     0.009 C 
HETATM   14  C10 UNL     1      16.459  21.212  17.501  1.00  0.00     0.026 C 
HETATM   15  C9  UNL     1      17.418  22.249  16.917  1.00  0.00     0.125 C 
HETATM   16  N3  UNL     1      17.004  23.585  17.255  1.00  0.00    -0.360 N 
HETATM   17  C31 UNL     1      15.658  23.630  17.892  1.00  0.00     0.125 C 
HETATM   18  C30 UNL     1      14.765  22.887  16.891  1.00  0.00     0.026 C 
BRANCH  16  19
HETATM   19  C8  UNL     1      17.689  24.775  17.053  1.00  0.00     0.167 C 
BRANCH  19  20
HETATM   20  C7  UNL     1      19.071  24.995  16.651  1.00  0.00     0.107 A 
HETATM   21  C4  UNL     1      20.208  24.619  17.324  1.00  0.00     0.042 A 
HETATM   22  N1  UNL     1      21.261  25.004  16.575  1.00  0.00    -0.348 N 
HETATM   23  C5  UNL     1      20.866  25.603  15.467  1.00  0.00     0.077 A 
ATOM     24  H1  UNL     1      22.236  24.852  16.832  1.00  0.00     0.167 HD
HETATM   25  C6  UNL     1      21.722  26.162  14.389  1.00  0.00     0.089 C 
HETATM   26  N2  UNL     1      19.501  25.597  15.515  1.00  0.00    -0.341 N 
ATOM     27  H2  UNL     1      18.892  25.990  14.798  1.00  0.00     0.167 HD
BRANCH  21  28
HETATM   28  C3  UNL     1      20.330  23.961  18.629  1.00  0.00     0.059 C 
BRANCH  28  29
HETATM   29  C2  UNL     1      20.006  24.838  19.810  1.00  0.00     0.002 C 
HETATM   30  C1  UNL     1      18.708  24.391  20.479  1.00  0.00     0.005 C 
ENDBRANCH  28  29
ENDBRANCH  21  28
ENDBRANCH  19  20
BRANCH  19  31
HETATM   31  O1  UNL     1      16.972  25.843  17.258  1.00  0.00    -0.344 OA
ATOM     32  H1  UNL     1      17.364  26.512  17.807  1.00  0.00     0.219 HD
ENDBRANCH  19  31
ENDBRANCH  16  19
ENDBRANCH  12  13
ENDBRANCH   1  12
BRANCH   4  33
HETATM   33  C14 UNL     1       9.976  20.247  15.456  1.00  0.00     0.159 C 
BRANCH  33  34
HETATM   34  C15 UNL     1      10.271  20.196  14.017  1.00  0.00     0.195 C 
BRANCH  34  35
HETATM   35  O2  UNL     1       9.319  20.686  13.274  1.00  0.00    -0.339 OA
ATOM     36  H2  UNL     1       9.447  20.534  12.345  1.00  0.00     0.220 HD
ENDBRANCH  34  35
BRANCH  34  37
HETATM   37  N6  UNL     1      11.352  19.723  13.468  1.00  0.00    -0.383 NA
BRANCH  37  38
HETATM   38  C16 UNL     1      12.329  19.294  12.977  1.00  0.00     0.162 C 
BRANCH  38  39
HETATM   39  C17 UNL     1      13.704  19.809  13.276  1.00  0.00     0.088 C 
BRANCH  39  40
HETATM   40  C18 UNL     1      13.753  21.275  13.273  1.00  0.00     0.107 C 
BRANCH  40  41
HETATM   41  C19 UNL     1      14.891  21.964  12.691  1.00  0.00     0.231 C 
HETATM   42  N7  UNL     1      16.147  22.082  13.395  1.00  0.00    -0.062 NA
HETATM   43  O3  UNL     1      14.841  22.482  11.558  1.00  0.00    -0.277 OA
ENDBRANCH  40  41
ENDBRANCH  39  40
ENDBRANCH  38  39
BRANCH  38  44
HETATM   44  C20 UNL     1      12.230  18.155  12.007  1.00  0.00     0.320 C 
HETATM   45  O4  UNL     1      11.725  18.278  10.880  1.00  0.00    -0.257 OA
BRANCH  44  46
HETATM   46  O5  UNL     1      12.708  16.937  12.360  1.00  0.00    -0.316 OA
BRANCH  46  47
HETATM   47  C21 UNL     1      11.969  15.813  12.725  1.00  0.00     0.175 C 
HETATM   48  C22 UNL     1      11.372  15.799  14.078  1.00  0.00     0.034 C 
ENDBRANCH  46  47
ENDBRANCH  44  46
ENDBRANCH  38  44
ENDBRANCH  37  38
ENDBRANCH  34  37
ENDBRANCH  33  34
ENDBRANCH   4  33
TORSDOF 18
ENDMDL
MODEL 3
REMARK VINA RESULT: -8.203728148      1.719      2.831
REMARK  18 active torsions:
REMARK  status: ('A' for Active; 'I' for Inactive)
REMARK    1  A    between atoms: C2_2  and  C3_3 
REMARK    2  A    between atoms: C3_3  and  C4_4 
REMARK    3  A    between atoms: C7_11  and  C8_12 
REMARK    4  A    between atoms: C8_12  and  O1_13 
REMARK    5  A    between atoms: C8_12  and  N3_15 
REMARK    6  A    between atoms: C11_18  and  C12_19 
REMARK    7  A    between atoms: C12_19  and  N4_20 
REMARK    8  A    between atoms: C13_23  and  C14_24 
REMARK    9  A    between atoms: C14_24  and  C15_25 
REMARK   10  A    between atoms: C15_25  and  O2_26 
REMARK   11  A    between atoms: C15_25  and  N6_28 
REMARK   12  A    between atoms: N6_28  and  C16_29 
REMARK   13  A    between atoms: C16_29  and  C17_30 
REMARK   14  A    between atoms: C16_29  and  C20_35 
REMARK   15  A    between atoms: C17_30  and  C18_31 
REMARK   16  A    between atoms: C18_31  and  C19_32 
REMARK   17  A    between atoms: C20_35  and  O5_37 
REMARK   18  A    between atoms: O5_37  and  C21_38 
ROOT
HETATM    1  N4  UNL     1      13.951  20.646  17.239  1.00  0.00    -0.291 N 
HETATM    2  N5  UNL     1      12.871  20.968  16.580  1.00  0.00    -0.301 N 
ATOM      3  H5  UNL     1      12.820  21.710  15.882  1.00  0.00     0.187 HD
HETATM    4  C13 UNL     1      11.829  20.189  16.947  1.00  0.00     0.047 A 
HETATM    5  C23 UNL     1      12.343  19.337  17.904  1.00  0.00     0.017 A 
HETATM    6  C24 UNL     1      11.727  18.334  18.614  1.00  0.00     0.022 A 
HETATM    7  C25 UNL     1      12.463  17.626  19.508  1.00  0.00    -0.061 A 
HETATM    8  C26 UNL     1      11.799  16.532  20.287  1.00  0.00     0.048 C 
HETATM    9  C27 UNL     1      13.802  17.898  19.707  1.00  0.00     0.009 A 
HETATM   10  C28 UNL     1      14.444  18.912  18.994  1.00  0.00     0.033 A 
HETATM   11  C29 UNL     1      13.675  19.617  18.092  1.00  0.00     0.063 A 
ENDROOT
BRANCH   1  12
HETATM   12  C12 UNL     1      15.260  21.242  17.157  1.00  0.00     0.154 C 
BRANCH  12  13
HETATM   13  C11 UNL     1      15.483  22.424  18.050  1.00  0.00     0.009 C 
HETATM   14  C10 UNL     1      16.028  23.601  17.287  1.00  0.00     0.026 C 
HETATM   15  C9  UNL     1      16.818  24.577  18.160  1.00  0.00     0.125 C 
HETATM   16  N3  UNL     1      17.887  23.907  18.850  1.00  0.00    -0.360 N 
HETATM   17  C31 UNL     1      17.825  22.425  18.713  1.00  0.00     0.125 C 
HETATM   18  C30 UNL     1      16.407  22.081  19.185  1.00  0.00     0.026 C 
BRANCH  16  19
HETATM   19  C8  UNL     1      18.913  24.467  19.599  1.00  0.00     0.167 C 
BRANCH  19  20
HETATM   20  C7  UNL     1      20.337  24.543  19.311  1.00  0.00     0.107 A 
HETATM   21  C4  UNL     1      20.944  25.155  18.241  1.00  0.00     0.042 A 
HETATM   22  N1  UNL     1      22.274  24.997  18.392  1.00  0.00    -0.348 N 
HETATM   23  C5  UNL     1      22.554  24.323  19.491  1.00  0.00     0.077 A 
ATOM     24  H1  UNL     1      22.974  25.354  17.741  1.00  0.00     0.167 HD
HETATM   25  C6  UNL     1      23.898  23.951  20.005  1.00  0.00     0.089 C 
HETATM   26  N2  UNL     1      21.346  24.039  20.063  1.00  0.00    -0.341 N 
ATOM     27  H2  UNL     1      21.222  23.523  20.933  1.00  0.00     0.167 HD
BRANCH  21  28
HETATM   28  C3  UNL     1      20.325  25.830  17.095  1.00  0.00     0.059 C 
BRANCH  28  29
HETATM   29  C2  UNL     1      20.497  25.122  15.777  1.00  0.00     0.002 C 
HETATM   30  C1  UNL     1      19.594  23.893  15.700  1.00  0.00     0.005 C 
ENDBRANCH  28  29
ENDBRANCH  21  28
ENDBRANCH  19  20
BRANCH  19  31
HETATM   31  O1  UNL     1      18.523  24.999  20.722  1.00  0.00    -0.344 OA
ATOM     32  H1  UNL     1      17.655  24.756  21.022  1.00  0.00     0.219 HD
ENDBRANCH  19  31
ENDBRANCH  16  19
ENDBRANCH  12  13
ENDBRANCH   1  12
BRANCH   4  33
HETATM   33  C14 UNL     1      10.508  20.329  16.388  1.00  0.00     0.159 C 
BRANCH  33  34
HETATM   34  C15 UNL     1      10.373  20.316  14.925  1.00  0.00     0.195 C 
BRANCH  34  35
HETATM   35  O2  UNL     1       9.283  20.888  14.498  1.00  0.00    -0.339 OA
ATOM     36  H2  UNL     1       9.443  21.616  13.908  1.00  0.00     0.220 HD
ENDBRANCH  34  35
BRANCH  34  37
HETATM   37  N6  UNL     1      11.217  19.802  14.078  1.00  0.00    -0.383 NA
BRANCH  37  38
HETATM   38  C16 UNL     1      11.978  19.341  13.311  1.00  0.00     0.162 C 
BRANCH  38  39
HETATM   39  C17 UNL     1      13.392  19.814  13.157  1.00  0.00     0.088 C 
BRANCH  39  40
HETATM   40  C18 UNL     1      13.466  21.267  12.969  1.00  0.00     0.107 C 
BRANCH  40  41
HETATM   41  C19 UNL     1      14.483  22.039  13.661  1.00  0.00     0.231 C 
HETATM   42  N7  UNL     1      15.888  21.731  13.530  1.00  0.00    -0.062 NA
HETATM   43  O3  UNL     1      14.195  23.004  14.395  1.00  0.00    -0.277 OA
ENDBRANCH  40  41
ENDBRANCH  39  40
ENDBRANCH  38  39
BRANCH  38  44
HETATM   44  C20 UNL     1      11.547  18.203  12.435  1.00  0.00     0.320 C 
HETATM   45  O4  UNL     1      10.838  18.363  11.429  1.00  0.00    -0.257 OA
BRANCH  44  46
HETATM   46  O5  UNL     1      11.941  16.943  12.740  1.00  0.00    -0.316 OA
BRANCH  46  47
HETATM   47  C21 UNL     1      12.563  16.024  11.897  1.00  0.00     0.175 C 
HETATM   48  C22 UNL     1      13.881  16.394  11.339  1.00  0.00     0.034 C 
ENDBRANCH  46  47
ENDBRANCH  44  46
ENDBRANCH  38  44
ENDBRANCH  37  38
ENDBRANCH  34  37
ENDBRANCH  33  34
ENDBRANCH   4  33
TORSDOF 18
ENDMDL
MODEL 4
REMARK VINA RESULT: -8.179509580      2.963      6.136
REMARK  18 active torsions:
REMARK  status: ('A' for Active; 'I' for Inactive)
REMARK    1  A    between atoms: C2_2  and  C3_3 
REMARK    2  A    between atoms: C3_3  and  C4_4 
REMARK    3  A    between atoms: C7_11  and  C8_12 
REMARK    4  A    between atoms: C8_12  and  O1_13 
REMARK    5  A    between atoms: C8_12  and  N3_15 
REMARK    6  A    between atoms: C11_18  and  C12_19 
REMARK    7  A    between atoms: C12_19  and  N4_20 
REMARK    8  A    between atoms: C13_23  and  C14_24 
REMARK    9  A    between atoms: C14_24  and  C15_25 
REMARK   10  A    between atoms: C15_25  and  O2_26 
REMARK   11  A    between atoms: C15_25  and  N6_28 
REMARK   12  A    between atoms: N6_28  and  C16_29 
REMARK   13  A    between atoms: C16_29  and  C17_30 
REMARK   14  A    between atoms: C16_29  and  C20_35 
REMARK   15  A    between atoms: C17_30  and  C18_31 
REMARK   16  A    between atoms: C18_31  and  C19_32 
REMARK   17  A    between atoms: C20_35  and  O5_37 
REMARK   18  A    between atoms: O5_37  and  C21_38 
ROOT
HETATM    1  N4  UNL     1      17.384  22.011  17.222  1.00  0.00    -0.291 N 
HETATM    2  N5  UNL     1      16.801  21.353  18.187  1.00  0.00    -0.301 N 
ATOM      3  H5  UNL     1      17.169  21.272  19.135  1.00  0.00     0.187 HD
HETATM    4  C13 UNL     1      15.647  20.792  17.764  1.00  0.00     0.047 A 
HETATM    5  C23 UNL     1      15.544  21.152  16.435  1.00  0.00     0.017 A 
HETATM    6  C24 UNL     1      14.565  20.859  15.516  1.00  0.00     0.022 A 
HETATM    7  C25 UNL     1      14.694  21.342  14.254  1.00  0.00    -0.061 A 
HETATM    8  C26 UNL     1      13.633  21.027  13.245  1.00  0.00     0.048 C 
HETATM    9  C27 UNL     1      15.781  22.114  13.892  1.00  0.00     0.009 A 
HETATM   10  C28 UNL     1      16.784  22.422  14.813  1.00  0.00     0.033 A 
HETATM   11  C29 UNL     1      16.630  21.919  16.087  1.00  0.00     0.063 A 
ENDROOT
BRANCH   1  12
HETATM   12  C12 UNL     1      18.631  22.730  17.255  1.00  0.00     0.154 C 
BRANCH  12  13
HETATM   13  C11 UNL     1      18.515  24.206  17.488  1.00  0.00     0.009 C 
HETATM   14  C10 UNL     1      18.917  24.993  16.271  1.00  0.00     0.026 C 
HETATM   15  C9  UNL     1      19.394  26.409  16.593  1.00  0.00     0.125 C 
HETATM   16  N3  UNL     1      20.478  26.387  17.539  1.00  0.00    -0.360 N 
HETATM   17  C31 UNL     1      20.716  25.035  18.117  1.00  0.00     0.125 C 
HETATM   18  C30 UNL     1      19.341  24.636  18.667  1.00  0.00     0.026 C 
BRANCH  16  19
HETATM   19  C8  UNL     1      21.280  27.442  17.954  1.00  0.00     0.167 C 
BRANCH  19  20
HETATM   20  C7  UNL     1      22.596  27.849  17.483  1.00  0.00     0.107 A 
HETATM   21  C4  UNL     1      22.903  28.497  16.312  1.00  0.00     0.042 A 
HETATM   22  N1  UNL     1      24.237  28.693  16.301  1.00  0.00    -0.348 N 
HETATM   23  C5  UNL     1      24.800  28.209  17.392  1.00  0.00     0.077 A 
ATOM     24  H1  UNL     1      24.745  29.156  15.548  1.00  0.00     0.167 HD
HETATM   25  C6  UNL     1      26.241  28.234  17.751  1.00  0.00     0.089 C 
HETATM   26  N2  UNL     1      23.777  27.682  18.129  1.00  0.00    -0.341 N 
ATOM     27  H2  UNL     1      23.886  27.229  19.035  1.00  0.00     0.167 HD
BRANCH  21  28
HETATM   28  C3  UNL     1      22.009  28.893  15.218  1.00  0.00     0.059 C 
BRANCH  28  29
HETATM   29  C2  UNL     1      22.239  28.163  13.921  1.00  0.00     0.002 C 
HETATM   30  C1  UNL     1      21.870  26.688  14.055  1.00  0.00     0.005 C 
ENDBRANCH  28  29
ENDBRANCH  21  28
ENDBRANCH  19  20
BRANCH  19  31
HETATM   31  O1  UNL     1      20.760  28.163  18.905  1.00  0.00    -0.344 OA
ATOM     32  H1  UNL     1      20.120  27.730  19.458  1.00  0.00     0.219 HD
ENDBRANCH  19  31
ENDBRANCH  16  19
ENDBRANCH  12  13
ENDBRANCH   1  12
BRANCH   4  33
HETATM   33  C14 UNL     1      14.800  19.997  18.618  1.00  0.00     0.159 C 
BRANCH  33  34
HETATM   34  C15 UNL     1      14.163  18.804  18.041  1.00  0.00     0.195 C 
BRANCH  34  35
HETATM   35  O2  UNL     1      15.002  17.841  17.784  1.00  0.00    -0.339 OA
ATOM     36  H2  UNL     1      15.553  17.610  18.523  1.00  0.00     0.220 HD
ENDBRANCH  34  35
BRANCH  34  37
HETATM   37  N6  UNL     1      12.896  18.655  17.787  1.00  0.00    -0.383 NA
BRANCH  37  38
HETATM   38  C16 UNL     1      11.751  18.520  17.562  1.00  0.00     0.162 C 
BRANCH  38  39
HETATM   39  C17 UNL     1      11.113  18.883  16.255  1.00  0.00     0.088 C 
BRANCH  39  40
HETATM   40  C18 UNL     1      10.635  20.269  16.244  1.00  0.00     0.107 C 
BRANCH  40  41
HETATM   41  C19 UNL     1       9.872  20.767  15.113  1.00  0.00     0.231 C 
HETATM   42  N7  UNL     1       9.916  20.116  13.824  1.00  0.00    -0.062 NA
HETATM   43  O3  UNL     1       9.142  21.774  15.200  1.00  0.00    -0.277 OA
ENDBRANCH  40  41
ENDBRANCH  39  40
ENDBRANCH  38  39
BRANCH  38  44
HETATM   44  C20 UNL     1      10.854  17.939  18.614  1.00  0.00     0.320 C 
HETATM   45  O4  UNL     1      10.819  18.370  19.777  1.00  0.00    -0.257 OA
BRANCH  44  46
HETATM   46  O5  UNL     1      10.041  16.902  18.296  1.00  0.00    -0.316 OA
BRANCH  46  47
HETATM   47  C21 UNL     1      10.394  15.560  18.170  1.00  0.00     0.175 C 
HETATM   48  C22 UNL     1      10.763  15.075  16.823  1.00  0.00     0.034 C 
ENDBRANCH  46  47
ENDBRANCH  44  46
ENDBRANCH  38  44
ENDBRANCH  37  38
ENDBRANCH  34  37
ENDBRANCH  33  34
ENDBRANCH   4  33
TORSDOF 18
ENDMDL
MODEL 5
REMARK VINA RESULT: -8.163856284      1.775      3.855
REMARK  18 active torsions:
REMARK  status: ('A' for Active; 'I' for Inactive)
REMARK    1  A    between atoms: C2_2  and  C3_3 
REMARK    2  A    between atoms: C3_3  and  C4_4 
REMARK    3  A    between atoms: C7_11  and  C8_12 
REMARK    4  A    between atoms: C8_12  and  O1_13 
REMARK    5  A    between atoms: C8_12  and  N3_15 
REMARK    6  A    between atoms: C11_18  and  C12_19 
REMARK    7  A    between atoms: C12_19  and  N4_20 
REMARK    8  A    between atoms: C13_23  and  C14_24 
REMARK    9  A    between atoms: C14_24  and  C15_25 
REMARK   10  A    between atoms: C15_25  and  O2_26 
REMARK   11  A    between atoms: C15_25  and  N6_28 
REMARK   12  A    between atoms: N6_28  and  C16_29 
REMARK   13  A    between atoms: C16_29  and  C17_30 
REMARK   14  A    between atoms: C16_29  and  C20_35 
REMARK   15  A    between atoms: C17_30  and  C18_31 
REMARK   16  A    between atoms: C18_31  and  C19_32 
REMARK   17  A    between atoms: C20_35  and  O5_37 
REMARK   18  A    between atoms: O5_37  and  C21_38 
ROOT
HETATM    1  N4  UNL     1      13.762  20.718  17.146  1.00  0.00    -0.291 N 
HETATM    2  N5  UNL     1      12.640  20.984  16.534  1.00  0.00    -0.301 N 
ATOM      3  H5  UNL     1      12.527  21.707  15.824  1.00  0.00     0.187 HD
HETATM    4  C13 UNL     1      11.648  20.173  16.965  1.00  0.00     0.047 A 
HETATM    5  C23 UNL     1      12.240  19.363  17.913  1.00  0.00     0.017 A 
HETATM    6  C24 UNL     1      11.697  18.353  18.671  1.00  0.00     0.022 A 
HETATM    7  C25 UNL     1      12.501  17.693  19.544  1.00  0.00    -0.061 A 
HETATM    8  C26 UNL     1      11.918  16.592  20.375  1.00  0.00     0.048 C 
HETATM    9  C27 UNL     1      13.837  18.020  19.673  1.00  0.00     0.009 A 
HETATM   10  C28 UNL     1      14.404  19.043  18.910  1.00  0.00     0.033 A 
HETATM   11  C29 UNL     1      13.567  19.698  18.032  1.00  0.00     0.063 A 
ENDROOT
BRANCH   1  12
HETATM   12  C12 UNL     1      15.040  21.362  16.991  1.00  0.00     0.154 C 
BRANCH  12  13
HETATM   13  C11 UNL     1      15.280  22.538  17.887  1.00  0.00     0.009 C 
HETATM   14  C10 UNL     1      15.867  23.700  17.134  1.00  0.00     0.026 C 
HETATM   15  C9  UNL     1      16.668  24.655  18.019  1.00  0.00     0.125 C 
HETATM   16  N3  UNL     1      17.708  23.957  18.726  1.00  0.00    -0.360 N 
HETATM   17  C31 UNL     1      17.611  22.478  18.587  1.00  0.00     0.125 C 
HETATM   18  C30 UNL     1      16.177  22.171  19.036  1.00  0.00     0.026 C 
BRANCH  16  19
HETATM   19  C8  UNL     1      18.737  24.491  19.491  1.00  0.00     0.167 C 
BRANCH  19  20
HETATM   20  C7  UNL     1      20.163  24.562  19.209  1.00  0.00     0.107 A 
HETATM   21  C4  UNL     1      20.782  25.245  18.191  1.00  0.00     0.042 A 
HETATM   22  N1  UNL     1      22.109  25.050  18.328  1.00  0.00    -0.348 N 
HETATM   23  C5  UNL     1      22.375  24.284  19.369  1.00  0.00     0.077 A 
ATOM     24  H1  UNL     1      22.816  25.443  17.707  1.00  0.00     0.167 HD
HETATM   25  C6  UNL     1      23.710  23.847  19.851  1.00  0.00     0.089 C 
HETATM   26  N2  UNL     1      21.161  23.980  19.918  1.00  0.00    -0.341 N 
ATOM     27  H2  UNL     1      21.026  23.398  20.744  1.00  0.00     0.167 HD
BRANCH  21  28
HETATM   28  C3  UNL     1      20.178  26.022  17.103  1.00  0.00     0.059 C 
BRANCH  28  29
HETATM   29  C2  UNL     1      19.756  25.210  15.907  1.00  0.00     0.002 C 
HETATM   30  C1  UNL     1      18.638  25.912  15.140  1.00  0.00     0.005 C 
ENDBRANCH  28  29
ENDBRANCH  21  28
ENDBRANCH  19  20
BRANCH  19  31
HETATM   31  O1  UNL     1      18.348  24.999  20.625  1.00  0.00    -0.344 OA
ATOM     32  H1  UNL     1      18.222  25.941  20.642  1.00  0.00     0.219 HD
ENDBRANCH  19  31
ENDBRANCH  16  19
ENDBRANCH  12  13
ENDBRANCH   1  12
BRANCH   4  33
HETATM   33  C14 UNL     1      10.297  20.251  16.467  1.00  0.00     0.159 C 
BRANCH  33  34
HETATM   34  C15 UNL     1      10.104  20.382  15.016  1.00  0.00     0.195 C 
BRANCH  34  35
HETATM   35  O2  UNL     1       9.151  21.210  14.692  1.00  0.00    -0.339 OA
ATOM     36  H2  UNL     1       9.441  22.113  14.627  1.00  0.00     0.220 HD
ENDBRANCH  34  35
BRANCH  34  37
HETATM   37  N6  UNL     1      10.778  19.765  14.090  1.00  0.00    -0.383 NA
BRANCH  37  38
HETATM   38  C16 UNL     1      11.390  19.206  13.257  1.00  0.00     0.162 C 
BRANCH  38  39
HETATM   39  C17 UNL     1      10.785  18.224  12.301  1.00  0.00     0.088 C 
BRANCH  39  40
HETATM   40  C18 UNL     1      10.443  16.958  12.958  1.00  0.00     0.107 C 
BRANCH  40  41
HETATM   41  C19 UNL     1      11.489  16.013  13.308  1.00  0.00     0.231 C 
HETATM   42  N7  UNL     1      11.554  15.405  14.616  1.00  0.00    -0.062 NA
HETATM   43  O3  UNL     1      12.376  15.679  12.497  1.00  0.00    -0.277 OA
ENDBRANCH  40  41
ENDBRANCH  39  40
ENDBRANCH  38  39
BRANCH  38  44
HETATM   44  C20 UNL     1      12.856  19.483  13.105  1.00  0.00     0.320 C 
HETATM   45  O4  UNL     1      13.601  18.778  12.406  1.00  0.00    -0.257 OA
BRANCH  44  46
HETATM   46  O5  UNL     1      13.403  20.543  13.748  1.00  0.00    -0.316 OA
BRANCH  46  47
HETATM   47  C21 UNL     1      13.876  21.724  13.179  1.00  0.00     0.175 C 
HETATM   48  C22 UNL     1      13.282  22.994  13.647  1.00  0.00     0.034 C 
ENDBRANCH  46  47
ENDBRANCH  44  46
ENDBRANCH  38  44
ENDBRANCH  37  38
ENDBRANCH  34  37
ENDBRANCH  33  34
ENDBRANCH   4  33
TORSDOF 18
ENDMDL
