MODEL 1
REMARK VINA RESULT: -7.014584754      0.000      0.000
REMARK  10 active torsions:
REMARK  status: ('A' for Active; 'I' for Inactive)
REMARK    1  A    between atoms: O1_1  and  C1_3 
REMARK    2  A    between atoms: C3_5  and  O2_6 
REMARK    3  A    between atoms: C4_8  and  O3_9 
REMARK    4  A    between atoms: O3_9  and  C5_10 
REMARK    5  A    between atoms: C11_17  and  O5_18 
REMARK    6  A    between atoms: O5_18  and  C12_19 
REMARK    7  A    between atoms: C12_19  and  C13_20 
REMARK    8  A    between atoms: C15_23  and  O7_24 
REMARK    9  A    between atoms: C16_26  and  O8_27 
REMARK   10  A    between atoms: C17_29  and  O9_30 
ROOT
HETATM    1  C1  UNL     1      28.920   6.238 175.586  1.00  0.00     0.176 C 
HETATM    2  C2  UNL     1      27.832   6.807 174.731  1.00  0.00     0.073 C 
HETATM    3  C3  UNL     1      28.391   7.550 173.552  1.00  0.00     0.176 C 
HETATM    4  C4  UNL     1      29.651   6.893 173.087  1.00  0.00     0.292 C 
HETATM    5  O4  UNL     1      30.619   6.755 174.041  1.00  0.00    -0.326 OA
HETATM    6  C11 UNL     1      30.198   6.996 175.336  1.00  0.00     0.291 C 
ENDROOT
BRANCH   6   7
HETATM    7  O5  UNL     1      30.124   8.331 175.559  1.00  0.00    -0.356 OA
BRANCH   7   8
HETATM    8  C12 UNL     1      30.902   8.840 176.552  1.00  0.00     0.205 C 
BRANCH   8   9
HETATM    9  C13 UNL     1      32.119   9.595 176.073  1.00  0.00     0.176 C 
HETATM   10  O6  UNL     1      32.773  10.265 177.073  1.00  0.00    -0.378 OA
HETATM   11  C14 UNL     1      33.385   9.459 178.006  1.00  0.00     0.202 C 
HETATM   12  C15 UNL     1      34.458   8.569 177.422  1.00  0.00     0.173 C 
HETATM   13  C16 UNL     1      34.475   8.842 175.920  1.00  0.00     0.180 C 
HETATM   14  C17 UNL     1      33.046   8.558 175.440  1.00  0.00     0.180 C 
BRANCH  12  15
HETATM   15  O7  UNL     1      34.078   7.217 177.562  1.00  0.00    -0.391 OA
ATOM     16  H7  UNL     1      34.086   6.794 176.711  1.00  0.00     0.210 HD
ENDBRANCH  12  15
BRANCH  13  17
HETATM   17  O8  UNL     1      35.354   7.983 175.289  1.00  0.00    -0.390 OA
ATOM     18  H8  UNL     1      35.358   8.147 174.353  1.00  0.00     0.210 HD
ENDBRANCH  13  17
BRANCH  14  19
HETATM   19  O9  UNL     1      32.960   8.578 174.065  1.00  0.00    -0.390 OA
ATOM     20  H9  UNL     1      33.316   7.783 173.684  1.00  0.00     0.210 HD
ENDBRANCH  14  19
ENDBRANCH   8   9
ENDBRANCH   7   8
ENDBRANCH   6   7
BRANCH   1  21
HETATM   21  O1  UNL     1      29.163   4.902 175.251  1.00  0.00    -0.391 OA
ATOM     22  H1  UNL     1      29.823   4.528 175.824  1.00  0.00     0.210 HD
ENDBRANCH   1  21
BRANCH   4  23
HETATM   23  O3  UNL     1      29.307   5.696 172.466  1.00  0.00    -0.353 OA
BRANCH  23  24
HETATM   24  C5  UNL     1      30.385   5.095 171.826  1.00  0.00     0.124 C 
HETATM   25  C6  UNL     1      30.105   4.790 170.386  1.00  0.00     0.032 C 
HETATM   26  C7  UNL     1      30.599   3.395 170.066  1.00  0.00     0.002 C 
HETATM   27  C8  UNL     1      29.740   2.367 170.769  1.00  0.00     0.000 C 
HETATM   28  C9  UNL     1      29.726   2.707 172.239  1.00  0.00     0.002 C 
HETATM   29  C10 UNL     1      30.707   3.817 172.564  1.00  0.00     0.032 C 
ENDBRANCH  23  24
ENDBRANCH   4  23
BRANCH   3  30
HETATM   30  O2  UNL     1      27.451   7.425 172.504  1.00  0.00    -0.391 OA
ATOM     31  H2  UNL     1      27.779   6.755 171.916  1.00  0.00     0.210 HD
ENDBRANCH   3  30
TORSDOF 10
ENDMDL
MODEL 2
REMARK VINA RESULT: -6.582239038      1.468      1.960
REMARK  10 active torsions:
REMARK  status: ('A' for Active; 'I' for Inactive)
REMARK    1  A    between atoms: O1_1  and  C1_3 
REMARK    2  A    between atoms: C3_5  and  O2_6 
REMARK    3  A    between atoms: C4_8  and  O3_9 
REMARK    4  A    between atoms: O3_9  and  C5_10 
REMARK    5  A    between atoms: C11_17  and  O5_18 
REMARK    6  A    between atoms: O5_18  and  C12_19 
REMARK    7  A    between atoms: C12_19  and  C13_20 
REMARK    8  A    between atoms: C15_23  and  O7_24 
REMARK    9  A    between atoms: C16_26  and  O8_27 
REMARK   10  A    between atoms: C17_29  and  O9_30 
ROOT
HETATM    1  C1  UNL     1      28.028   7.327 174.688  1.00  0.00     0.176 C 
HETATM    2  C2  UNL     1      28.201   7.273 173.202  1.00  0.00     0.073 C 
HETATM    3  C3  UNL     1      29.549   6.734 172.824  1.00  0.00     0.176 C 
HETATM    4  C4  UNL     1      29.984   5.707 173.819  1.00  0.00     0.292 C 
HETATM    5  O4  UNL     1      30.009   6.131 175.118  1.00  0.00    -0.326 OA
HETATM    6  C11 UNL     1      29.383   7.343 175.345  1.00  0.00     0.291 C 
ENDROOT
BRANCH   6   7
HETATM    7  O5  UNL     1      30.193   8.361 174.964  1.00  0.00    -0.356 OA
BRANCH   7   8
HETATM    8  C12 UNL     1      30.289   9.427 175.804  1.00  0.00     0.205 C 
BRANCH   8   9
HETATM    9  C13 UNL     1      31.700   9.900 176.061  1.00  0.00     0.176 C 
HETATM   10  O6  UNL     1      32.087   9.772 177.368  1.00  0.00    -0.378 OA
HETATM   11  C14 UNL     1      32.222   8.475 177.809  1.00  0.00     0.202 C 
HETATM   12  C15 UNL     1      33.270   7.689 177.055  1.00  0.00     0.173 C 
HETATM   13  C16 UNL     1      33.822   8.624 175.982  1.00  0.00     0.180 C 
HETATM   14  C17 UNL     1      32.604   9.062 175.160  1.00  0.00     0.180 C 
BRANCH  12  15
HETATM   15  O7  UNL     1      32.652   6.628 176.359  1.00  0.00    -0.391 OA
ATOM     16  H7  UNL     1      32.958   6.618 175.459  1.00  0.00     0.210 HD
ENDBRANCH  12  15
BRANCH  13  17
HETATM   17  O8  UNL     1      34.710   7.945 175.171  1.00  0.00    -0.390 OA
ATOM     18  H8  UNL     1      34.481   8.071 174.257  1.00  0.00     0.210 HD
ENDBRANCH  13  17
BRANCH  14  19
HETATM   19  O9  UNL     1      32.979   9.759 174.032  1.00  0.00    -0.390 OA
ATOM     20  H9  UNL     1      33.013  10.695 174.197  1.00  0.00     0.210 HD
ENDBRANCH  14  19
ENDBRANCH   8   9
ENDBRANCH   7   8
ENDBRANCH   6   7
BRANCH   1  21
HETATM   21  O1  UNL     1      27.360   6.189 175.149  1.00  0.00    -0.391 OA
ATOM     22  H1  UNL     1      26.603   6.002 174.607  1.00  0.00     0.210 HD
ENDBRANCH   1  21
BRANCH   4  23
HETATM   23  O3  UNL     1      29.214   4.565 173.622  1.00  0.00    -0.353 OA
BRANCH  23  24
HETATM   24  C5  UNL     1      29.984   3.418 173.464  1.00  0.00     0.124 C 
HETATM   25  C6  UNL     1      29.483   2.531 172.366  1.00  0.00     0.032 C 
HETATM   26  C7  UNL     1      29.488   1.095 172.843  1.00  0.00     0.002 C 
HETATM   27  C8  UNL     1      28.428   0.897 173.905  1.00  0.00     0.000 C 
HETATM   28  C9  UNL     1      28.667   1.920 174.988  1.00  0.00     0.002 C 
HETATM   29  C10 UNL     1      29.969   2.667 174.773  1.00  0.00     0.032 C 
ENDBRANCH  23  24
ENDBRANCH   4  23
BRANCH   3  30
HETATM   30  O2  UNL     1      29.394   6.069 171.586  1.00  0.00    -0.391 OA
ATOM     31  H2  UNL     1      29.525   6.718 170.905  1.00  0.00     0.210 HD
ENDBRANCH   3  30
TORSDOF 10
ENDMDL
MODEL 3
REMARK VINA RESULT: -6.444740279      8.754     13.288
REMARK  10 active torsions:
REMARK  status: ('A' for Active; 'I' for Inactive)
REMARK    1  A    between atoms: O1_1  and  C1_3 
REMARK    2  A    between atoms: C3_5  and  O2_6 
REMARK    3  A    between atoms: C4_8  and  O3_9 
REMARK    4  A    between atoms: O3_9  and  C5_10 
REMARK    5  A    between atoms: C11_17  and  O5_18 
REMARK    6  A    between atoms: O5_18  and  C12_19 
REMARK    7  A    between atoms: C12_19  and  C13_20 
REMARK    8  A    between atoms: C15_23  and  O7_24 
REMARK    9  A    between atoms: C16_26  and  O8_27 
REMARK   10  A    between atoms: C17_29  and  O9_30 
ROOT
HETATM    1  C1  UNL     1      32.336   1.142 165.950  1.00  0.00     0.176 C 
HETATM    2  C2  UNL     1      31.564   2.293 166.516  1.00  0.00     0.073 C 
HETATM    3  C3  UNL     1      30.099   1.979 166.611  1.00  0.00     0.176 C 
HETATM    4  C4  UNL     1      29.908   0.529 166.918  1.00  0.00     0.292 C 
HETATM    5  O4  UNL     1      30.504  -0.334 166.041  1.00  0.00    -0.326 OA
HETATM    6  C11 UNL     1      31.403   0.254 165.169  1.00  0.00     0.291 C 
ENDROOT
BRANCH   6   7
HETATM    7  O5  UNL     1      30.736   0.868 164.161  1.00  0.00    -0.356 OA
BRANCH   7   8
HETATM    8  C12 UNL     1      30.100   0.071 163.261  1.00  0.00     0.205 C 
BRANCH   8   9
HETATM    9  C13 UNL     1      29.273   0.814 162.239  1.00  0.00     0.176 C 
HETATM   10  O6  UNL     1      29.863   0.880 161.004  1.00  0.00    -0.378 OA
HETATM   11  C14 UNL     1      29.968  -0.325 160.347  1.00  0.00     0.202 C 
HETATM   12  C15 UNL     1      28.634  -0.974 160.062  1.00  0.00     0.173 C 
HETATM   13  C16 UNL     1      27.571  -0.057 160.663  1.00  0.00     0.180 C 
HETATM   14  C17 UNL     1      27.940   0.074 162.145  1.00  0.00     0.180 C 
BRANCH  12  15
HETATM   15  O7  UNL     1      28.539  -2.189 160.773  1.00  0.00    -0.391 OA
ATOM     16  H7  UNL     1      27.922  -2.092 161.489  1.00  0.00     0.210 HD
ENDBRANCH  12  15
BRANCH  13  17
HETATM   17  O8  UNL     1      26.322  -0.636 160.545  1.00  0.00    -0.390 OA
ATOM     18  H8  UNL     1      26.143  -1.185 161.300  1.00  0.00     0.210 HD
ENDBRANCH  13  17
BRANCH  14  19
HETATM   19  O9  UNL     1      26.953   0.721 162.857  1.00  0.00    -0.390 OA
ATOM     20  H9  UNL     1      26.124   0.261 162.799  1.00  0.00     0.210 HD
ENDBRANCH  14  19
ENDBRANCH   8   9
ENDBRANCH   7   8
ENDBRANCH   6   7
BRANCH   1  21
HETATM   21  O1  UNL     1      32.884   0.364 166.974  1.00  0.00    -0.391 OA
ATOM     22  H1  UNL     1      33.833   0.418 166.965  1.00  0.00     0.210 HD
ENDBRANCH   1  21
BRANCH   4  23
HETATM   23  O3  UNL     1      30.278   0.318 168.243  1.00  0.00    -0.353 OA
BRANCH  23  24
HETATM   24  C5  UNL     1      29.185   0.131 169.082  1.00  0.00     0.124 C 
HETATM   25  C6  UNL     1      29.570   0.070 170.528  1.00  0.00     0.032 C 
HETATM   26  C7  UNL     1      28.834  -1.073 171.194  1.00  0.00     0.002 C 
HETATM   27  C8  UNL     1      29.358  -2.397 170.681  1.00  0.00     0.000 C 
HETATM   28  C9  UNL     1      29.262  -2.377 169.175  1.00  0.00     0.002 C 
HETATM   29  C10 UNL     1      28.508  -1.157 168.680  1.00  0.00     0.032 C 
ENDBRANCH  23  24
ENDBRANCH   4  23
BRANCH   3  30
HETATM   30  O2  UNL     1      29.594   2.704 167.715  1.00  0.00    -0.391 OA
ATOM     31  H2  UNL     1      28.707   2.398 167.863  1.00  0.00     0.210 HD
ENDBRANCH   3  30
TORSDOF 10
ENDMDL
MODEL 4
REMARK VINA RESULT: -6.418853062      3.590      6.522
REMARK  10 active torsions:
REMARK  status: ('A' for Active; 'I' for Inactive)
REMARK    1  A    between atoms: O1_1  and  C1_3 
REMARK    2  A    between atoms: C3_5  and  O2_6 
REMARK    3  A    between atoms: C4_8  and  O3_9 
REMARK    4  A    between atoms: O3_9  and  C5_10 
REMARK    5  A    between atoms: C11_17  and  O5_18 
REMARK    6  A    between atoms: O5_18  and  C12_19 
REMARK    7  A    between atoms: C12_19  and  C13_20 
REMARK    8  A    between atoms: C15_23  and  O7_24 
REMARK    9  A    between atoms: C16_26  and  O8_27 
REMARK   10  A    between atoms: C17_29  and  O9_30 
ROOT
HETATM    1  C1  UNL     1      30.321   5.526 175.779  1.00  0.00     0.176 C 
HETATM    2  C2  UNL     1      31.648   4.833 175.796  1.00  0.00     0.073 C 
HETATM    3  C3  UNL     1      31.512   3.377 175.458  1.00  0.00     0.176 C 
HETATM    4  C4  UNL     1      30.409   3.185 174.469  1.00  0.00     0.292 C 
HETATM    5  O4  UNL     1      29.194   3.680 174.850  1.00  0.00    -0.326 OA
HETATM    6  C11 UNL     1      29.226   4.508 175.958  1.00  0.00     0.291 C 
ENDROOT
BRANCH   6   7
HETATM    7  O5  UNL     1      29.314   3.765 177.088  1.00  0.00    -0.356 OA
BRANCH   7   8
HETATM    8  C12 UNL     1      28.296   3.874 177.985  1.00  0.00     0.205 C 
BRANCH   8   9
HETATM    9  C13 UNL     1      27.967   2.597 178.721  1.00  0.00     0.176 C 
HETATM   10  O6  UNL     1      26.727   2.098 178.418  1.00  0.00    -0.378 OA
HETATM   11  C14 UNL     1      26.587   1.635 177.130  1.00  0.00     0.202 C 
HETATM   12  C15 UNL     1      27.515   0.489 176.798  1.00  0.00     0.173 C 
HETATM   13  C16 UNL     1      28.364   0.248 178.043  1.00  0.00     0.180 C 
HETATM   14  C17 UNL     1      29.048   1.589 178.335  1.00  0.00     0.180 C 
BRANCH  12  15
HETATM   15  O7  UNL     1      28.418   0.891 175.789  1.00  0.00    -0.391 OA
ATOM     16  H7  UNL     1      29.081   0.221 175.671  1.00  0.00     0.210 HD
ENDBRANCH  12  15
BRANCH  13  17
HETATM   17  O8  UNL     1      29.323  -0.715 177.786  1.00  0.00    -0.390 OA
ATOM     18  H8  UNL     1      30.192  -0.339 177.863  1.00  0.00     0.210 HD
ENDBRANCH  13  17
BRANCH  14  19
HETATM   19  O9  UNL     1      30.000   1.468 179.324  1.00  0.00    -0.390 OA
ATOM     20  H9  UNL     1      30.168   0.556 179.535  1.00  0.00     0.210 HD
ENDBRANCH  14  19
ENDBRANCH   8   9
ENDBRANCH   7   8
ENDBRANCH   6   7
BRANCH   1  21
HETATM   21  O1  UNL     1      30.106   6.149 174.546  1.00  0.00    -0.391 OA
ATOM     22  H1  UNL     1      30.578   6.973 174.500  1.00  0.00     0.210 HD
ENDBRANCH   1  21
BRANCH   4  23
HETATM   23  O3  UNL     1      30.846   3.669 173.239  1.00  0.00    -0.353 OA
BRANCH  23  24
HETATM   24  C5  UNL     1      29.884   3.548 172.242  1.00  0.00     0.124 C 
HETATM   25  C6  UNL     1      29.972   2.244 171.510  1.00  0.00     0.032 C 
HETATM   26  C7  UNL     1      29.843   2.497 170.023  1.00  0.00     0.002 C 
HETATM   27  C8  UNL     1      31.071   3.219 169.511  1.00  0.00     0.000 C 
HETATM   28  C9  UNL     1      31.255   4.462 170.347  1.00  0.00     0.002 C 
HETATM   29  C10 UNL     1      30.076   4.690 171.273  1.00  0.00     0.032 C 
ENDBRANCH  23  24
ENDBRANCH   4  23
BRANCH   3  30
HETATM   30  O2  UNL     1      32.712   2.990 174.818  1.00  0.00    -0.391 OA
ATOM     31  H2  UNL     1      33.353   2.834 175.502  1.00  0.00     0.210 HD
ENDBRANCH   3  30
TORSDOF 10
ENDMDL
MODEL 5
REMARK VINA RESULT: -6.404759864      9.238     13.180
REMARK  10 active torsions:
REMARK  status: ('A' for Active; 'I' for Inactive)
REMARK    1  A    between atoms: O1_1  and  C1_3 
REMARK    2  A    between atoms: C3_5  and  O2_6 
REMARK    3  A    between atoms: C4_8  and  O3_9 
REMARK    4  A    between atoms: O3_9  and  C5_10 
REMARK    5  A    between atoms: C11_17  and  O5_18 
REMARK    6  A    between atoms: O5_18  and  C12_19 
REMARK    7  A    between atoms: C12_19  and  C13_20 
REMARK    8  A    between atoms: C15_23  and  O7_24 
REMARK    9  A    between atoms: C16_26  and  O8_27 
REMARK   10  A    between atoms: C17_29  and  O9_30 
ROOT
HETATM    1  C1  UNL     1      28.360  -2.590 164.223  1.00  0.00     0.176 C 
HETATM    2  C2  UNL     1      27.330  -1.514 164.076  1.00  0.00     0.073 C 
HETATM    3  C3  UNL     1      27.936  -0.237 163.572  1.00  0.00     0.176 C 
HETATM    4  C4  UNL     1      29.059  -0.542 162.634  1.00  0.00     0.292 C 
HETATM    5  O4  UNL     1      30.041  -1.343 163.146  1.00  0.00    -0.326 OA
HETATM    6  C11 UNL     1      29.723  -1.960 164.342  1.00  0.00     0.291 C 
ENDROOT
BRANCH   6   7
HETATM    7  O5  UNL     1      29.861  -1.083 165.366  1.00  0.00    -0.356 OA
BRANCH   7   8
HETATM    8  C12 UNL     1      30.503  -1.525 166.481  1.00  0.00     0.205 C 
BRANCH   8   9
HETATM    9  C13 UNL     1      30.934  -0.434 167.432  1.00  0.00     0.176 C 
HETATM   10  O6  UNL     1      32.194   0.042 167.181  1.00  0.00    -0.378 OA
HETATM   11  C14 UNL     1      32.326   0.736 165.999  1.00  0.00     0.202 C 
HETATM   12  C15 UNL     1      31.464   1.975 165.928  1.00  0.00     0.173 C 
HETATM   13  C16 UNL     1      30.668   2.021 167.231  1.00  0.00     0.180 C 
HETATM   14  C17 UNL     1      29.909   0.690 167.290  1.00  0.00     0.180 C 
BRANCH  12  15
HETATM   15  O7  UNL     1      30.509   1.827 164.900  1.00  0.00    -0.391 OA
ATOM     16  H7  UNL     1      29.648   2.057 165.229  1.00  0.00     0.210 HD
ENDBRANCH  12  15
BRANCH  13  17
HETATM   17  O8  UNL     1      29.766   3.068 167.200  1.00  0.00    -0.390 OA
ATOM     18  H8  UNL     1      29.158   2.997 167.927  1.00  0.00     0.210 HD
ENDBRANCH  13  17
BRANCH  14  19
HETATM   19  O9  UNL     1      28.996   0.673 168.321  1.00  0.00    -0.390 OA
ATOM     20  H9  UNL     1      29.393   0.942 169.142  1.00  0.00     0.210 HD
ENDBRANCH  14  19
ENDBRANCH   8   9
ENDBRANCH   7   8
ENDBRANCH   6   7
BRANCH   1  21
HETATM   21  O1  UNL     1      28.383  -3.409 163.091  1.00  0.00    -0.391 OA
ATOM     22  H1  UNL     1      29.271  -3.684 162.894  1.00  0.00     0.210 HD
ENDBRANCH   1  21
BRANCH   4  23
HETATM   23  O3  UNL     1      28.510  -1.023 161.449  1.00  0.00    -0.353 OA
BRANCH  23  24
HETATM   24  C5  UNL     1      29.410  -0.992 160.389  1.00  0.00     0.124 C 
HETATM   25  C6  UNL     1      30.092   0.335 160.249  1.00  0.00     0.032 C 
HETATM   26  C7  UNL     1      30.110   0.735 158.789  1.00  0.00     0.002 C 
HETATM   27  C8  UNL     1      28.707   1.060 158.322  1.00  0.00     0.000 C 
HETATM   28  C9  UNL     1      27.831  -0.127 158.639  1.00  0.00     0.002 C 
HETATM   29  C10 UNL     1      28.647  -1.309 159.126  1.00  0.00     0.032 C 
ENDBRANCH  23  24
ENDBRANCH   4  23
BRANCH   3  30
HETATM   30  O2  UNL     1      26.938   0.423 162.819  1.00  0.00    -0.391 OA
ATOM     31  H2  UNL     1      27.384   0.904 162.132  1.00  0.00     0.210 HD
ENDBRANCH   3  30
TORSDOF 10
ENDMDL
