MODEL 1
REMARK VINA RESULT: -7.194205858      0.000      0.000
REMARK  10 active torsions:
REMARK  status: ('A' for Active; 'I' for Inactive)
REMARK    1  A    between atoms: C3_4  and  O2_5 
REMARK    2  A    between atoms: O2_5  and  C4_6 
REMARK    3  A    between atoms: C4_6  and  C5_7 
REMARK    4  A    between atoms: C9_12  and  O4_13 
REMARK    5  A    between atoms: C10_15  and  O5_16 
REMARK    6  A    between atoms: C11_18  and  O6_19 
REMARK    7  A    between atoms: O6_19  and  C12_20 
REMARK    8  A    between atoms: C14_22  and  O7_23 
REMARK    9  A    between atoms: C16_26  and  O8_27 
REMARK   10  A    between atoms: C17_29  and  O9_30 
ROOT
HETATM    1  C1  UNL     1      32.766   1.798 166.108  1.00  0.00     0.042 C 
HETATM    2  C2  UNL     1      31.324   1.754 165.676  1.00  0.00     0.152 C 
HETATM    3  O1  UNL     1      30.576   2.603 166.461  1.00  0.00    -0.351 OA
HETATM    4  C3  UNL     1      30.715   2.429 167.838  1.00  0.00     0.291 C 
HETATM    5  C9  UNL     1      30.436   0.959 168.138  1.00  0.00     0.204 C 
HETATM    6  C10 UNL     1      29.814   0.295 166.961  1.00  0.00     0.183 C 
HETATM    7  C11 UNL     1      30.720   0.377 165.722  1.00  0.00     0.182 C 
ENDROOT
BRANCH   7   8
HETATM    8  O6  UNL     1      29.962   0.043 164.647  1.00  0.00    -0.373 OA
BRANCH   8   9
HETATM    9  C12 UNL     1      30.146  -1.196 164.115  1.00  0.00     0.155 C 
HETATM   10  C13 UNL     1      30.448  -1.023 162.633  1.00  0.00     0.066 C 
HETATM   11  C14 UNL     1      30.768  -2.368 162.078  1.00  0.00     0.123 C 
HETATM   12  C15 UNL     1      29.581  -3.251 162.171  1.00  0.00     0.066 C 
HETATM   13  C16 UNL     1      28.894  -3.279 163.485  1.00  0.00     0.151 C 
HETATM   14  C17 UNL     1      28.839  -1.960 164.197  1.00  0.00     0.176 C 
BRANCH  11  15
HETATM   15  O7  UNL     1      31.912  -2.878 162.682  1.00  0.00    -0.395 OA
ATOM     16  H7  UNL     1      31.709  -3.201 163.552  1.00  0.00     0.210 HD
ENDBRANCH  11  15
BRANCH  13  17
HETATM   17  O8  UNL     1      27.550  -3.656 163.250  1.00  0.00    -0.393 OA
ATOM     18  H8  UNL     1      27.565  -4.405 162.666  1.00  0.00     0.210 HD
ENDBRANCH  13  17
BRANCH  14  19
HETATM   19  O9  UNL     1      27.813  -1.137 163.755  1.00  0.00    -0.390 OA
ATOM     20  H9  UNL     1      27.456  -0.668 164.501  1.00  0.00     0.210 HD
ENDBRANCH  14  19
ENDBRANCH   8   9
ENDBRANCH   7   8
BRANCH   6  21
HETATM   21  O5  UNL     1      28.536   0.764 166.679  1.00  0.00    -0.390 OA
ATOM     22  H5  UNL     1      28.401   0.950 165.758  1.00  0.00     0.210 HD
ENDBRANCH   6  21
BRANCH   5  23
HETATM   23  O4  UNL     1      29.503   0.926 169.180  1.00  0.00    -0.388 OA
ATOM     24  H4  UNL     1      29.017   0.114 169.091  1.00  0.00     0.210 HD
ENDBRANCH   5  23
BRANCH   4  25
HETATM   25  O2  UNL     1      29.790   3.201 168.455  1.00  0.00    -0.356 OA
BRANCH  25  26
HETATM   26  C4  UNL     1      30.182   4.404 168.909  1.00  0.00     0.203 C 
BRANCH  26  27
HETATM   27  C5  UNL     1      30.420   4.558 170.358  1.00  0.00     0.145 C 
HETATM   28  C6  UNL     1      30.004   3.475 171.282  1.00  0.00     0.036 C 
HETATM   29  C7  UNL     1      29.922   4.236 172.625  1.00  0.00     0.029 C 
HETATM   30  C8  UNL     1      30.034   5.670 172.162  1.00  0.00     0.168 C 
HETATM   31  O3  UNL     1      29.571   5.609 170.851  1.00  0.00    -0.384 OA
ENDBRANCH  26  27
ENDBRANCH  25  26
ENDBRANCH   4  25
TORSDOF 10
ENDMDL
MODEL 2
REMARK VINA RESULT: -7.030778215      1.702      1.758
REMARK  10 active torsions:
REMARK  status: ('A' for Active; 'I' for Inactive)
REMARK    1  A    between atoms: C3_4  and  O2_5 
REMARK    2  A    between atoms: O2_5  and  C4_6 
REMARK    3  A    between atoms: C4_6  and  C5_7 
REMARK    4  A    between atoms: C9_12  and  O4_13 
REMARK    5  A    between atoms: C10_15  and  O5_16 
REMARK    6  A    between atoms: C11_18  and  O6_19 
REMARK    7  A    between atoms: O6_19  and  C12_20 
REMARK    8  A    between atoms: C14_22  and  O7_23 
REMARK    9  A    between atoms: C16_26  and  O8_27 
REMARK   10  A    between atoms: C17_29  and  O9_30 
ROOT
HETATM    1  C1  UNL     1      32.712   1.445 165.326  1.00  0.00     0.042 C 
HETATM    2  C2  UNL     1      31.232   1.720 165.288  1.00  0.00     0.152 C 
HETATM    3  O1  UNL     1      30.816   2.200 166.510  1.00  0.00    -0.351 OA
HETATM    4  C3  UNL     1      31.177   1.429 167.615  1.00  0.00     0.291 C 
HETATM    5  C9  UNL     1      30.691   0.007 167.352  1.00  0.00     0.204 C 
HETATM    6  C10 UNL     1      29.747  -0.018 166.202  1.00  0.00     0.183 C 
HETATM    7  C11 UNL     1      30.403   0.519 164.920  1.00  0.00     0.182 C 
ENDROOT
BRANCH   7   8
HETATM    8  O6  UNL     1      29.407   0.757 164.029  1.00  0.00    -0.373 OA
BRANCH   8   9
HETATM    9  C12 UNL     1      29.293  -0.101 162.979  1.00  0.00     0.155 C 
HETATM   10  C13 UNL     1      29.757   0.633 161.728  1.00  0.00     0.066 C 
HETATM   11  C14 UNL     1      29.745  -0.343 160.602  1.00  0.00     0.123 C 
HETATM   12  C15 UNL     1      28.359  -0.799 160.340  1.00  0.00     0.066 C 
HETATM   13  C16 UNL     1      27.581  -1.227 161.528  1.00  0.00     0.151 C 
HETATM   14  C17 UNL     1      27.825  -0.419 162.767  1.00  0.00     0.176 C 
BRANCH  11  15
HETATM   15  O7  UNL     1      30.651  -1.369 160.846  1.00  0.00    -0.395 OA
ATOM     16  H7  UNL     1      31.499  -1.155 160.473  1.00  0.00     0.210 HD
ENDBRANCH  11  15
BRANCH  13  17
HETATM   17  O8  UNL     1      26.211  -1.062 161.215  1.00  0.00    -0.393 OA
ATOM     18  H8  UNL     1      25.911  -1.873 160.823  1.00  0.00     0.210 HD
ENDBRANCH  13  17
BRANCH  14  19
HETATM   19  O9  UNL     1      27.103   0.766 162.806  1.00  0.00    -0.390 OA
ATOM     20  H9  UNL     1      27.452   1.358 162.149  1.00  0.00     0.210 HD
ENDBRANCH  14  19
ENDBRANCH   8   9
ENDBRANCH   7   8
BRANCH   6  21
HETATM   21  O5  UNL     1      28.548   0.635 166.464  1.00  0.00    -0.390 OA
ATOM     22  H5  UNL     1      27.789   0.071 166.376  1.00  0.00     0.210 HD
ENDBRANCH   6  21
BRANCH   5  23
HETATM   23  O4  UNL     1      29.982  -0.399 168.487  1.00  0.00    -0.388 OA
ATOM     24  H4  UNL     1      29.061  -0.403 168.251  1.00  0.00     0.210 HD
ENDBRANCH   5  23
BRANCH   4  25
HETATM   25  O2  UNL     1      30.544   1.930 168.702  1.00  0.00    -0.356 OA
BRANCH  25  26
HETATM   26  C4  UNL     1      30.509   3.266 168.846  1.00  0.00     0.203 C 
BRANCH  26  27
HETATM   27  C5  UNL     1      30.617   3.822 170.209  1.00  0.00     0.145 C 
HETATM   28  C6  UNL     1      29.959   3.117 171.337  1.00  0.00     0.036 C 
HETATM   29  C7  UNL     1      29.850   4.251 172.381  1.00  0.00     0.029 C 
HETATM   30  C8  UNL     1      30.211   5.459 171.550  1.00  0.00     0.168 C 
HETATM   31  O3  UNL     1      29.881   5.056 170.258  1.00  0.00    -0.384 OA
ENDBRANCH  26  27
ENDBRANCH  25  26
ENDBRANCH   4  25
TORSDOF 10
ENDMDL
MODEL 3
REMARK VINA RESULT: -7.007331097      2.115      3.909
REMARK  10 active torsions:
REMARK  status: ('A' for Active; 'I' for Inactive)
REMARK    1  A    between atoms: C3_4  and  O2_5 
REMARK    2  A    between atoms: O2_5  and  C4_6 
REMARK    3  A    between atoms: C4_6  and  C5_7 
REMARK    4  A    between atoms: C9_12  and  O4_13 
REMARK    5  A    between atoms: C10_15  and  O5_16 
REMARK    6  A    between atoms: C11_18  and  O6_19 
REMARK    7  A    between atoms: O6_19  and  C12_20 
REMARK    8  A    between atoms: C14_22  and  O7_23 
REMARK    9  A    between atoms: C16_26  and  O8_27 
REMARK   10  A    between atoms: C17_29  and  O9_30 
ROOT
HETATM    1  C1  UNL     1      28.862  -3.883 166.555  1.00  0.00     0.042 C 
HETATM    2  C2  UNL     1      29.719  -2.707 166.166  1.00  0.00     0.152 C 
HETATM    3  O1  UNL     1      29.666  -1.746 167.151  1.00  0.00    -0.351 OA
HETATM    4  C3  UNL     1      28.386  -1.355 167.543  1.00  0.00     0.291 C 
HETATM    5  C9  UNL     1      27.635  -0.938 166.282  1.00  0.00     0.204 C 
HETATM    6  C10 UNL     1      28.576  -0.782 165.141  1.00  0.00     0.183 C 
HETATM    7  C11 UNL     1      29.334  -2.088 164.850  1.00  0.00     0.182 C 
ENDROOT
BRANCH   7   8
HETATM    8  O6  UNL     1      30.371  -1.776 164.033  1.00  0.00    -0.373 OA
BRANCH   8   9
HETATM    9  C12 UNL     1      30.183  -1.940 162.695  1.00  0.00     0.155 C 
HETATM   10  C13 UNL     1      29.500  -3.283 162.484  1.00  0.00     0.066 C 
HETATM   11  C14 UNL     1      29.186  -3.407 161.033  1.00  0.00     0.123 C 
HETATM   12  C15 UNL     1      30.440  -3.437 160.243  1.00  0.00     0.066 C 
HETATM   13  C16 UNL     1      31.436  -2.387 160.566  1.00  0.00     0.151 C 
HETATM   14  C17 UNL     1      31.538  -2.040 162.021  1.00  0.00     0.176 C 
BRANCH  11  15
HETATM   15  O7  UNL     1      28.289  -2.416 160.649  1.00  0.00    -0.395 OA
ATOM     16  H7  UNL     1      28.036  -2.535 159.741  1.00  0.00     0.210 HD
ENDBRANCH  11  15
BRANCH  13  17
HETATM   17  O8  UNL     1      32.707  -2.883 160.191  1.00  0.00    -0.393 OA
ATOM     18  H8  UNL     1      33.358  -2.292 160.549  1.00  0.00     0.210 HD
ENDBRANCH  13  17
BRANCH  14  19
HETATM   19  O9  UNL     1      32.331  -2.919 162.745  1.00  0.00    -0.390 OA
ATOM     20  H9  UNL     1      32.655  -2.471 163.519  1.00  0.00     0.210 HD
ENDBRANCH  14  19
ENDBRANCH   8   9
ENDBRANCH   7   8
BRANCH   6  21
HETATM   21  O5  UNL     1      29.455   0.283 165.300  1.00  0.00    -0.390 OA
ATOM     22  H5  UNL     1      29.136   1.091 164.916  1.00  0.00     0.210 HD
ENDBRANCH   6  21
BRANCH   5  23
HETATM   23  O4  UNL     1      27.072   0.316 166.538  1.00  0.00    -0.388 OA
ATOM     24  H4  UNL     1      26.973   0.752 165.699  1.00  0.00     0.210 HD
ENDBRANCH   5  23
BRANCH   4  25
HETATM   25  O2  UNL     1      28.506  -0.291 168.371  1.00  0.00    -0.356 OA
BRANCH  25  26
HETATM   26  C4  UNL     1      29.715  -0.047 168.906  1.00  0.00     0.203 C 
BRANCH  26  27
HETATM   27  C5  UNL     1      30.277   1.311 168.767  1.00  0.00     0.145 C 
HETATM   28  C6  UNL     1      30.063   2.301 169.852  1.00  0.00     0.036 C 
HETATM   29  C7  UNL     1      30.299   3.631 169.100  1.00  0.00     0.029 C 
HETATM   30  C8  UNL     1      30.327   3.162 167.665  1.00  0.00     0.168 C 
HETATM   31  O3  UNL     1      29.579   1.988 167.708  1.00  0.00    -0.384 OA
ENDBRANCH  26  27
ENDBRANCH  25  26
ENDBRANCH   4  25
TORSDOF 10
ENDMDL
MODEL 4
REMARK VINA RESULT: -6.706249692      1.734      3.245
REMARK  10 active torsions:
REMARK  status: ('A' for Active; 'I' for Inactive)
REMARK    1  A    between atoms: C3_4  and  O2_5 
REMARK    2  A    between atoms: O2_5  and  C4_6 
REMARK    3  A    between atoms: C4_6  and  C5_7 
REMARK    4  A    between atoms: C9_12  and  O4_13 
REMARK    5  A    between atoms: C10_15  and  O5_16 
REMARK    6  A    between atoms: C11_18  and  O6_19 
REMARK    7  A    between atoms: O6_19  and  C12_20 
REMARK    8  A    between atoms: C14_22  and  O7_23 
REMARK    9  A    between atoms: C16_26  and  O8_27 
REMARK   10  A    between atoms: C17_29  and  O9_30 
ROOT
HETATM    1  C1  UNL     1      29.924  -3.297 166.544  1.00  0.00     0.042 C 
HETATM    2  C2  UNL     1      29.703  -2.193 165.543  1.00  0.00     0.152 C 
HETATM    3  O1  UNL     1      29.774  -0.971 166.174  1.00  0.00    -0.351 OA
HETATM    4  C3  UNL     1      28.965  -0.827 167.301  1.00  0.00     0.291 C 
HETATM    5  C9  UNL     1      27.542  -1.185 166.883  1.00  0.00     0.204 C 
HETATM    6  C10 UNL     1      27.433  -1.251 165.401  1.00  0.00     0.183 C 
HETATM    7  C11 UNL     1      28.394  -2.295 164.809  1.00  0.00     0.182 C 
ENDROOT
BRANCH   7   8
HETATM    8  O6  UNL     1      28.461  -2.067 163.474  1.00  0.00    -0.373 OA
BRANCH   8   9
HETATM    9  C12 UNL     1      29.498  -2.630 162.796  1.00  0.00     0.155 C 
HETATM   10  C13 UNL     1      30.409  -1.506 162.324  1.00  0.00     0.066 C 
HETATM   11  C14 UNL     1      31.604  -2.129 161.689  1.00  0.00     0.123 C 
HETATM   12  C15 UNL     1      31.199  -2.887 160.481  1.00  0.00     0.066 C 
HETATM   13  C16 UNL     1      30.046  -3.805 160.646  1.00  0.00     0.151 C 
HETATM   14  C17 UNL     1      28.959  -3.297 161.546  1.00  0.00     0.176 C 
BRANCH  11  15
HETATM   15  O7  UNL     1      32.312  -2.875 162.625  1.00  0.00    -0.395 OA
ATOM     16  H7  UNL     1      32.402  -3.774 162.330  1.00  0.00     0.210 HD
ENDBRANCH  11  15
BRANCH  13  17
HETATM   17  O8  UNL     1      29.455  -3.972 159.371  1.00  0.00    -0.393 OA
ATOM     18  H8  UNL     1      28.535  -3.756 159.456  1.00  0.00     0.210 HD
ENDBRANCH  13  17
BRANCH  14  19
HETATM   19  O9  UNL     1      28.085  -2.422 160.916  1.00  0.00    -0.390 OA
ATOM     20  H9  UNL     1      27.221  -2.818 160.893  1.00  0.00     0.210 HD
ENDBRANCH  14  19
ENDBRANCH   8   9
ENDBRANCH   7   8
BRANCH   6  21
HETATM   21  O5  UNL     1      27.596  -0.015 164.785  1.00  0.00    -0.390 OA
ATOM     22  H5  UNL     1      27.139   0.052 163.955  1.00  0.00     0.210 HD
ENDBRANCH   6  21
BRANCH   5  23
HETATM   23  O4  UNL     1      26.714  -0.145 167.319  1.00  0.00    -0.388 OA
ATOM     24  H4  UNL     1      25.822  -0.395 167.111  1.00  0.00     0.210 HD
ENDBRANCH   5  23
BRANCH   4  25
HETATM   25  O2  UNL     1      29.010   0.469 167.689  1.00  0.00    -0.356 OA
BRANCH  25  26
HETATM   26  C4  UNL     1      30.064   1.204 167.293  1.00  0.00     0.203 C 
BRANCH  26  27
HETATM   27  C5  UNL     1      30.440   2.377 168.108  1.00  0.00     0.145 C 
HETATM   28  C6  UNL     1      30.231   2.340 169.577  1.00  0.00     0.036 C 
HETATM   29  C7  UNL     1      30.220   3.847 169.920  1.00  0.00     0.029 C 
HETATM   30  C8  UNL     1      30.144   4.466 168.544  1.00  0.00     0.168 C 
HETATM   31  O3  UNL     1      29.552   3.461 167.784  1.00  0.00    -0.384 OA
ENDBRANCH  26  27
ENDBRANCH  25  26
ENDBRANCH   4  25
TORSDOF 10
ENDMDL
MODEL 5
REMARK VINA RESULT: -6.656654506      2.441      8.701
REMARK  10 active torsions:
REMARK  status: ('A' for Active; 'I' for Inactive)
REMARK    1  A    between atoms: C3_4  and  O2_5 
REMARK    2  A    between atoms: O2_5  and  C4_6 
REMARK    3  A    between atoms: C4_6  and  C5_7 
REMARK    4  A    between atoms: C9_12  and  O4_13 
REMARK    5  A    between atoms: C10_15  and  O5_16 
REMARK    6  A    between atoms: C11_18  and  O6_19 
REMARK    7  A    between atoms: O6_19  and  C12_20 
REMARK    8  A    between atoms: C14_22  and  O7_23 
REMARK    9  A    between atoms: C16_26  and  O8_27 
REMARK   10  A    between atoms: C17_29  and  O9_30 
ROOT
HETATM    1  C1  UNL     1      28.448   0.507 162.064  1.00  0.00     0.042 C 
HETATM    2  C2  UNL     1      29.707  -0.069 162.657  1.00  0.00     0.152 C 
HETATM    3  O1  UNL     1      30.289  -0.938 161.761  1.00  0.00    -0.351 OA
HETATM    4  C3  UNL     1      29.450  -1.929 161.251  1.00  0.00     0.291 C 
HETATM    5  C9  UNL     1      28.827  -2.651 162.442  1.00  0.00     0.204 C 
HETATM    6  C10 UNL     1      29.538  -2.293 163.699  1.00  0.00     0.183 C 
HETATM    7  C11 UNL     1      29.490  -0.780 163.965  1.00  0.00     0.182 C 
ENDROOT
BRANCH   7   8
HETATM    8  O6  UNL     1      30.409  -0.512 164.927  1.00  0.00    -0.373 OA
BRANCH   8   9
HETATM    9  C12 UNL     1      30.000   0.233 165.990  1.00  0.00     0.155 C 
HETATM   10  C13 UNL     1      31.177   1.089 166.435  1.00  0.00     0.066 C 
HETATM   11  C14 UNL     1      30.695   1.990 167.519  1.00  0.00     0.123 C 
HETATM   12  C15 UNL     1      30.279   1.191 168.696  1.00  0.00     0.066 C 
HETATM   13  C16 UNL     1      29.387   0.039 168.417  1.00  0.00     0.151 C 
HETATM   14  C17 UNL     1      29.688  -0.697 167.146  1.00  0.00     0.176 C 
BRANCH  11  15
HETATM   15  O7  UNL     1      29.714   2.848 167.031  1.00  0.00    -0.395 OA
ATOM     16  H7  UNL     1      29.161   2.393 166.406  1.00  0.00     0.210 HD
ENDBRANCH  11  15
BRANCH  13  17
HETATM   17  O8  UNL     1      29.566  -0.895 169.465  1.00  0.00    -0.393 OA
ATOM     18  H8  UNL     1      30.197  -1.538 169.165  1.00  0.00     0.210 HD
ENDBRANCH  13  17
BRANCH  14  19
HETATM   19  O9  UNL     1      30.722  -1.615 167.271  1.00  0.00    -0.390 OA
ATOM     20  H9  UNL     1      30.434  -2.323 167.836  1.00  0.00     0.210 HD
ENDBRANCH  14  19
ENDBRANCH   8   9
ENDBRANCH   7   8
BRANCH   6  21
HETATM   21  O5  UNL     1      30.843  -2.769 163.744  1.00  0.00    -0.390 OA
ATOM     22  H5  UNL     1      31.437  -2.187 164.202  1.00  0.00     0.210 HD
ENDBRANCH   6  21
BRANCH   5  23
HETATM   23  O4  UNL     1      29.011  -4.021 162.231  1.00  0.00    -0.388 OA
ATOM     24  H4  UNL     1      28.485  -4.258 161.476  1.00  0.00     0.210 HD
ENDBRANCH   5  23
BRANCH   4  25
HETATM   25  O2  UNL     1      30.207  -2.797 160.541  1.00  0.00    -0.356 OA
BRANCH  25  26
HETATM   26  C4  UNL     1      31.010  -2.293 159.588  1.00  0.00     0.203 C 
BRANCH  26  27
HETATM   27  C5  UNL     1      32.308  -2.956 159.349  1.00  0.00     0.145 C 
HETATM   28  C6  UNL     1      33.253  -3.134 160.479  1.00  0.00     0.036 C 
HETATM   29  C7  UNL     1      34.590  -3.328 159.729  1.00  0.00     0.029 C 
HETATM   30  C8  UNL     1      34.202  -2.943 158.322  1.00  0.00     0.168 C 
HETATM   31  O3  UNL     1      33.112  -2.099 158.520  1.00  0.00    -0.384 OA
ENDBRANCH  26  27
ENDBRANCH  25  26
ENDBRANCH   4  25
TORSDOF 10
ENDMDL
