MODEL 1
REMARK VINA RESULT: -7.290906650      0.000      0.000
REMARK  10 active torsions:
REMARK  status: ('A' for Active; 'I' for Inactive)
REMARK    1  A    between atoms: C4_5  and  O2_6 
REMARK    2  A    between atoms: C5_8  and  O3_9 
REMARK    3  A    between atoms: O3_9  and  C6_10 
REMARK    4  A    between atoms: C7_11  and  O4_12 
REMARK    5  A    between atoms: C9_15  and  O5_16 
REMARK    6  A    between atoms: O5_16  and  C10_17 
REMARK    7  A    between atoms: C13_20  and  C14_21 
REMARK    8  A    between atoms: C14_21  and  O6_22 
REMARK    9  A    between atoms: C16_25  and  O7_26 
REMARK   10  A    between atoms: C17_28  and  O8_29 
ROOT
HETATM    1  C6  UNL     1      12.843  -6.770   7.871  1.00  0.00     0.184 C 
HETATM    2  C7  UNL     1      13.928  -6.337   6.911  1.00  0.00     0.152 C 
HETATM    3  C8  UNL     1      13.592  -7.176   5.685  1.00  0.00     0.069 C 
HETATM    4  C9  UNL     1      12.100  -6.952   5.574  1.00  0.00     0.155 C 
HETATM    5  C17 UNL     1      11.616  -6.863   6.987  1.00  0.00     0.178 C 
ENDROOT
BRANCH   4   6
HETATM    6  O5  UNL     1      11.808  -5.810   4.821  1.00  0.00    -0.375 OA
BRANCH   6   7
HETATM    7  C10 UNL     1      11.296  -6.106   3.581  1.00  0.00     0.150 C 
HETATM    8  C11 UNL     1       9.982  -5.412   3.291  1.00  0.00     0.035 C 
HETATM    9  C12 UNL     1       9.430  -6.033   2.023  1.00  0.00     0.009 C 
HETATM   10  C13 UNL     1      10.321  -5.658   0.876  1.00  0.00     0.012 C 
HETATM   11  C15 UNL     1      11.573  -4.973   1.361  1.00  0.00     0.041 C 
HETATM   12  C16 UNL     1      12.254  -5.716   2.476  1.00  0.00     0.147 C 
BRANCH  10  13
HETATM   13  C14 UNL     1      10.744  -6.864   0.061  1.00  0.00     0.168 C 
BRANCH  13  14
HETATM   14  O6  UNL     1      10.071  -6.904  -1.165  1.00  0.00    -0.400 OA
ATOM     15  H6  UNL     1       9.773  -7.785  -1.362  1.00  0.00     0.209 HD
ENDBRANCH  13  14
ENDBRANCH  10  13
BRANCH  12  16
HETATM   16  O7  UNL     1      13.236  -4.863   2.998  1.00  0.00    -0.393 OA
ATOM     17  H7  UNL     1      12.917  -3.969   2.976  1.00  0.00     0.210 HD
ENDBRANCH  12  16
ENDBRANCH   6   7
ENDBRANCH   4   6
BRANCH   5  18
HETATM   18  O8  UNL     1      10.817  -5.724   7.102  1.00  0.00    -0.390 OA
ATOM     19  H8  UNL     1      11.083  -5.050   6.488  1.00  0.00     0.210 HD
ENDBRANCH   5  18
BRANCH   2  20
HETATM   20  O4  UNL     1      15.198  -6.605   7.386  1.00  0.00    -0.393 OA
ATOM     21  H4  UNL     1      15.881  -6.278   6.811  1.00  0.00     0.210 HD
ENDBRANCH   2  20
BRANCH   1  22
HETATM   22  O3  UNL     1      12.583  -5.854   8.859  1.00  0.00    -0.348 OA
BRANCH  22  23
HETATM   23  C5  UNL     1      13.171  -4.617   8.662  1.00  0.00     0.294 C 
HETATM   24  C4  UNL     1      14.174  -4.284   9.769  1.00  0.00     0.197 C 
HETATM   25  C3  UNL     1      13.387  -4.229  11.060  1.00  0.00     0.207 C 
HETATM   26  O1  UNL     1      12.065  -4.573  10.911  1.00  0.00    -0.359 OA
HETATM   27  C2  UNL     1      11.404  -3.896   9.921  1.00  0.00     0.259 C 
HETATM   28  C1  UNL     1      10.768  -2.631  10.475  1.00  0.00     0.071 C 
HETATM   29  O9  UNL     1      12.148  -3.660   8.792  1.00  0.00    -0.329 OA
BRANCH  24  30
HETATM   30  O2  UNL     1      14.621  -2.984   9.490  1.00  0.00    -0.388 OA
ATOM     31  H2  UNL     1      15.057  -2.658  10.268  1.00  0.00     0.210 HD
ENDBRANCH  24  30
ENDBRANCH  22  23
ENDBRANCH   1  22
TORSDOF 10
ENDMDL
MODEL 2
REMARK VINA RESULT: -6.905888233      0.848      1.325
REMARK  10 active torsions:
REMARK  status: ('A' for Active; 'I' for Inactive)
REMARK    1  A    between atoms: C4_5  and  O2_6 
REMARK    2  A    between atoms: C5_8  and  O3_9 
REMARK    3  A    between atoms: O3_9  and  C6_10 
REMARK    4  A    between atoms: C7_11  and  O4_12 
REMARK    5  A    between atoms: C9_15  and  O5_16 
REMARK    6  A    between atoms: O5_16  and  C10_17 
REMARK    7  A    between atoms: C13_20  and  C14_21 
REMARK    8  A    between atoms: C14_21  and  O6_22 
REMARK    9  A    between atoms: C16_25  and  O7_26 
REMARK   10  A    between atoms: C17_28  and  O8_29 
ROOT
HETATM    1  C6  UNL     1      12.706  -6.736   7.951  1.00  0.00     0.184 C 
HETATM    2  C7  UNL     1      13.678  -6.257   6.896  1.00  0.00     0.152 C 
HETATM    3  C8  UNL     1      13.289  -7.135   5.713  1.00  0.00     0.069 C 
HETATM    4  C9  UNL     1      11.783  -7.000   5.728  1.00  0.00     0.155 C 
HETATM    5  C17 UNL     1      11.416  -6.914   7.177  1.00  0.00     0.178 C 
ENDROOT
BRANCH   4   6
HETATM    6  O5  UNL     1      11.360  -5.889   4.990  1.00  0.00    -0.375 OA
BRANCH   6   7
HETATM    7  C10 UNL     1      11.234  -6.157   3.649  1.00  0.00     0.150 C 
HETATM    8  C11 UNL     1      10.976  -7.618   3.348  1.00  0.00     0.035 C 
HETATM    9  C12 UNL     1      11.122  -7.788   1.848  1.00  0.00     0.009 C 
HETATM   10  C13 UNL     1      10.003  -7.055   1.169  1.00  0.00     0.012 C 
HETATM   11  C15 UNL     1       9.222  -6.223   2.153  1.00  0.00     0.041 C 
HETATM   12  C16 UNL     1      10.099  -5.372   3.028  1.00  0.00     0.147 C 
BRANCH  10  13
HETATM   13  C14 UNL     1      10.504  -6.127   0.080  1.00  0.00     0.168 C 
BRANCH  13  14
HETATM   14  O6  UNL     1      10.846  -6.843  -1.073  1.00  0.00    -0.400 OA
ATOM     15  H6  UNL     1      11.141  -6.260  -1.762  1.00  0.00     0.209 HD
ENDBRANCH  13  14
ENDBRANCH  10  13
BRANCH  12  16
HETATM   16  O7  UNL     1       9.286  -4.855   4.047  1.00  0.00    -0.393 OA
ATOM     17  H7  UNL     1       9.405  -3.914   4.094  1.00  0.00     0.210 HD
ENDBRANCH  12  16
ENDBRANCH   6   7
ENDBRANCH   4   6
BRANCH   5  18
HETATM   18  O8  UNL     1      10.564  -5.822   7.346  1.00  0.00    -0.390 OA
ATOM     19  H8  UNL     1       9.900  -5.791   6.667  1.00  0.00     0.210 HD
ENDBRANCH   5  18
BRANCH   2  20
HETATM   20  O4  UNL     1      14.998  -6.444   7.263  1.00  0.00    -0.393 OA
ATOM     21  H4  UNL     1      15.106  -7.138   7.902  1.00  0.00     0.210 HD
ENDBRANCH   2  20
BRANCH   1  22
HETATM   22  O3  UNL     1      12.478  -5.821   8.947  1.00  0.00    -0.348 OA
BRANCH  22  23
HETATM   23  C5  UNL     1      13.079  -4.592   8.743  1.00  0.00     0.294 C 
HETATM   24  C4  UNL     1      14.114  -4.280   9.827  1.00  0.00     0.197 C 
HETATM   25  C3  UNL     1      13.359  -4.222  11.137  1.00  0.00     0.207 C 
HETATM   26  O1  UNL     1      12.029  -4.545  11.018  1.00  0.00    -0.359 OA
HETATM   27  C2  UNL     1      11.354  -3.852  10.048  1.00  0.00     0.259 C 
HETATM   28  C1  UNL     1      10.751  -2.581  10.625  1.00  0.00     0.071 C 
HETATM   29  O9  UNL     1      12.074  -3.620   8.903  1.00  0.00    -0.329 OA
BRANCH  24  30
HETATM   30  O2  UNL     1      14.573  -2.986   9.545  1.00  0.00    -0.388 OA
ATOM     31  H2  UNL     1      15.068  -3.027   8.736  1.00  0.00     0.210 HD
ENDBRANCH  24  30
ENDBRANCH  22  23
ENDBRANCH   1  22
TORSDOF 10
ENDMDL
MODEL 3
REMARK VINA RESULT: -6.848493879      3.814      7.930
REMARK  10 active torsions:
REMARK  status: ('A' for Active; 'I' for Inactive)
REMARK    1  A    between atoms: C4_5  and  O2_6 
REMARK    2  A    between atoms: C5_8  and  O3_9 
REMARK    3  A    between atoms: O3_9  and  C6_10 
REMARK    4  A    between atoms: C7_11  and  O4_12 
REMARK    5  A    between atoms: C9_15  and  O5_16 
REMARK    6  A    between atoms: O5_16  and  C10_17 
REMARK    7  A    between atoms: C13_20  and  C14_21 
REMARK    8  A    between atoms: C14_21  and  O6_22 
REMARK    9  A    between atoms: C16_25  and  O7_26 
REMARK   10  A    between atoms: C17_28  and  O8_29 
ROOT
HETATM    1  C6  UNL     1       9.421  -8.243   4.617  1.00  0.00     0.184 C 
HETATM    2  C7  UNL     1      10.213  -7.286   3.756  1.00  0.00     0.152 C 
HETATM    3  C8  UNL     1       9.990  -5.970   4.490  1.00  0.00     0.069 C 
HETATM    4  C9  UNL     1      10.257  -6.381   5.921  1.00  0.00     0.155 C 
HETATM    5  C17 UNL     1       9.733  -7.780   6.026  1.00  0.00     0.178 C 
ENDROOT
BRANCH   4   6
HETATM    6  O5  UNL     1      11.615  -6.280   6.238  1.00  0.00    -0.375 OA
BRANCH   6   7
HETATM    7  C10 UNL     1      11.861  -5.386   7.252  1.00  0.00     0.150 C 
HETATM    8  C11 UNL     1      10.602  -4.850   7.900  1.00  0.00     0.035 C 
HETATM    9  C12 UNL     1      11.028  -3.705   8.798  1.00  0.00     0.009 C 
HETATM   10  C13 UNL     1      11.837  -4.257   9.934  1.00  0.00     0.012 C 
HETATM   11  C15 UNL     1      12.146  -5.717   9.721  1.00  0.00     0.041 C 
HETATM   12  C16 UNL     1      12.695  -6.007   8.351  1.00  0.00     0.147 C 
BRANCH  10  13
HETATM   13  C14 UNL     1      13.155  -3.530  10.106  1.00  0.00     0.168 C 
BRANCH  13  14
HETATM   14  O6  UNL     1      13.170  -2.790  11.294  1.00  0.00    -0.400 OA
ATOM     15  H6  UNL     1      13.985  -2.310  11.388  1.00  0.00     0.209 HD
ENDBRANCH  13  14
ENDBRANCH  10  13
BRANCH  12  16
HETATM   16  O7  UNL     1      12.697  -7.400   8.197  1.00  0.00    -0.393 OA
ATOM     17  H7  UNL     1      13.206  -7.791   8.898  1.00  0.00     0.210 HD
ENDBRANCH  12  16
ENDBRANCH   6   7
ENDBRANCH   4   6
BRANCH   5  18
HETATM   18  O8  UNL     1      10.720  -8.571   6.616  1.00  0.00    -0.390 OA
ATOM     19  H8  UNL     1      11.166  -8.106   7.314  1.00  0.00     0.210 HD
ENDBRANCH   5  18
BRANCH   2  20
HETATM   20  O4  UNL     1       9.751  -7.232   2.454  1.00  0.00    -0.393 OA
ATOM     21  H4  UNL     1       9.268  -6.436   2.269  1.00  0.00     0.210 HD
ENDBRANCH   2  20
BRANCH   1  22
HETATM   22  O3  UNL     1       9.822  -9.549   4.504  1.00  0.00    -0.348 OA
BRANCH  22  23
HETATM   23  C5  UNL     1       8.846 -10.409   4.031  1.00  0.00     0.294 C 
HETATM   24  C4  UNL     1       7.724 -10.610   5.053  1.00  0.00     0.197 C 
HETATM   25  C3  UNL     1       8.361 -11.245   6.270  1.00  0.00     0.207 C 
HETATM   26  O1  UNL     1       9.725 -11.375   6.170  1.00  0.00    -0.359 OA
HETATM   27  C2  UNL     1      10.161 -11.992   5.027  1.00  0.00     0.259 C 
HETATM   28  C1  UNL     1      10.271 -13.493   5.242  1.00  0.00     0.071 C 
HETATM   29  O9  UNL     1       9.452 -11.671   3.897  1.00  0.00    -0.329 OA
BRANCH  24  30
HETATM   30  O2  UNL     1       6.863 -11.557   4.482  1.00  0.00    -0.388 OA
ATOM     31  H2  UNL     1       7.132 -11.682   3.580  1.00  0.00     0.210 HD
ENDBRANCH  24  30
ENDBRANCH  22  23
ENDBRANCH   1  22
TORSDOF 10
ENDMDL
MODEL 4
REMARK VINA RESULT: -6.769102024      1.742      7.580
REMARK  10 active torsions:
REMARK  status: ('A' for Active; 'I' for Inactive)
REMARK    1  A    between atoms: C4_5  and  O2_6 
REMARK    2  A    between atoms: C5_8  and  O3_9 
REMARK    3  A    between atoms: O3_9  and  C6_10 
REMARK    4  A    between atoms: C7_11  and  O4_12 
REMARK    5  A    between atoms: C9_15  and  O5_16 
REMARK    6  A    between atoms: O5_16  and  C10_17 
REMARK    7  A    between atoms: C13_20  and  C14_21 
REMARK    8  A    between atoms: C14_21  and  O6_22 
REMARK    9  A    between atoms: C16_25  and  O7_26 
REMARK   10  A    between atoms: C17_28  and  O8_29 
ROOT
HETATM    1  C6  UNL     1      12.874  -7.968   5.231  1.00  0.00     0.184 C 
HETATM    2  C7  UNL     1      11.715  -7.849   6.195  1.00  0.00     0.152 C 
HETATM    3  C8  UNL     1      12.446  -7.746   7.527  1.00  0.00     0.069 C 
HETATM    4  C9  UNL     1      13.503  -6.714   7.205  1.00  0.00     0.155 C 
HETATM    5  C17 UNL     1      13.884  -6.981   5.782  1.00  0.00     0.178 C 
ENDROOT
BRANCH   4   6
HETATM    6  O5  UNL     1      13.031  -5.414   7.410  1.00  0.00    -0.375 OA
BRANCH   6   7
HETATM    7  C10 UNL     1      12.937  -5.084   8.740  1.00  0.00     0.150 C 
HETATM    8  C11 UNL     1      13.785  -3.891   9.126  1.00  0.00     0.035 C 
HETATM    9  C12 UNL     1      13.777  -3.821  10.641  1.00  0.00     0.009 C 
HETATM   10  C13 UNL     1      12.393  -3.470  11.100  1.00  0.00     0.012 C 
HETATM   11  C15 UNL     1      11.415  -3.502   9.953  1.00  0.00     0.041 C 
HETATM   12  C16 UNL     1      11.513  -4.759   9.134  1.00  0.00     0.147 C 
BRANCH  10  13
HETATM   13  C14 UNL     1      11.883  -4.421  12.164  1.00  0.00     0.168 C 
BRANCH  13  14
HETATM   14  O6  UNL     1      12.886  -5.309  12.568  1.00  0.00    -0.400 OA
ATOM     15  H6  UNL     1      13.747  -4.921  12.463  1.00  0.00     0.209 HD
ENDBRANCH  13  14
ENDBRANCH  10  13
BRANCH  12  16
HETATM   16  O7  UNL     1      10.749  -4.555   7.976  1.00  0.00    -0.393 OA
ATOM     17  H7  UNL     1       9.830  -4.513   8.211  1.00  0.00     0.210 HD
ENDBRANCH  12  16
ENDBRANCH   6   7
ENDBRANCH   4   6
BRANCH   5  18
HETATM   18  O8  UNL     1      13.847  -5.771   5.087  1.00  0.00    -0.390 OA
ATOM     19  H8  UNL     1      14.332  -5.094   5.543  1.00  0.00     0.210 HD
ENDBRANCH   5  18
BRANCH   2  20
HETATM   20  O4  UNL     1      10.873  -8.945   6.154  1.00  0.00    -0.393 OA
ATOM     21  H4  UNL     1      10.072  -8.810   6.646  1.00  0.00     0.210 HD
ENDBRANCH   2  20
BRANCH   1  22
HETATM   22  O3  UNL     1      12.567  -7.586   3.950  1.00  0.00    -0.348 OA
BRANCH  22  23
HETATM   23  C5  UNL     1      11.238  -7.255   3.754  1.00  0.00     0.294 C 
HETATM   24  C4  UNL     1      10.645  -7.982   2.545  1.00  0.00     0.197 C 
HETATM   25  C3  UNL     1      11.428  -7.516   1.337  1.00  0.00     0.207 C 
HETATM   26  O1  UNL     1      12.472  -6.680   1.650  1.00  0.00    -0.359 OA
HETATM   27  C2  UNL     1      12.137  -5.613   2.441  1.00  0.00     0.259 C 
HETATM   28  C1  UNL     1      11.747  -4.419   1.585  1.00  0.00     0.071 C 
HETATM   29  O9  UNL     1      11.209  -5.890   3.414  1.00  0.00    -0.329 OA
BRANCH  24  30
HETATM   30  O2  UNL     1       9.338  -7.492   2.418  1.00  0.00    -0.388 OA
ATOM     31  H2  UNL     1       9.148  -6.976   3.193  1.00  0.00     0.210 HD
ENDBRANCH  24  30
ENDBRANCH  22  23
ENDBRANCH   1  22
TORSDOF 10
ENDMDL
MODEL 5
REMARK VINA RESULT: -6.593481197      3.954      7.887
REMARK  10 active torsions:
REMARK  status: ('A' for Active; 'I' for Inactive)
REMARK    1  A    between atoms: C4_5  and  O2_6 
REMARK    2  A    between atoms: C5_8  and  O3_9 
REMARK    3  A    between atoms: O3_9  and  C6_10 
REMARK    4  A    between atoms: C7_11  and  O4_12 
REMARK    5  A    between atoms: C9_15  and  O5_16 
REMARK    6  A    between atoms: O5_16  and  C10_17 
REMARK    7  A    between atoms: C13_20  and  C14_21 
REMARK    8  A    between atoms: C14_21  and  O6_22 
REMARK    9  A    between atoms: C16_25  and  O7_26 
REMARK   10  A    between atoms: C17_28  and  O8_29 
ROOT
HETATM    1  C6  UNL     1      11.317 -10.046   6.795  1.00  0.00     0.184 C 
HETATM    2  C7  UNL     1      11.486  -9.386   8.144  1.00  0.00     0.152 C 
HETATM    3  C8  UNL     1      12.840  -8.708   7.977  1.00  0.00     0.069 C 
HETATM    4  C9  UNL     1      12.674  -8.047   6.626  1.00  0.00     0.155 C 
HETATM    5  C17 UNL     1      11.836  -8.999   5.830  1.00  0.00     0.178 C 
ENDROOT
BRANCH   4   6
HETATM    6  O5  UNL     1      12.099  -6.778   6.743  1.00  0.00    -0.375 OA
BRANCH   6   7
HETATM    7  C10 UNL     1      12.503  -6.112   7.874  1.00  0.00     0.150 C 
HETATM    8  C11 UNL     1      13.618  -5.119   7.622  1.00  0.00     0.035 C 
HETATM    9  C12 UNL     1      14.119  -4.670   8.981  1.00  0.00     0.009 C 
HETATM   10  C13 UNL     1      13.042  -3.872   9.652  1.00  0.00     0.012 C 
HETATM   11  C15 UNL     1      11.752  -3.939   8.876  1.00  0.00     0.041 C 
HETATM   12  C16 UNL     1      11.363  -5.343   8.505  1.00  0.00     0.147 C 
BRANCH  10  13
HETATM   13  C14 UNL     1      12.758  -4.360  11.058  1.00  0.00     0.168 C 
BRANCH  13  14
HETATM   14  O6  UNL     1      13.926  -4.384  11.829  1.00  0.00    -0.400 OA
ATOM     15  H6  UNL     1      13.726  -4.302  12.754  1.00  0.00     0.209 HD
ENDBRANCH  13  14
ENDBRANCH  10  13
BRANCH  12  16
HETATM   16  O7  UNL     1      10.307  -5.248   7.588  1.00  0.00    -0.393 OA
ATOM     17  H7  UNL     1       9.524  -4.961   8.042  1.00  0.00     0.210 HD
ENDBRANCH  12  16
ENDBRANCH   6   7
ENDBRANCH   4   6
BRANCH   5  18
HETATM   18  O8  UNL     1      10.791  -8.278   5.250  1.00  0.00    -0.390 OA
ATOM     19  H8  UNL     1      10.894  -8.216   4.308  1.00  0.00     0.210 HD
ENDBRANCH   5  18
BRANCH   2  20
HETATM   20  O4  UNL     1      11.492 -10.295   9.186  1.00  0.00    -0.393 OA
ATOM     21  H4  UNL     1      10.893 -11.018   9.045  1.00  0.00     0.210 HD
ENDBRANCH   2  20
BRANCH   1  22
HETATM   22  O3  UNL     1      10.011 -10.310   6.469  1.00  0.00    -0.348 OA
BRANCH  22  23
HETATM   23  C5  UNL     1       9.678 -11.653   6.484  1.00  0.00     0.294 C 
HETATM   24  C4  UNL     1      10.330 -12.412   5.326  1.00  0.00     0.197 C 
HETATM   25  C3  UNL     1       9.781 -11.806   4.053  1.00  0.00     0.207 C 
HETATM   26  O1  UNL     1       8.959 -10.727   4.269  1.00  0.00    -0.359 OA
HETATM   27  C2  UNL     1       7.948 -10.945   5.167  1.00  0.00     0.259 C 
HETATM   28  C1  UNL     1       6.704 -11.450   4.455  1.00  0.00     0.071 C 
HETATM   29  O9  UNL     1       8.294 -11.728   6.241  1.00  0.00    -0.329 OA
BRANCH  24  30
HETATM   30  O2  UNL     1       9.842 -13.724   5.416  1.00  0.00    -0.388 OA
ATOM     31  H2  UNL     1       8.925 -13.672   5.658  1.00  0.00     0.210 HD
ENDBRANCH  24  30
ENDBRANCH  22  23
ENDBRANCH   1  22
TORSDOF 10
ENDMDL
