MODEL 1
REMARK VINA RESULT: -6.702633102      0.000      0.000
REMARK  10 active torsions:
REMARK  status: ('A' for Active; 'I' for Inactive)
REMARK    1  A    between atoms: O1_2  and  C2_3 
REMARK    2  A    between atoms: C2_3  and  C4_5 
REMARK    3  A    between atoms: C4_5  and  O2_6 
REMARK    4  A    between atoms: C5_9  and  S1_10 
REMARK    5  A    between atoms: S1_10  and  N1_11 
REMARK    6  A    between atoms: N1_11  and  C6_13 
REMARK    7  A    between atoms: C6_13  and  N2_15 
REMARK       I    between atoms: N2_15  and  C7_17 
REMARK    8  A    between atoms: C7_17  and  C8_19 
REMARK    9  A    between atoms: C12_24  and  O6_25 
REMARK   10  A    between atoms: C13_27  and  O7_28 
ROOT
HETATM    1  C4  UNL     1      10.470  -6.612   4.055  1.00  0.00     0.218 C 
HETATM    2  O3  UNL     1      10.587  -6.892   5.398  1.00  0.00    -0.330 OA
HETATM    3  C5  UNL     1      11.820  -6.447   5.845  1.00  0.00     0.239 C 
HETATM    4  C12 UNL     1      12.721  -6.783   4.682  1.00  0.00     0.193 C 
HETATM    5  C13 UNL     1      11.847  -6.374   3.514  1.00  0.00     0.215 C 
ENDROOT
BRANCH   3   6
HETATM    6  S1  UNL     1      12.235  -7.379   7.331  1.00  0.00    -0.018 SA
BRANCH   6   7
HETATM    7  N1  UNL     1      12.009  -6.515   8.794  1.00  0.00    -0.305 N 
ATOM      8  H1  UNL     1      11.371  -6.939   9.468  1.00  0.00     0.176 HD
BRANCH   7   9
HETATM    9  C6  UNL     1      12.579  -5.323   9.172  1.00  0.00     0.184 C 
HETATM   10  S2  UNL     1      14.024  -4.924   8.346  1.00  0.00    -0.040 SA
BRANCH   9  11
HETATM   11  N2  UNL     1      12.200  -4.391  10.096  1.00  0.00    -0.303 N 
HETATM   12  C7  UNL     1      12.432  -4.194  11.456  1.00  0.00     0.230 C 
HETATM   13  O4  UNL     1      13.113  -4.917  12.174  1.00  0.00    -0.273 OA
ATOM     14  H2  UNL     1      11.605  -3.666   9.694  1.00  0.00     0.171 HD
BRANCH  12  15
HETATM   15  C8  UNL     1      11.823  -3.001  12.177  1.00  0.00     0.104 C 
HETATM   16  C9  UNL     1      10.857  -3.606  13.175  1.00  0.00     0.042 C 
HETATM   17  C10 UNL     1       9.704  -2.628  13.070  1.00  0.00     0.168 C 
HETATM   18  O5  UNL     1       9.654  -2.232  11.742  1.00  0.00    -0.390 OA
HETATM   19  C11 UNL     1      10.908  -2.328  11.212  1.00  0.00     0.181 C 
ENDBRANCH  12  15
ENDBRANCH   9  11
ENDBRANCH   7   9
ENDBRANCH   6   7
ENDBRANCH   3   6
BRANCH   4  20
HETATM   20  O6  UNL     1      13.889  -6.022   4.688  1.00  0.00    -0.389 OA
ATOM     21  H6  UNL     1      14.149  -5.764   3.812  1.00  0.00     0.210 HD
ENDBRANCH   4  20
BRANCH   1  22
HETATM   22  C2  UNL     1       9.638  -5.359   3.902  1.00  0.00     0.181 C 
HETATM   23  C3  UNL     1       9.390  -5.029   2.445  1.00  0.00     0.045 C 
BRANCH  22  24
HETATM   24  O1  UNL     1       8.468  -5.408   4.614  1.00  0.00    -0.386 OA
HETATM   25  C1  UNL     1       8.243  -4.286   5.400  1.00  0.00     0.202 C 
ENDBRANCH  22  24
ENDBRANCH   1  22
BRANCH   1  26
HETATM   26  O2  UNL     1       9.860  -7.715   3.459  1.00  0.00    -0.361 OA
ATOM     27  H2  UNL     1       9.535  -7.512   2.590  1.00  0.00     0.213 HD
ENDBRANCH   1  26
BRANCH   5  28
HETATM   28  O7  UNL     1      12.117  -7.124   2.373  1.00  0.00    -0.387 OA
ATOM     29  H7  UNL     1      11.484  -7.818   2.230  1.00  0.00     0.210 HD
ENDBRANCH   5  28
TORSDOF 10
ENDMDL
MODEL 2
REMARK VINA RESULT: -6.661139777      1.522      2.000
REMARK  10 active torsions:
REMARK  status: ('A' for Active; 'I' for Inactive)
REMARK    1  A    between atoms: O1_2  and  C2_3 
REMARK    2  A    between atoms: C2_3  and  C4_5 
REMARK    3  A    between atoms: C4_5  and  O2_6 
REMARK    4  A    between atoms: C5_9  and  S1_10 
REMARK    5  A    between atoms: S1_10  and  N1_11 
REMARK    6  A    between atoms: N1_11  and  C6_13 
REMARK    7  A    between atoms: C6_13  and  N2_15 
REMARK       I    between atoms: N2_15  and  C7_17 
REMARK    8  A    between atoms: C7_17  and  C8_19 
REMARK    9  A    between atoms: C12_24  and  O6_25 
REMARK   10  A    between atoms: C13_27  and  O7_28 
ROOT
HETATM    1  C4  UNL     1       9.962  -6.338   3.984  1.00  0.00     0.218 C 
HETATM    2  O3  UNL     1      11.036  -6.031   4.789  1.00  0.00    -0.330 OA
HETATM    3  C5  UNL     1      12.207  -6.331   4.112  1.00  0.00     0.239 C 
HETATM    4  C12 UNL     1      11.840  -7.606   3.393  1.00  0.00     0.193 C 
HETATM    5  C13 UNL     1      10.440  -7.278   2.919  1.00  0.00     0.215 C 
ENDROOT
BRANCH   3   6
HETATM    6  S1  UNL     1      13.503  -6.578   5.339  1.00  0.00    -0.018 SA
BRANCH   6   7
HETATM    7  N1  UNL     1      13.433  -5.500   6.669  1.00  0.00    -0.305 N 
ATOM      8  H1  UNL     1      13.910  -4.606   6.544  1.00  0.00     0.176 HD
BRANCH   7   9
HETATM    9  C6  UNL     1      12.815  -5.687   7.882  1.00  0.00     0.184 C 
HETATM   10  S2  UNL     1      12.075  -7.217   8.082  1.00  0.00    -0.040 SA
BRANCH   9  11
HETATM   11  N2  UNL     1      12.683  -4.868   8.968  1.00  0.00    -0.303 N 
HETATM   12  C7  UNL     1      11.741  -3.934   9.393  1.00  0.00     0.230 C 
HETATM   13  O4  UNL     1      10.716  -3.632   8.793  1.00  0.00    -0.273 OA
ATOM     14  H2  UNL     1      13.459  -4.964   9.622  1.00  0.00     0.171 HD
BRANCH  12  15
HETATM   15  C8  UNL     1      11.933  -3.186  10.704  1.00  0.00     0.104 C 
HETATM   16  C9  UNL     1      11.846  -4.253  11.774  1.00  0.00     0.042 C 
HETATM   17  C10 UNL     1      11.057  -3.516  12.836  1.00  0.00     0.168 C 
HETATM   18  O5  UNL     1      10.161  -2.704  12.157  1.00  0.00    -0.390 OA
HETATM   19  C11 UNL     1      10.694  -2.393  10.939  1.00  0.00     0.181 C 
ENDBRANCH  12  15
ENDBRANCH   9  11
ENDBRANCH   7   9
ENDBRANCH   6   7
ENDBRANCH   3   6
BRANCH   4  20
HETATM   20  O6  UNL     1      12.667  -7.844   2.296  1.00  0.00    -0.389 OA
ATOM     21  H6  UNL     1      13.048  -8.714   2.320  1.00  0.00     0.210 HD
ENDBRANCH   4  20
BRANCH   1  22
HETATM   22  C2  UNL     1       9.464  -5.059   3.349  1.00  0.00     0.181 C 
HETATM   23  C3  UNL     1       9.819  -4.990   1.879  1.00  0.00     0.045 C 
BRANCH  22  24
HETATM   24  O1  UNL     1       8.124  -4.851   3.554  1.00  0.00    -0.386 OA
HETATM   25  C1  UNL     1       7.842  -3.741   4.337  1.00  0.00     0.202 C 
ENDBRANCH  22  24
ENDBRANCH   1  22
BRANCH   1  26
HETATM   26  O2  UNL     1       8.994  -6.923   4.799  1.00  0.00    -0.361 OA
ATOM     27  H2  UNL     1       9.244  -7.798   5.072  1.00  0.00     0.213 HD
ENDBRANCH   1  26
BRANCH   5  28
HETATM   28  O7  UNL     1       9.647  -8.416   2.807  1.00  0.00    -0.387 OA
ATOM     29  H7  UNL     1       8.742  -8.217   2.597  1.00  0.00     0.210 HD
ENDBRANCH   5  28
TORSDOF 10
ENDMDL
MODEL 3
REMARK VINA RESULT: -6.659288305      3.574      6.311
REMARK  10 active torsions:
REMARK  status: ('A' for Active; 'I' for Inactive)
REMARK    1  A    between atoms: O1_2  and  C2_3 
REMARK    2  A    between atoms: C2_3  and  C4_5 
REMARK    3  A    between atoms: C4_5  and  O2_6 
REMARK    4  A    between atoms: C5_9  and  S1_10 
REMARK    5  A    between atoms: S1_10  and  N1_11 
REMARK    6  A    between atoms: N1_11  and  C6_13 
REMARK    7  A    between atoms: C6_13  and  N2_15 
REMARK       I    between atoms: N2_15  and  C7_17 
REMARK    8  A    between atoms: C7_17  and  C8_19 
REMARK    9  A    between atoms: C12_24  and  O6_25 
REMARK   10  A    between atoms: C13_27  and  O7_28 
ROOT
HETATM    1  C4  UNL     1      14.202  -6.577   6.995  1.00  0.00     0.218 C 
HETATM    2  O3  UNL     1      14.177  -6.220   5.666  1.00  0.00    -0.330 OA
HETATM    3  C5  UNL     1      13.042  -6.752   5.077  1.00  0.00     0.239 C 
HETATM    4  C12 UNL     1      12.943  -8.103   5.741  1.00  0.00     0.193 C 
HETATM    5  C13 UNL     1      13.281  -7.747   7.173  1.00  0.00     0.215 C 
ENDROOT
BRANCH   3   6
HETATM    6  S1  UNL     1      13.347  -6.873   3.305  1.00  0.00    -0.018 SA
BRANCH   6   7
HETATM    7  N1  UNL     1      12.460  -5.756   2.356  1.00  0.00    -0.305 N 
ATOM      8  H1  UNL     1      12.995  -5.241   1.656  1.00  0.00     0.176 HD
BRANCH   7   9
HETATM    9  C6  UNL     1      11.118  -5.465   2.421  1.00  0.00     0.184 C 
HETATM   10  S2  UNL     1      10.344  -5.306   0.902  1.00  0.00    -0.040 SA
BRANCH   9  11
HETATM   11  N2  UNL     1      10.282  -5.277   3.485  1.00  0.00    -0.303 N 
HETATM   12  C7  UNL     1       9.554  -6.112   4.330  1.00  0.00     0.230 C 
HETATM   13  O4  UNL     1       9.525  -7.336   4.271  1.00  0.00    -0.273 OA
ATOM     14  H2  UNL     1      10.161  -4.291   3.714  1.00  0.00     0.171 HD
BRANCH  12  15
HETATM   15  C8  UNL     1       8.701  -5.527   5.445  1.00  0.00     0.104 C 
HETATM   16  C9  UNL     1       8.202  -4.206   4.897  1.00  0.00     0.042 C 
HETATM   17  C10 UNL     1       8.313  -3.336   6.132  1.00  0.00     0.168 C 
HETATM   18  O5  UNL     1       9.436  -3.775   6.815  1.00  0.00    -0.390 OA
HETATM   19  C11 UNL     1       9.631  -5.095   6.526  1.00  0.00     0.181 C 
ENDBRANCH  12  15
ENDBRANCH   9  11
ENDBRANCH   7   9
ENDBRANCH   6   7
ENDBRANCH   3   6
BRANCH   4  20
HETATM   20  O6  UNL     1      11.652  -8.625   5.675  1.00  0.00    -0.389 OA
ATOM     21  H6  UNL     1      11.581  -9.457   6.128  1.00  0.00     0.210 HD
ENDBRANCH   4  20
BRANCH   1  22
HETATM   22  C2  UNL     1      13.703  -5.407   7.811  1.00  0.00     0.181 C 
HETATM   23  C3  UNL     1      12.488  -5.779   8.637  1.00  0.00     0.045 C 
BRANCH  22  24
HETATM   24  O1  UNL     1      14.683  -4.842   8.585  1.00  0.00    -0.386 OA
HETATM   25  C1  UNL     1      14.290  -3.675   9.225  1.00  0.00     0.202 C 
ENDBRANCH  22  24
ENDBRANCH   1  22
BRANCH   1  26
HETATM   26  O2  UNL     1      15.521  -6.901   7.307  1.00  0.00    -0.361 OA
ATOM     27  H2  UNL     1      16.138  -6.313   6.888  1.00  0.00     0.213 HD
ENDBRANCH   1  26
BRANCH   5  28
HETATM   28  O7  UNL     1      13.879  -8.807   7.847  1.00  0.00    -0.387 OA
ATOM     29  H7  UNL     1      14.529  -9.259   7.322  1.00  0.00     0.210 HD
ENDBRANCH   5  28
TORSDOF 10
ENDMDL
MODEL 4
REMARK VINA RESULT: -6.611243991      5.240      7.597
REMARK  10 active torsions:
REMARK  status: ('A' for Active; 'I' for Inactive)
REMARK    1  A    between atoms: O1_2  and  C2_3 
REMARK    2  A    between atoms: C2_3  and  C4_5 
REMARK    3  A    between atoms: C4_5  and  O2_6 
REMARK    4  A    between atoms: C5_9  and  S1_10 
REMARK    5  A    between atoms: S1_10  and  N1_11 
REMARK    6  A    between atoms: N1_11  and  C6_13 
REMARK    7  A    between atoms: C6_13  and  N2_15 
REMARK       I    between atoms: N2_15  and  C7_17 
REMARK    8  A    between atoms: C7_17  and  C8_19 
REMARK    9  A    between atoms: C12_24  and  O6_25 
REMARK   10  A    between atoms: C13_27  and  O7_28 
ROOT
HETATM    1  C4  UNL     1       5.391   0.790   5.567  1.00  0.00     0.218 C 
HETATM    2  O3  UNL     1       5.554  -0.258   4.689  1.00  0.00    -0.330 OA
HETATM    3  C5  UNL     1       6.160  -1.312   5.354  1.00  0.00     0.239 C 
HETATM    4  C12 UNL     1       7.151  -0.599   6.241  1.00  0.00     0.193 C 
HETATM    5  C13 UNL     1       6.318   0.570   6.723  1.00  0.00     0.215 C 
ENDROOT
BRANCH   3   6
HETATM    6  S1  UNL     1       6.962  -2.352   4.119  1.00  0.00    -0.018 SA
BRANCH   6   7
HETATM    7  N1  UNL     1       7.287  -3.950   4.644  1.00  0.00    -0.305 N 
ATOM      8  H1  UNL     1       6.492  -4.465   5.023  1.00  0.00     0.176 HD
BRANCH   7   9
HETATM    9  C6  UNL     1       8.484  -4.625   4.620  1.00  0.00     0.184 C 
HETATM   10  S2  UNL     1       9.060  -5.008   3.054  1.00  0.00    -0.040 SA
BRANCH   9  11
HETATM   11  N2  UNL     1       9.305  -5.051   5.625  1.00  0.00    -0.303 N 
HETATM   12  C7  UNL     1       9.727  -4.529   6.846  1.00  0.00     0.230 C 
HETATM   13  O4  UNL     1       9.396  -3.443   7.309  1.00  0.00    -0.273 OA
ATOM     14  H2  UNL     1       9.703  -5.971   5.437  1.00  0.00     0.171 HD
BRANCH  12  15
HETATM   15  C8  UNL     1      10.680  -5.315   7.733  1.00  0.00     0.104 C 
HETATM   16  C9  UNL     1      11.298  -4.280   8.649  1.00  0.00     0.042 C 
HETATM   17  C10 UNL     1      12.730  -4.772   8.695  1.00  0.00     0.168 C 
HETATM   18  O5  UNL     1      13.003  -5.284   7.436  1.00  0.00    -0.390 OA
HETATM   19  C11 UNL     1      11.834  -5.721   6.882  1.00  0.00     0.181 C 
ENDBRANCH  12  15
ENDBRANCH   9  11
ENDBRANCH   7   9
ENDBRANCH   6   7
ENDBRANCH   3   6
BRANCH   4  20
HETATM   20  O6  UNL     1       7.538  -1.383   7.327  1.00  0.00    -0.389 OA
ATOM     21  H6  UNL     1       8.131  -0.920   7.907  1.00  0.00     0.210 HD
ENDBRANCH   4  20
BRANCH   1  22
HETATM   22  C2  UNL     1       3.959   0.783   6.053  1.00  0.00     0.181 C 
HETATM   23  C3  UNL     1       3.026   0.164   5.034  1.00  0.00     0.045 C 
BRANCH  22  24
HETATM   24  O1  UNL     1       3.819   0.198   7.285  1.00  0.00    -0.386 OA
HETATM   25  C1  UNL     1       2.618  -0.479   7.451  1.00  0.00     0.202 C 
ENDBRANCH  22  24
ENDBRANCH   1  22
BRANCH   1  26
HETATM   26  O2  UNL     1       5.695   1.958   4.869  1.00  0.00    -0.361 OA
ATOM     27  H2  UNL     1       6.583   1.947   4.533  1.00  0.00     0.213 HD
ENDBRANCH   1  26
BRANCH   5  28
HETATM   28  O7  UNL     1       7.101   1.686   7.007  1.00  0.00    -0.387 OA
ATOM     29  H7  UNL     1       7.986   1.458   7.268  1.00  0.00     0.210 HD
ENDBRANCH   5  28
TORSDOF 10
ENDMDL
MODEL 5
REMARK VINA RESULT: -6.563331519      4.650      7.007
REMARK  10 active torsions:
REMARK  status: ('A' for Active; 'I' for Inactive)
REMARK    1  A    between atoms: O1_2  and  C2_3 
REMARK    2  A    between atoms: C2_3  and  C4_5 
REMARK    3  A    between atoms: C4_5  and  O2_6 
REMARK    4  A    between atoms: C5_9  and  S1_10 
REMARK    5  A    between atoms: S1_10  and  N1_11 
REMARK    6  A    between atoms: N1_11  and  C6_13 
REMARK    7  A    between atoms: C6_13  and  N2_15 
REMARK       I    between atoms: N2_15  and  C7_17 
REMARK    8  A    between atoms: C7_17  and  C8_19 
REMARK    9  A    between atoms: C12_24  and  O6_25 
REMARK   10  A    between atoms: C13_27  and  O7_28 
ROOT
HETATM    1  C4  UNL     1       5.674  -0.486   6.279  1.00  0.00     0.218 C 
HETATM    2  O3  UNL     1       6.717  -1.370   6.114  1.00  0.00    -0.330 OA
HETATM    3  C5  UNL     1       6.716  -1.829   4.807  1.00  0.00     0.239 C 
HETATM    4  C12 UNL     1       5.242  -1.973   4.521  1.00  0.00     0.193 C 
HETATM    5  C13 UNL     1       4.699  -0.713   5.163  1.00  0.00     0.215 C 
ENDROOT
BRANCH   3   6
HETATM    6  S1  UNL     1       7.583  -3.410   4.779  1.00  0.00    -0.018 SA
BRANCH   6   7
HETATM    7  N1  UNL     1       8.600  -3.682   6.131  1.00  0.00    -0.305 N 
ATOM      8  H1  UNL     1       8.596  -2.954   6.846  1.00  0.00     0.176 HD
BRANCH   7   9
HETATM    9  C6  UNL     1       9.420  -4.758   6.373  1.00  0.00     0.184 C 
HETATM   10  S2  UNL     1       9.153  -6.108   5.355  1.00  0.00    -0.040 SA
BRANCH   9  11
HETATM   11  N2  UNL     1      10.418  -4.949   7.286  1.00  0.00    -0.303 N 
HETATM   12  C7  UNL     1      10.887  -4.254   8.399  1.00  0.00     0.230 C 
HETATM   13  O4  UNL     1      10.430  -3.199   8.825  1.00  0.00    -0.273 OA
ATOM     14  H2  UNL     1      10.945  -5.804   7.111  1.00  0.00     0.171 HD
BRANCH  12  15
HETATM   15  C8  UNL     1      12.063  -4.788   9.203  1.00  0.00     0.104 C 
HETATM   16  C9  UNL     1      12.857  -3.558   9.590  1.00  0.00     0.042 C 
HETATM   17  C10 UNL     1      14.270  -4.074   9.410  1.00  0.00     0.168 C 
HETATM   18  O5  UNL     1      14.230  -4.939   8.328  1.00  0.00    -0.390 OA
HETATM   19  C11 UNL     1      12.975  -5.470   8.242  1.00  0.00     0.181 C 
ENDBRANCH  12  15
ENDBRANCH   9  11
ENDBRANCH   7   9
ENDBRANCH   6   7
ENDBRANCH   3   6
BRANCH   4  20
HETATM   20  O6  UNL     1       4.971  -1.961   3.154  1.00  0.00    -0.389 OA
ATOM     21  H6  UNL     1       4.462  -2.717   2.885  1.00  0.00     0.210 HD
ENDBRANCH   4  20
BRANCH   1  22
HETATM   22  C2  UNL     1       6.225   0.919   6.196  1.00  0.00     0.181 C 
HETATM   23  C3  UNL     1       5.275   1.850   5.472  1.00  0.00     0.045 C 
BRANCH  22  24
HETATM   24  O1  UNL     1       6.587   1.420   7.419  1.00  0.00    -0.386 OA
HETATM   25  C1  UNL     1       6.007   2.645   7.718  1.00  0.00     0.202 C 
ENDBRANCH  22  24
ENDBRANCH   1  22
BRANCH   1  26
HETATM   26  O2  UNL     1       5.108  -0.749   7.526  1.00  0.00    -0.361 OA
ATOM     27  H2  UNL     1       4.170  -0.881   7.467  1.00  0.00     0.213 HD
ENDBRANCH   1  26
BRANCH   5  28
HETATM   28  O7  UNL     1       3.392  -0.878   5.613  1.00  0.00    -0.387 OA
ATOM     29  H7  UNL     1       2.757  -0.888   4.906  1.00  0.00     0.210 HD
ENDBRANCH   5  28
TORSDOF 10
ENDMDL
