MODEL 1
REMARK VINA RESULT: -6.509408353      0.000      0.000
REMARK  8 active torsions:
REMARK  status: ('A' for Active; 'I' for Inactive)
REMARK    1  A    between atoms: C2_2  and  O2_4 
REMARK    2  A    between atoms: O2_4  and  C3_5 
REMARK    3  A    between atoms: C4_6  and  O3_7 
REMARK    4  A    between atoms: C14_18  and  C15_19 
REMARK    5  A    between atoms: C15_19  and  C16_20 
REMARK    6  A    between atoms: C16_20  and  O4_21 
REMARK    7  A    between atoms: C20_27  and  O6_28 
REMARK    8  A    between atoms: N1_33  and  O7_34 
ROOT
HETATM    1  C3  UNL     1     -13.660   8.932 -18.456  1.00  0.00     0.173 C 
HETATM    2  C4  UNL     1     -14.248   8.979 -16.983  1.00  0.00     0.149 C 
HETATM    3  C5  UNL     1     -13.303   8.124 -16.280  1.00  0.00     0.042 C 
HETATM    4  C6  UNL     1     -12.931   7.081 -17.282  1.00  0.00     0.027 C 
HETATM    5  C7  UNL     1     -13.363   7.468 -18.662  1.00  0.00     0.015 C 
HETATM    6  C8  UNL     1     -14.759   6.969 -19.052  1.00  0.00     0.023 C 
HETATM    7  C9  UNL     1     -12.361   7.118 -19.718  1.00  0.00    -0.057 C 
HETATM    8  C10 UNL     1     -11.438   8.149 -20.263  1.00  0.00    -0.080 C 
HETATM    9  C11 UNL     1     -11.947   9.306 -21.023  1.00  0.00     0.043 C 
HETATM   10  C12 UNL     1     -10.239   8.417 -19.408  1.00  0.00     0.034 C 
HETATM   11  C13 UNL     1      -9.429   7.174 -19.424  1.00  0.00     0.013 C 
HETATM   12  C14 UNL     1     -10.143   5.901 -19.830  1.00  0.00     0.039 C 
HETATM   13  C21 UNL     1     -11.581   5.810 -19.499  1.00  0.00     0.001 C 
HETATM   14  C22 UNL     1     -12.282   4.864 -20.533  1.00  0.00     0.022 C 
HETATM   15  C23 UNL     1     -11.796   5.066 -18.263  1.00  0.00     0.135 C 
HETATM   16  N1  UNL     1     -13.129   4.806 -17.806  1.00  0.00    -0.189 NA
HETATM   17  C24 UNL     1     -13.394   5.775 -16.758  1.00  0.00     0.036 C 
HETATM   18  C25 UNL     1     -14.753   5.708 -16.194  1.00  0.00     0.034 C 
HETATM   19  C26 UNL     1     -12.448   5.405 -15.598  1.00  0.00     0.034 C 
ENDROOT
BRANCH  12  20
HETATM   20  C15 UNL     1      -9.124   4.849 -19.731  1.00  0.00     0.113 C 
HETATM   21  O5  UNL     1      -7.982   5.570 -20.308  1.00  0.00    -0.370 OA
HETATM   22  C17 UNL     1      -7.104   4.694 -20.812  1.00  0.00     0.121 C 
HETATM   23  C18 UNL     1      -5.699   4.733 -20.234  1.00  0.00     0.040 C 
HETATM   24  C19 UNL     1      -7.701   3.334 -20.885  1.00  0.00     0.066 C 
HETATM   25  C20 UNL     1      -9.179   3.763 -20.776  1.00  0.00     0.157 C 
BRANCH  20  26
HETATM   26  C16 UNL     1      -8.505   4.422 -18.477  1.00  0.00     0.205 C 
BRANCH  26  27
HETATM   27  O4  UNL     1      -9.042   4.730 -17.251  1.00  0.00    -0.398 OA
ATOM     28  H4  UNL     1      -8.573   5.249 -16.608  1.00  0.00     0.209 HD
ENDBRANCH  26  27
ENDBRANCH  20  26
BRANCH  25  29
HETATM   29  O6  UNL     1      -9.397   4.252 -22.073  1.00  0.00    -0.392 OA
ATOM     30  H6  UNL     1      -8.600   4.321 -22.587  1.00  0.00     0.210 HD
ENDBRANCH  25  29
ENDBRANCH  12  20
BRANCH  16  31
HETATM   31  O7  UNL     1     -13.389   3.571 -17.399  1.00  0.00    -0.312 OA
ATOM     32  H7  UNL     1     -13.735   2.972 -18.049  1.00  0.00     0.237 HD
ENDBRANCH  16  31
BRANCH   1  33
HETATM   33  O2  UNL     1     -14.829   9.398 -19.102  1.00  0.00    -0.313 OA
BRANCH  33  34
HETATM   34  C2  UNL     1     -14.896  10.592 -19.732  1.00  0.00     0.255 C 
HETATM   35  C1  UNL     1     -15.403  10.736 -21.116  1.00  0.00     0.126 C 
HETATM   36  O1  UNL     1     -14.520  11.622 -19.132  1.00  0.00    -0.266 OA
ENDBRANCH  33  34
ENDBRANCH   1  33
BRANCH   2  37
HETATM   37  O3  UNL     1     -14.176  10.289 -16.512  1.00  0.00    -0.393 OA
ATOM     38  H3  UNL     1     -15.057  10.604 -16.345  1.00  0.00     0.210 HD
ENDBRANCH   2  37
TORSDOF 8
ENDMDL
MODEL 2
REMARK VINA RESULT: -6.217008326      2.184      7.405
REMARK  8 active torsions:
REMARK  status: ('A' for Active; 'I' for Inactive)
REMARK    1  A    between atoms: C2_2  and  O2_4 
REMARK    2  A    between atoms: O2_4  and  C3_5 
REMARK    3  A    between atoms: C4_6  and  O3_7 
REMARK    4  A    between atoms: C14_18  and  C15_19 
REMARK    5  A    between atoms: C15_19  and  C16_20 
REMARK    6  A    between atoms: C16_20  and  O4_21 
REMARK    7  A    between atoms: C20_27  and  O6_28 
REMARK    8  A    between atoms: N1_33  and  O7_34 
ROOT
HETATM    1  C3  UNL     1      -7.628   4.650 -21.281  1.00  0.00     0.173 C 
HETATM    2  C4  UNL     1      -7.480   4.718 -22.859  1.00  0.00     0.149 C 
HETATM    3  C5  UNL     1      -8.617   5.556 -23.208  1.00  0.00     0.042 C 
HETATM    4  C6  UNL     1      -9.671   5.183 -22.218  1.00  0.00     0.027 C 
HETATM    5  C7  UNL     1      -9.100   4.390 -21.084  1.00  0.00     0.015 C 
HETATM    6  C8  UNL     1      -9.130   2.872 -21.293  1.00  0.00     0.023 C 
HETATM    7  C9  UNL     1      -9.684   4.754 -19.753  1.00  0.00    -0.057 C 
HETATM    8  C10 UNL     1      -8.956   5.658 -18.825  1.00  0.00    -0.080 C 
HETATM    9  C11 UNL     1      -7.662   5.269 -18.235  1.00  0.00     0.043 C 
HETATM   10  C12 UNL     1      -9.111   7.115 -19.135  1.00  0.00     0.034 C 
HETATM   11  C13 UNL     1     -10.538   7.443 -18.901  1.00  0.00     0.013 C 
HETATM   12  C14 UNL     1     -11.510   6.281 -18.892  1.00  0.00     0.039 C 
HETATM   13  C21 UNL     1     -11.177   5.126 -19.752  1.00  0.00     0.001 C 
HETATM   14  C22 UNL     1     -11.810   3.832 -19.135  1.00  0.00     0.022 C 
HETATM   15  C23 UNL     1     -11.883   5.190 -21.027  1.00  0.00     0.135 C 
HETATM   16  N1  UNL     1     -11.747   4.125 -21.976  1.00  0.00    -0.189 NA
HETATM   17  C24 UNL     1     -10.799   4.588 -22.972  1.00  0.00     0.036 C 
HETATM   18  C25 UNL     1     -10.478   3.598 -24.015  1.00  0.00     0.034 C 
HETATM   19  C26 UNL     1     -11.498   5.749 -23.706  1.00  0.00     0.034 C 
ENDROOT
BRANCH  12  20
HETATM   20  C15 UNL     1     -12.826   6.892 -18.670  1.00  0.00     0.113 C 
HETATM   21  O5  UNL     1     -12.406   8.110 -17.966  1.00  0.00    -0.370 OA
HETATM   22  C17 UNL     1     -13.411   8.561 -17.205  1.00  0.00     0.121 C 
HETATM   23  C18 UNL     1     -13.907   9.968 -17.498  1.00  0.00     0.040 C 
HETATM   24  C19 UNL     1     -14.487   7.540 -17.096  1.00  0.00     0.066 C 
HETATM   25  C20 UNL     1     -13.647   6.324 -17.540  1.00  0.00     0.157 C 
BRANCH  20  26
HETATM   26  C16 UNL     1     -13.632   7.511 -19.723  1.00  0.00     0.205 C 
BRANCH  26  27
HETATM   27  O4  UNL     1     -13.104   8.408 -20.619  1.00  0.00    -0.398 OA
ATOM     28  H4  UNL     1     -12.767   9.254 -20.350  1.00  0.00     0.209 HD
ENDBRANCH  26  27
ENDBRANCH  20  26
BRANCH  25  29
HETATM   29  O6  UNL     1     -12.901   6.093 -16.374  1.00  0.00    -0.392 OA
ATOM     30  H6  UNL     1     -13.393   6.250 -15.576  1.00  0.00     0.210 HD
ENDBRANCH  25  29
ENDBRANCH  12  20
BRANCH  16  31
HETATM   31  O7  UNL     1     -12.863   3.684 -22.539  1.00  0.00    -0.312 OA
ATOM     32  H7  UNL     1     -13.506   3.289 -21.962  1.00  0.00     0.237 HD
ENDBRANCH  16  31
BRANCH   1  33
HETATM   33  O2  UNL     1      -6.796   3.521 -21.098  1.00  0.00    -0.313 OA
BRANCH  33  34
HETATM   34  C2  UNL     1      -5.449   3.605 -21.010  1.00  0.00     0.255 C 
HETATM   35  C1  UNL     1      -4.766   4.343 -19.922  1.00  0.00     0.126 C 
HETATM   36  O1  UNL     1      -4.744   3.042 -21.873  1.00  0.00    -0.266 OA
ENDBRANCH  33  34
ENDBRANCH   1  33
BRANCH   2  37
HETATM   37  O3  UNL     1      -6.280   5.356 -23.171  1.00  0.00    -0.393 OA
ATOM     38  H3  UNL     1      -6.233   5.476 -24.113  1.00  0.00     0.210 HD
ENDBRANCH   2  37
TORSDOF 8
ENDMDL
MODEL 3
REMARK VINA RESULT: -5.933679063      2.601      6.997
REMARK  8 active torsions:
REMARK  status: ('A' for Active; 'I' for Inactive)
REMARK    1  A    between atoms: C2_2  and  O2_4 
REMARK    2  A    between atoms: O2_4  and  C3_5 
REMARK    3  A    between atoms: C4_6  and  O3_7 
REMARK    4  A    between atoms: C14_18  and  C15_19 
REMARK    5  A    between atoms: C15_19  and  C16_20 
REMARK    6  A    between atoms: C16_20  and  O4_21 
REMARK    7  A    between atoms: C20_27  and  O6_28 
REMARK    8  A    between atoms: N1_33  and  O7_34 
ROOT
HETATM    1  C3  UNL     1      -9.096   4.963 -21.492  1.00  0.00     0.173 C 
HETATM    2  C4  UNL     1      -9.337   5.482 -22.972  1.00  0.00     0.149 C 
HETATM    3  C5  UNL     1     -10.642   6.112 -22.836  1.00  0.00     0.042 C 
HETATM    4  C6  UNL     1     -11.360   5.265 -21.837  1.00  0.00     0.027 C 
HETATM    5  C7  UNL     1     -10.420   4.344 -21.124  1.00  0.00     0.015 C 
HETATM    6  C8  UNL     1     -10.260   2.969 -21.782  1.00  0.00     0.023 C 
HETATM    7  C9  UNL     1     -10.723   4.200 -19.664  1.00  0.00    -0.057 C 
HETATM    8  C10 UNL     1      -9.949   4.960 -18.648  1.00  0.00    -0.080 C 
HETATM    9  C11 UNL     1      -8.507   4.721 -18.450  1.00  0.00     0.043 C 
HETATM   10  C12 UNL     1     -10.399   6.375 -18.461  1.00  0.00     0.034 C 
HETATM   11  C13 UNL     1     -11.764   6.307 -17.886  1.00  0.00     0.013 C 
HETATM   12  C14 UNL     1     -12.512   5.001 -18.061  1.00  0.00     0.039 C 
HETATM   13  C21 UNL     1     -12.214   4.221 -19.281  1.00  0.00     0.001 C 
HETATM   14  C22 UNL     1     -12.472   2.703 -18.990  1.00  0.00     0.022 C 
HETATM   15  C23 UNL     1     -13.201   4.468 -20.325  1.00  0.00     0.135 C 
HETATM   16  N1  UNL     1     -13.128   3.752 -21.565  1.00  0.00    -0.189 NA
HETATM   17  C24 UNL     1     -12.526   4.661 -22.523  1.00  0.00     0.036 C 
HETATM   18  C25 UNL     1     -12.309   4.082 -23.860  1.00  0.00     0.034 C 
HETATM   19  C26 UNL     1     -13.553   5.794 -22.725  1.00  0.00     0.034 C 
ENDROOT
BRANCH  12  20
HETATM   20  C15 UNL     1     -13.818   5.226 -17.430  1.00  0.00     0.113 C 
HETATM   21  O5  UNL     1     -13.449   6.301 -16.500  1.00  0.00    -0.370 OA
HETATM   22  C17 UNL     1     -14.300   6.314 -15.466  1.00  0.00     0.121 C 
HETATM   23  C18 UNL     1     -15.080   7.601 -15.246  1.00  0.00     0.040 C 
HETATM   24  C19 UNL     1     -15.130   5.081 -15.452  1.00  0.00     0.066 C 
HETATM   25  C20 UNL     1     -14.233   4.231 -16.375  1.00  0.00     0.157 C 
BRANCH  20  26
HETATM   26  C16 UNL     1     -14.947   5.882 -18.090  1.00  0.00     0.205 C 
BRANCH  26  27
HETATM   27  O4  UNL     1     -14.807   7.056 -18.788  1.00  0.00    -0.398 OA
ATOM     28  H4  UNL     1     -14.688   7.893 -18.355  1.00  0.00     0.209 HD
ENDBRANCH  26  27
ENDBRANCH  20  26
BRANCH  25  29
HETATM   29  O6  UNL     1     -13.198   3.901 -15.487  1.00  0.00    -0.392 OA
ATOM     30  H6  UNL     1     -12.819   4.657 -15.053  1.00  0.00     0.210 HD
ENDBRANCH  25  29
ENDBRANCH  12  20
BRANCH  16  31
HETATM   31  O7  UNL     1     -14.262   3.244 -22.027  1.00  0.00    -0.312 OA
ATOM     32  H7  UNL     1     -14.210   2.388 -22.436  1.00  0.00     0.237 HD
ENDBRANCH  16  31
BRANCH   1  33
HETATM   33  O2  UNL     1      -8.077   4.038 -21.818  1.00  0.00    -0.313 OA
BRANCH  33  34
HETATM   34  C2  UNL     1      -6.761   4.341 -21.762  1.00  0.00     0.255 C 
HETATM   35  C1  UNL     1      -6.026   4.468 -20.483  1.00  0.00     0.126 C 
HETATM   36  O1  UNL     1      -6.130   4.522 -22.825  1.00  0.00    -0.266 OA
ENDBRANCH  33  34
ENDBRANCH   1  33
BRANCH   2  37
HETATM   37  O3  UNL     1      -8.360   6.427 -23.282  1.00  0.00    -0.393 OA
ATOM     38  H3  UNL     1      -8.767   7.285 -23.323  1.00  0.00     0.210 HD
ENDBRANCH   2  37
TORSDOF 8
ENDMDL
MODEL 4
REMARK VINA RESULT: -5.860933785      2.231      6.605
REMARK  8 active torsions:
REMARK  status: ('A' for Active; 'I' for Inactive)
REMARK    1  A    between atoms: C2_2  and  O2_4 
REMARK    2  A    between atoms: O2_4  and  C3_5 
REMARK    3  A    between atoms: C4_6  and  O3_7 
REMARK    4  A    between atoms: C14_18  and  C15_19 
REMARK    5  A    between atoms: C15_19  and  C16_20 
REMARK    6  A    between atoms: C16_20  and  O4_21 
REMARK    7  A    between atoms: C20_27  and  O6_28 
REMARK    8  A    between atoms: N1_33  and  O7_34 
ROOT
HETATM    1  C3  UNL     1     -11.038   4.681 -22.413  1.00  0.00     0.173 C 
HETATM    2  C4  UNL     1      -9.815   3.670 -22.432  1.00  0.00     0.149 C 
HETATM    3  C5  UNL     1      -9.628   3.436 -21.007  1.00  0.00     0.042 C 
HETATM    4  C6  UNL     1      -9.963   4.744 -20.370  1.00  0.00     0.027 C 
HETATM    5  C7  UNL     1     -10.661   5.658 -21.328  1.00  0.00     0.015 C 
HETATM    6  C8  UNL     1      -9.727   6.581 -22.119  1.00  0.00     0.023 C 
HETATM    7  C9  UNL     1     -11.773   6.441 -20.700  1.00  0.00    -0.057 C 
HETATM    8  C10 UNL     1     -13.188   6.015 -20.859  1.00  0.00    -0.080 C 
HETATM    9  C11 UNL     1     -13.840   6.007 -22.182  1.00  0.00     0.043 C 
HETATM   10  C12 UNL     1     -13.613   4.925 -19.925  1.00  0.00     0.034 C 
HETATM   11  C13 UNL     1     -13.570   5.503 -18.560  1.00  0.00     0.013 C 
HETATM   12  C14 UNL     1     -12.730   6.751 -18.376  1.00  0.00     0.039 C 
HETATM   13  C21 UNL     1     -11.542   6.888 -19.245  1.00  0.00     0.001 C 
HETATM   14  C22 UNL     1     -11.230   8.411 -19.444  1.00  0.00     0.022 C 
HETATM   15  C23 UNL     1     -10.330   6.451 -18.563  1.00  0.00     0.135 C 
HETATM   16  N1  UNL     1      -9.058   6.570 -19.213  1.00  0.00    -0.189 NA
HETATM   17  C24 UNL     1      -8.733   5.247 -19.714  1.00  0.00     0.036 C 
HETATM   18  C25 UNL     1      -7.474   5.175 -20.474  1.00  0.00     0.034 C 
HETATM   19  C26 UNL     1      -8.512   4.371 -18.465  1.00  0.00     0.034 C 
ENDROOT
BRANCH  12  20
HETATM   20  C15 UNL     1     -12.849   7.078 -16.950  1.00  0.00     0.113 C 
HETATM   21  O5  UNL     1     -14.312   7.087 -16.831  1.00  0.00    -0.370 OA
HETATM   22  C17 UNL     1     -14.675   7.860 -15.800  1.00  0.00     0.121 C 
HETATM   23  C18 UNL     1     -15.477   7.187 -14.697  1.00  0.00     0.040 C 
HETATM   24  C19 UNL     1     -13.525   8.669 -15.318  1.00  0.00     0.066 C 
HETATM   25  C20 UNL     1     -12.644   8.525 -16.576  1.00  0.00     0.157 C 
BRANCH  20  26
HETATM   26  C16 UNL     1     -12.544   6.145 -15.865  1.00  0.00     0.205 C 
BRANCH  26  27
HETATM   27  O4  UNL     1     -11.430   5.343 -15.881  1.00  0.00    -0.398 OA
ATOM     28  H4  UNL     1     -10.612   5.617 -16.279  1.00  0.00     0.209 HD
ENDBRANCH  26  27
ENDBRANCH  20  26
BRANCH  25  29
HETATM   29  O6  UNL     1     -13.292   9.419 -17.442  1.00  0.00    -0.392 OA
ATOM     30  H6  UNL     1     -14.157   9.125 -17.707  1.00  0.00     0.210 HD
ENDBRANCH  25  29
ENDBRANCH  12  20
BRANCH  16  31
HETATM   31  O7  UNL     1      -8.065   7.071 -18.492  1.00  0.00    -0.312 OA
ATOM     32  H7  UNL     1      -8.265   7.832 -17.961  1.00  0.00     0.237 HD
ENDBRANCH  16  31
BRANCH   1  33
HETATM   33  O2  UNL     1     -10.860   5.160 -23.732  1.00  0.00    -0.313 OA
BRANCH  33  34
HETATM   34  C2  UNL     1     -11.772   4.976 -24.712  1.00  0.00     0.255 C 
HETATM   35  C1  UNL     1     -12.204   6.068 -25.615  1.00  0.00     0.126 C 
HETATM   36  O1  UNL     1     -12.277   3.844 -24.873  1.00  0.00    -0.266 OA
ENDBRANCH  33  34
ENDBRANCH   1  33
BRANCH   2  37
HETATM   37  O3  UNL     1     -10.211   2.499 -23.078  1.00  0.00    -0.393 OA
ATOM     38  H3  UNL     1      -9.807   1.757 -22.642  1.00  0.00     0.210 HD
ENDBRANCH   2  37
TORSDOF 8
ENDMDL
MODEL 5
REMARK VINA RESULT: -5.772609923      1.484      6.812
REMARK  8 active torsions:
REMARK  status: ('A' for Active; 'I' for Inactive)
REMARK    1  A    between atoms: C2_2  and  O2_4 
REMARK    2  A    between atoms: O2_4  and  C3_5 
REMARK    3  A    between atoms: C4_6  and  O3_7 
REMARK    4  A    between atoms: C14_18  and  C15_19 
REMARK    5  A    between atoms: C15_19  and  C16_20 
REMARK    6  A    between atoms: C16_20  and  O4_21 
REMARK    7  A    between atoms: C20_27  and  O6_28 
REMARK    8  A    between atoms: N1_33  and  O7_34 
ROOT
HETATM    1  C3  UNL     1      -9.659   5.439 -19.490  1.00  0.00     0.173 C 
HETATM    2  C4  UNL     1      -9.885   3.993 -20.105  1.00  0.00     0.149 C 
HETATM    3  C5  UNL     1     -11.179   4.164 -20.748  1.00  0.00     0.042 C 
HETATM    4  C6  UNL     1     -11.916   5.105 -19.852  1.00  0.00     0.027 C 
HETATM    5  C7  UNL     1     -10.996   5.762 -18.872  1.00  0.00     0.015 C 
HETATM    6  C8  UNL     1     -10.855   5.019 -17.538  1.00  0.00     0.023 C 
HETATM    7  C9  UNL     1     -11.309   7.208 -18.642  1.00  0.00    -0.057 C 
HETATM    8  C10 UNL     1     -10.526   8.273 -19.323  1.00  0.00    -0.080 C 
HETATM    9  C11 UNL     1      -9.090   8.462 -19.047  1.00  0.00     0.043 C 
HETATM   10  C12 UNL     1     -10.954   8.547 -20.731  1.00  0.00     0.034 C 
HETATM   11  C13 UNL     1     -12.323   9.112 -20.651  1.00  0.00     0.013 C 
HETATM   12  C14 UNL     1     -13.092   8.852 -19.371  1.00  0.00     0.039 C 
HETATM   13  C21 UNL     1     -12.800   7.587 -18.664  1.00  0.00     0.001 C 
HETATM   14  C22 UNL     1     -13.086   7.780 -17.136  1.00  0.00     0.022 C 
HETATM   15  C23 UNL     1     -13.778   6.556 -18.993  1.00  0.00     0.135 C 
HETATM   16  N1  UNL     1     -13.711   5.274 -18.356  1.00  0.00    -0.189 NA
HETATM   17  C24 UNL     1     -13.089   4.378 -19.313  1.00  0.00     0.036 C 
HETATM   18  C25 UNL     1     -12.875   3.008 -18.816  1.00  0.00     0.034 C 
HETATM   19  C26 UNL     1     -14.095   4.243 -20.473  1.00  0.00     0.034 C 
ENDROOT
BRANCH  12  20
HETATM   20  C15 UNL     1     -14.396   9.491 -19.579  1.00  0.00     0.113 C 
HETATM   21  O5  UNL     1     -13.944  10.797 -20.076  1.00  0.00    -0.370 OA
HETATM   22  C17 UNL     1     -14.884  11.720 -19.837  1.00  0.00     0.121 C 
HETATM   23  C18 UNL     1     -15.444  12.447 -21.049  1.00  0.00     0.040 C 
HETATM   24  C19 UNL     1     -15.915  11.192 -18.906  1.00  0.00     0.066 C 
HETATM   25  C20 UNL     1     -15.089  10.015 -18.346  1.00  0.00     0.157 C 
BRANCH  20  26
HETATM   26  C16 UNL     1     -15.316   9.147 -20.663  1.00  0.00     0.205 C 
BRANCH  26  27
HETATM   27  O4  UNL     1     -16.235   8.134 -20.551  1.00  0.00    -0.398 OA
ATOM     28  H4  UNL     1     -15.987   7.245 -20.326  1.00  0.00     0.209 HD
ENDBRANCH  26  27
ENDBRANCH  20  26
BRANCH  25  29
HETATM   29  O6  UNL     1     -14.229  10.703 -17.476  1.00  0.00    -0.392 OA
ATOM     30  H6  UNL     1     -14.676  11.087 -16.731  1.00  0.00     0.210 HD
ENDBRANCH  25  29
ENDBRANCH  12  20
BRANCH  16  31
HETATM   31  O7  UNL     1     -14.851   4.776 -17.897  1.00  0.00    -0.312 OA
ATOM     32  H7  UNL     1     -14.865   3.846 -17.709  1.00  0.00     0.237 HD
ENDBRANCH  16  31
BRANCH   1  33
HETATM   33  O2  UNL     1      -8.655   5.059 -18.570  1.00  0.00    -0.313 OA
BRANCH  33  34
HETATM   34  C2  UNL     1      -7.359   5.421 -18.703  1.00  0.00     0.255 C 
HETATM   35  C1  UNL     1      -6.624   6.153 -17.645  1.00  0.00     0.126 C 
HETATM   36  O1  UNL     1      -6.748   5.131 -19.753  1.00  0.00    -0.266 OA
ENDBRANCH  33  34
ENDBRANCH   1  33
BRANCH   2  37
HETATM   37  O3  UNL     1      -8.890   3.747 -21.051  1.00  0.00    -0.393 OA
ATOM     38  H3  UNL     1      -9.282   3.318 -21.803  1.00  0.00     0.210 HD
ENDBRANCH   2  37
TORSDOF 8
ENDMDL
