MODEL 1
REMARK VINA RESULT: -7.491769903      0.000      0.000
REMARK  9 active torsions:
REMARK  status: ('A' for Active; 'I' for Inactive)
REMARK    1  A    between atoms: C2_2  and  O2_4 
REMARK    2  A    between atoms: O2_4  and  C3_5 
REMARK    3  A    between atoms: C8_10  and  O3_11 
REMARK    4  A    between atoms: O3_11  and  C9_12 
REMARK    5  A    between atoms: C10_13  and  O4_14 
REMARK    6  A    between atoms: C11_16  and  O5_17 
REMARK    7  A    between atoms: C12_19  and  O6_20 
REMARK    8  A    between atoms: C13_22  and  O7_23 
REMARK    9  A    between atoms: N1_27  and  O8_29 
ROOT
HETATM    1  C9  UNL     1       1.992   5.376 -12.990  1.00  0.00     0.164 C 
HETATM    2  C10 UNL     1       1.427   6.593 -12.231  1.00  0.00     0.179 C 
HETATM    3  C11 UNL     1       0.113   7.095 -12.656  1.00  0.00     0.181 C 
HETATM    4  C12 UNL     1      -0.780   6.033 -13.194  1.00  0.00     0.185 C 
HETATM    5  C13 UNL     1      -0.162   5.317 -14.355  1.00  0.00     0.101 C 
HETATM    6  C14 UNL     1      -0.506   6.047 -15.639  1.00  0.00     0.096 C 
HETATM    7  C15 UNL     1       0.102   5.298 -16.752  1.00  0.00     0.013 C 
HETATM    8  N1  UNL     1      -0.617   4.786 -17.659  1.00  0.00    -0.277 N 
ATOM      9  H1  UNL     1      -0.183   4.270 -18.424  1.00  0.00     0.193 HD
HETATM   10  C16 UNL     1       1.574   5.181 -16.747  1.00  0.00     0.055 C 
HETATM   11  C17 UNL     1       2.065   5.726 -15.423  1.00  0.00     0.020 C 
HETATM   12  C18 UNL     1       1.317   5.070 -14.252  1.00  0.00     0.019 C 
HETATM   13  C19 UNL     1       1.456   3.564 -14.560  1.00  0.00     0.021 C 
ENDROOT
BRANCH   1  14
HETATM   14  O3  UNL     1       3.298   5.776 -13.180  1.00  0.00    -0.376 OA
BRANCH  14  15
HETATM   15  C8  UNL     1       4.321   5.246 -12.484  1.00  0.00     0.130 C 
HETATM   16  C6  UNL     1       5.486   4.878 -13.318  1.00  0.00    -0.013 C 
HETATM   17  C5  UNL     1       5.081   3.699 -14.219  1.00  0.00     0.014 C 
HETATM   18  C7  UNL     1       5.930   5.994 -14.243  1.00  0.00     0.018 C 
HETATM   19  C25 UNL     1       6.664   4.345 -12.523  1.00  0.00     0.006 C 
HETATM   20  C4  UNL     1       6.168   2.710 -14.445  1.00  0.00     0.033 C 
HETATM   21  C3  UNL     1       7.510   3.334 -14.630  1.00  0.00     0.132 C 
HETATM   22  C26 UNL     1       7.862   4.168 -13.436  1.00  0.00     0.038 C 
HETATM   23  C22 UNL     1       7.036   5.044 -11.289  1.00  0.00    -0.043 C 
HETATM   24  C21 UNL     1       5.795   5.422 -10.543  1.00  0.00     0.011 C 
HETATM   25  C23 UNL     1       7.912   6.251 -11.432  1.00  0.00     0.015 C 
HETATM   26  C24 UNL     1       7.762   4.026 -10.392  1.00  0.00     0.015 C 
HETATM   27  C20 UNL     1       4.846   6.217 -11.414  1.00  0.00     0.033 C 
BRANCH  21  28
HETATM   28  O2  UNL     1       8.472   2.324 -14.885  1.00  0.00    -0.316 OA
BRANCH  28  29
HETATM   29  C2  UNL     1       8.296   0.994 -14.609  1.00  0.00     0.255 C 
HETATM   30  C1  UNL     1       7.861  -0.014 -15.610  1.00  0.00     0.126 C 
HETATM   31  O1  UNL     1       8.512   0.589 -13.445  1.00  0.00    -0.266 OA
ENDBRANCH  28  29
ENDBRANCH  21  28
ENDBRANCH  14  15
ENDBRANCH   1  14
BRANCH   2  32
HETATM   32  O4  UNL     1       1.284   6.183 -10.885  1.00  0.00    -0.390 OA
ATOM     33  H4  UNL     1       2.149   6.241 -10.498  1.00  0.00     0.210 HD
ENDBRANCH   2  32
BRANCH   3  34
HETATM   34  O5  UNL     1       0.233   8.206 -13.511  1.00  0.00    -0.390 OA
ATOM     35  H5  UNL     1       0.140   9.024 -13.039  1.00  0.00     0.210 HD
ENDBRANCH   3  34
BRANCH   5  36
HETATM   36  O7  UNL     1      -0.918   4.119 -14.445  1.00  0.00    -0.386 OA
ATOM     37  H7  UNL     1      -1.233   4.122 -15.342  1.00  0.00     0.210 HD
ENDBRANCH   5  36
BRANCH   4  38
HETATM   38  O6  UNL     1      -1.989   6.586 -13.603  1.00  0.00    -0.390 OA
ATOM     39  H6  UNL     1      -2.712   6.132 -13.187  1.00  0.00     0.210 HD
ENDBRANCH   4  38
BRANCH   8  40
HETATM   40  O8  UNL     1      -1.981   4.928 -17.613  1.00  0.00    -0.290 OA
ATOM     41  H8  UNL     1      -2.539   4.291 -18.043  1.00  0.00     0.244 HD
ENDBRANCH   8  40
TORSDOF 9
ENDMDL
MODEL 2
REMARK VINA RESULT: -7.000716999      1.941      3.408
REMARK  9 active torsions:
REMARK  status: ('A' for Active; 'I' for Inactive)
REMARK    1  A    between atoms: C2_2  and  O2_4 
REMARK    2  A    between atoms: O2_4  and  C3_5 
REMARK    3  A    between atoms: C8_10  and  O3_11 
REMARK    4  A    between atoms: O3_11  and  C9_12 
REMARK    5  A    between atoms: C10_13  and  O4_14 
REMARK    6  A    between atoms: C11_16  and  O5_17 
REMARK    7  A    between atoms: C12_19  and  O6_20 
REMARK    8  A    between atoms: C13_22  and  O7_23 
REMARK    9  A    between atoms: N1_27  and  O8_29 
ROOT
HETATM    1  C9  UNL     1       1.690   4.608 -13.723  1.00  0.00     0.164 C 
HETATM    2  C10 UNL     1       1.748   6.038 -13.152  1.00  0.00     0.179 C 
HETATM    3  C11 UNL     1       0.687   6.967 -13.567  1.00  0.00     0.181 C 
HETATM    4  C12 UNL     1      -0.611   6.294 -13.846  1.00  0.00     0.185 C 
HETATM    5  C13 UNL     1      -0.480   5.242 -14.903  1.00  0.00     0.101 C 
HETATM    6  C14 UNL     1      -0.683   5.869 -16.268  1.00  0.00     0.096 C 
HETATM    7  C15 UNL     1      -0.568   4.797 -17.271  1.00  0.00     0.013 C 
HETATM    8  N1  UNL     1      -1.544   4.503 -18.022  1.00  0.00    -0.277 N 
ATOM      9  H1  UNL     1      -1.451   3.758 -18.713  1.00  0.00     0.193 HD
HETATM   10  C16 UNL     1       0.729   4.097 -17.348  1.00  0.00     0.055 C 
HETATM   11  C17 UNL     1       1.566   4.568 -16.178  1.00  0.00     0.020 C 
HETATM   12  C18 UNL     1       0.787   4.434 -14.861  1.00  0.00     0.019 C 
HETATM   13  C19 UNL     1       0.288   2.974 -14.908  1.00  0.00     0.021 C 
ENDROOT
BRANCH   1  14
HETATM   14  O3  UNL     1       3.011   4.415 -14.070  1.00  0.00    -0.376 OA
BRANCH  14  15
HETATM   15  C8  UNL     1       3.921   5.404 -14.010  1.00  0.00     0.130 C 
HETATM   16  C6  UNL     1       5.190   5.011 -13.358  1.00  0.00    -0.013 C 
HETATM   17  C5  UNL     1       4.909   4.758 -11.867  1.00  0.00     0.014 C 
HETATM   18  C7  UNL     1       5.768   3.723 -13.912  1.00  0.00     0.018 C 
HETATM   19  C25 UNL     1       6.241   6.106 -13.353  1.00  0.00     0.006 C 
HETATM   20  C4  UNL     1       6.010   5.183 -10.964  1.00  0.00     0.033 C 
HETATM   21  C3  UNL     1       7.369   4.888 -11.504  1.00  0.00     0.132 C 
HETATM   22  C26 UNL     1       7.555   5.556 -12.832  1.00  0.00     0.038 C 
HETATM   23  C22 UNL     1       6.439   6.877 -14.585  1.00  0.00    -0.043 C 
HETATM   24  C21 UNL     1       5.108   7.179 -15.197  1.00  0.00     0.011 C 
HETATM   25  C23 UNL     1       7.335   6.274 -15.624  1.00  0.00     0.015 C 
HETATM   26  C24 UNL     1       7.025   8.240 -14.177  1.00  0.00     0.015 C 
HETATM   27  C20 UNL     1       4.297   5.919 -15.409  1.00  0.00     0.033 C 
BRANCH  21  28
HETATM   28  O2  UNL     1       8.351   5.283 -10.560  1.00  0.00    -0.316 OA
BRANCH  28  29
HETATM   29  C2  UNL     1       8.149   6.204  -9.566  1.00  0.00     0.255 C 
HETATM   30  C1  UNL     1       7.899   7.649  -9.805  1.00  0.00     0.126 C 
HETATM   31  O1  UNL     1       8.175   5.815  -8.376  1.00  0.00    -0.266 OA
ENDBRANCH  28  29
ENDBRANCH  21  28
ENDBRANCH  14  15
ENDBRANCH   1  14
BRANCH   2  32
HETATM   32  O4  UNL     1       1.639   5.906 -11.749  1.00  0.00    -0.390 OA
ATOM     33  H4  UNL     1       2.515   5.719 -11.433  1.00  0.00     0.210 HD
ENDBRANCH   2  32
BRANCH   3  34
HETATM   34  O5  UNL     1       1.112   7.809 -14.611  1.00  0.00    -0.390 OA
ATOM     35  H5  UNL     1       0.613   8.616 -14.636  1.00  0.00     0.210 HD
ENDBRANCH   3  34
BRANCH   5  36
HETATM   36  O7  UNL     1      -1.647   4.451 -14.728  1.00  0.00    -0.386 OA
ATOM     37  H7  UNL     1      -2.208   5.000 -14.192  1.00  0.00     0.210 HD
ENDBRANCH   5  36
BRANCH   4  38
HETATM   38  O6  UNL     1      -1.554   7.229 -14.262  1.00  0.00    -0.390 OA
ATOM     39  H6  UNL     1      -1.559   7.288 -15.210  1.00  0.00     0.210 HD
ENDBRANCH   4  38
BRANCH   8  40
HETATM   40  O8  UNL     1      -2.727   5.189 -17.907  1.00  0.00    -0.290 OA
ATOM     41  H8  UNL     1      -3.116   5.324 -17.051  1.00  0.00     0.244 HD
ENDBRANCH   8  40
TORSDOF 9
ENDMDL
MODEL 3
REMARK VINA RESULT: -6.703369280      4.428      7.392
REMARK  9 active torsions:
REMARK  status: ('A' for Active; 'I' for Inactive)
REMARK    1  A    between atoms: C2_2  and  O2_4 
REMARK    2  A    between atoms: O2_4  and  C3_5 
REMARK    3  A    between atoms: C8_10  and  O3_11 
REMARK    4  A    between atoms: O3_11  and  C9_12 
REMARK    5  A    between atoms: C10_13  and  O4_14 
REMARK    6  A    between atoms: C11_16  and  O5_17 
REMARK    7  A    between atoms: C12_19  and  O6_20 
REMARK    8  A    between atoms: C13_22  and  O7_23 
REMARK    9  A    between atoms: N1_27  and  O8_29 
ROOT
HETATM    1  C9  UNL     1       3.488   8.266 -16.834  1.00  0.00     0.164 C 
HETATM    2  C10 UNL     1       4.896   7.641 -16.809  1.00  0.00     0.179 C 
HETATM    3  C11 UNL     1       5.895   8.206 -17.728  1.00  0.00     0.181 C 
HETATM    4  C12 UNL     1       5.693   9.655 -18.002  1.00  0.00     0.185 C 
HETATM    5  C13 UNL     1       4.335   9.933 -18.568  1.00  0.00     0.101 C 
HETATM    6  C14 UNL     1       4.383   9.808 -20.079  1.00  0.00     0.096 C 
HETATM    7  C15 UNL     1       3.036  10.112 -20.592  1.00  0.00     0.013 C 
HETATM    8  N1  UNL     1       2.843  11.093 -21.368  1.00  0.00    -0.277 N 
ATOM      9  H1  UNL     1       1.905  11.292 -21.716  1.00  0.00     0.193 HD
HETATM   10  C16 UNL     1       1.943   9.219 -20.157  1.00  0.00     0.055 C 
HETATM   11  C17 UNL     1       2.506   8.306 -19.089  1.00  0.00     0.020 C 
HETATM   12  C18 UNL     1       3.212   9.118 -17.992  1.00  0.00     0.019 C 
HETATM   13  C19 UNL     1       2.152  10.175 -17.616  1.00  0.00     0.021 C 
ENDROOT
BRANCH   1  14
HETATM   14  O3  UNL     1       2.703   7.132 -16.822  1.00  0.00    -0.376 OA
BRANCH  14  15
HETATM   15  C8  UNL     1       1.706   6.957 -15.934  1.00  0.00     0.130 C 
HETATM   16  C6  UNL     1       1.474   5.543 -15.566  1.00  0.00    -0.013 C 
HETATM   17  C5  UNL     1       0.923   4.807 -16.799  1.00  0.00     0.014 C 
HETATM   18  C7  UNL     1       2.744   4.818 -15.164  1.00  0.00     0.018 C 
HETATM   19  C25 UNL     1       0.397   5.354 -14.514  1.00  0.00     0.006 C 
HETATM   20  C4  UNL     1      -0.094   3.771 -16.481  1.00  0.00     0.033 C 
HETATM   21  C3  UNL     1       0.222   2.987 -15.251  1.00  0.00     0.132 C 
HETATM   22  C26 UNL     1       0.358   3.903 -14.073  1.00  0.00     0.038 C 
HETATM   23  C22 UNL     1       0.394   6.259 -13.360  1.00  0.00    -0.043 C 
HETATM   24  C21 UNL     1       0.691   7.650 -13.823  1.00  0.00     0.011 C 
HETATM   25  C23 UNL     1       1.308   5.912 -12.224  1.00  0.00     0.015 C 
HETATM   26  C24 UNL     1      -1.047   6.301 -12.821  1.00  0.00     0.015 C 
HETATM   27  C20 UNL     1       1.977   7.707 -14.619  1.00  0.00     0.033 C 
BRANCH  21  28
HETATM   28  O2  UNL     1      -0.773   1.997 -15.052  1.00  0.00    -0.316 OA
BRANCH  28  29
HETATM   29  C2  UNL     1      -1.464   1.811 -13.884  1.00  0.00     0.255 C 
HETATM   30  C1  UNL     1      -2.626   2.636 -13.462  1.00  0.00     0.126 C 
HETATM   31  O1  UNL     1      -1.105   0.891 -13.115  1.00  0.00    -0.266 OA
ENDBRANCH  28  29
ENDBRANCH  21  28
ENDBRANCH  14  15
ENDBRANCH   1  14
BRANCH   2  32
HETATM   32  O4  UNL     1       5.393   7.847 -15.501  1.00  0.00    -0.390 OA
ATOM     33  H4  UNL     1       5.406   6.992 -15.087  1.00  0.00     0.210 HD
ENDBRANCH   2  32
BRANCH   3  34
HETATM   34  O5  UNL     1       6.022   7.432 -18.896  1.00  0.00    -0.390 OA
ATOM     35  H5  UNL     1       6.923   7.394 -19.195  1.00  0.00     0.210 HD
ENDBRANCH   3  34
BRANCH   5  36
HETATM   36  O7  UNL     1       4.171  11.329 -18.360  1.00  0.00    -0.386 OA
ATOM     37  H7  UNL     1       3.453  11.556 -18.940  1.00  0.00     0.210 HD
ENDBRANCH   5  36
BRANCH   4  38
HETATM   38  O6  UNL     1       6.654  10.109 -18.900  1.00  0.00    -0.390 OA
ATOM     39  H6  UNL     1       7.400   9.521 -18.904  1.00  0.00     0.210 HD
ENDBRANCH   4  38
BRANCH   8  40
HETATM   40  O8  UNL     1       3.897  11.889 -21.740  1.00  0.00    -0.290 OA
ATOM     41  H8  UNL     1       4.050  12.713 -21.294  1.00  0.00     0.244 HD
ENDBRANCH   8  40
TORSDOF 9
ENDMDL
MODEL 4
REMARK VINA RESULT: -6.665951283      4.720      7.339
REMARK  9 active torsions:
REMARK  status: ('A' for Active; 'I' for Inactive)
REMARK    1  A    between atoms: C2_2  and  O2_4 
REMARK    2  A    between atoms: O2_4  and  C3_5 
REMARK    3  A    between atoms: C8_10  and  O3_11 
REMARK    4  A    between atoms: O3_11  and  C9_12 
REMARK    5  A    between atoms: C10_13  and  O4_14 
REMARK    6  A    between atoms: C11_16  and  O5_17 
REMARK    7  A    between atoms: C12_19  and  O6_20 
REMARK    8  A    between atoms: C13_22  and  O7_23 
REMARK    9  A    between atoms: N1_27  and  O8_29 
ROOT
HETATM    1  C9  UNL     1       2.644   9.063 -16.994  1.00  0.00     0.164 C 
HETATM    2  C10 UNL     1       3.084  10.274 -16.149  1.00  0.00     0.179 C 
HETATM    3  C11 UNL     1       4.066  11.187 -16.751  1.00  0.00     0.181 C 
HETATM    4  C12 UNL     1       3.964  11.271 -18.233  1.00  0.00     0.185 C 
HETATM    5  C13 UNL     1       4.124   9.931 -18.881  1.00  0.00     0.101 C 
HETATM    6  C14 UNL     1       5.593   9.670 -19.146  1.00  0.00     0.096 C 
HETATM    7  C15 UNL     1       5.700   8.356 -19.803  1.00  0.00     0.013 C 
HETATM    8  N1  UNL     1       6.177   8.250 -20.970  1.00  0.00    -0.277 N 
ATOM      9  H1  UNL     1       6.245   7.333 -21.413  1.00  0.00     0.193 HD
HETATM   10  C16 UNL     1       5.226   7.189 -19.032  1.00  0.00     0.055 C 
HETATM   11  C17 UNL     1       4.544   7.718 -17.788  1.00  0.00     0.020 C 
HETATM   12  C18 UNL     1       3.492   8.778 -18.151  1.00  0.00     0.019 C 
HETATM   13  C19 UNL     1       2.659   8.071 -19.242  1.00  0.00     0.021 C 
ENDROOT
BRANCH   1  14
HETATM   14  O3  UNL     1       2.695   8.058 -16.050  1.00  0.00    -0.376 OA
BRANCH  14  15
HETATM   15  C8  UNL     1       1.588   7.440 -15.596  1.00  0.00     0.130 C 
HETATM   16  C6  UNL     1       1.570   5.983 -15.851  1.00  0.00    -0.013 C 
HETATM   17  C5  UNL     1       1.449   5.760 -17.368  1.00  0.00     0.014 C 
HETATM   18  C7  UNL     1       2.844   5.287 -15.414  1.00  0.00     0.018 C 
HETATM   19  C25 UNL     1       0.354   5.278 -15.279  1.00  0.00     0.006 C 
HETATM   20  C4  UNL     1       0.614   4.589 -17.743  1.00  0.00     0.033 C 
HETATM   21  C3  UNL     1       0.812   3.409 -16.851  1.00  0.00     0.132 C 
HETATM   22  C26 UNL     1       0.512   3.776 -15.431  1.00  0.00     0.038 C 
HETATM   23  C22 UNL     1      -0.072   5.632 -13.921  1.00  0.00    -0.043 C 
HETATM   24  C21 UNL     1       0.033   7.113 -13.741  1.00  0.00     0.011 C 
HETATM   25  C23 UNL     1       0.632   4.947 -12.789  1.00  0.00     0.015 C 
HETATM   26  C24 UNL     1      -1.573   5.309 -13.818  1.00  0.00     0.015 C 
HETATM   27  C20 UNL     1       1.421   7.615 -14.078  1.00  0.00     0.033 C 
BRANCH  21  28
HETATM   28  O2  UNL     1       0.015   2.330 -17.309  1.00  0.00    -0.316 OA
BRANCH  28  29
HETATM   29  C2  UNL     1      -0.169   2.000 -18.625  1.00  0.00     0.255 C 
HETATM   30  C1  UNL     1      -1.053   2.747 -19.557  1.00  0.00     0.126 C 
HETATM   31  O1  UNL     1       0.441   1.008 -19.085  1.00  0.00    -0.266 OA
ENDBRANCH  28  29
ENDBRANCH  21  28
ENDBRANCH  14  15
ENDBRANCH   1  14
BRANCH   2  32
HETATM   32  O4  UNL     1       1.916  11.036 -15.917  1.00  0.00    -0.390 OA
ATOM     33  H4  UNL     1       1.574  10.746 -15.080  1.00  0.00     0.210 HD
ENDBRANCH   2  32
BRANCH   3  34
HETATM   34  O5  UNL     1       5.371  10.920 -16.297  1.00  0.00    -0.390 OA
ATOM     35  H5  UNL     1       5.471  11.128 -15.376  1.00  0.00     0.210 HD
ENDBRANCH   3  34
BRANCH   5  36
HETATM   36  O7  UNL     1       3.584  10.126 -20.180  1.00  0.00    -0.386 OA
ATOM     37  H7  UNL     1       4.346  10.343 -20.706  1.00  0.00     0.210 HD
ENDBRANCH   5  36
BRANCH   4  38
HETATM   38  O6  UNL     1       4.941  12.127 -18.732  1.00  0.00    -0.390 OA
ATOM     39  H6  UNL     1       4.539  12.807 -19.259  1.00  0.00     0.210 HD
ENDBRANCH   4  38
BRANCH   8  40
HETATM   40  O8  UNL     1       6.604   9.369 -21.640  1.00  0.00    -0.290 OA
ATOM     41  H8  UNL     1       6.015   9.820 -22.233  1.00  0.00     0.244 HD
ENDBRANCH   8  40
TORSDOF 9
ENDMDL
MODEL 5
REMARK VINA RESULT: -6.593103006      5.056      7.858
REMARK  9 active torsions:
REMARK  status: ('A' for Active; 'I' for Inactive)
REMARK    1  A    between atoms: C2_2  and  O2_4 
REMARK    2  A    between atoms: O2_4  and  C3_5 
REMARK    3  A    between atoms: C8_10  and  O3_11 
REMARK    4  A    between atoms: O3_11  and  C9_12 
REMARK    5  A    between atoms: C10_13  and  O4_14 
REMARK    6  A    between atoms: C11_16  and  O5_17 
REMARK    7  A    between atoms: C12_19  and  O6_20 
REMARK    8  A    between atoms: C13_22  and  O7_23 
REMARK    9  A    between atoms: N1_27  and  O8_29 
ROOT
HETATM    1  C9  UNL     1       3.592   8.484 -18.683  1.00  0.00     0.164 C 
HETATM    2  C10 UNL     1       2.700   9.068 -19.796  1.00  0.00     0.179 C 
HETATM    3  C11 UNL     1       3.143  10.324 -20.417  1.00  0.00     0.181 C 
HETATM    4  C12 UNL     1       4.623  10.480 -20.445  1.00  0.00     0.185 C 
HETATM    5  C13 UNL     1       5.220  10.408 -19.074  1.00  0.00     0.101 C 
HETATM    6  C14 UNL     1       5.236  11.793 -18.458  1.00  0.00     0.096 C 
HETATM    7  C15 UNL     1       5.850  11.678 -17.124  1.00  0.00     0.013 C 
HETATM    8  N1  UNL     1       6.921  12.292 -16.847  1.00  0.00    -0.277 N 
ATOM      9  H1  UNL     1       7.336  12.203 -15.919  1.00  0.00     0.193 HD
HETATM   10  C16 UNL     1       5.154  10.819 -16.145  1.00  0.00     0.055 C 
HETATM   11  C17 UNL     1       4.046  10.099 -16.885  1.00  0.00     0.020 C 
HETATM   12  C18 UNL     1       4.590   9.408 -18.145  1.00  0.00     0.019 C 
HETATM   13  C19 UNL     1       5.794   8.610 -17.602  1.00  0.00     0.021 C 
ENDROOT
BRANCH   1  14
HETATM   14  O3  UNL     1       2.640   8.140 -17.745  1.00  0.00    -0.376 OA
BRANCH  14  15
HETATM   15  C8  UNL     1       2.409   6.862 -17.390  1.00  0.00     0.130 C 
HETATM   16  C6  UNL     1       2.383   6.643 -15.927  1.00  0.00    -0.013 C 
HETATM   17  C5  UNL     1       3.803   6.864 -15.380  1.00  0.00     0.014 C 
HETATM   18  C7  UNL     1       1.484   7.621 -15.196  1.00  0.00     0.018 C 
HETATM   19  C25 UNL     1       2.054   5.217 -15.528  1.00  0.00     0.006 C 
HETATM   20  C4  UNL     1       4.173   5.950 -14.268  1.00  0.00     0.033 C 
HETATM   21  C3  UNL     1       3.058   5.703 -13.307  1.00  0.00     0.132 C 
HETATM   22  C26 UNL     1       1.873   5.132 -14.024  1.00  0.00     0.038 C 
HETATM   23  C22 UNL     1       0.961   4.538 -16.233  1.00  0.00    -0.043 C 
HETATM   24  C21 UNL     1       1.039   4.863 -17.691  1.00  0.00     0.011 C 
HETATM   25  C23 UNL     1      -0.429   4.803 -15.742  1.00  0.00     0.015 C 
HETATM   26  C24 UNL     1       1.227   3.026 -16.131  1.00  0.00     0.015 C 
HETATM   27  C20 UNL     1       1.059   6.357 -17.926  1.00  0.00     0.033 C 
BRANCH  21  28
HETATM   28  O2  UNL     1       3.512   4.862 -12.260  1.00  0.00    -0.316 OA
BRANCH  28  29
HETATM   29  C2  UNL     1       3.866   5.296 -11.010  1.00  0.00     0.255 C 
HETATM   30  C1  UNL     1       5.247   5.683 -10.623  1.00  0.00     0.126 C 
HETATM   31  O1  UNL     1       2.980   5.376 -10.130  1.00  0.00    -0.266 OA
ENDBRANCH  28  29
ENDBRANCH  21  28
ENDBRANCH  14  15
ENDBRANCH   1  14
BRANCH   2  32
HETATM   32  O4  UNL     1       2.673   8.099 -20.825  1.00  0.00    -0.390 OA
ATOM     33  H4  UNL     1       1.776   7.790 -20.873  1.00  0.00     0.210 HD
ENDBRANCH   2  32
BRANCH   3  34
HETATM   34  O5  UNL     1       2.478  11.437 -19.870  1.00  0.00    -0.390 OA
ATOM     35  H5  UNL     1       1.547  11.416 -20.057  1.00  0.00     0.210 HD
ENDBRANCH   3  34
BRANCH   5  36
HETATM   36  O7  UNL     1       6.592  10.143 -19.325  1.00  0.00    -0.386 OA
ATOM     37  H7  UNL     1       7.003  10.286 -18.481  1.00  0.00     0.210 HD
ENDBRANCH   5  36
BRANCH   4  38
HETATM   38  O6  UNL     1       4.964  11.701 -21.018  1.00  0.00    -0.390 OA
ATOM     39  H6  UNL     1       5.753  11.608 -21.538  1.00  0.00     0.210 HD
ENDBRANCH   4  38
BRANCH   8  40
HETATM   40  O8  UNL     1       7.525  13.078 -17.797  1.00  0.00    -0.290 OA
ATOM     41  H8  UNL     1       7.884  12.681 -18.582  1.00  0.00     0.244 HD
ENDBRANCH   8  40
TORSDOF 9
ENDMDL
