MODEL 1
REMARK VINA RESULT: -6.677642930      0.000      0.000
REMARK  8 active torsions:
REMARK  status: ('A' for Active; 'I' for Inactive)
REMARK    1  A    between atoms: O1_2  and  N1_3 
REMARK    2  A    between atoms: C4_7  and  O2_8 
REMARK    3  A    between atoms: C5_10  and  O3_12 
REMARK    4  A    between atoms: C11_18  and  O4_19 
REMARK    5  A    between atoms: C18_27  and  C19_28 
REMARK    6  A    between atoms: C19_28  and  O6_33 
REMARK    7  A    between atoms: N2_29  and  O5_31 
REMARK    8  A    between atoms: C25_39  and  O7_41 
ROOT
HETATM    1  N1  UNL     1       6.073  10.811 -17.693  1.00  0.00    -0.272 N 
ATOM      2  H1  UNL     1       5.618  11.634 -18.089  1.00  0.00     0.193 HD
HETATM    3  C2  UNL     1       5.446   9.692 -17.867  1.00  0.00     0.054 C 
HETATM    4  C3  UNL     1       4.220   9.950 -18.608  1.00  0.00     0.080 C 
HETATM    5  C4  UNL     1       3.489  11.245 -18.339  1.00  0.00     0.163 C 
HETATM    6  C5  UNL     1       2.365  10.450 -17.671  1.00  0.00     0.089 C 
HETATM    7  C6  UNL     1       2.368  10.736 -16.210  1.00  0.00     0.049 C 
HETATM    8  C7  UNL     1       2.970   9.233 -18.204  1.00  0.00     0.005 C 
HETATM    9  C8  UNL     1       2.255   8.770 -19.485  1.00  0.00     0.020 C 
HETATM   10  C9  UNL     1       3.371   8.125 -17.302  1.00  0.00     0.005 C 
HETATM   11  C10 UNL     1       4.259   7.234 -18.112  1.00  0.00     0.047 C 
HETATM   12  C11 UNL     1       5.632   7.211 -17.426  1.00  0.00     0.094 C 
HETATM   13  C12 UNL     1       5.509   6.403 -16.196  1.00  0.00     0.042 C 
HETATM   14  C13 UNL     1       4.385   6.674 -15.269  1.00  0.00     0.009 C 
HETATM   15  C14 UNL     1       3.026   6.287 -15.772  1.00  0.00    -0.001 C 
HETATM   16  C15 UNL     1       2.322   7.417 -16.535  1.00  0.00    -0.005 C 
HETATM   17  C16 UNL     1       1.209   6.781 -17.277  1.00  0.00     0.007 C 
HETATM   18  C17 UNL     1       0.265   6.124 -16.318  1.00  0.00     0.019 C 
HETATM   19  C18 UNL     1       0.865   5.181 -15.332  1.00  0.00     0.034 C 
HETATM   20  C21 UNL     1       0.283   5.407 -13.955  1.00  0.00     0.020 C 
HETATM   21  C22 UNL     1       1.368   6.500 -13.806  1.00  0.00     0.012 C 
HETATM   22  C23 UNL     1       2.168   5.658 -14.745  1.00  0.00    -0.025 C 
HETATM   23  C24 UNL     1       2.885   4.566 -14.023  1.00  0.00     0.016 C 
HETATM   24  C25 UNL     1       6.195   8.571 -17.267  1.00  0.00     0.125 C 
HETATM   25  C26 UNL     1       7.617   8.585 -17.792  1.00  0.00     0.056 C 
ENDROOT
BRANCH  19  26
HETATM   26  C19 UNL     1       0.896   3.787 -15.807  1.00  0.00     0.146 C 
HETATM   27  N2  UNL     1       0.439   2.759 -15.235  1.00  0.00    -0.250 N 
ATOM     28  H2  UNL     1       0.571   1.887 -15.748  1.00  0.00     0.196 HD
BRANCH  27  29
HETATM   29  O5  UNL     1      -0.195   2.630 -14.056  1.00  0.00    -0.288 OA
ATOM     30  H5  UNL     1      -1.090   2.836 -13.814  1.00  0.00     0.244 HD
ENDBRANCH  27  29
BRANCH  26  31
HETATM   31  O6  UNL     1       1.511   3.582 -17.052  1.00  0.00    -0.342 OA
HETATM   32  C20 UNL     1       0.855   2.783 -18.028  1.00  0.00     0.211 C 
ENDBRANCH  26  31
ENDBRANCH  19  26
BRANCH  12  33
HETATM   33  O4  UNL     1       6.393   6.438 -18.341  1.00  0.00    -0.386 OA
ATOM     34  H4  UNL     1       6.800   5.805 -17.763  1.00  0.00     0.210 HD
ENDBRANCH  12  33
BRANCH   6  35
HETATM   35  O3  UNL     1       1.093  10.712 -18.198  1.00  0.00    -0.387 OA
ATOM     36  H3  UNL     1       1.048  10.649 -19.145  1.00  0.00     0.210 HD
ENDBRANCH   6  35
BRANCH  24  37
HETATM   37  O7  UNL     1       6.331   8.781 -15.869  1.00  0.00    -0.381 OA
ATOM     38  H7  UNL     1       6.458   7.948 -15.431  1.00  0.00     0.211 HD
ENDBRANCH  24  37
BRANCH   5  39
HETATM   39  O2  UNL     1       4.088  12.172 -17.532  1.00  0.00    -0.392 OA
ATOM     40  H2  UNL     1       3.619  12.976 -17.346  1.00  0.00     0.210 HD
ENDBRANCH   5  39
BRANCH   1  41
HETATM   41  O1  UNL     1       7.231  11.040 -17.071  1.00  0.00    -0.285 OA
HETATM   42  C1  UNL     1       8.008  12.168 -17.431  1.00  0.00     0.237 C 
ENDBRANCH   1  41
TORSDOF 8
ENDMDL
MODEL 2
REMARK VINA RESULT: -6.588770199     12.904     15.929
REMARK  8 active torsions:
REMARK  status: ('A' for Active; 'I' for Inactive)
REMARK    1  A    between atoms: O1_2  and  N1_3 
REMARK    2  A    between atoms: C4_7  and  O2_8 
REMARK    3  A    between atoms: C5_10  and  O3_12 
REMARK    4  A    between atoms: C11_18  and  O4_19 
REMARK    5  A    between atoms: C18_27  and  C19_28 
REMARK    6  A    between atoms: C19_28  and  O6_33 
REMARK    7  A    between atoms: N2_29  and  O5_31 
REMARK    8  A    between atoms: C25_39  and  O7_41 
ROOT
HETATM    1  N1  UNL     1      -9.344   6.325 -23.517  1.00  0.00    -0.272 N 
ATOM      2  H1  UNL     1      -8.607   5.621 -23.576  1.00  0.00     0.193 HD
HETATM    3  C2  UNL     1      -9.607   6.754 -22.324  1.00  0.00     0.054 C 
HETATM    4  C3  UNL     1      -8.736   6.076 -21.376  1.00  0.00     0.080 C 
HETATM    5  C4  UNL     1      -8.382   4.632 -21.647  1.00  0.00     0.163 C 
HETATM    6  C5  UNL     1      -9.235   4.217 -20.446  1.00  0.00     0.089 C 
HETATM    7  C6  UNL     1     -10.438   3.487 -20.931  1.00  0.00     0.049 C 
HETATM    8  C7  UNL     1      -9.308   5.625 -20.068  1.00  0.00     0.005 C 
HETATM    9  C8  UNL     1      -8.287   5.960 -18.966  1.00  0.00     0.020 C 
HETATM   10  C9  UNL     1     -10.617   6.303 -19.904  1.00  0.00     0.005 C 
HETATM   11  C10 UNL     1     -10.324   7.769 -19.881  1.00  0.00     0.047 C 
HETATM   12  C11 UNL     1     -11.058   8.401 -21.072  1.00  0.00     0.094 C 
HETATM   13  C12 UNL     1     -12.500   8.421 -20.754  1.00  0.00     0.042 C 
HETATM   14  C13 UNL     1     -13.141   7.186 -20.248  1.00  0.00     0.009 C 
HETATM   15  C14 UNL     1     -12.745   6.774 -18.861  1.00  0.00    -0.001 C 
HETATM   16  C15 UNL     1     -11.528   5.840 -18.834  1.00  0.00    -0.005 C 
HETATM   17  C16 UNL     1     -11.039   5.842 -17.436  1.00  0.00     0.007 C 
HETATM   18  C17 UNL     1     -12.111   5.340 -16.518  1.00  0.00     0.019 C 
HETATM   19  C18 UNL     1     -13.443   6.000 -16.625  1.00  0.00     0.034 C 
HETATM   20  C21 UNL     1     -14.551   4.972 -16.605  1.00  0.00     0.020 C 
HETATM   21  C22 UNL     1     -14.310   4.858 -18.130  1.00  0.00     0.012 C 
HETATM   22  C23 UNL     1     -13.873   6.283 -18.040  1.00  0.00    -0.025 C 
HETATM   23  C24 UNL     1     -15.037   7.215 -18.092  1.00  0.00     0.016 C 
HETATM   24  C25 UNL     1     -10.676   7.771 -22.356  1.00  0.00     0.125 C 
HETATM   25  C26 UNL     1     -10.302   8.855 -23.350  1.00  0.00     0.056 C 
ENDROOT
BRANCH  19  26
HETATM   26  C19 UNL     1     -13.598   7.145 -15.711  1.00  0.00     0.146 C 
HETATM   27  N2  UNL     1     -13.017   8.265 -15.760  1.00  0.00    -0.250 N 
ATOM     28  H2  UNL     1     -13.277   8.916 -15.019  1.00  0.00     0.196 HD
BRANCH  27  29
HETATM   29  O5  UNL     1     -12.110   8.736 -16.634  1.00  0.00    -0.288 OA
ATOM     30  H5  UNL     1     -11.533   9.487 -16.574  1.00  0.00     0.244 HD
ENDBRANCH  27  29
BRANCH  26  31
HETATM   31  O6  UNL     1     -14.507   6.963 -14.657  1.00  0.00    -0.342 OA
HETATM   32  C20 UNL     1     -15.336   8.047 -14.260  1.00  0.00     0.211 C 
ENDBRANCH  26  31
ENDBRANCH  19  26
BRANCH  12  33
HETATM   33  O4  UNL     1     -10.610   9.746 -21.000  1.00  0.00    -0.386 OA
ATOM     34  H4  UNL     1     -11.391  10.190 -20.692  1.00  0.00     0.210 HD
ENDBRANCH  12  33
BRANCH   6  35
HETATM   35  O3  UNL     1      -8.552   3.428 -19.510  1.00  0.00    -0.387 OA
ATOM     36  H3  UNL     1      -9.106   2.809 -19.050  1.00  0.00     0.210 HD
ENDBRANCH   6  35
BRANCH  24  37
HETATM   37  O7  UNL     1     -11.864   7.201 -22.886  1.00  0.00    -0.381 OA
ATOM     38  H7  UNL     1     -12.423   6.910 -22.175  1.00  0.00     0.211 HD
ENDBRANCH  24  37
BRANCH   5  39
HETATM   39  O2  UNL     1      -8.770   4.082 -22.837  1.00  0.00    -0.392 OA
ATOM     40  H2  UNL     1      -9.426   3.395 -22.823  1.00  0.00     0.210 HD
ENDBRANCH   5  39
BRANCH   1  41
HETATM   41  O1  UNL     1      -9.899   6.672 -24.679  1.00  0.00    -0.285 OA
HETATM   42  C1  UNL     1     -10.155   5.680 -25.656  1.00  0.00     0.237 C 
ENDBRANCH   1  41
TORSDOF 8
ENDMDL
MODEL 3
REMARK VINA RESULT: -6.494122613      2.172      7.415
REMARK  8 active torsions:
REMARK  status: ('A' for Active; 'I' for Inactive)
REMARK    1  A    between atoms: O1_2  and  N1_3 
REMARK    2  A    between atoms: C4_7  and  O2_8 
REMARK    3  A    between atoms: C5_10  and  O3_12 
REMARK    4  A    between atoms: C11_18  and  O4_19 
REMARK    5  A    between atoms: C18_27  and  C19_28 
REMARK    6  A    between atoms: C19_28  and  O6_33 
REMARK    7  A    between atoms: N2_29  and  O5_31 
REMARK    8  A    between atoms: C25_39  and  O7_41 
ROOT
HETATM    1  N1  UNL     1      -1.368   4.171 -13.421  1.00  0.00    -0.272 N 
ATOM      2  H1  UNL     1      -1.444   4.478 -12.451  1.00  0.00     0.193 HD
HETATM    3  C2  UNL     1      -0.214   4.364 -13.976  1.00  0.00     0.054 C 
HETATM    4  C3  UNL     1       0.675   4.991 -13.009  1.00  0.00     0.080 C 
HETATM    5  C4  UNL     1       0.078   5.982 -12.038  1.00  0.00     0.163 C 
HETATM    6  C5  UNL     1       0.827   7.109 -12.755  1.00  0.00     0.089 C 
HETATM    7  C6  UNL     1      -0.156   7.975 -13.461  1.00  0.00     0.049 C 
HETATM    8  C7  UNL     1       1.584   6.087 -13.472  1.00  0.00     0.005 C 
HETATM    9  C8  UNL     1       2.963   5.861 -12.827  1.00  0.00     0.020 C 
HETATM   10  C9  UNL     1       1.597   6.050 -14.955  1.00  0.00     0.005 C 
HETATM   11  C10 UNL     1       2.144   4.709 -15.330  1.00  0.00     0.047 C 
HETATM   12  C11 UNL     1       1.055   3.978 -16.127  1.00  0.00     0.094 C 
HETATM   13  C12 UNL     1       0.973   4.606 -17.461  1.00  0.00     0.042 C 
HETATM   14  C13 UNL     1       0.890   6.082 -17.556  1.00  0.00     0.009 C 
HETATM   15  C14 UNL     1       2.137   6.824 -17.179  1.00  0.00    -0.001 C 
HETATM   16  C15 UNL     1       2.196   7.186 -15.689  1.00  0.00    -0.005 C 
HETATM   17  C16 UNL     1       3.605   7.548 -15.409  1.00  0.00     0.007 C 
HETATM   18  C17 UNL     1       4.010   8.718 -16.252  1.00  0.00     0.019 C 
HETATM   19  C18 UNL     1       3.764   8.599 -17.718  1.00  0.00     0.034 C 
HETATM   20  C21 UNL     1       3.177   9.880 -18.266  1.00  0.00     0.020 C 
HETATM   21  C22 UNL     1       1.810   9.299 -17.830  1.00  0.00     0.012 C 
HETATM   22  C23 UNL     1       2.442   7.967 -18.067  1.00  0.00    -0.025 C 
HETATM   23  C24 UNL     1       2.374   7.578 -19.506  1.00  0.00     0.016 C 
HETATM   24  C25 UNL     1      -0.213   3.876 -15.369  1.00  0.00     0.125 C 
HETATM   25  C26 UNL     1      -0.693   2.438 -15.392  1.00  0.00     0.056 C 
ENDROOT
BRANCH  19  26
HETATM   26  C19 UNL     1       4.910   8.038 -18.455  1.00  0.00     0.146 C 
HETATM   27  N2  UNL     1       5.474   8.500 -19.485  1.00  0.00    -0.250 N 
ATOM     28  H2  UNL     1       6.256   7.945 -19.832  1.00  0.00     0.196 HD
BRANCH  27  29
HETATM   29  O5  UNL     1       5.207   9.608 -20.199  1.00  0.00    -0.288 OA
ATOM     30  H5  UNL     1       4.524  10.259 -20.091  1.00  0.00     0.244 HD
ENDBRANCH  27  29
BRANCH  26  31
HETATM   31  O6  UNL     1       5.437   6.843 -17.942  1.00  0.00    -0.342 OA
HETATM   32  C20 UNL     1       6.828   6.762 -17.659  1.00  0.00     0.211 C 
ENDBRANCH  26  31
ENDBRANCH  19  26
BRANCH  12  33
HETATM   33  O4  UNL     1       1.649   2.703 -16.317  1.00  0.00    -0.386 OA
ATOM     34  H4  UNL     1       1.229   2.415 -17.119  1.00  0.00     0.210 HD
ENDBRANCH  12  33
BRANCH   6  35
HETATM   35  O3  UNL     1       1.621   7.892 -11.907  1.00  0.00    -0.387 OA
ATOM     36  H3  UNL     1       1.332   8.794 -11.832  1.00  0.00     0.210 HD
ENDBRANCH   6  35
BRANCH  24  37
HETATM   37  O7  UNL     1      -1.184   4.585 -16.125  1.00  0.00    -0.381 OA
ATOM     38  H7  UNL     1      -0.755   5.085 -16.809  1.00  0.00     0.211 HD
ENDBRANCH  24  37
BRANCH   5  39
HETATM   39  O2  UNL     1      -1.281   6.129 -12.013  1.00  0.00    -0.392 OA
ATOM     40  H2  UNL     1      -1.674   6.568 -11.269  1.00  0.00     0.210 HD
ENDBRANCH   5  39
BRANCH   1  41
HETATM   41  O1  UNL     1      -2.472   3.628 -13.937  1.00  0.00    -0.285 OA
HETATM   42  C1  UNL     1      -3.130   2.586 -13.241  1.00  0.00     0.237 C 
ENDBRANCH   1  41
TORSDOF 8
ENDMDL
MODEL 4
REMARK VINA RESULT: -6.474950579     15.418     17.482
REMARK  8 active torsions:
REMARK  status: ('A' for Active; 'I' for Inactive)
REMARK    1  A    between atoms: O1_2  and  N1_3 
REMARK    2  A    between atoms: C4_7  and  O2_8 
REMARK    3  A    between atoms: C5_10  and  O3_12 
REMARK    4  A    between atoms: C11_18  and  O4_19 
REMARK    5  A    between atoms: C18_27  and  C19_28 
REMARK    6  A    between atoms: C19_28  and  O6_33 
REMARK    7  A    between atoms: N2_29  and  O5_31 
REMARK    8  A    between atoms: C25_39  and  O7_41 
ROOT
HETATM    1  N1  UNL     1     -14.155   8.778 -15.033  1.00  0.00    -0.272 N 
ATOM      2  H1  UNL     1     -14.110   9.762 -15.299  1.00  0.00     0.193 HD
HETATM    3  C2  UNL     1     -13.456   7.972 -15.766  1.00  0.00     0.054 C 
HETATM    4  C3  UNL     1     -12.781   8.741 -16.801  1.00  0.00     0.080 C 
HETATM    5  C4  UNL     1     -13.507   9.929 -17.387  1.00  0.00     0.163 C 
HETATM    6  C5  UNL     1     -13.654   9.166 -18.706  1.00  0.00     0.089 C 
HETATM    7  C6  UNL     1     -15.088   8.825 -18.915  1.00  0.00     0.049 C 
HETATM    8  C7  UNL     1     -12.712   8.178 -18.186  1.00  0.00     0.005 C 
HETATM    9  C8  UNL     1     -11.293   8.425 -18.726  1.00  0.00     0.020 C 
HETATM   10  C9  UNL     1     -13.084   6.745 -18.098  1.00  0.00     0.005 C 
HETATM   11  C10 UNL     1     -12.061   6.107 -17.211  1.00  0.00     0.047 C 
HETATM   12  C11 UNL     1     -12.802   5.541 -15.992  1.00  0.00     0.094 C 
HETATM   13  C12 UNL     1     -13.546   4.344 -16.431  1.00  0.00     0.042 C 
HETATM   14  C13 UNL     1     -14.383   4.426 -17.650  1.00  0.00     0.009 C 
HETATM   15  C14 UNL     1     -13.632   4.548 -18.942  1.00  0.00    -0.001 C 
HETATM   16  C15 UNL     1     -13.363   6.004 -19.347  1.00  0.00    -0.005 C 
HETATM   17  C16 UNL     1     -12.314   5.954 -20.392  1.00  0.00     0.007 C 
HETATM   18  C17 UNL     1     -12.799   5.160 -21.566  1.00  0.00     0.019 C 
HETATM   19  C18 UNL     1     -13.337   3.801 -21.275  1.00  0.00     0.034 C 
HETATM   20  C21 UNL     1     -14.612   3.555 -22.049  1.00  0.00     0.020 C 
HETATM   21  C22 UNL     1     -15.323   4.260 -20.869  1.00  0.00     0.012 C 
HETATM   22  C23 UNL     1     -14.197   3.735 -20.040  1.00  0.00    -0.025 C 
HETATM   23  C24 UNL     1     -14.447   2.328 -19.610  1.00  0.00     0.016 C 
HETATM   24  C25 UNL     1     -13.586   6.582 -15.288  1.00  0.00     0.125 C 
HETATM   25  C26 UNL     1     -13.261   6.532 -13.807  1.00  0.00     0.056 C 
ENDROOT
BRANCH  19  26
HETATM   26  C19 UNL     1     -12.314   2.744 -21.349  1.00  0.00     0.146 C 
HETATM   27  N2  UNL     1     -11.318   2.569 -20.593  1.00  0.00    -0.250 N 
ATOM     28  H2  UNL     1     -10.735   1.767 -20.830  1.00  0.00     0.196 HD
BRANCH  27  29
HETATM   29  O5  UNL     1     -10.905   3.273 -19.524  1.00  0.00    -0.288 OA
ATOM     30  H5  UNL     1     -10.379   3.007 -18.780  1.00  0.00     0.244 HD
ENDBRANCH  27  29
BRANCH  26  31
HETATM   31  O6  UNL     1     -12.471   1.817 -22.392  1.00  0.00    -0.342 OA
HETATM   32  C20 UNL     1     -11.572   1.849 -23.491  1.00  0.00     0.211 C 
ENDBRANCH  26  31
ENDBRANCH  19  26
BRANCH  12  33
HETATM   33  O4  UNL     1     -11.723   5.076 -15.195  1.00  0.00    -0.386 OA
ATOM     34  H4  UNL     1     -11.017   5.641 -15.482  1.00  0.00     0.210 HD
ENDBRANCH  12  33
BRANCH   6  35
HETATM   35  O3  UNL     1     -13.168   9.860 -19.821  1.00  0.00    -0.387 OA
ATOM     36  H3  UNL     1     -13.302  10.800 -19.779  1.00  0.00     0.210 HD
ENDBRANCH   6  35
BRANCH  24  37
HETATM   37  O7  UNL     1     -14.944   6.174 -15.366  1.00  0.00    -0.381 OA
ATOM     38  H7  UNL     1     -15.314   6.125 -14.492  1.00  0.00     0.211 HD
ENDBRANCH  24  37
BRANCH   5  39
HETATM   39  O2  UNL     1     -14.689  10.312 -16.817  1.00  0.00    -0.392 OA
ATOM     40  H2  UNL     1     -15.119  11.090 -17.151  1.00  0.00     0.210 HD
ENDBRANCH   5  39
BRANCH   1  41
HETATM   41  O1  UNL     1     -14.927   8.505 -13.979  1.00  0.00    -0.285 OA
HETATM   42  C1  UNL     1     -16.235   9.042 -13.912  1.00  0.00     0.237 C 
ENDBRANCH   1  41
TORSDOF 8
ENDMDL
MODEL 5
REMARK VINA RESULT: -6.424662416     13.089     15.934
REMARK  8 active torsions:
REMARK  status: ('A' for Active; 'I' for Inactive)
REMARK    1  A    between atoms: O1_2  and  N1_3 
REMARK    2  A    between atoms: C4_7  and  O2_8 
REMARK    3  A    between atoms: C5_10  and  O3_12 
REMARK    4  A    between atoms: C11_18  and  O4_19 
REMARK    5  A    between atoms: C18_27  and  C19_28 
REMARK    6  A    between atoms: C19_28  and  O6_33 
REMARK    7  A    between atoms: N2_29  and  O5_31 
REMARK    8  A    between atoms: C25_39  and  O7_41 
ROOT
HETATM    1  N1  UNL     1      -9.383   6.511 -23.533  1.00  0.00    -0.272 N 
ATOM      2  H1  UNL     1      -8.691   5.778 -23.690  1.00  0.00     0.193 HD
HETATM    3  C2  UNL     1      -9.628   6.787 -22.292  1.00  0.00     0.054 C 
HETATM    4  C3  UNL     1      -8.808   5.930 -21.448  1.00  0.00     0.080 C 
HETATM    5  C4  UNL     1      -8.544   4.519 -21.917  1.00  0.00     0.163 C 
HETATM    6  C5  UNL     1      -9.430   3.995 -20.784  1.00  0.00     0.089 C 
HETATM    7  C6  UNL     1     -10.672   3.416 -21.364  1.00  0.00     0.049 C 
HETATM    8  C7  UNL     1      -9.417   5.339 -20.214  1.00  0.00     0.005 C 
HETATM    9  C8  UNL     1      -8.386   5.453 -19.078  1.00  0.00     0.020 C 
HETATM   10  C9  UNL     1     -10.683   6.069 -19.957  1.00  0.00     0.005 C 
HETATM   11  C10 UNL     1     -10.299   7.497 -19.731  1.00  0.00     0.047 C 
HETATM   12  C11 UNL     1     -10.983   8.332 -20.821  1.00  0.00     0.094 C 
HETATM   13  C12 UNL     1     -12.423   8.399 -20.503  1.00  0.00     0.042 C 
HETATM   14  C13 UNL     1     -13.144   7.148 -20.172  1.00  0.00     0.009 C 
HETATM   15  C14 UNL     1     -12.785   6.524 -18.856  1.00  0.00    -0.001 C 
HETATM   16  C15 UNL     1     -11.629   5.520 -18.960  1.00  0.00    -0.005 C 
HETATM   17  C16 UNL     1     -11.151   5.298 -17.576  1.00  0.00     0.007 C 
HETATM   18  C17 UNL     1     -12.259   4.742 -16.735  1.00  0.00     0.019 C 
HETATM   19  C18 UNL     1     -13.547   5.493 -16.748  1.00  0.00     0.034 C 
HETATM   20  C21 UNL     1     -14.717   4.543 -16.870  1.00  0.00     0.020 C 
HETATM   21  C22 UNL     1     -14.472   4.627 -18.396  1.00  0.00     0.012 C 
HETATM   22  C23 UNL     1     -13.947   5.996 -18.110  1.00  0.00    -0.025 C 
HETATM   23  C24 UNL     1     -15.051   6.997 -18.031  1.00  0.00     0.016 C 
HETATM   24  C25 UNL     1     -10.631   7.864 -22.181  1.00  0.00     0.125 C 
HETATM   25  C26 UNL     1     -10.183   9.048 -23.015  1.00  0.00     0.056 C 
ENDROOT
BRANCH  19  26
HETATM   26  C19 UNL     1     -13.637   6.507 -15.684  1.00  0.00     0.146 C 
HETATM   27  N2  UNL     1     -14.313   6.460 -14.619  1.00  0.00    -0.250 N 
ATOM     28  H2  UNL     1     -14.227   7.281 -14.019  1.00  0.00     0.196 HD
BRANCH  27  29
HETATM   29  O5  UNL     1     -15.128   5.499 -14.149  1.00  0.00    -0.288 OA
ATOM     30  H5  UNL     1     -15.668   5.480 -13.368  1.00  0.00     0.244 HD
ENDBRANCH  27  29
BRANCH  26  31
HETATM   31  O6  UNL     1     -12.874   7.668 -15.883  1.00  0.00    -0.342 OA
HETATM   32  C20 UNL     1     -13.200   8.847 -15.159  1.00  0.00     0.211 C 
ENDBRANCH  26  31
ENDBRANCH  19  26
BRANCH  12  33
HETATM   33  O4  UNL     1     -10.453   9.624 -20.564  1.00  0.00    -0.386 OA
ATOM     34  H4  UNL     1     -10.787   9.796 -19.692  1.00  0.00     0.210 HD
ENDBRANCH  12  33
BRANCH   6  35
HETATM   35  O3  UNL     1      -8.804   3.043 -19.968  1.00  0.00    -0.387 OA
ATOM     36  H3  UNL     1      -9.363   2.697 -19.281  1.00  0.00     0.210 HD
ENDBRANCH   6  35
BRANCH  24  37
HETATM   37  O7  UNL     1     -11.848   7.447 -22.783  1.00  0.00    -0.381 OA
ATOM     38  H7  UNL     1     -11.707   7.281 -23.708  1.00  0.00     0.211 HD
ENDBRANCH  24  37
BRANCH   5  39
HETATM   39  O2  UNL     1      -8.956   4.164 -23.172  1.00  0.00    -0.392 OA
ATOM     40  H2  UNL     1      -9.311   3.293 -23.300  1.00  0.00     0.210 HD
ENDBRANCH   5  39
BRANCH   1  41
HETATM   41  O1  UNL     1      -9.906   7.050 -24.635  1.00  0.00    -0.285 OA
HETATM   42  C1  UNL     1     -10.086   6.248 -25.789  1.00  0.00     0.237 C 
ENDBRANCH   1  41
TORSDOF 8
ENDMDL
