MODEL 1
REMARK VINA RESULT: -6.987253328      0.000      0.000
REMARK  7 active torsions:
REMARK  status: ('A' for Active; 'I' for Inactive)
REMARK    1  A    between atoms: C3_4  and  O2_5 
REMARK    2  A    between atoms: O2_5  and  C4_6 
REMARK    3  A    between atoms: C16_20  and  O3_22 
REMARK    4  A    between atoms: C18_24  and  O4_25 
REMARK    5  A    between atoms: C21_29  and  O5_30 
REMARK    6  A    between atoms: C22_32  and  O6_33 
REMARK    7  A    between atoms: C23_35  and  O7_36 
ROOT
HETATM    1  C4  UNL     1       3.081   6.459 -11.693  1.00  0.00     0.125 C 
HETATM    2  C5  UNL     1       2.199   6.295 -10.476  1.00  0.00     0.034 C 
HETATM    3  C6  UNL     1       0.769   6.664 -10.740  1.00  0.00     0.024 C 
HETATM    4  C7  UNL     1       0.412   6.505 -12.214  1.00  0.00     0.019 C 
HETATM    5  C8  UNL     1       0.714   7.800 -12.897  1.00  0.00     0.028 C 
HETATM    6  S1  UNL     1      -1.414   6.279 -12.376  1.00  0.00    -0.087 SA
HETATM    7  S2  UNL     1      -1.554   6.205 -14.533  1.00  0.00    -0.088 SA
HETATM    8  C9  UNL     1       0.007   5.344 -15.002  1.00  0.00     0.105 C 
HETATM    9  C10 UNL     1       0.566   4.579 -13.877  1.00  0.00     0.009 C 
HETATM   10  C11 UNL     1       1.715   3.728 -14.433  1.00  0.00     0.011 C 
HETATM   11  C12 UNL     1       1.246   2.675 -15.378  1.00  0.00     0.037 C 
HETATM   12  C13 UNL     1       0.404   3.298 -16.417  1.00  0.00    -0.045 C 
HETATM   13  C14 UNL     1       0.242   2.971 -17.692  1.00  0.00    -0.018 C 
HETATM   14  C15 UNL     1      -0.733   3.922 -18.343  1.00  0.00     0.068 C 
HETATM   15  C16 UNL     1      -0.559   5.153 -17.436  1.00  0.00     0.093 C 
HETATM   16  C17 UNL     1       0.697   5.823 -17.894  1.00  0.00     0.050 C 
HETATM   17  C18 UNL     1      -0.422   4.444 -16.112  1.00  0.00     0.125 C 
HETATM   18  C19 UNL     1       1.133   5.318 -12.724  1.00  0.00     0.012 C 
HETATM   19  C20 UNL     1       2.596   5.672 -12.883  1.00  0.00     0.038 C 
ENDROOT
BRANCH   1  20
HETATM   20  O2  UNL     1       4.366   6.028 -11.284  1.00  0.00    -0.353 OA
BRANCH  20  21
HETATM   21  C3  UNL     1       5.177   5.679 -12.320  1.00  0.00     0.291 C 
HETATM   22  O1  UNL     1       6.050   6.680 -12.731  1.00  0.00    -0.351 OA
HETATM   23  C2  UNL     1       6.558   6.368 -13.985  1.00  0.00     0.152 C 
HETATM   24  C1  UNL     1       5.522   6.523 -15.080  1.00  0.00     0.042 C 
HETATM   25  C23 UNL     1       7.245   5.038 -14.033  1.00  0.00     0.178 C 
HETATM   26  C22 UNL     1       6.494   3.937 -13.352  1.00  0.00     0.183 C 
HETATM   27  C21 UNL     1       6.048   4.461 -12.003  1.00  0.00     0.204 C 
BRANCH  25  28
HETATM   28  O7  UNL     1       7.440   4.670 -15.359  1.00  0.00    -0.390 OA
ATOM     29  H7  UNL     1       8.023   5.294 -15.774  1.00  0.00     0.210 HD
ENDBRANCH  25  28
BRANCH  26  30
HETATM   30  O6  UNL     1       5.374   3.508 -14.052  1.00  0.00    -0.390 OA
ATOM     31  H6  UNL     1       4.828   2.999 -13.466  1.00  0.00     0.210 HD
ENDBRANCH  26  30
BRANCH  27  32
HETATM   32  O5  UNL     1       7.205   4.911 -11.355  1.00  0.00    -0.388 OA
ATOM     33  H5  UNL     1       6.980   5.103 -10.451  1.00  0.00     0.210 HD
ENDBRANCH  27  32
ENDBRANCH  20  21
ENDBRANCH   1  20
BRANCH  17  34
HETATM   34  O4  UNL     1      -1.721   3.958 -15.815  1.00  0.00    -0.381 OA
ATOM     35  H4  UNL     1      -1.710   3.012 -15.889  1.00  0.00     0.211 HD
ENDBRANCH  17  34
BRANCH  15  36
HETATM   36  O3  UNL     1      -1.657   5.991 -17.501  1.00  0.00    -0.386 OA
ATOM     37  H3  UNL     1      -1.443   6.871 -17.213  1.00  0.00     0.210 HD
ENDBRANCH  15  36
TORSDOF 7
ENDMDL
MODEL 2
REMARK VINA RESULT: -6.821300199      5.202      7.878
REMARK  7 active torsions:
REMARK  status: ('A' for Active; 'I' for Inactive)
REMARK    1  A    between atoms: C3_4  and  O2_5 
REMARK    2  A    between atoms: O2_5  and  C4_6 
REMARK    3  A    between atoms: C16_20  and  O3_22 
REMARK    4  A    between atoms: C18_24  and  O4_25 
REMARK    5  A    between atoms: C21_29  and  O5_30 
REMARK    6  A    between atoms: C22_32  and  O6_33 
REMARK    7  A    between atoms: C23_35  and  O7_36 
ROOT
HETATM    1  C4  UNL     1       2.753   6.450 -17.432  1.00  0.00     0.125 C 
HETATM    2  C5  UNL     1       1.905   7.114 -16.371  1.00  0.00     0.034 C 
HETATM    3  C6  UNL     1       2.281   8.548 -16.140  1.00  0.00     0.024 C 
HETATM    4  C7  UNL     1       2.930   9.164 -17.375  1.00  0.00     0.019 C 
HETATM    5  C8  UNL     1       4.402   8.922 -17.283  1.00  0.00     0.028 C 
HETATM    6  S1  UNL     1       2.730  10.999 -17.317  1.00  0.00    -0.087 SA
HETATM    7  S2  UNL     1       3.833  11.515 -19.103  1.00  0.00    -0.088 SA
HETATM    8  C9  UNL     1       3.452  10.104 -20.227  1.00  0.00     0.105 C 
HETATM    9  C10 UNL     1       2.229   9.396 -19.815  1.00  0.00     0.009 C 
HETATM   10  C11 UNL     1       1.881   8.405 -20.934  1.00  0.00     0.011 C 
HETATM   11  C12 UNL     1       1.488   9.082 -22.201  1.00  0.00     0.037 C 
HETATM   12  C13 UNL     1       2.529  10.060 -22.570  1.00  0.00    -0.045 C 
HETATM   13  C14 UNL     1       2.940  10.457 -23.767  1.00  0.00    -0.018 C 
HETATM   14  C15 UNL     1       4.037  11.483 -23.615  1.00  0.00     0.068 C 
HETATM   15  C16 UNL     1       4.584  11.094 -22.231  1.00  0.00     0.093 C 
HETATM   16  C17 UNL     1       5.463   9.905 -22.458  1.00  0.00     0.050 C 
HETATM   17  C18 UNL     1       3.278  10.764 -21.553  1.00  0.00     0.125 C 
HETATM   18  C19 UNL     1       2.252   8.602 -18.564  1.00  0.00     0.012 C 
HETATM   19  C20 UNL     1       2.714   7.173 -18.754  1.00  0.00     0.038 C 
ENDROOT
BRANCH   1  20
HETATM   20  O2  UNL     1       2.239   5.137 -17.553  1.00  0.00    -0.353 OA
BRANCH  20  21
HETATM   21  C3  UNL     1       1.220   4.870 -16.692  1.00  0.00     0.291 C 
HETATM   22  O1  UNL     1       0.083   4.339 -17.289  1.00  0.00    -0.351 OA
HETATM   23  C2  UNL     1      -0.993   4.444 -16.418  1.00  0.00     0.152 C 
HETATM   24  C1  UNL     1      -1.475   5.872 -16.269  1.00  0.00     0.042 C 
HETATM   25  C23 UNL     1      -0.752   3.781 -15.096  1.00  0.00     0.178 C 
HETATM   26  C22 UNL     1       0.589   4.075 -14.499  1.00  0.00     0.183 C 
HETATM   27  C21 UNL     1       1.621   3.884 -15.591  1.00  0.00     0.204 C 
BRANCH  25  28
HETATM   28  O7  UNL     1      -1.724   4.193 -14.193  1.00  0.00    -0.390 OA
ATOM     29  H7  UNL     1      -1.430   4.007 -13.309  1.00  0.00     0.210 HD
ENDBRANCH  25  28
BRANCH  26  30
HETATM   30  O6  UNL     1       0.707   5.366 -14.000  1.00  0.00    -0.390 OA
ATOM     31  H6  UNL     1       0.311   5.393 -13.137  1.00  0.00     0.210 HD
ENDBRANCH  26  30
BRANCH  27  32
HETATM   32  O5  UNL     1       1.436   2.587 -16.083  1.00  0.00    -0.388 OA
ATOM     33  H5  UNL     1       1.291   2.009 -15.342  1.00  0.00     0.210 HD
ENDBRANCH  27  32
ENDBRANCH  20  21
ENDBRANCH   1  20
BRANCH  17  34
HETATM   34  O4  UNL     1       2.640  12.013 -21.350  1.00  0.00    -0.381 OA
ATOM     35  H4  UNL     1       2.585  12.460 -22.186  1.00  0.00     0.211 HD
ENDBRANCH  17  34
BRANCH  15  36
HETATM   36  O3  UNL     1       5.262  12.144 -21.638  1.00  0.00    -0.386 OA
ATOM     37  H3  UNL     1       5.439  11.972 -20.721  1.00  0.00     0.210 HD
ENDBRANCH  15  36
TORSDOF 7
ENDMDL
MODEL 3
REMARK VINA RESULT: -6.686567822      4.785      7.262
REMARK  7 active torsions:
REMARK  status: ('A' for Active; 'I' for Inactive)
REMARK    1  A    between atoms: C3_4  and  O2_5 
REMARK    2  A    between atoms: O2_5  and  C4_6 
REMARK    3  A    between atoms: C16_20  and  O3_22 
REMARK    4  A    between atoms: C18_24  and  O4_25 
REMARK    5  A    between atoms: C21_29  and  O5_30 
REMARK    6  A    between atoms: C22_32  and  O6_33 
REMARK    7  A    between atoms: C23_35  and  O7_36 
ROOT
HETATM    1  C4  UNL     1       2.522   7.924 -19.039  1.00  0.00     0.125 C 
HETATM    2  C5  UNL     1       3.917   7.342 -19.003  1.00  0.00     0.034 C 
HETATM    3  C6  UNL     1       4.447   7.189 -17.608  1.00  0.00     0.024 C 
HETATM    4  C7  UNL     1       3.319   7.044 -16.592  1.00  0.00     0.019 C 
HETATM    5  C8  UNL     1       2.939   8.415 -16.135  1.00  0.00     0.028 C 
HETATM    6  S1  UNL     1       3.961   6.185 -15.088  1.00  0.00    -0.087 SA
HETATM    7  S2  UNL     1       2.176   6.259 -13.870  1.00  0.00    -0.088 SA
HETATM    8  C9  UNL     1       0.835   6.069 -15.121  1.00  0.00     0.105 C 
HETATM    9  C10 UNL     1       1.333   5.462 -16.365  1.00  0.00     0.009 C 
HETATM   10  C11 UNL     1       0.110   5.139 -17.233  1.00  0.00     0.011 C 
HETATM   11  C12 UNL     1      -0.752   4.077 -16.642  1.00  0.00     0.037 C 
HETATM   12  C13 UNL     1      -1.084   4.441 -15.251  1.00  0.00    -0.045 C 
HETATM   13  C14 UNL     1      -2.177   4.193 -14.543  1.00  0.00    -0.018 C 
HETATM   14  C15 UNL     1      -2.032   4.779 -13.159  1.00  0.00     0.068 C 
HETATM   15  C16 UNL     1      -1.020   5.903 -13.444  1.00  0.00     0.093 C 
HETATM   16  C17 UNL     1      -1.811   7.022 -14.044  1.00  0.00     0.050 C 
HETATM   17  C18 UNL     1      -0.145   5.177 -14.434  1.00  0.00     0.125 C 
HETATM   18  C19 UNL     1       2.244   6.250 -17.228  1.00  0.00     0.012 C 
HETATM   19  C20 UNL     1       1.529   7.124 -18.236  1.00  0.00     0.038 C 
ENDROOT
BRANCH   1  20
HETATM   20  O2  UNL     1       2.165   7.954 -20.409  1.00  0.00    -0.353 OA
BRANCH  20  21
HETATM   21  C3  UNL     1       3.075   8.593 -21.193  1.00  0.00     0.291 C 
HETATM   22  O1  UNL     1       3.266   8.016 -22.443  1.00  0.00    -0.351 OA
HETATM   23  C2  UNL     1       4.438   8.502 -23.007  1.00  0.00     0.152 C 
HETATM   24  C1  UNL     1       5.675   7.953 -22.325  1.00  0.00     0.042 C 
HETATM   25  C23 UNL     1       4.465   9.995 -23.123  1.00  0.00     0.178 C 
HETATM   26  C22 UNL     1       3.996  10.713 -21.897  1.00  0.00     0.183 C 
HETATM   27  C21 UNL     1       2.705  10.056 -21.454  1.00  0.00     0.204 C 
BRANCH  25  28
HETATM   28  O7  UNL     1       5.763  10.411 -23.395  1.00  0.00    -0.390 OA
ATOM     29  H7  UNL     1       5.882  10.468 -24.335  1.00  0.00     0.210 HD
ENDBRANCH  25  28
BRANCH  26  30
HETATM   30  O6  UNL     1       4.899  10.668 -20.843  1.00  0.00    -0.390 OA
ATOM     31  H6  UNL     1       5.311  11.520 -20.761  1.00  0.00     0.210 HD
ENDBRANCH  26  30
BRANCH  27  32
HETATM   32  O5  UNL     1       1.846  10.095 -22.559  1.00  0.00    -0.388 OA
ATOM     33  H5  UNL     1       1.632  11.005 -22.733  1.00  0.00     0.210 HD
ENDBRANCH  27  32
ENDBRANCH  20  21
ENDBRANCH   1  20
BRANCH  17  34
HETATM   34  O4  UNL     1       0.577   4.229 -13.666  1.00  0.00    -0.381 OA
ATOM     35  H4  UNL     1       1.054   3.664 -14.262  1.00  0.00     0.211 HD
ENDBRANCH  17  34
BRANCH  15  36
HETATM   36  O3  UNL     1      -0.351   6.287 -12.296  1.00  0.00    -0.386 OA
ATOM     37  H3  UNL     1       0.380   5.710 -12.107  1.00  0.00     0.210 HD
ENDBRANCH  15  36
TORSDOF 7
ENDMDL
MODEL 4
REMARK VINA RESULT: -6.676109086      4.934      7.695
REMARK  7 active torsions:
REMARK  status: ('A' for Active; 'I' for Inactive)
REMARK    1  A    between atoms: C3_4  and  O2_5 
REMARK    2  A    between atoms: O2_5  and  C4_6 
REMARK    3  A    between atoms: C16_20  and  O3_22 
REMARK    4  A    between atoms: C18_24  and  O4_25 
REMARK    5  A    between atoms: C21_29  and  O5_30 
REMARK    6  A    between atoms: C22_32  and  O6_33 
REMARK    7  A    between atoms: C23_35  and  O7_36 
ROOT
HETATM    1  C4  UNL     1       2.257   9.069 -19.161  1.00  0.00     0.125 C 
HETATM    2  C5  UNL     1       3.738   8.958 -19.445  1.00  0.00     0.034 C 
HETATM    3  C6  UNL     1       4.542   8.629 -18.222  1.00  0.00     0.024 C 
HETATM    4  C7  UNL     1       3.706   7.891 -17.183  1.00  0.00     0.019 C 
HETATM    5  C8  UNL     1       3.066   8.915 -16.302  1.00  0.00     0.028 C 
HETATM    6  S1  UNL     1       4.825   6.923 -16.078  1.00  0.00    -0.087 SA
HETATM    7  S2  UNL     1       3.347   6.131 -14.712  1.00  0.00    -0.088 SA
HETATM    8  C9  UNL     1       1.895   5.857 -15.815  1.00  0.00     0.105 C 
HETATM    9  C10 UNL     1       2.294   5.769 -17.228  1.00  0.00     0.009 C 
HETATM   10  C11 UNL     1       1.061   5.313 -18.019  1.00  0.00     0.011 C 
HETATM   11  C12 UNL     1       0.641   3.925 -17.683  1.00  0.00     0.037 C 
HETATM   12  C13 UNL     1       0.492   3.804 -16.220  1.00  0.00    -0.045 C 
HETATM   13  C14 UNL     1      -0.342   3.060 -15.506  1.00  0.00    -0.018 C 
HETATM   14  C15 UNL     1      -0.101   3.293 -14.034  1.00  0.00     0.068 C 
HETATM   15  C16 UNL     1       0.501   4.708 -14.077  1.00  0.00     0.093 C 
HETATM   16  C17 UNL     1      -0.657   5.641 -14.232  1.00  0.00     0.050 C 
HETATM   17  C18 UNL     1       1.336   4.563 -15.325  1.00  0.00     0.125 C 
HETATM   18  C19 UNL     1       2.783   6.991 -17.909  1.00  0.00     0.012 C 
HETATM   19  C20 UNL     1       1.684   7.826 -18.531  1.00  0.00     0.038 C 
ENDROOT
BRANCH   1  20
HETATM   20  O2  UNL     1       1.654   9.332 -20.414  1.00  0.00    -0.353 OA
BRANCH  20  21
HETATM   21  C3  UNL     1       2.516   9.237 -21.463  1.00  0.00     0.291 C 
HETATM   22  O1  UNL     1       2.263   8.176 -22.324  1.00  0.00    -0.351 OA
HETATM   23  C2  UNL     1       3.375   7.950 -23.124  1.00  0.00     0.152 C 
HETATM   24  C1  UNL     1       4.523   7.332 -22.352  1.00  0.00     0.042 C 
HETATM   25  C23 UNL     1       3.797   9.155 -23.907  1.00  0.00     0.178 C 
HETATM   26  C22 UNL     1       3.824  10.423 -23.112  1.00  0.00     0.183 C 
HETATM   27  C21 UNL     1       2.527  10.496 -22.333  1.00  0.00     0.204 C 
BRANCH  25  28
HETATM   28  O7  UNL     1       5.069   8.944 -24.424  1.00  0.00    -0.390 OA
ATOM     29  H7  UNL     1       5.674   8.782 -23.710  1.00  0.00     0.210 HD
ENDBRANCH  25  28
BRANCH  26  30
HETATM   30  O6  UNL     1       4.883  10.497 -22.216  1.00  0.00    -0.390 OA
ATOM     31  H6  UNL     1       4.990  11.403 -21.949  1.00  0.00     0.210 HD
ENDBRANCH  26  30
BRANCH  27  32
HETATM   32  O5  UNL     1       1.497  10.381 -23.275  1.00  0.00    -0.388 OA
ATOM     33  H5  UNL     1       1.724   9.678 -23.873  1.00  0.00     0.210 HD
ENDBRANCH  27  32
ENDBRANCH  20  21
ENDBRANCH   1  20
BRANCH  17  34
HETATM   34  O4  UNL     1       2.416   3.723 -14.953  1.00  0.00    -0.381 OA
ATOM     35  H4  UNL     1       2.199   2.832 -15.199  1.00  0.00     0.211 HD
ENDBRANCH  17  34
BRANCH  15  36
HETATM   36  O3  UNL     1       1.247   4.978 -12.944  1.00  0.00    -0.386 OA
ATOM     37  H3  UNL     1       0.720   5.385 -12.267  1.00  0.00     0.210 HD
ENDBRANCH  15  36
TORSDOF 7
ENDMDL
MODEL 5
REMARK VINA RESULT: -6.412823875      5.523      8.275
REMARK  7 active torsions:
REMARK  status: ('A' for Active; 'I' for Inactive)
REMARK    1  A    between atoms: C3_4  and  O2_5 
REMARK    2  A    between atoms: O2_5  and  C4_6 
REMARK    3  A    between atoms: C16_20  and  O3_22 
REMARK    4  A    between atoms: C18_24  and  O4_25 
REMARK    5  A    between atoms: C21_29  and  O5_30 
REMARK    6  A    between atoms: C22_32  and  O6_33 
REMARK    7  A    between atoms: C23_35  and  O7_36 
ROOT
HETATM    1  C4  UNL     1       2.303   7.475 -17.649  1.00  0.00     0.125 C 
HETATM    2  C5  UNL     1       2.891   8.646 -16.895  1.00  0.00     0.034 C 
HETATM    3  C6  UNL     1       4.255   9.028 -17.388  1.00  0.00     0.024 C 
HETATM    4  C7  UNL     1       4.459   8.623 -18.844  1.00  0.00     0.019 C 
HETATM    5  C8  UNL     1       5.011   7.233 -18.856  1.00  0.00     0.028 C 
HETATM    6  S1  UNL     1       5.776   9.680 -19.591  1.00  0.00    -0.087 SA
HETATM    7  S2  UNL     1       5.867   8.771 -21.551  1.00  0.00    -0.088 SA
HETATM    8  C9  UNL     1       4.108   8.308 -21.855  1.00  0.00     0.105 C 
HETATM    9  C10 UNL     1       3.188   9.080 -21.005  1.00  0.00     0.009 C 
HETATM   10  C11 UNL     1       1.764   8.789 -21.499  1.00  0.00     0.011 C 
HETATM   11  C12 UNL     1       1.510   9.318 -22.867  1.00  0.00     0.037 C 
HETATM   12  C13 UNL     1       2.568   8.838 -23.777  1.00  0.00    -0.045 C 
HETATM   13  C14 UNL     1       2.513   8.540 -25.067  1.00  0.00    -0.018 C 
HETATM   14  C15 UNL     1       3.872   8.090 -25.546  1.00  0.00     0.068 C 
HETATM   15  C16 UNL     1       4.470   7.576 -24.224  1.00  0.00     0.093 C 
HETATM   16  C17 UNL     1       3.882   6.218 -24.010  1.00  0.00     0.050 C 
HETATM   17  C18 UNL     1       3.917   8.631 -23.298  1.00  0.00     0.125 C 
HETATM   18  C19 UNL     1       3.172   8.817 -19.547  1.00  0.00     0.012 C 
HETATM   19  C20 UNL     1       2.225   7.711 -19.135  1.00  0.00     0.038 C 
ENDROOT
BRANCH   1  20
HETATM   20  O2  UNL     1       1.014   7.282 -17.094  1.00  0.00    -0.353 OA
BRANCH  20  21
HETATM   21  C3  UNL     1       0.834   6.045 -16.555  1.00  0.00     0.291 C 
HETATM   22  O1  UNL     1       0.387   6.049 -15.239  1.00  0.00    -0.351 OA
HETATM   23  C2  UNL     1       0.581   4.793 -14.678  1.00  0.00     0.152 C 
HETATM   24  C1  UNL     1       2.043   4.504 -14.408  1.00  0.00     0.042 C 
HETATM   25  C23 UNL     1      -0.087   3.692 -15.444  1.00  0.00     0.178 C 
HETATM   26  C22 UNL     1       0.108   3.771 -16.926  1.00  0.00     0.183 C 
HETATM   27  C21 UNL     1      -0.170   5.200 -17.343  1.00  0.00     0.204 C 
BRANCH  25  28
HETATM   28  O7  UNL     1       0.406   2.468 -15.010  1.00  0.00    -0.390 OA
ATOM     29  H7  UNL     1      -0.302   1.963 -14.627  1.00  0.00     0.210 HD
ENDBRANCH  25  28
BRANCH  26  30
HETATM   30  O6  UNL     1       1.389   3.431 -17.339  1.00  0.00    -0.390 OA
ATOM     31  H6  UNL     1       1.325   2.940 -18.150  1.00  0.00     0.210 HD
ENDBRANCH  26  30
BRANCH  27  32
HETATM   32  O5  UNL     1      -1.454   5.503 -16.872  1.00  0.00    -0.388 OA
ATOM     33  H5  UNL     1      -1.949   5.881 -17.591  1.00  0.00     0.210 HD
ENDBRANCH  27  32
ENDBRANCH  20  21
ENDBRANCH   1  20
BRANCH  17  34
HETATM   34  O4  UNL     1       4.652   9.806 -23.594  1.00  0.00    -0.381 OA
ATOM     35  H4  UNL     1       4.368  10.132 -24.440  1.00  0.00     0.211 HD
ENDBRANCH  17  34
BRANCH  15  36
HETATM   36  O3  UNL     1       5.852   7.551 -24.267  1.00  0.00    -0.386 OA
ATOM     37  H3  UNL     1       6.222   7.256 -23.443  1.00  0.00     0.210 HD
ENDBRANCH  15  36
TORSDOF 7
ENDMDL
