MODEL 1
REMARK VINA RESULT: -6.962447613      0.000      0.000
REMARK  9 active torsions:
REMARK  status: ('A' for Active; 'I' for Inactive)
REMARK    1  A    between atoms: N1_6  and  O1_8 
REMARK    2  A    between atoms: C7_11  and  O2_13 
REMARK    3  A    between atoms: C12_18  and  C13_19 
REMARK    4  A    between atoms: C13_19  and  C14_20 
REMARK    5  A    between atoms: C18_24  and  O3_25 
REMARK    6  A    between atoms: O3_25  and  C19_26 
REMARK    7  A    between atoms: C22_30  and  O5_31 
REMARK    8  A    between atoms: C23_33  and  O6_34 
REMARK    9  A    between atoms: C24_36  and  O7_37 
ROOT
HETATM    1  C14 UNL     1       2.940   7.884 -19.152  1.00  0.00     0.041 C 
HETATM    2  C15 UNL     1       3.784   7.136 -18.094  1.00  0.00    -0.004 C 
HETATM    3  C16 UNL     1       5.164   6.867 -18.583  1.00  0.00     0.011 C 
HETATM    4  C17 UNL     1       3.870   7.929 -16.816  1.00  0.00     0.066 C 
HETATM    5  C18 UNL     1       2.471   8.014 -16.221  1.00  0.00     0.264 C 
HETATM    6  O8  UNL     1       1.500   7.844 -17.197  1.00  0.00    -0.356 OA
HETATM    7  C25 UNL     1       1.764   8.482 -18.378  1.00  0.00     0.128 C 
HETATM    8  C26 UNL     1       1.883   9.987 -18.241  1.00  0.00     0.040 C 
ENDROOT
BRANCH   1   9
HETATM    9  C13 UNL     1       3.797   8.904 -19.742  1.00  0.00    -0.011 C 
BRANCH   9  10
HETATM   10  C12 UNL     1       3.732   9.527 -20.882  1.00  0.00    -0.047 C 
HETATM   11  C2  UNL     1       4.045  10.897 -21.164  1.00  0.00    -0.060 C 
HETATM   12  C1  UNL     1       4.866  11.713 -20.599  1.00  0.00     0.019 C 
HETATM   13  C3  UNL     1       3.186  11.275 -22.387  1.00  0.00     0.050 C 
HETATM   14  C4  UNL     1       3.542  10.051 -23.173  1.00  0.00     0.050 C 
HETATM   15  C5  UNL     1       2.752   9.726 -24.341  1.00  0.00     0.018 C 
HETATM   16  C10 UNL     1       3.251   8.941 -22.161  1.00  0.00    -0.005 C 
HETATM   17  N1  UNL     1       1.919  10.488 -24.929  1.00  0.00    -0.277 N 
HETATM   18  C6  UNL     1       2.948   8.353 -24.897  1.00  0.00     0.092 C 
ATOM     19  H1  UNL     1       1.423  10.136 -25.747  1.00  0.00     0.193 HD
HETATM   20  C7  UNL     1       3.903   7.525 -24.113  1.00  0.00     0.060 C 
HETATM   21  C8  UNL     1       3.496   6.062 -24.307  1.00  0.00     0.046 C 
HETATM   22  C9  UNL     1       4.019   7.773 -22.656  1.00  0.00     0.052 C 
HETATM   23  C11 UNL     1       1.765   8.684 -22.057  1.00  0.00     0.021 C 
BRANCH  17  24
HETATM   24  O1  UNL     1       1.664  11.769 -24.500  1.00  0.00    -0.290 OA
ATOM     25  H1  UNL     1       0.907  12.262 -24.794  1.00  0.00     0.244 HD
ENDBRANCH  17  24
BRANCH  20  26
HETATM   26  O2  UNL     1       5.181   7.630 -24.697  1.00  0.00    -0.390 OA
ATOM     27  H2  UNL     1       5.593   6.774 -24.688  1.00  0.00     0.210 HD
ENDBRANCH  20  26
ENDBRANCH   9  10
ENDBRANCH   1   9
BRANCH   5  28
HETATM   28  O3  UNL     1       2.390   7.092 -15.215  1.00  0.00    -0.329 OA
BRANCH  28  29
HETATM   29  C19 UNL     1       1.133   6.599 -14.963  1.00  0.00     0.294 C 
HETATM   30  O4  UNL     1       1.146   5.226 -14.764  1.00  0.00    -0.351 OA
HETATM   31  C20 UNL     1       1.975   4.836 -13.727  1.00  0.00     0.152 C 
HETATM   32  C21 UNL     1       3.280   4.362 -14.333  1.00  0.00     0.042 C 
HETATM   33  C22 UNL     1       2.280   5.920 -12.751  1.00  0.00     0.178 C 
HETATM   34  C23 UNL     1       1.171   6.893 -12.535  1.00  0.00     0.183 C 
HETATM   35  C24 UNL     1       0.525   7.347 -13.798  1.00  0.00     0.204 C 
BRANCH  33  36
HETATM   36  O5  UNL     1       2.528   5.299 -11.503  1.00  0.00    -0.390 OA
ATOM     37  H5  UNL     1       1.701   5.266 -11.037  1.00  0.00     0.210 HD
ENDBRANCH  33  36
BRANCH  34  38
HETATM   38  O6  UNL     1       0.213   6.397 -11.627  1.00  0.00    -0.390 OA
ATOM     39  H6  UNL     1      -0.161   7.093 -11.098  1.00  0.00     0.210 HD
ENDBRANCH  34  38
BRANCH  35  40
HETATM   40  O7  UNL     1      -0.848   7.110 -13.823  1.00  0.00    -0.388 OA
ATOM     41  H7  UNL     1      -1.011   6.338 -13.295  1.00  0.00     0.210 HD
ENDBRANCH  35  40
ENDBRANCH  28  29
ENDBRANCH   5  28
TORSDOF 9
ENDMDL
MODEL 2
REMARK VINA RESULT: -6.932417237      3.022      9.369
REMARK  9 active torsions:
REMARK  status: ('A' for Active; 'I' for Inactive)
REMARK    1  A    between atoms: N1_6  and  O1_8 
REMARK    2  A    between atoms: C7_11  and  O2_13 
REMARK    3  A    between atoms: C12_18  and  C13_19 
REMARK    4  A    between atoms: C13_19  and  C14_20 
REMARK    5  A    between atoms: C18_24  and  O3_25 
REMARK    6  A    between atoms: O3_25  and  C19_26 
REMARK    7  A    between atoms: C22_30  and  O5_31 
REMARK    8  A    between atoms: C23_33  and  O6_34 
REMARK    9  A    between atoms: C24_36  and  O7_37 
ROOT
HETATM    1  C14 UNL     1       3.423   8.736 -17.034  1.00  0.00     0.041 C 
HETATM    2  C15 UNL     1       2.767   8.533 -18.419  1.00  0.00    -0.004 C 
HETATM    3  C16 UNL     1       2.091   7.209 -18.518  1.00  0.00     0.011 C 
HETATM    4  C17 UNL     1       1.755   9.613 -18.700  1.00  0.00     0.066 C 
HETATM    5  C18 UNL     1       2.499  10.938 -18.803  1.00  0.00     0.264 C 
HETATM    6  O8  UNL     1       3.707  10.888 -18.122  1.00  0.00    -0.356 OA
HETATM    7  C25 UNL     1       3.653  10.244 -16.916  1.00  0.00     0.128 C 
HETATM    8  C26 UNL     1       2.703  10.887 -15.927  1.00  0.00     0.040 C 
ENDROOT
BRANCH   1   9
HETATM    9  C13 UNL     1       2.484   8.237 -16.037  1.00  0.00    -0.011 C 
BRANCH   9  10
HETATM   10  C12 UNL     1       2.389   7.080 -15.450  1.00  0.00    -0.047 C 
HETATM   11  C2  UNL     1       3.408   6.087 -15.276  1.00  0.00    -0.060 C 
HETATM   12  C1  UNL     1       4.688   6.193 -15.181  1.00  0.00     0.019 C 
HETATM   13  C3  UNL     1       2.663   4.741 -15.178  1.00  0.00     0.050 C 
HETATM   14  C4  UNL     1       1.650   5.230 -14.189  1.00  0.00     0.050 C 
HETATM   15  C5  UNL     1       0.470   4.426 -13.953  1.00  0.00     0.018 C 
HETATM   16  C10 UNL     1       1.148   6.505 -14.868  1.00  0.00    -0.005 C 
HETATM   17  N1  UNL     1       0.289   3.220 -14.318  1.00  0.00    -0.277 N 
HETATM   18  C6  UNL     1      -0.635   5.098 -13.205  1.00  0.00     0.092 C 
ATOM     19  H1  UNL     1      -0.594   2.765 -14.088  1.00  0.00     0.193 HD
HETATM   20  C7  UNL     1      -0.347   6.518 -12.867  1.00  0.00     0.060 C 
HETATM   21  C8  UNL     1      -1.693   7.243 -12.784  1.00  0.00     0.046 C 
HETATM   22  C9  UNL     1       0.531   7.294 -13.775  1.00  0.00     0.052 C 
HETATM   23  C11 UNL     1       0.186   6.174 -15.987  1.00  0.00     0.021 C 
BRANCH  17  24
HETATM   24  O1  UNL     1       1.240   2.510 -15.010  1.00  0.00    -0.290 OA
ATOM     25  H1  UNL     1       1.614   1.703 -14.677  1.00  0.00     0.244 HD
ENDBRANCH  17  24
BRANCH  20  26
HETATM   26  O2  UNL     1       0.181   6.576 -11.562  1.00  0.00    -0.390 OA
ATOM     27  H2  UNL     1       0.935   6.000 -11.510  1.00  0.00     0.210 HD
ENDBRANCH  20  26
ENDBRANCH   9  10
ENDBRANCH   1   9
BRANCH   5  28
HETATM   28  O3  UNL     1       2.642  11.233 -20.131  1.00  0.00    -0.329 OA
BRANCH  28  29
HETATM   29  C19 UNL     1       3.885  10.991 -20.661  1.00  0.00     0.294 C 
HETATM   30  O4  UNL     1       3.871   9.924 -21.547  1.00  0.00    -0.351 OA
HETATM   31  C20 UNL     1       2.985  10.100 -22.595  1.00  0.00     0.152 C 
HETATM   32  C21 UNL     1       1.722   9.330 -22.264  1.00  0.00     0.042 C 
HETATM   33  C22 UNL     1       2.614  11.521 -22.846  1.00  0.00     0.178 C 
HETATM   34  C23 UNL     1       3.700  12.505 -22.574  1.00  0.00     0.183 C 
HETATM   35  C24 UNL     1       4.416  12.260 -21.291  1.00  0.00     0.204 C 
BRANCH  33  36
HETATM   36  O5  UNL     1       2.296  11.631 -24.221  1.00  0.00    -0.390 OA
ATOM     37  H5  UNL     1       2.805  10.974 -24.680  1.00  0.00     0.210 HD
ENDBRANCH  33  36
BRANCH  34  38
HETATM   38  O6  UNL     1       4.605  12.592 -23.651  1.00  0.00    -0.390 OA
ATOM     39  H6  UNL     1       5.161  11.823 -23.705  1.00  0.00     0.210 HD
ENDBRANCH  34  38
BRANCH  35  40
HETATM   40  O7  UNL     1       5.790  12.096 -21.457  1.00  0.00    -0.388 OA
ATOM     41  H7  UNL     1       6.208  12.892 -21.150  1.00  0.00     0.210 HD
ENDBRANCH  35  40
ENDBRANCH  28  29
ENDBRANCH   5  28
TORSDOF 9
ENDMDL
MODEL 3
REMARK VINA RESULT: -6.919005126      1.463      2.207
REMARK  9 active torsions:
REMARK  status: ('A' for Active; 'I' for Inactive)
REMARK    1  A    between atoms: N1_6  and  O1_8 
REMARK    2  A    between atoms: C7_11  and  O2_13 
REMARK    3  A    between atoms: C12_18  and  C13_19 
REMARK    4  A    between atoms: C13_19  and  C14_20 
REMARK    5  A    between atoms: C18_24  and  O3_25 
REMARK    6  A    between atoms: O3_25  and  C19_26 
REMARK    7  A    between atoms: C22_30  and  O5_31 
REMARK    8  A    between atoms: C23_33  and  O6_34 
REMARK    9  A    between atoms: C24_36  and  O7_37 
ROOT
HETATM    1  C14 UNL     1       3.653   8.550 -17.389  1.00  0.00     0.041 C 
HETATM    2  C15 UNL     1       2.908   8.996 -16.111  1.00  0.00    -0.004 C 
HETATM    3  C16 UNL     1       2.515  10.431 -16.176  1.00  0.00     0.011 C 
HETATM    4  C17 UNL     1       1.669   8.166 -15.893  1.00  0.00     0.066 C 
HETATM    5  C18 UNL     1       2.106   6.733 -15.619  1.00  0.00     0.264 C 
HETATM    6  O8  UNL     1       3.364   6.483 -16.147  1.00  0.00    -0.356 OA
HETATM    7  C25 UNL     1       3.577   7.022 -17.387  1.00  0.00     0.128 C 
HETATM    8  C26 UNL     1       2.627   6.500 -18.446  1.00  0.00     0.040 C 
ENDROOT
BRANCH   1   9
HETATM    9  C13 UNL     1       2.953   9.141 -18.523  1.00  0.00    -0.011 C 
BRANCH   9  10
HETATM   10  C12 UNL     1       3.382   9.863 -19.516  1.00  0.00    -0.047 C 
HETATM   11  C2  UNL     1       3.921  11.191 -19.481  1.00  0.00    -0.060 C 
HETATM   12  C1  UNL     1       4.556  11.824 -18.556  1.00  0.00     0.019 C 
HETATM   13  C3  UNL     1       3.621  11.796 -20.866  1.00  0.00     0.050 C 
HETATM   14  C4  UNL     1       4.111  10.606 -21.632  1.00  0.00     0.050 C 
HETATM   15  C5  UNL     1       3.781  10.504 -23.036  1.00  0.00     0.018 C 
HETATM   16  C10 UNL     1       3.351   9.468 -20.949  1.00  0.00    -0.005 C 
HETATM   17  N1  UNL     1       3.311  11.429 -23.774  1.00  0.00    -0.277 N 
HETATM   18  C6  UNL     1       4.022   9.170 -23.666  1.00  0.00     0.092 C 
ATOM     19  H1  UNL     1       3.119  11.226 -24.755  1.00  0.00     0.193 HD
HETATM   20  C7  UNL     1       4.525   8.145 -22.713  1.00  0.00     0.060 C 
HETATM   21  C8  UNL     1       4.066   6.781 -23.235  1.00  0.00     0.046 C 
HETATM   22  C9  UNL     1       4.118   8.246 -21.291  1.00  0.00     0.052 C 
HETATM   23  C11 UNL     1       1.913   9.426 -21.417  1.00  0.00     0.021 C 
BRANCH  17  24
HETATM   24  O1  UNL     1       3.052  12.691 -23.296  1.00  0.00    -0.290 OA
ATOM     25  H1  UNL     1       2.856  13.422 -23.871  1.00  0.00     0.244 HD
ENDBRANCH  17  24
BRANCH  20  26
HETATM   26  O2  UNL     1       5.932   8.110 -22.784  1.00  0.00    -0.390 OA
ATOM     27  H2  UNL     1       6.286   8.735 -22.162  1.00  0.00     0.210 HD
ENDBRANCH  20  26
ENDBRANCH   9  10
ENDBRANCH   1   9
BRANCH   5  28
HETATM   28  O3  UNL     1       2.039   6.528 -14.269  1.00  0.00    -0.329 OA
BRANCH  28  29
HETATM   29  C19 UNL     1       1.189   5.529 -13.863  1.00  0.00     0.294 C 
HETATM   30  O4  UNL     1       1.581   4.977 -12.651  1.00  0.00    -0.351 OA
HETATM   31  C20 UNL     1       1.663   5.910 -11.632  1.00  0.00     0.152 C 
HETATM   32  C21 UNL     1       3.121   6.293 -11.477  1.00  0.00     0.042 C 
HETATM   33  C22 UNL     1       0.877   7.151 -11.877  1.00  0.00     0.178 C 
HETATM   34  C23 UNL     1      -0.387   6.946 -12.641  1.00  0.00     0.183 C 
HETATM   35  C24 UNL     1      -0.227   6.059 -13.827  1.00  0.00     0.204 C 
BRANCH  33  36
HETATM   36  O5  UNL     1       0.511   7.669 -10.612  1.00  0.00    -0.390 OA
ATOM     37  H5  UNL     1      -0.027   8.437 -10.768  1.00  0.00     0.210 HD
ENDBRANCH  33  36
BRANCH  34  38
HETATM   38  O6  UNL     1      -1.431   6.495 -11.809  1.00  0.00    -0.390 OA
ATOM     39  H6  UNL     1      -1.487   7.004 -11.008  1.00  0.00     0.210 HD
ENDBRANCH  34  38
BRANCH  35  40
HETATM   40  O7  UNL     1      -1.081   4.958 -13.803  1.00  0.00    -0.388 OA
ATOM     41  H7  UNL     1      -1.256   4.716 -14.704  1.00  0.00     0.210 HD
ENDBRANCH  35  40
ENDBRANCH  28  29
ENDBRANCH   5  28
TORSDOF 9
ENDMDL
MODEL 4
REMARK VINA RESULT: -6.849261685     13.178     14.844
REMARK  9 active torsions:
REMARK  status: ('A' for Active; 'I' for Inactive)
REMARK    1  A    between atoms: N1_6  and  O1_8 
REMARK    2  A    between atoms: C7_11  and  O2_13 
REMARK    3  A    between atoms: C12_18  and  C13_19 
REMARK    4  A    between atoms: C13_19  and  C14_20 
REMARK    5  A    between atoms: C18_24  and  O3_25 
REMARK    6  A    between atoms: O3_25  and  C19_26 
REMARK    7  A    between atoms: C22_30  and  O5_31 
REMARK    8  A    between atoms: C23_33  and  O6_34 
REMARK    9  A    between atoms: C24_36  and  O7_37 
ROOT
HETATM    1  C14 UNL     1     -10.871   5.861 -18.857  1.00  0.00     0.041 C 
HETATM    2  C15 UNL     1     -11.562   7.198 -18.503  1.00  0.00    -0.004 C 
HETATM    3  C16 UNL     1     -10.960   8.340 -19.244  1.00  0.00     0.011 C 
HETATM    4  C17 UNL     1     -13.035   7.142 -18.815  1.00  0.00     0.066 C 
HETATM    5  C18 UNL     1     -13.671   6.109 -17.895  1.00  0.00     0.264 C 
HETATM    6  O8  UNL     1     -12.734   5.186 -17.453  1.00  0.00    -0.356 OA
HETATM    7  C25 UNL     1     -11.849   4.773 -18.411  1.00  0.00     0.128 C 
HETATM    8  C26 UNL     1     -12.509   4.087 -19.590  1.00  0.00     0.040 C 
ENDROOT
BRANCH   1   9
HETATM    9  C13 UNL     1     -10.653   5.859 -20.298  1.00  0.00    -0.011 C 
BRANCH   9  10
HETATM   10  C12 UNL     1      -9.639   5.468 -21.013  1.00  0.00    -0.047 C 
HETATM   11  C2  UNL     1      -8.367   4.987 -20.560  1.00  0.00    -0.060 C 
HETATM   12  C1  UNL     1      -8.028   4.373 -19.480  1.00  0.00     0.019 C 
HETATM   13  C3  UNL     1      -7.372   5.322 -21.689  1.00  0.00     0.050 C 
HETATM   14  C4  UNL     1      -8.241   4.787 -22.785  1.00  0.00     0.050 C 
HETATM   15  C5  UNL     1      -7.913   5.123 -24.153  1.00  0.00     0.018 C 
HETATM   16  C10 UNL     1      -9.567   5.493 -22.498  1.00  0.00    -0.005 C 
HETATM   17  N1  UNL     1      -6.825   5.638 -24.568  1.00  0.00    -0.277 N 
HETATM   18  C6  UNL     1      -8.971   4.829 -25.167  1.00  0.00     0.092 C 
ATOM     19  H1  UNL     1      -6.719   5.828 -25.564  1.00  0.00     0.193 HD
HETATM   20  C7  UNL     1     -10.220   4.276 -24.579  1.00  0.00     0.060 C 
HETATM   21  C8  UNL     1     -11.371   4.680 -25.504  1.00  0.00     0.046 C 
HETATM   22  C9  UNL     1     -10.586   4.676 -23.200  1.00  0.00     0.052 C 
HETATM   23  C11 UNL     1      -9.523   6.931 -22.964  1.00  0.00     0.021 C 
BRANCH  17  24
HETATM   24  O1  UNL     1      -5.788   5.947 -23.721  1.00  0.00    -0.290 OA
ATOM     25  H1  UNL     1      -5.758   5.643 -22.821  1.00  0.00     0.244 HD
ENDBRANCH  17  24
BRANCH  20  26
HETATM   26  O2  UNL     1     -10.171   2.870 -24.648  1.00  0.00    -0.390 OA
ATOM     27  H2  UNL     1     -10.534   2.511 -23.847  1.00  0.00     0.210 HD
ENDBRANCH  20  26
ENDBRANCH   9  10
ENDBRANCH   1   9
BRANCH   5  28
HETATM   28  O3  UNL     1     -14.285   6.783 -16.875  1.00  0.00    -0.329 OA
BRANCH  28  29
HETATM   29  C19 UNL     1     -14.139   6.229 -15.627  1.00  0.00     0.294 C 
HETATM   30  O4  UNL     1     -13.242   6.942 -14.846  1.00  0.00    -0.351 OA
HETATM   31  C20 UNL     1     -13.597   8.269 -14.686  1.00  0.00     0.152 C 
HETATM   32  C21 UNL     1     -12.780   9.085 -15.668  1.00  0.00     0.042 C 
HETATM   33  C22 UNL     1     -15.039   8.548 -14.933  1.00  0.00     0.178 C 
HETATM   34  C23 UNL     1     -15.962   7.446 -14.539  1.00  0.00     0.183 C 
HETATM   35  C24 UNL     1     -15.498   6.099 -14.975  1.00  0.00     0.204 C 
BRANCH  33  36
HETATM   36  O5  UNL     1     -15.386   9.673 -14.146  1.00  0.00    -0.390 OA
ATOM     37  H5  UNL     1     -16.102  10.114 -14.590  1.00  0.00     0.210 HD
ENDBRANCH  33  36
BRANCH  34  38
HETATM   38  O6  UNL     1     -16.235   7.464 -13.156  1.00  0.00    -0.390 OA
ATOM     39  H6  UNL     1     -17.167   7.529 -12.983  1.00  0.00     0.210 HD
ENDBRANCH  34  38
BRANCH  35  40
HETATM   40  O7  UNL     1     -15.367   5.200 -13.919  1.00  0.00    -0.388 OA
ATOM     41  H7  UNL     1     -15.217   4.341 -14.296  1.00  0.00     0.210 HD
ENDBRANCH  35  40
ENDBRANCH  28  29
ENDBRANCH   5  28
TORSDOF 9
ENDMDL
MODEL 5
REMARK VINA RESULT: -6.815546126      1.516      2.448
REMARK  9 active torsions:
REMARK  status: ('A' for Active; 'I' for Inactive)
REMARK    1  A    between atoms: N1_6  and  O1_8 
REMARK    2  A    between atoms: C7_11  and  O2_13 
REMARK    3  A    between atoms: C12_18  and  C13_19 
REMARK    4  A    between atoms: C13_19  and  C14_20 
REMARK    5  A    between atoms: C18_24  and  O3_25 
REMARK    6  A    between atoms: O3_25  and  C19_26 
REMARK    7  A    between atoms: C22_30  and  O5_31 
REMARK    8  A    between atoms: C23_33  and  O6_34 
REMARK    9  A    between atoms: C24_36  and  O7_37 
ROOT
HETATM    1  C14 UNL     1       2.548   9.810 -18.493  1.00  0.00     0.041 C 
HETATM    2  C15 UNL     1       2.068   8.341 -18.449  1.00  0.00    -0.004 C 
HETATM    3  C16 UNL     1       2.175   7.689 -19.783  1.00  0.00     0.011 C 
HETATM    4  C17 UNL     1       2.871   7.542 -17.455  1.00  0.00     0.066 C 
HETATM    5  C18 UNL     1       2.584   8.096 -16.066  1.00  0.00     0.264 C 
HETATM    6  O8  UNL     1       2.147   9.411 -16.132  1.00  0.00    -0.356 OA
HETATM    7  C25 UNL     1       2.818  10.188 -17.036  1.00  0.00     0.128 C 
HETATM    8  C26 UNL     1       4.301  10.310 -16.747  1.00  0.00     0.040 C 
ENDROOT
BRANCH   1   9
HETATM    9  C13 UNL     1       3.755   9.843 -19.310  1.00  0.00    -0.011 C 
BRANCH   9  10
HETATM   10  C12 UNL     1       4.077  10.573 -20.337  1.00  0.00    -0.047 C 
HETATM   11  C2  UNL     1       4.783  11.821 -20.353  1.00  0.00    -0.060 C 
HETATM   12  C1  UNL     1       5.661  12.309 -19.546  1.00  0.00     0.019 C 
HETATM   13  C3  UNL     1       4.306  12.550 -21.624  1.00  0.00     0.050 C 
HETATM   14  C4  UNL     1       4.480  11.364 -22.522  1.00  0.00     0.050 C 
HETATM   15  C5  UNL     1       3.876  11.398 -23.836  1.00  0.00     0.018 C 
HETATM   16  C10 UNL     1       3.720  10.283 -21.751  1.00  0.00    -0.005 C 
HETATM   17  N1  UNL     1       3.400  12.420 -24.426  1.00  0.00    -0.277 N 
HETATM   18  C6  UNL     1       3.815  10.090 -24.558  1.00  0.00     0.092 C 
ATOM     19  H1  UNL     1       2.999  12.308 -25.357  1.00  0.00     0.193 HD
HETATM   20  C7  UNL     1       4.350   8.950 -23.767  1.00  0.00     0.060 C 
HETATM   21  C8  UNL     1       3.625   7.689 -24.245  1.00  0.00     0.046 C 
HETATM   22  C9  UNL     1       4.240   9.003 -22.290  1.00  0.00     0.052 C 
HETATM   23  C11 UNL     1       2.227  10.446 -21.926  1.00  0.00     0.021 C 
BRANCH  17  24
HETATM   24  O1  UNL     1       3.406  13.669 -23.853  1.00  0.00    -0.290 OA
ATOM     25  H1  UNL     1       2.674  14.270 -23.934  1.00  0.00     0.244 HD
ENDBRANCH  17  24
BRANCH  20  26
HETATM   26  O2  UNL     1       5.701   8.749 -24.117  1.00  0.00    -0.390 OA
ATOM     27  H2  UNL     1       6.250   9.031 -23.394  1.00  0.00     0.210 HD
ENDBRANCH  20  26
ENDBRANCH   9  10
ENDBRANCH   1   9
BRANCH   5  28
HETATM   28  O3  UNL     1       1.685   7.260 -15.462  1.00  0.00    -0.329 OA
BRANCH  28  29
HETATM   29  C19 UNL     1       2.230   6.212 -14.763  1.00  0.00     0.294 C 
HETATM   30  O4  UNL     1       1.980   6.312 -13.402  1.00  0.00    -0.351 OA
HETATM   31  C20 UNL     1       0.632   6.374 -13.100  1.00  0.00     0.152 C 
HETATM   32  C21 UNL     1       0.278   7.830 -12.871  1.00  0.00     0.042 C 
HETATM   33  C22 UNL     1      -0.257   5.841 -14.170  1.00  0.00     0.178 C 
HETATM   34  C23 UNL     1       0.314   4.700 -14.942  1.00  0.00     0.183 C 
HETATM   35  C24 UNL     1       1.732   4.908 -15.347  1.00  0.00     0.204 C 
BRANCH  33  36
HETATM   36  O5  UNL     1      -1.429   5.361 -13.538  1.00  0.00    -0.390 OA
ATOM     37  H5  UNL     1      -2.059   5.169 -14.224  1.00  0.00     0.210 HD
ENDBRANCH  33  36
BRANCH  34  38
HETATM   38  O6  UNL     1       0.158   3.478 -14.256  1.00  0.00    -0.390 OA
ATOM     39  H6  UNL     1      -0.007   2.759 -14.855  1.00  0.00     0.210 HD
ENDBRANCH  34  38
BRANCH  35  40
HETATM   40  O7  UNL     1       2.581   3.900 -14.895  1.00  0.00    -0.388 OA
ATOM     41  H7  UNL     1       3.392   3.972 -15.385  1.00  0.00     0.210 HD
ENDBRANCH  35  40
ENDBRANCH  28  29
ENDBRANCH   5  28
TORSDOF 9
ENDMDL
