MODEL 1
REMARK VINA RESULT: -7.317568662      0.000      0.000
REMARK  2 active torsions:
REMARK  status: ('A' for Active; 'I' for Inactive)
REMARK    1  A    between atoms: N3_11  and  N4_13 
REMARK    2  A    between atoms: C6_15  and  C7_17 
ROOT
HETATM    1  N1  UNL     1     123.676  -6.869 -56.344  1.00  0.00    -0.385 N 
ATOM      2  H11 UNL     1     123.383  -7.050 -55.384  1.00  0.00     0.157 HD
ATOM      3  H12 UNL     1     124.624  -6.931 -56.716  1.00  0.00     0.157 HD
HETATM    4  C1  UNL     1     122.758  -6.525 -57.174  1.00  0.00     0.101 C 
HETATM    5  C2  UNL     1     123.154  -6.280 -58.472  1.00  0.00     0.065 C 
HETATM    6  C3  UNL     1     122.385  -5.916 -59.574  1.00  0.00     0.091 C 
HETATM    7  N2  UNL     1     121.083  -5.660 -59.570  1.00  0.00    -0.372 N 
ATOM      8  H2  UNL     1     120.702  -5.434 -60.488  1.00  0.00     0.164 HD
HETATM    9  C4  UNL     1     120.170  -5.644 -58.575  1.00  0.00     0.137 C 
HETATM   10  C5  UNL     1     120.424  -5.892 -57.257  1.00  0.00     0.137 C 
HETATM   11  N3  UNL     1     119.501  -5.550 -56.449  1.00  0.00    -0.283 N 
ATOM     12  H3  UNL     1     119.616  -5.703 -55.448  1.00  0.00     0.188 HD
HETATM   13  N8  UNL     1     121.494  -6.441 -56.679  1.00  0.00    -0.327 N 
ATOM     14  H8  UNL     1     121.346  -6.847 -55.754  1.00  0.00     0.169 HD
ENDROOT
BRANCH  11  15
HETATM   15  N4  UNL     1     118.348  -4.973 -56.930  1.00  0.00    -0.284 N 
HETATM   16  C6  UNL     1     117.384  -4.492 -56.250  1.00  0.00     0.157 C 
HETATM   17  N5  UNL     1     116.278  -3.939 -56.913  1.00  0.00    -0.079 NA
ATOM     18  H4  UNL     1     118.255  -4.926 -57.945  1.00  0.00     0.188 HD
BRANCH  16  19
HETATM   19  C7  UNL     1     117.446  -4.527 -54.814  1.00  0.00     0.077 A 
HETATM   20  C8  UNL     1     116.777  -5.551 -54.163  1.00  0.00     0.050 A 
HETATM   21  C9  UNL     1     116.779  -5.668 -52.788  1.00  0.00     0.091 A 
HETATM   22  N6  UNL     1     117.461  -4.739 -52.093  1.00  0.00    -0.362 N 
HETATM   23  C10 UNL     1     118.105  -3.750 -52.746  1.00  0.00     0.180 A 
ATOM     24  H6  UNL     1     117.491  -4.783 -51.075  1.00  0.00     0.165 HD
HETATM   25  N7  UNL     1     118.117  -3.619 -54.073  1.00  0.00    -0.350 N 
ATOM     26  H7  UNL     1     118.621  -2.853 -54.518  1.00  0.00     0.166 HD
ENDBRANCH  16  19
ENDBRANCH  11  15
TORSDOF 2
ENDMDL
MODEL 2
REMARK VINA RESULT: -7.311582420      2.039      6.336
REMARK  2 active torsions:
REMARK  status: ('A' for Active; 'I' for Inactive)
REMARK    1  A    between atoms: N3_11  and  N4_13 
REMARK    2  A    between atoms: C6_15  and  C7_17 
ROOT
HETATM    1  N1  UNL     1     118.190  -3.149 -52.781  1.00  0.00    -0.385 N 
ATOM      2  H11 UNL     1     118.826  -2.589 -53.349  1.00  0.00     0.157 HD
ATOM      3  H12 UNL     1     117.761  -2.877 -51.897  1.00  0.00     0.157 HD
HETATM    4  C1  UNL     1     117.898  -4.318 -53.224  1.00  0.00     0.101 C 
HETATM    5  C2  UNL     1     117.038  -5.075 -52.457  1.00  0.00     0.065 C 
HETATM    6  C3  UNL     1     116.537  -6.353 -52.695  1.00  0.00     0.091 C 
HETATM    7  N2  UNL     1     116.857  -7.142 -53.711  1.00  0.00    -0.372 N 
ATOM      8  H2  UNL     1     116.360  -8.033 -53.719  1.00  0.00     0.164 HD
HETATM    9  C4  UNL     1     117.720  -6.985 -54.739  1.00  0.00     0.137 C 
HETATM   10  C5  UNL     1     118.517  -5.897 -54.950  1.00  0.00     0.137 C 
HETATM   11  N3  UNL     1     119.452  -6.063 -55.798  1.00  0.00    -0.283 N 
ATOM     12  H3  UNL     1     120.091  -5.296 -56.010  1.00  0.00     0.188 HD
HETATM   13  N8  UNL     1     118.470  -4.681 -54.404  1.00  0.00    -0.327 N 
ATOM     14  H8  UNL     1     118.915  -3.932 -54.935  1.00  0.00     0.169 HD
ENDROOT
BRANCH  11  15
HETATM   15  N4  UNL     1     119.600  -7.277 -56.427  1.00  0.00    -0.284 N 
HETATM   16  C6  UNL     1     119.928  -7.482 -57.642  1.00  0.00     0.157 C 
HETATM   17  N5  UNL     1     120.032  -8.797 -58.118  1.00  0.00    -0.079 NA
ATOM     18  H4  UNL     1     119.428  -8.105 -55.858  1.00  0.00     0.188 HD
BRANCH  16  19
HETATM   19  C7  UNL     1     120.184  -6.359 -58.503  1.00  0.00     0.077 A 
HETATM   20  C8  UNL     1     121.006  -6.560 -59.601  1.00  0.00     0.050 A 
HETATM   21  C9  UNL     1     121.310  -5.545 -60.484  1.00  0.00     0.091 A 
HETATM   22  N6  UNL     1     120.773  -4.335 -60.237  1.00  0.00    -0.362 N 
HETATM   23  C10 UNL     1     119.975  -4.160 -59.164  1.00  0.00     0.180 A 
ATOM     24  H6  UNL     1     120.968  -3.553 -60.861  1.00  0.00     0.165 HD
HETATM   25  N7  UNL     1     119.668  -5.128 -58.299  1.00  0.00    -0.350 N 
ATOM     26  H7  UNL     1     119.059  -4.943 -57.503  1.00  0.00     0.166 HD
ENDBRANCH  16  19
ENDBRANCH  11  15
TORSDOF 2
ENDMDL
MODEL 3
REMARK VINA RESULT: -7.254012742      1.012      1.198
REMARK  2 active torsions:
REMARK  status: ('A' for Active; 'I' for Inactive)
REMARK    1  A    between atoms: N3_11  and  N4_13 
REMARK    2  A    between atoms: C6_15  and  C7_17 
ROOT
HETATM    1  N1  UNL     1     123.386  -6.651 -56.460  1.00  0.00    -0.385 N 
ATOM      2  H11 UNL     1     123.209  -6.886 -55.483  1.00  0.00     0.157 HD
ATOM      3  H12 UNL     1     124.281  -6.701 -56.948  1.00  0.00     0.157 HD
HETATM    4  C1  UNL     1     122.380  -6.251 -57.150  1.00  0.00     0.101 C 
HETATM    5  C2  UNL     1     122.619  -5.934 -58.471  1.00  0.00     0.065 C 
HETATM    6  C3  UNL     1     121.727  -5.499 -59.448  1.00  0.00     0.091 C 
HETATM    7  N2  UNL     1     120.441  -5.232 -59.270  1.00  0.00    -0.372 N 
ATOM      8  H2  UNL     1     119.954  -4.948 -60.121  1.00  0.00     0.164 HD
HETATM    9  C4  UNL     1     119.655  -5.265 -58.172  1.00  0.00     0.137 C 
HETATM   10  C5  UNL     1     120.063  -5.593 -56.911  1.00  0.00     0.137 C 
HETATM   11  N3  UNL     1     119.251  -5.290 -55.978  1.00  0.00    -0.283 N 
ATOM     12  H3  UNL     1     119.485  -5.502 -55.009  1.00  0.00     0.188 HD
HETATM   13  N8  UNL     1     121.186  -6.185 -56.500  1.00  0.00    -0.327 N 
ATOM     14  H8  UNL     1     121.146  -6.643 -55.589  1.00  0.00     0.169 HD
ENDROOT
BRANCH  11  15
HETATM   15  N4  UNL     1     118.058  -4.676 -56.281  1.00  0.00    -0.284 N 
HETATM   16  C6  UNL     1     116.983  -4.698 -55.597  1.00  0.00     0.157 C 
HETATM   17  N5  UNL     1     115.853  -4.009 -56.061  1.00  0.00    -0.079 NA
ATOM     18  H4  UNL     1     118.032  -4.143 -57.150  1.00  0.00     0.188 HD
BRANCH  16  19
HETATM   19  C7  UNL     1     116.948  -5.432 -54.361  1.00  0.00     0.077 A 
HETATM   20  C8  UNL     1     116.550  -6.759 -54.408  1.00  0.00     0.050 A 
HETATM   21  C9  UNL     1     116.484  -7.544 -53.275  1.00  0.00     0.091 A 
HETATM   22  N6  UNL     1     116.823  -6.966 -52.108  1.00  0.00    -0.362 N 
HETATM   23  C10 UNL     1     117.207  -5.674 -52.083  1.00  0.00     0.180 A 
ATOM     24  H6  UNL     1     116.790  -7.506 -51.243  1.00  0.00     0.165 HD
HETATM   25  N7  UNL     1     117.278  -4.898 -53.166  1.00  0.00    -0.350 N 
ATOM     26  H7  UNL     1     117.576  -3.926 -53.093  1.00  0.00     0.166 HD
ENDBRANCH  16  19
ENDBRANCH  11  15
TORSDOF 2
ENDMDL
MODEL 4
REMARK VINA RESULT: -7.253093374      1.786      6.212
REMARK  2 active torsions:
REMARK  status: ('A' for Active; 'I' for Inactive)
REMARK    1  A    between atoms: N3_11  and  N4_13 
REMARK    2  A    between atoms: C6_15  and  C7_17 
ROOT
HETATM    1  N1  UNL     1     117.595  -8.553 -52.187  1.00  0.00    -0.385 N 
ATOM      2  H11 UNL     1     118.085  -9.359 -52.573  1.00  0.00     0.157 HD
ATOM      3  H12 UNL     1     117.031  -8.529 -51.337  1.00  0.00     0.157 HD
HETATM    4  C1  UNL     1     117.697  -7.449 -52.836  1.00  0.00     0.101 C 
HETATM    5  C2  UNL     1     117.035  -6.358 -52.314  1.00  0.00     0.065 C 
HETATM    6  C3  UNL     1     116.985  -5.049 -52.786  1.00  0.00     0.091 C 
HETATM    7  N2  UNL     1     117.531  -4.600 -53.908  1.00  0.00    -0.372 N 
ATOM      8  H2  UNL     1     117.401  -3.600 -54.063  1.00  0.00     0.164 HD
HETATM    9  C4  UNL     1     118.227  -5.222 -54.885  1.00  0.00     0.137 C 
HETATM   10  C5  UNL     1     118.521  -6.555 -54.928  1.00  0.00     0.137 C 
HETATM   11  N3  UNL     1     118.928  -6.987 -56.054  1.00  0.00    -0.283 N 
ATOM     12  H3  UNL     1     119.168  -7.972 -56.166  1.00  0.00     0.188 HD
HETATM   13  N8  UNL     1     118.449  -7.480 -53.969  1.00  0.00    -0.327 N 
ATOM     14  H8  UNL     1     119.027  -8.310 -54.101  1.00  0.00     0.169 HD
ENDROOT
BRANCH  11  15
HETATM   15  N4  UNL     1     119.044  -6.125 -57.119  1.00  0.00    -0.284 N 
HETATM   16  C6  UNL     1     120.060  -5.955 -57.869  1.00  0.00     0.157 C 
HETATM   17  N5  UNL     1     120.000  -5.025 -58.917  1.00  0.00    -0.079 NA
ATOM     18  H4  UNL     1     118.224  -5.556 -57.331  1.00  0.00     0.188 HD
BRANCH  16  19
HETATM   19  C7  UNL     1     121.252  -6.722 -57.625  1.00  0.00     0.077 A 
HETATM   20  C8  UNL     1     122.326  -6.076 -57.033  1.00  0.00     0.050 A 
HETATM   21  C9  UNL     1     123.512  -6.727 -56.761  1.00  0.00     0.091 A 
HETATM   22  N6  UNL     1     123.589  -8.028 -57.096  1.00  0.00    -0.362 N 
HETATM   23  C10 UNL     1     122.533  -8.638 -57.672  1.00  0.00     0.180 A 
ATOM     24  H6  UNL     1     124.445  -8.552 -56.915  1.00  0.00     0.165 HD
HETATM   25  N7  UNL     1     121.379  -8.028 -57.943  1.00  0.00    -0.350 N 
ATOM     26  H7  UNL     1     120.609  -8.536 -58.379  1.00  0.00     0.166 HD
ENDBRANCH  16  19
ENDBRANCH  11  15
TORSDOF 2
ENDMDL
MODEL 5
REMARK VINA RESULT: -7.224146665      1.231      1.563
REMARK  2 active torsions:
REMARK  status: ('A' for Active; 'I' for Inactive)
REMARK    1  A    between atoms: N3_11  and  N4_13 
REMARK    2  A    between atoms: C6_15  and  C7_17 
ROOT
HETATM    1  N1  UNL     1     123.343  -6.642 -56.528  1.00  0.00    -0.385 N 
ATOM      2  H11 UNL     1     123.170  -6.874 -55.550  1.00  0.00     0.157 HD
ATOM      3  H12 UNL     1     124.232  -6.704 -57.023  1.00  0.00     0.157 HD
HETATM    4  C1  UNL     1     122.336  -6.227 -57.209  1.00  0.00     0.101 C 
HETATM    5  C2  UNL     1     122.568  -5.913 -58.532  1.00  0.00     0.065 C 
HETATM    6  C3  UNL     1     121.675  -5.465 -59.501  1.00  0.00     0.091 C 
HETATM    7  N2  UNL     1     120.393  -5.179 -59.312  1.00  0.00    -0.372 N 
ATOM      8  H2  UNL     1     119.903  -4.888 -60.158  1.00  0.00     0.164 HD
HETATM    9  C4  UNL     1     119.617  -5.201 -58.207  1.00  0.00     0.137 C 
HETATM   10  C5  UNL     1     120.031  -5.536 -56.950  1.00  0.00     0.137 C 
HETATM   11  N3  UNL     1     119.232  -5.222 -56.010  1.00  0.00    -0.283 N 
ATOM     12  H3  UNL     1     119.471  -5.438 -55.042  1.00  0.00     0.188 HD
HETATM   13  N8  UNL     1     121.149  -6.144 -56.549  1.00  0.00    -0.327 N 
ATOM     14  H8  UNL     1     121.110  -6.602 -55.638  1.00  0.00     0.169 HD
ENDROOT
BRANCH  11  15
HETATM   15  N4  UNL     1     118.046  -4.590 -56.302  1.00  0.00    -0.284 N 
HETATM   16  C6  UNL     1     116.952  -4.662 -55.652  1.00  0.00     0.157 C 
HETATM   17  N5  UNL     1     115.832  -3.944 -56.098  1.00  0.00    -0.079 NA
ATOM     18  H4  UNL     1     118.041  -3.998 -57.132  1.00  0.00     0.188 HD
BRANCH  16  19
HETATM   19  C7  UNL     1     116.885  -5.481 -54.471  1.00  0.00     0.077 A 
HETATM   20  C8  UNL     1     117.234  -4.901 -53.262  1.00  0.00     0.050 A 
HETATM   21  C9  UNL     1     117.202  -5.606 -52.076  1.00  0.00     0.091 A 
HETATM   22  N6  UNL     1     116.816  -6.894 -52.138  1.00  0.00    -0.362 N 
HETATM   23  C10 UNL     1     116.481  -7.440 -53.325  1.00  0.00     0.180 A 
ATOM     24  H6  UNL     1     116.777  -7.457 -51.288  1.00  0.00     0.165 HD
HETATM   25  N7  UNL     1     116.504  -6.776 -54.481  1.00  0.00    -0.350 N 
ATOM     26  H7  UNL     1     116.240  -7.236 -55.352  1.00  0.00     0.166 HD
ENDBRANCH  16  19
ENDBRANCH  11  15
TORSDOF 2
ENDMDL
