MODEL 1
REMARK VINA RESULT: -8.092026476      0.000      0.000
REMARK  3 active torsions:
REMARK  status: ('A' for Active; 'I' for Inactive)
REMARK    1  A    between atoms: N1_1  and  C1_4 
REMARK    2  A    between atoms: C2_7  and  N3_8 
REMARK    3  A    between atoms: C5_13  and  C6_14 
ROOT
HETATM    1  C1  UNL     1     120.405  -7.958 -57.745  1.00  0.00     0.678 A 
HETATM    2  N2  UNL     1     119.581  -7.437 -56.821  1.00  0.00    -0.176 N 
ATOM      3  H2  UNL     1     119.297  -8.026 -56.037  1.00  0.00     0.186 HD
HETATM    4  C2  UNL     1     119.109  -6.171 -56.878  1.00  0.00     0.133 A 
HETATM    5  C8  UNL     1     119.494  -5.363 -57.947  1.00  0.00     0.095 A 
HETATM    6  C9  UNL     1     120.340  -5.936 -58.872  1.00  0.00     0.135 A 
HETATM    7  N6  UNL     1     120.743  -5.130 -59.968  1.00  0.00    -0.082 NA
HETATM    8  N7  UNL     1     120.791  -7.187 -58.793  1.00  0.00    -0.179 N 
ATOM      9  H7  UNL     1     121.417  -7.559 -59.507  1.00  0.00     0.185 HD
ENDROOT
BRANCH   4  10
HETATM   10  N3  UNL     1     118.241  -5.637 -55.896  1.00  0.00    -0.271 N 
HETATM   11  C3  UNL     1     117.699  -4.425 -56.106  1.00  0.00     0.119 A 
HETATM   12  C4  UNL     1     116.840  -3.837 -55.191  1.00  0.00     0.106 A 
HETATM   13  N4  UNL     1     116.561  -4.509 -54.085  1.00  0.00    -0.356 N 
HETATM   14  C5  UNL     1     117.097  -5.731 -53.853  1.00  0.00     0.167 A 
ATOM     15  H4  UNL     1     115.932  -4.099 -53.395  1.00  0.00     0.165 HD
HETATM   16  C7  UNL     1     117.955  -6.312 -54.775  1.00  0.00     0.285 A 
HETATM   17  O2  UNL     1     118.411  -7.437 -54.499  1.00  0.00    -0.265 OA
BRANCH  14  18
HETATM   18  C6  UNL     1     116.735  -6.390 -52.617  1.00  0.00     0.287 C 
HETATM   19  N5  UNL     1     117.585  -6.363 -51.480  1.00  0.00    -0.056 NA
HETATM   20  O1  UNL     1     115.634  -7.004 -52.552  1.00  0.00    -0.269 OA
ENDBRANCH  14  18
ENDBRANCH   4  10
BRANCH   1  21
HETATM   21  N1  UNL     1     120.801  -9.159 -57.615  1.00  0.00    -0.234 N 
ATOM     22  H12 UNL     1     120.149  -9.944 -57.617  1.00  0.00     0.174 HD
ATOM     23  H11 UNL     1     121.798  -9.344 -57.504  1.00  0.00     0.174 HD
ENDBRANCH   1  21
TORSDOF 3
ENDMDL
MODEL 2
REMARK VINA RESULT: -7.943983109      1.285      1.285
REMARK  3 active torsions:
REMARK  status: ('A' for Active; 'I' for Inactive)
REMARK    1  A    between atoms: N1_1  and  C1_4 
REMARK    2  A    between atoms: C2_7  and  N3_8 
REMARK    3  A    between atoms: C5_13  and  C6_14 
ROOT
HETATM    1  C1  UNL     1     121.564  -6.199 -57.338  1.00  0.00     0.678 A 
HETATM    2  N2  UNL     1     120.588  -6.050 -56.428  1.00  0.00    -0.176 N 
ATOM      3  H2  UNL     1     120.664  -6.559 -55.547  1.00  0.00     0.186 HD
HETATM    4  C2  UNL     1     119.508  -5.259 -56.622  1.00  0.00     0.133 A 
HETATM    5  C8  UNL     1     119.399  -4.562 -57.825  1.00  0.00     0.095 A 
HETATM    6  C9  UNL     1     120.423  -4.743 -58.730  1.00  0.00     0.135 A 
HETATM    7  N6  UNL     1     120.330  -4.042 -59.961  1.00  0.00    -0.082 NA
HETATM    8  N7  UNL     1     121.477  -5.529 -58.515  1.00  0.00    -0.179 N 
ATOM      9  H7  UNL     1     122.206  -5.624 -59.222  1.00  0.00     0.185 HD
ENDROOT
BRANCH   4  10
HETATM   10  N3  UNL     1     118.486  -5.113 -55.653  1.00  0.00    -0.271 N 
HETATM   11  C3  UNL     1     117.955  -3.894 -55.457  1.00  0.00     0.119 A 
HETATM   12  C4  UNL     1     116.952  -3.673 -54.527  1.00  0.00     0.106 A 
HETATM   13  N4  UNL     1     116.522  -4.709 -53.823  1.00  0.00    -0.356 N 
HETATM   14  C5  UNL     1     117.043  -5.945 -54.005  1.00  0.00     0.167 A 
ATOM     15  H4  UNL     1     115.785  -4.573 -53.132  1.00  0.00     0.165 HD
HETATM   16  C7  UNL     1     118.048  -6.157 -54.939  1.00  0.00     0.285 A 
HETATM   17  O2  UNL     1     118.481  -7.318 -55.055  1.00  0.00    -0.265 OA
BRANCH  14  18
HETATM   18  C6  UNL     1     116.511  -7.017 -53.192  1.00  0.00     0.287 C 
HETATM   19  N5  UNL     1     117.029  -7.302 -51.901  1.00  0.00    -0.056 NA
HETATM   20  O1  UNL     1     115.562  -7.713 -53.646  1.00  0.00    -0.269 OA
ENDBRANCH  14  18
ENDBRANCH   4  10
BRANCH   1  21
HETATM   21  N1  UNL     1     122.545  -6.964 -57.074  1.00  0.00    -0.234 N 
ATOM     22  H12 UNL     1     123.038  -6.918 -56.182  1.00  0.00     0.174 HD
ATOM     23  H11 UNL     1     122.848  -7.642 -57.773  1.00  0.00     0.174 HD
ENDBRANCH   1  21
TORSDOF 3
ENDMDL
MODEL 3
REMARK VINA RESULT: -7.630209892      1.463      1.754
REMARK  3 active torsions:
REMARK  status: ('A' for Active; 'I' for Inactive)
REMARK    1  A    between atoms: N1_1  and  C1_4 
REMARK    2  A    between atoms: C2_7  and  N3_8 
REMARK    3  A    between atoms: C5_13  and  C6_14 
ROOT
HETATM    1  C1  UNL     1     121.794  -6.785 -57.063  1.00  0.00     0.678 A 
HETATM    2  N2  UNL     1     120.757  -6.203 -56.439  1.00  0.00    -0.176 N 
ATOM      3  H2  UNL     1     120.950  -5.581 -55.654  1.00  0.00     0.186 HD
HETATM    4  C2  UNL     1     119.468  -6.402 -56.801  1.00  0.00     0.133 A 
HETATM    5  C8  UNL     1     119.200  -7.251 -57.874  1.00  0.00     0.095 A 
HETATM    6  C9  UNL     1     120.293  -7.826 -58.485  1.00  0.00     0.135 A 
HETATM    7  N6  UNL     1     120.041  -8.694 -59.580  1.00  0.00    -0.082 NA
HETATM    8  N7  UNL     1     121.553  -7.614 -58.110  1.00  0.00    -0.179 N 
ATOM      9  H7  UNL     1     122.324  -8.067 -58.601  1.00  0.00     0.185 HD
ENDROOT
BRANCH   4  10
HETATM   10  N3  UNL     1     118.385  -5.782 -56.133  1.00  0.00    -0.271 N 
HETATM   11  C3  UNL     1     117.738  -4.779 -56.750  1.00  0.00     0.119 A 
HETATM   12  C4  UNL     1     116.668  -4.124 -56.160  1.00  0.00     0.106 A 
HETATM   13  N4  UNL     1     116.294  -4.516 -54.952  1.00  0.00    -0.356 N 
HETATM   14  C5  UNL     1     116.933  -5.524 -54.312  1.00  0.00     0.167 A 
ATOM     15  H4  UNL     1     115.510  -4.051 -54.495  1.00  0.00     0.165 HD
HETATM   16  C7  UNL     1     118.002  -6.174 -54.911  1.00  0.00     0.285 A 
HETATM   17  O2  UNL     1     118.544  -7.092 -54.268  1.00  0.00    -0.265 OA
BRANCH  14  18
HETATM   18  C6  UNL     1     116.453  -5.885 -52.995  1.00  0.00     0.287 C 
HETATM   19  N5  UNL     1     115.780  -7.112 -52.756  1.00  0.00    -0.056 NA
HETATM   20  O1  UNL     1     116.641  -5.084 -52.038  1.00  0.00    -0.269 OA
ENDBRANCH  14  18
ENDBRANCH   4  10
BRANCH   1  21
HETATM   21  N1  UNL     1     122.975  -6.543 -56.658  1.00  0.00    -0.234 N 
ATOM     22  H12 UNL     1     123.173  -6.318 -55.682  1.00  0.00     0.174 HD
ATOM     23  H11 UNL     1     123.745  -6.575 -57.325  1.00  0.00     0.174 HD
ENDBRANCH   1  21
TORSDOF 3
ENDMDL
MODEL 4
REMARK VINA RESULT: -7.482296579      2.414      3.277
REMARK  3 active torsions:
REMARK  status: ('A' for Active; 'I' for Inactive)
REMARK    1  A    between atoms: N1_1  and  C1_4 
REMARK    2  A    between atoms: C2_7  and  N3_8 
REMARK    3  A    between atoms: C5_13  and  C6_14 
ROOT
HETATM    1  C1  UNL     1     120.896  -2.008 -57.441  1.00  0.00     0.678 A 
HETATM    2  N2  UNL     1     119.795  -2.413 -56.787  1.00  0.00    -0.176 N 
ATOM      3  H2  UNL     1     119.521  -1.912 -55.941  1.00  0.00     0.186 HD
HETATM    4  C2  UNL     1     119.031  -3.453 -57.193  1.00  0.00     0.133 A 
HETATM    5  C8  UNL     1     119.402  -4.141 -58.348  1.00  0.00     0.095 A 
HETATM    6  C9  UNL     1     120.537  -3.693 -58.988  1.00  0.00     0.135 A 
HETATM    7  N6  UNL     1     120.931  -4.380 -60.166  1.00  0.00    -0.082 NA
HETATM    8  N7  UNL     1     121.272  -2.664 -58.567  1.00  0.00    -0.179 N 
ATOM      9  H7  UNL     1     122.103  -2.375 -59.083  1.00  0.00     0.185 HD
ENDROOT
BRANCH   4  10
HETATM   10  N3  UNL     1     117.874  -3.868 -56.492  1.00  0.00    -0.271 N 
HETATM   11  C3  UNL     1     116.670  -3.514 -56.971  1.00  0.00     0.119 A 
HETATM   12  C4  UNL     1     115.492  -3.883 -56.340  1.00  0.00     0.106 A 
HETATM   13  N4  UNL     1     115.584  -4.606 -55.235  1.00  0.00    -0.356 N 
HETATM   14  C5  UNL     1     116.787  -4.973 -54.735  1.00  0.00     0.167 A 
ATOM     15  H4  UNL     1     114.732  -4.890 -54.751  1.00  0.00     0.165 HD
HETATM   16  C7  UNL     1     117.961  -4.599 -55.373  1.00  0.00     0.285 A 
HETATM   17  O2  UNL     1     119.032  -4.971 -54.860  1.00  0.00    -0.265 OA
BRANCH  14  18
HETATM   18  C6  UNL     1     116.789  -5.763 -53.522  1.00  0.00     0.287 C 
HETATM   19  N5  UNL     1     116.756  -5.158 -52.238  1.00  0.00    -0.056 NA
HETATM   20  O1  UNL     1     116.822  -7.021 -53.613  1.00  0.00    -0.269 OA
ENDBRANCH  14  18
ENDBRANCH   4  10
BRANCH   1  21
HETATM   21  N1  UNL     1     121.556  -1.020 -56.989  1.00  0.00    -0.234 N 
ATOM     22  H12 UNL     1     121.259  -0.056 -57.147  1.00  0.00     0.174 HD
ATOM     23  H11 UNL     1     122.406  -1.194 -56.453  1.00  0.00     0.174 HD
ENDBRANCH   1  21
TORSDOF 3
ENDMDL
MODEL 5
REMARK VINA RESULT: -7.374508275      1.842      2.349
REMARK  3 active torsions:
REMARK  status: ('A' for Active; 'I' for Inactive)
REMARK    1  A    between atoms: N1_1  and  C1_4 
REMARK    2  A    between atoms: C2_7  and  N3_8 
REMARK    3  A    between atoms: C5_13  and  C6_14 
ROOT
HETATM    1  C1  UNL     1     120.303  -4.930 -58.718  1.00  0.00     0.678 A 
HETATM    2  N2  UNL     1     119.453  -5.191 -57.712  1.00  0.00    -0.176 N 
ATOM      3  H2  UNL     1     118.997  -6.104 -57.686  1.00  0.00     0.186 HD
HETATM    4  C2  UNL     1     119.173  -4.304 -56.729  1.00  0.00     0.133 A 
HETATM    5  C8  UNL     1     119.794  -3.056 -56.761  1.00  0.00     0.095 A 
HETATM    6  C9  UNL     1     120.658  -2.830 -57.810  1.00  0.00     0.135 A 
HETATM    7  N6  UNL     1     121.300  -1.566 -57.859  1.00  0.00    -0.082 NA
HETATM    8  N7  UNL     1     120.918  -3.721 -58.765  1.00  0.00    -0.179 N 
ATOM      9  H7  UNL     1     121.568  -3.499 -59.519  1.00  0.00     0.185 HD
ENDROOT
BRANCH   4  10
HETATM   10  N3  UNL     1     118.274  -4.595 -55.675  1.00  0.00    -0.271 N 
HETATM   11  C3  UNL     1     117.614  -3.579 -55.094  1.00  0.00     0.119 A 
HETATM   12  C4  UNL     1     116.718  -3.784 -54.057  1.00  0.00     0.106 A 
HETATM   13  N4  UNL     1     116.525  -5.027 -53.644  1.00  0.00    -0.356 N 
HETATM   14  C5  UNL     1     117.180  -6.065 -54.216  1.00  0.00     0.167 A 
ATOM     15  H4  UNL     1     115.871  -5.206 -52.882  1.00  0.00     0.165 HD
HETATM   16  C7  UNL     1     118.075  -5.850 -55.254  1.00  0.00     0.285 A 
HETATM   17  O2  UNL     1     118.642  -6.849 -55.733  1.00  0.00    -0.265 OA
BRANCH  14  18
HETATM   18  C6  UNL     1     116.905  -7.389 -53.699  1.00  0.00     0.287 C 
HETATM   19  N5  UNL     1     117.872  -8.116 -52.956  1.00  0.00    -0.056 NA
HETATM   20  O1  UNL     1     115.775  -7.906 -53.917  1.00  0.00    -0.269 OA
ENDBRANCH  14  18
ENDBRANCH   4  10
BRANCH   1  21
HETATM   21  N1  UNL     1     120.510  -5.822 -59.601  1.00  0.00    -0.234 N 
ATOM     22  H12 UNL     1     120.710  -6.791 -59.351  1.00  0.00     0.174 HD
ATOM     23  H11 UNL     1     120.474  -5.562 -60.587  1.00  0.00     0.174 HD
ENDBRANCH   1  21
TORSDOF 3
ENDMDL
