MODEL 1
REMARK VINA RESULT: -7.526491702      0.000      0.000
REMARK  3 active torsions:
REMARK  status: ('A' for Active; 'I' for Inactive)
REMARK    1  A    between atoms: N1_1  and  C1_4 
REMARK    2  A    between atoms: C2_7  and  N3_8 
REMARK    3  A    between atoms: C4_10  and  C5_11 
ROOT
HETATM    1  N3  UNL     1     119.085  -5.561 -55.848  1.00  0.00    -0.280 N 
HETATM    2  C3  UNL     1     118.552  -6.103 -54.742  1.00  0.00     0.123 A 
HETATM    3  C4  UNL     1     117.873  -5.388 -53.796  1.00  0.00     0.113 A 
HETATM    4  C6  UNL     1     117.750  -4.032 -54.027  1.00  0.00     0.264 A 
HETATM    5  O2  UNL     1     117.133  -3.324 -53.185  1.00  0.00    -0.267 OA
HETATM    6  N5  UNL     1     118.286  -3.523 -55.126  1.00  0.00    -0.296 N 
ATOM      7  H5  UNL     1     118.191  -2.521 -55.289  1.00  0.00     0.171 HD
HETATM    8  C7  UNL     1     118.949  -4.255 -56.040  1.00  0.00     0.203 A 
HETATM    9  N6  UNL     1     119.484  -3.589 -57.187  1.00  0.00    -0.062 NA
ENDROOT
BRANCH   1  10
HETATM   10  C2  UNL     1     119.780  -6.365 -56.794  1.00  0.00     0.131 A 
HETATM   11  N2  UNL     1     121.136  -6.339 -56.892  1.00  0.00    -0.176 N 
HETATM   12  C1  UNL     1     121.799  -7.094 -57.783  1.00  0.00     0.677 A 
ATOM     13  H2  UNL     1     121.665  -5.727 -56.270  1.00  0.00     0.186 HD
HETATM   14  N7  UNL     1     121.155  -7.918 -58.625  1.00  0.00    -0.202 N 
HETATM   15  C9  UNL     1     119.808  -7.990 -58.579  1.00  0.00     0.110 A 
ATOM     16  H7  UNL     1     121.678  -8.483 -59.294  1.00  0.00     0.183 HD
HETATM   17  C8  UNL     1     119.122  -7.210 -57.659  1.00  0.00     0.067 A 
BRANCH  12  18
HETATM   18  N1  UNL     1     123.082  -7.047 -57.850  1.00  0.00    -0.234 N 
ATOM     19  H12 UNL     1     123.571  -6.430 -57.202  1.00  0.00     0.174 HD
ATOM     20  H11 UNL     1     123.585  -7.612 -58.535  1.00  0.00     0.174 HD
ENDBRANCH  12  18
ENDBRANCH   1  10
BRANCH   3  21
HETATM   21  C5  UNL     1     117.305  -5.996 -52.609  1.00  0.00     0.271 C 
HETATM   22  N4  UNL     1     116.016  -6.588 -52.664  1.00  0.00    -0.057 NA
HETATM   23  O1  UNL     1     117.949  -6.001 -51.536  1.00  0.00    -0.271 OA
ENDBRANCH   3  21
TORSDOF 3
ENDMDL
MODEL 2
REMARK VINA RESULT: -7.247905467      0.939      1.146
REMARK  3 active torsions:
REMARK  status: ('A' for Active; 'I' for Inactive)
REMARK    1  A    between atoms: N1_1  and  C1_4 
REMARK    2  A    between atoms: C2_7  and  N3_8 
REMARK    3  A    between atoms: C4_10  and  C5_11 
ROOT
HETATM    1  N3  UNL     1     118.999  -5.424 -55.871  1.00  0.00    -0.280 N 
HETATM    2  C3  UNL     1     118.491  -6.046 -54.794  1.00  0.00     0.123 A 
HETATM    3  C4  UNL     1     117.882  -5.396 -53.758  1.00  0.00     0.113 A 
HETATM    4  C6  UNL     1     117.804  -4.021 -53.860  1.00  0.00     0.264 A 
HETATM    5  O2  UNL     1     117.252  -3.371 -52.931  1.00  0.00    -0.267 OA
HETATM    6  N5  UNL     1     118.313  -3.433 -54.932  1.00  0.00    -0.296 N 
ATOM      7  H5  UNL     1     118.251  -2.417 -54.999  1.00  0.00     0.171 HD
HETATM    8  C7  UNL     1     118.907  -4.101 -55.938  1.00  0.00     0.203 A 
HETATM    9  N6  UNL     1     119.419  -3.353 -57.044  1.00  0.00    -0.062 NA
ENDROOT
BRANCH   1  10
HETATM   10  C2  UNL     1     119.621  -6.162 -56.916  1.00  0.00     0.131 A 
HETATM   11  N2  UNL     1     119.969  -7.466 -56.758  1.00  0.00    -0.176 N 
HETATM   12  C1  UNL     1     120.557  -8.169 -57.740  1.00  0.00     0.677 A 
ATOM     13  H2  UNL     1     119.779  -7.925 -55.866  1.00  0.00     0.186 HD
HETATM   14  N7  UNL     1     120.830  -7.618 -58.934  1.00  0.00    -0.202 N 
HETATM   15  C9  UNL     1     120.509  -6.326 -59.155  1.00  0.00     0.110 A 
ATOM     16  H7  UNL     1     121.277  -8.170 -59.665  1.00  0.00     0.183 HD
HETATM   17  C8  UNL     1     119.902  -5.599 -58.141  1.00  0.00     0.067 A 
BRANCH  12  18
HETATM   18  N1  UNL     1     120.874  -9.402 -57.559  1.00  0.00    -0.234 N 
ATOM     19  H12 UNL     1     120.907 -10.011 -58.376  1.00  0.00     0.174 HD
ATOM     20  H11 UNL     1     121.083  -9.749 -56.623  1.00  0.00     0.174 HD
ENDBRANCH  12  18
ENDBRANCH   1  10
BRANCH   3  21
HETATM   21  C5  UNL     1     117.341  -6.090 -52.606  1.00  0.00     0.271 C 
HETATM   22  N4  UNL     1     116.025  -6.619 -52.651  1.00  0.00    -0.057 NA
HETATM   23  O1  UNL     1     118.032  -6.224 -51.571  1.00  0.00    -0.271 OA
ENDBRANCH   3  21
TORSDOF 3
ENDMDL
MODEL 3
REMARK VINA RESULT: -7.169196276      1.904      2.215
REMARK  3 active torsions:
REMARK  status: ('A' for Active; 'I' for Inactive)
REMARK    1  A    between atoms: N1_1  and  C1_4 
REMARK    2  A    between atoms: C2_7  and  N3_8 
REMARK    3  A    between atoms: C4_10  and  C5_11 
ROOT
HETATM    1  N3  UNL     1     119.529  -4.971 -56.591  1.00  0.00    -0.280 N 
HETATM    2  C3  UNL     1     118.905  -5.935 -55.894  1.00  0.00     0.123 A 
HETATM    3  C4  UNL     1     117.978  -5.691 -54.921  1.00  0.00     0.113 A 
HETATM    4  C6  UNL     1     117.693  -4.364 -54.666  1.00  0.00     0.264 A 
HETATM    5  O2  UNL     1     116.845  -4.082 -53.776  1.00  0.00    -0.267 OA
HETATM    6  N5  UNL     1     118.323  -3.433 -55.367  1.00  0.00    -0.296 N 
ATOM      7  H5  UNL     1     118.107  -2.455 -55.172  1.00  0.00     0.171 HD
HETATM    8  C7  UNL     1     119.232  -3.705 -56.321  1.00  0.00     0.203 A 
HETATM    9  N6  UNL     1     119.844  -2.611 -57.009  1.00  0.00    -0.062 NA
ENDROOT
BRANCH   1  10
HETATM   10  C2  UNL     1     120.484  -5.294 -57.593  1.00  0.00     0.131 A 
HETATM   11  N2  UNL     1     120.351  -4.854 -58.872  1.00  0.00    -0.176 N 
HETATM   12  C1  UNL     1     121.249  -5.156 -59.825  1.00  0.00     0.677 A 
ATOM     13  H2  UNL     1     119.545  -4.278 -59.117  1.00  0.00     0.186 HD
HETATM   14  N7  UNL     1     122.329  -5.909 -59.561  1.00  0.00    -0.202 N 
HETATM   15  C9  UNL     1     122.519  -6.377 -58.309  1.00  0.00     0.110 A 
ATOM     16  H7  UNL     1     122.999  -6.126 -60.299  1.00  0.00     0.183 HD
HETATM   17  C8  UNL     1     121.592  -6.066 -57.325  1.00  0.00     0.067 A 
BRANCH  12  18
HETATM   18  N1  UNL     1     121.095  -4.724 -61.026  1.00  0.00    -0.234 N 
ATOM     19  H12 UNL     1     120.155  -4.464 -61.322  1.00  0.00     0.174 HD
ATOM     20  H11 UNL     1     121.895  -4.650 -61.655  1.00  0.00     0.174 HD
ENDBRANCH  12  18
ENDBRANCH   1  10
BRANCH   3  21
HETATM   21  C5  UNL     1     117.318  -6.750 -54.183  1.00  0.00     0.271 C 
HETATM   22  N4  UNL     1     118.074  -7.602 -53.337  1.00  0.00    -0.057 NA
HETATM   23  O1  UNL     1     116.082  -6.914 -54.290  1.00  0.00    -0.271 OA
ENDBRANCH   3  21
TORSDOF 3
ENDMDL
MODEL 4
REMARK VINA RESULT: -7.078787361      1.197      1.649
REMARK  3 active torsions:
REMARK  status: ('A' for Active; 'I' for Inactive)
REMARK    1  A    between atoms: N1_1  and  C1_4 
REMARK    2  A    between atoms: C2_7  and  N3_8 
REMARK    3  A    between atoms: C4_10  and  C5_11 
ROOT
HETATM    1  N3  UNL     1     119.052  -5.295 -56.105  1.00  0.00    -0.280 N 
HETATM    2  C3  UNL     1     118.493  -5.621 -54.928  1.00  0.00     0.123 A 
HETATM    3  C4  UNL     1     117.486  -4.908 -54.342  1.00  0.00     0.113 A 
HETATM    4  C6  UNL     1     117.045  -3.794 -55.030  1.00  0.00     0.264 A 
HETATM    5  O2  UNL     1     116.118  -3.099 -54.532  1.00  0.00    -0.267 OA
HETATM    6  N5  UNL     1     117.614  -3.495 -56.187  1.00  0.00    -0.296 N 
ATOM      7  H5  UNL     1     117.283  -2.671 -56.688  1.00  0.00     0.171 HD
HETATM    8  C7  UNL     1     118.605  -4.219 -56.740  1.00  0.00     0.203 A 
HETATM    9  N6  UNL     1     119.139  -3.793 -57.997  1.00  0.00    -0.062 NA
ENDROOT
BRANCH   1  10
HETATM   10  C2  UNL     1     120.098  -6.083 -56.661  1.00  0.00     0.131 A 
HETATM   11  N2  UNL     1     119.935  -7.409 -56.913  1.00  0.00    -0.176 N 
HETATM   12  C1  UNL     1     120.918  -8.159 -57.437  1.00  0.00     0.677 A 
ATOM     13  H2  UNL     1     119.039  -7.847 -56.697  1.00  0.00     0.186 HD
HETATM   14  N7  UNL     1     122.117  -7.636 -57.741  1.00  0.00    -0.202 N 
HETATM   15  C9  UNL     1     122.343  -6.325 -57.515  1.00  0.00     0.110 A 
ATOM     16  H7  UNL     1     122.849  -8.223 -58.138  1.00  0.00     0.183 HD
HETATM   17  C8  UNL     1     121.328  -5.549 -56.973  1.00  0.00     0.067 A 
BRANCH  12  18
HETATM   18  N1  UNL     1     120.732  -9.410 -57.664  1.00  0.00    -0.234 N 
ATOM     19  H12 UNL     1     121.195  -9.823 -58.474  1.00  0.00     0.174 HD
ATOM     20  H11 UNL     1     120.137  -9.965 -57.048  1.00  0.00     0.174 HD
ENDBRANCH  12  18
ENDBRANCH   1  10
BRANCH   3  21
HETATM   21  C5  UNL     1     116.898  -5.280 -53.071  1.00  0.00     0.271 C 
HETATM   22  N4  UNL     1     116.149  -6.481 -52.960  1.00  0.00    -0.057 NA
HETATM   23  O1  UNL     1     117.049  -4.545 -52.069  1.00  0.00    -0.271 OA
ENDBRANCH   3  21
TORSDOF 3
ENDMDL
MODEL 5
REMARK VINA RESULT: -7.032190802      3.578      6.462
REMARK  3 active torsions:
REMARK  status: ('A' for Active; 'I' for Inactive)
REMARK    1  A    between atoms: N1_1  and  C1_4 
REMARK    2  A    between atoms: C2_7  and  N3_8 
REMARK    3  A    between atoms: C4_10  and  C5_11 
ROOT
HETATM    1  N3  UNL     1     118.967  -4.924 -57.393  1.00  0.00    -0.280 N 
HETATM    2  C3  UNL     1     119.478  -4.205 -58.405  1.00  0.00     0.123 A 
HETATM    3  C4  UNL     1     120.303  -4.722 -59.364  1.00  0.00     0.113 A 
HETATM    4  C6  UNL     1     120.605  -6.065 -59.251  1.00  0.00     0.264 A 
HETATM    5  O2  UNL     1     121.364  -6.593 -60.109  1.00  0.00    -0.267 OA
HETATM    6  N5  UNL     1     120.088  -6.751 -58.243  1.00  0.00    -0.296 N 
ATOM      7  H5  UNL     1     120.317  -7.742 -58.167  1.00  0.00     0.171 HD
HETATM    8  C7  UNL     1     119.277  -6.213 -57.313  1.00  0.00     0.203 A 
HETATM    9  N6  UNL     1     118.781  -7.058 -56.272  1.00  0.00    -0.062 NA
ENDROOT
BRANCH   1  10
HETATM   10  C2  UNL     1     118.113  -4.324 -56.427  1.00  0.00     0.131 A 
HETATM   11  N2  UNL     1     118.510  -4.140 -55.140  1.00  0.00    -0.176 N 
HETATM   12  C1  UNL     1     117.708  -3.574 -54.223  1.00  0.00     0.677 A 
ATOM     13  H2  UNL     1     119.445  -4.441 -54.863  1.00  0.00     0.186 HD
HETATM   14  N7  UNL     1     116.470  -3.157 -54.531  1.00  0.00    -0.202 N 
HETATM   15  C9  UNL     1     116.015  -3.311 -55.792  1.00  0.00     0.110 A 
ATOM     16  H7  UNL     1     115.878  -2.730 -53.819  1.00  0.00     0.183 HD
HETATM   17  C8  UNL     1     116.842  -3.896 -56.741  1.00  0.00     0.067 A 
BRANCH  12  18
HETATM   18  N1  UNL     1     118.114  -3.414 -53.014  1.00  0.00    -0.234 N 
ATOM     19  H12 UNL     1     119.096  -3.183 -52.866  1.00  0.00     0.174 HD
ATOM     20  H11 UNL     1     117.465  -3.518 -52.233  1.00  0.00     0.174 HD
ENDBRANCH  12  18
ENDBRANCH   1  10
BRANCH   3  21
HETATM   21  C5  UNL     1     120.843  -3.925 -60.447  1.00  0.00     0.271 C 
HETATM   22  N4  UNL     1     121.243  -4.552 -61.656  1.00  0.00    -0.057 NA
HETATM   23  O1  UNL     1     120.957  -2.685 -60.320  1.00  0.00    -0.271 OA
ENDBRANCH   3  21
TORSDOF 3
ENDMDL
