MODEL 1
REMARK VINA RESULT: -7.174738660      0.000      0.000
REMARK  2 active torsions:
REMARK  status: ('A' for Active; 'I' for Inactive)
REMARK    1  A    between atoms: O1_2  and  C2_3 
REMARK    2  A    between atoms: C3_4  and  N1_5 
ROOT
HETATM    1  N1  UNL     1     119.085  -5.523 -57.225  1.00  0.00    -0.257 N 
HETATM    2  C4  UNL     1     118.344  -4.577 -56.562  1.00  0.00     0.161 A 
HETATM    3  N2  UNL     1     118.224  -3.219 -56.959  1.00  0.00    -0.079 NA
HETATM    4  C5  UNL     1     117.759  -5.178 -55.474  1.00  0.00     0.171 A 
HETATM    5  C6  UNL     1     116.916  -4.736 -54.455  1.00  0.00     0.280 A 
HETATM    6  O2  UNL     1     116.572  -3.527 -54.469  1.00  0.00    -0.265 OA
HETATM    7  N3  UNL     1     116.488  -5.576 -53.493  1.00  0.00    -0.297 N 
ATOM      8  H3  UNL     1     115.872  -5.236 -52.755  1.00  0.00     0.171 HD
HETATM    9  C7  UNL     1     116.876  -6.863 -53.508  1.00  0.00     0.194 A 
HETATM   10  S1  UNL     1     116.349  -7.887 -52.326  1.00  0.00    -0.039 SA
HETATM   11  N4  UNL     1     117.688  -7.295 -54.488  1.00  0.00    -0.265 N 
ATOM     12  H4  UNL     1     117.983  -8.271 -54.500  1.00  0.00     0.190 HD
HETATM   13  N5  UNL     1     118.116  -6.470 -55.444  1.00  0.00    -0.194 N 
HETATM   14  C8  UNL     1     118.923  -6.647 -56.523  1.00  0.00     0.354 A 
HETATM   15  O3  UNL     1     119.438  -7.775 -56.787  1.00  0.00    -0.244 OA
ENDROOT
BRANCH   1  16
HETATM   16  C3  UNL     1     119.826  -5.249 -58.401  1.00  0.00     0.127 C 
HETATM   17  C2  UNL     1     121.115  -5.441 -58.517  1.00  0.00     0.151 C 
BRANCH  17  18
HETATM   18  O1  UNL     1     121.758  -5.138 -59.723  1.00  0.00    -0.366 OA
HETATM   19  C1  UNL     1     120.999  -4.441 -60.689  1.00  0.00     0.209 C 
ENDBRANCH  17  18
ENDBRANCH   1  16
TORSDOF 2
ENDMDL
MODEL 2
REMARK VINA RESULT: -6.895354546      2.991      6.078
REMARK  2 active torsions:
REMARK  status: ('A' for Active; 'I' for Inactive)
REMARK    1  A    between atoms: O1_2  and  C2_3 
REMARK    2  A    between atoms: C3_4  and  N1_5 
ROOT
HETATM    1  N1  UNL     1     117.558  -5.609 -55.040  1.00  0.00    -0.257 N 
HETATM    2  C4  UNL     1     118.506  -6.168 -55.860  1.00  0.00     0.161 A 
HETATM    3  N2  UNL     1     118.620  -7.555 -56.137  1.00  0.00    -0.079 NA
HETATM    4  C5  UNL     1     119.300  -5.157 -56.345  1.00  0.00     0.171 A 
HETATM    5  C6  UNL     1     120.400  -5.109 -57.201  1.00  0.00     0.280 A 
HETATM    6  O2  UNL     1     120.815  -6.198 -57.674  1.00  0.00    -0.265 OA
HETATM    7  N3  UNL     1     120.993  -3.940 -57.508  1.00  0.00    -0.297 N 
ATOM      8  H3  UNL     1     121.796  -3.923 -58.136  1.00  0.00     0.171 HD
HETATM    9  C7  UNL     1     120.522  -2.794 -56.984  1.00  0.00     0.194 A 
HETATM   10  S1  UNL     1     121.253  -1.364 -57.364  1.00  0.00    -0.039 SA
HETATM   11  N4  UNL     1     119.463  -2.834 -56.159  1.00  0.00    -0.265 N 
ATOM     12  H4  UNL     1     119.106  -1.966 -55.761  1.00  0.00     0.190 HD
HETATM   13  N5  UNL     1     118.871  -3.988 -55.850  1.00  0.00    -0.194 N 
HETATM   14  C8  UNL     1     117.809  -4.297 -55.060  1.00  0.00     0.354 A 
HETATM   15  O3  UNL     1     117.166  -3.403 -54.434  1.00  0.00    -0.244 OA
ENDROOT
BRANCH   1  16
HETATM   16  C3  UNL     1     116.567  -6.365 -54.366  1.00  0.00     0.127 C 
HETATM   17  C2  UNL     1     116.594  -6.635 -53.087  1.00  0.00     0.151 C 
BRANCH  17  18
HETATM   18  O1  UNL     1     115.565  -7.393 -52.513  1.00  0.00    -0.366 OA
HETATM   19  C1  UNL     1     115.944  -8.591 -51.870  1.00  0.00     0.209 C 
ENDBRANCH  17  18
ENDBRANCH   1  16
TORSDOF 2
ENDMDL
MODEL 3
REMARK VINA RESULT: -6.589229132      3.209      5.635
REMARK  2 active torsions:
REMARK  status: ('A' for Active; 'I' for Inactive)
REMARK    1  A    between atoms: O1_2  and  C2_3 
REMARK    2  A    between atoms: C3_4  and  N1_5 
ROOT
HETATM    1  N1  UNL     1     118.526  -6.163 -55.771  1.00  0.00    -0.257 N 
HETATM    2  C4  UNL     1     118.841  -4.830 -55.855  1.00  0.00     0.161 A 
HETATM    3  N2  UNL     1     118.547  -3.865 -54.856  1.00  0.00    -0.079 NA
HETATM    4  C5  UNL     1     119.475  -4.616 -57.055  1.00  0.00     0.171 A 
HETATM    5  C6  UNL     1     120.014  -3.495 -57.683  1.00  0.00     0.280 A 
HETATM    6  O2  UNL     1     119.941  -2.396 -57.075  1.00  0.00    -0.265 OA
HETATM    7  N3  UNL     1     120.593  -3.587 -58.896  1.00  0.00    -0.297 N 
ATOM      8  H3  UNL     1     120.982  -2.756 -59.341  1.00  0.00     0.171 HD
HETATM    9  C7  UNL     1     120.655  -4.777 -59.518  1.00  0.00     0.194 A 
HETATM   10  S1  UNL     1     121.364  -4.884 -61.003  1.00  0.00    -0.039 SA
HETATM   11  N4  UNL     1     120.136  -5.862 -58.917  1.00  0.00    -0.265 N 
ATOM     12  H4  UNL     1     120.182  -6.765 -59.388  1.00  0.00     0.190 HD
HETATM   13  N5  UNL     1     119.562  -5.778 -57.716  1.00  0.00    -0.194 N 
HETATM   14  C8  UNL     1     118.975  -6.700 -56.908  1.00  0.00     0.354 A 
HETATM   15  O3  UNL     1     118.891  -7.918 -57.245  1.00  0.00    -0.244 OA
ENDROOT
BRANCH   1  16
HETATM   16  C3  UNL     1     117.861  -6.739 -54.660  1.00  0.00     0.127 C 
HETATM   17  C2  UNL     1     116.586  -6.594 -54.411  1.00  0.00     0.151 C 
BRANCH  17  18
HETATM   18  O1  UNL     1     116.022  -7.203 -53.284  1.00  0.00    -0.366 OA
HETATM   19  C1  UNL     1     116.893  -7.958 -52.469  1.00  0.00     0.209 C 
ENDBRANCH  17  18
ENDBRANCH   1  16
TORSDOF 2
ENDMDL
MODEL 4
REMARK VINA RESULT: -6.220488710      2.154      3.372
REMARK  2 active torsions:
REMARK  status: ('A' for Active; 'I' for Inactive)
REMARK    1  A    between atoms: O1_2  and  C2_3 
REMARK    2  A    between atoms: C3_4  and  N1_5 
ROOT
HETATM    1  N1  UNL     1     120.428  -4.232 -58.420  1.00  0.00    -0.257 N 
HETATM    2  C4  UNL     1     119.972  -5.459 -58.008  1.00  0.00     0.161 A 
HETATM    3  N2  UNL     1     120.168  -6.674 -58.714  1.00  0.00    -0.079 NA
HETATM    4  C5  UNL     1     119.308  -5.289 -56.816  1.00  0.00     0.171 A 
HETATM    5  C6  UNL     1     118.648  -6.149 -55.941  1.00  0.00     0.280 A 
HETATM    6  O2  UNL     1     118.608  -7.369 -56.243  1.00  0.00    -0.265 OA
HETATM    7  N3  UNL     1     118.074  -5.688 -54.813  1.00  0.00    -0.297 N 
ATOM      8  H3  UNL     1     117.595  -6.331 -54.183  1.00  0.00     0.171 HD
HETATM    9  C7  UNL     1     118.135  -4.377 -54.520  1.00  0.00     0.194 A 
HETATM   10  S1  UNL     1     117.430  -3.818 -53.137  1.00  0.00    -0.039 SA
HETATM   11  N4  UNL     1     118.771  -3.544 -55.361  1.00  0.00    -0.265 N 
ATOM     12  H4  UNL     1     118.817  -2.549 -55.139  1.00  0.00     0.190 HD
HETATM   13  N5  UNL     1     119.341  -3.993 -56.479  1.00  0.00    -0.194 N 
HETATM   14  C8  UNL     1     120.029  -3.376 -57.475  1.00  0.00     0.354 A 
HETATM   15  O3  UNL     1     120.240  -2.127 -57.460  1.00  0.00    -0.244 OA
ENDROOT
BRANCH   1  16
HETATM   16  C3  UNL     1     121.159  -4.034 -59.617  1.00  0.00     0.127 C 
HETATM   17  C2  UNL     1     120.620  -3.700 -60.761  1.00  0.00     0.151 C 
BRANCH  17  18
HETATM   18  O1  UNL     1     121.430  -3.528 -61.890  1.00  0.00    -0.366 OA
HETATM   19  C1  UNL     1     121.470  -2.232 -62.450  1.00  0.00     0.209 C 
ENDBRANCH  17  18
ENDBRANCH   1  16
TORSDOF 2
ENDMDL
MODEL 5
REMARK VINA RESULT: -6.168208750      3.430      6.313
REMARK  2 active torsions:
REMARK  status: ('A' for Active; 'I' for Inactive)
REMARK    1  A    between atoms: O1_2  and  C2_3 
REMARK    2  A    between atoms: C3_4  and  N1_5 
ROOT
HETATM    1  N1  UNL     1     119.161  -4.810 -56.414  1.00  0.00    -0.257 N 
HETATM    2  C4  UNL     1     119.391  -6.040 -56.976  1.00  0.00     0.161 A 
HETATM    3  N2  UNL     1     119.067  -7.281 -56.368  1.00  0.00    -0.079 NA
HETATM    4  C5  UNL     1     119.979  -5.846 -58.203  1.00  0.00     0.171 A 
HETATM    5  C6  UNL     1     120.431  -6.697 -59.211  1.00  0.00     0.280 A 
HETATM    6  O2  UNL     1     120.307  -7.935 -59.025  1.00  0.00    -0.265 OA
HETATM    7  N3  UNL     1     120.980  -6.209 -60.340  1.00  0.00    -0.297 N 
ATOM      8  H3  UNL     1     121.305  -6.846 -61.067  1.00  0.00     0.171 HD
HETATM    9  C7  UNL     1     121.097  -4.880 -60.506  1.00  0.00     0.194 A 
HETATM   10  S1  UNL     1     121.771  -4.288 -61.890  1.00  0.00    -0.039 SA
HETATM   11  N4  UNL     1     120.663  -4.055 -59.538  1.00  0.00    -0.265 N 
ATOM     12  H4  UNL     1     120.752  -3.047 -59.662  1.00  0.00     0.190 HD
HETATM   13  N5  UNL     1     120.119  -4.530 -58.417  1.00  0.00    -0.194 N 
HETATM   14  C8  UNL     1     119.612  -3.927 -57.310  1.00  0.00     0.354 A 
HETATM   15  O3  UNL     1     119.593  -2.666 -57.192  1.00  0.00    -0.244 OA
ENDROOT
BRANCH   1  16
HETATM   16  C3  UNL     1     118.563  -4.634 -55.142  1.00  0.00     0.127 C 
HETATM   17  C2  UNL     1     117.400  -4.069 -54.950  1.00  0.00     0.151 C 
BRANCH  17  18
HETATM   18  O1  UNL     1     116.893  -3.940 -53.651  1.00  0.00    -0.366 OA
HETATM   19  C1  UNL     1     117.025  -5.063 -52.805  1.00  0.00     0.209 C 
ENDBRANCH  17  18
ENDBRANCH   1  16
TORSDOF 2
ENDMDL
