MODEL 1
REMARK VINA RESULT: -8.313531156      0.000      0.000
REMARK  11 active torsions:
REMARK  status: ('A' for Active; 'I' for Inactive)
REMARK    1  A    between atoms: C2_2  and  C21_21 
REMARK    2  A    between atoms: C3_3  and  C4_4 
REMARK    3  A    between atoms: C4_4  and  C5_5 
REMARK    4  A    between atoms: C5_5  and  C6_6 
REMARK    5  A    between atoms: C6_6  and  C8_8 
REMARK    6  A    between atoms: C15_15  and  C16_16 
REMARK    7  A    between atoms: C17_17  and  C18_18 
REMARK    8  A    between atoms: C21_21  and  C22_22 
REMARK    9  A    between atoms: C22_22  and  C23_23 
REMARK   10  A    between atoms: C23_23  and  C24_24 
REMARK   11  A    between atoms: C24_24  and  C26_26 
ROOT
HETATM    1  C6  UNL     1      -5.452  14.353  -8.440  1.00  0.00    -0.075 C 
HETATM    2  C7  UNL     1      -4.609  15.514  -8.086  1.00  0.00     0.044 C 
ENDROOT
BRANCH   1   3
HETATM    3  C5  UNL     1      -5.486  13.938  -9.682  1.00  0.00     0.003 C 
BRANCH   3   4
HETATM    4  C4  UNL     1      -6.304  14.707 -10.649  1.00  0.00     0.001 C 
BRANCH   4   5
HETATM    5  C3  UNL     1      -7.572  14.932 -10.426  1.00  0.00     0.007 C 
HETATM    6  C2  UNL     1      -8.292  16.109 -10.840  1.00  0.00    -0.062 C 
HETATM    7  C1  UNL     1      -7.691  17.239 -11.586  1.00  0.00     0.048 C 
BRANCH   6   8
HETATM    8  C21 UNL     1      -9.618  16.202 -10.535  1.00  0.00     0.006 C 
BRANCH   8   9
HETATM    9  C22 UNL     1     -10.598  16.253 -11.600  1.00  0.00    -0.003 C 
BRANCH   9  10
HETATM   10  C23 UNL     1     -11.613  17.077 -11.635  1.00  0.00    -0.012 C 
BRANCH  10  11
HETATM   11  C24 UNL     1     -11.641  18.386 -12.289  1.00  0.00     0.105 C 
HETATM   12  C25 UNL     1     -10.648  18.477 -13.438  1.00  0.00     0.025 C 
BRANCH  11  13
HETATM   13  C26 UNL     1     -11.310  19.455 -11.306  1.00  0.00     0.180 C 
HETATM   14  O1  UNL     1     -12.215  19.905 -10.570  1.00  0.00    -0.647 OA
HETATM   15  O2  UNL     1     -10.013  19.935 -11.218  1.00  0.00    -0.647 OA
ENDBRANCH  11  13
ENDBRANCH  10  11
ENDBRANCH   9  10
ENDBRANCH   8   9
ENDBRANCH   6   8
ENDBRANCH   4   5
ENDBRANCH   3   4
ENDBRANCH   1   3
BRANCH   1  16
HETATM   16  C8  UNL     1      -6.266  13.646  -7.451  1.00  0.00     0.045 C 
HETATM   17  C9  UNL     1      -7.270  12.779  -8.122  1.00  0.00    -0.015 C 
HETATM   18  C10 UNL     1      -8.392  12.406  -7.534  1.00  0.00    -0.086 C 
HETATM   19  C11 UNL     1      -9.379  11.521  -8.260  1.00  0.00     0.043 C 
HETATM   20  C12 UNL     1      -8.795  12.794  -6.156  1.00  0.00     0.038 C 
HETATM   21  C13 UNL     1      -7.652  13.482  -5.493  1.00  0.00    -0.006 C 
HETATM   22  C14 UNL     1      -8.036  14.162  -4.202  1.00  0.00     0.011 C 
HETATM   23  C15 UNL     1      -6.988  14.483  -6.454  1.00  0.00     0.024 C 
BRANCH  23  24
HETATM   24  C16 UNL     1      -7.966  15.436  -6.981  1.00  0.00    -0.024 C 
HETATM   25  C17 UNL     1      -7.900  16.745  -6.851  1.00  0.00    -0.026 C 
BRANCH  25  26
HETATM   26  C18 UNL     1      -8.929  17.648  -7.411  1.00  0.00    -0.001 C 
HETATM   27  C19 UNL     1      -9.737  18.338  -6.341  1.00  0.00     0.013 C 
HETATM   28  C20 UNL     1      -8.317  18.725  -8.296  1.00  0.00     0.013 C 
ENDBRANCH  25  26
ENDBRANCH  23  24
ENDBRANCH   1  16
TORSDOF 11
ENDMDL
MODEL 2
REMARK VINA RESULT: -8.198931305      1.510      4.508
REMARK  11 active torsions:
REMARK  status: ('A' for Active; 'I' for Inactive)
REMARK    1  A    between atoms: C2_2  and  C21_21 
REMARK    2  A    between atoms: C3_3  and  C4_4 
REMARK    3  A    between atoms: C4_4  and  C5_5 
REMARK    4  A    between atoms: C5_5  and  C6_6 
REMARK    5  A    between atoms: C6_6  and  C8_8 
REMARK    6  A    between atoms: C15_15  and  C16_16 
REMARK    7  A    between atoms: C17_17  and  C18_18 
REMARK    8  A    between atoms: C21_21  and  C22_22 
REMARK    9  A    between atoms: C22_22  and  C23_23 
REMARK   10  A    between atoms: C23_23  and  C24_24 
REMARK   11  A    between atoms: C24_24  and  C26_26 
ROOT
HETATM    1  C6  UNL     1      -6.696  14.082  -6.758  1.00  0.00    -0.075 C 
HETATM    2  C7  UNL     1      -6.233  12.681  -6.685  1.00  0.00     0.044 C 
ENDROOT
BRANCH   1   3
HETATM    3  C5  UNL     1      -7.960  14.354  -6.548  1.00  0.00     0.003 C 
BRANCH   3   4
HETATM    4  C4  UNL     1      -8.954  13.821  -7.509  1.00  0.00     0.001 C 
BRANCH   4   5
HETATM    5  C3  UNL     1      -8.892  14.126  -8.778  1.00  0.00     0.007 C 
HETATM    6  C2  UNL     1      -9.321  15.375  -9.355  1.00  0.00    -0.062 C 
HETATM    7  C1  UNL     1      -9.898  16.499  -8.581  1.00  0.00     0.048 C 
BRANCH   6   8
HETATM    8  C21 UNL     1      -9.192  15.549 -10.701  1.00  0.00     0.006 C 
BRANCH   8   9
HETATM    9  C22 UNL     1      -8.356  16.618 -11.209  1.00  0.00    -0.003 C 
BRANCH   9  10
HETATM   10  C23 UNL     1      -8.807  17.712 -11.765  1.00  0.00    -0.012 C 
BRANCH  10  11
HETATM   11  C24 UNL     1     -10.214  18.070 -11.949  1.00  0.00     0.105 C 
HETATM   12  C25 UNL     1     -10.533  18.428 -13.393  1.00  0.00     0.025 C 
BRANCH  11  13
HETATM   13  C26 UNL     1     -10.558  19.241 -11.095  1.00  0.00     0.180 C 
HETATM   14  O1  UNL     1      -9.724  19.649 -10.258  1.00  0.00    -0.647 OA
HETATM   15  O2  UNL     1     -11.789  19.862 -11.237  1.00  0.00    -0.647 OA
ENDBRANCH  11  13
ENDBRANCH  10  11
ENDBRANCH   9  10
ENDBRANCH   8   9
ENDBRANCH   6   8
ENDBRANCH   4   5
ENDBRANCH   3   4
ENDBRANCH   1   3
BRANCH   1  16
HETATM   16  C8  UNL     1      -5.792  15.189  -7.068  1.00  0.00     0.045 C 
HETATM   17  C9  UNL     1      -6.561  16.424  -7.374  1.00  0.00    -0.015 C 
HETATM   18  C10 UNL     1      -6.069  17.403  -8.111  1.00  0.00    -0.086 C 
HETATM   19  C11 UNL     1      -6.893  18.639  -8.391  1.00  0.00     0.043 C 
HETATM   20  C12 UNL     1      -4.712  17.405  -8.720  1.00  0.00     0.038 C 
HETATM   21  C13 UNL     1      -3.946  16.238  -8.198  1.00  0.00    -0.006 C 
HETATM   22  C14 UNL     1      -2.665  15.982  -8.953  1.00  0.00     0.011 C 
HETATM   23  C15 UNL     1      -4.824  14.975  -8.178  1.00  0.00     0.024 C 
BRANCH  23  24
HETATM   24  C16 UNL     1      -5.389  14.707  -9.501  1.00  0.00    -0.024 C 
HETATM   25  C17 UNL     1      -5.374  13.541 -10.114  1.00  0.00    -0.026 C 
BRANCH  25  26
HETATM   26  C18 UNL     1      -5.967  13.345 -11.455  1.00  0.00    -0.001 C 
HETATM   27  C19 UNL     1      -4.937  12.984 -12.495  1.00  0.00     0.013 C 
HETATM   28  C20 UNL     1      -7.024  12.249 -11.453  1.00  0.00     0.013 C 
ENDBRANCH  25  26
ENDBRANCH  23  24
ENDBRANCH   1  16
TORSDOF 11
ENDMDL
MODEL 3
REMARK VINA RESULT: -7.971294797      1.482      3.664
REMARK  11 active torsions:
REMARK  status: ('A' for Active; 'I' for Inactive)
REMARK    1  A    between atoms: C2_2  and  C21_21 
REMARK    2  A    between atoms: C3_3  and  C4_4 
REMARK    3  A    between atoms: C4_4  and  C5_5 
REMARK    4  A    between atoms: C5_5  and  C6_6 
REMARK    5  A    between atoms: C6_6  and  C8_8 
REMARK    6  A    between atoms: C15_15  and  C16_16 
REMARK    7  A    between atoms: C17_17  and  C18_18 
REMARK    8  A    between atoms: C21_21  and  C22_22 
REMARK    9  A    between atoms: C22_22  and  C23_23 
REMARK   10  A    between atoms: C23_23  and  C24_24 
REMARK   11  A    between atoms: C24_24  and  C26_26 
ROOT
HETATM    1  C6  UNL     1      -5.944  13.692  -8.357  1.00  0.00    -0.075 C 
HETATM    2  C7  UNL     1      -4.813  12.754  -8.208  1.00  0.00     0.044 C 
ENDROOT
BRANCH   1   3
HETATM    3  C5  UNL     1      -7.164  13.268  -8.148  1.00  0.00     0.003 C 
BRANCH   3   4
HETATM    4  C4  UNL     1      -8.046  13.081  -9.325  1.00  0.00     0.001 C 
BRANCH   4   5
HETATM    5  C3  UNL     1      -8.312  14.077 -10.129  1.00  0.00     0.007 C 
HETATM    6  C2  UNL     1      -9.267  15.124  -9.867  1.00  0.00    -0.062 C 
HETATM    7  C1  UNL     1     -10.089  15.219  -8.638  1.00  0.00     0.048 C 
BRANCH   6   8
HETATM    8  C21 UNL     1      -9.436  16.100 -10.804  1.00  0.00     0.006 C 
BRANCH   8   9
HETATM    9  C22 UNL     1     -10.660  16.148 -11.577  1.00  0.00    -0.003 C 
BRANCH   9  10
HETATM   10  C23 UNL     1     -11.547  17.107 -11.502  1.00  0.00    -0.012 C 
BRANCH  10  11
HETATM   11  C24 UNL     1     -11.490  18.392 -12.200  1.00  0.00     0.105 C 
HETATM   12  C25 UNL     1     -10.517  18.370 -13.369  1.00  0.00     0.025 C 
BRANCH  11  13
HETATM   13  C26 UNL     1     -11.059  19.464 -11.260  1.00  0.00     0.180 C 
HETATM   14  O1  UNL     1      -9.858  19.525 -10.917  1.00  0.00    -0.647 OA
HETATM   15  O2  UNL     1     -11.986  20.375 -10.778  1.00  0.00    -0.647 OA
ENDBRANCH  11  13
ENDBRANCH  10  11
ENDBRANCH   9  10
ENDBRANCH   8   9
ENDBRANCH   6   8
ENDBRANCH   4   5
ENDBRANCH   3   4
ENDBRANCH   1   3
BRANCH   1  16
HETATM   16  C8  UNL     1      -5.754  15.091  -8.743  1.00  0.00     0.045 C 
HETATM   17  C9  UNL     1      -4.342  15.505  -8.534  1.00  0.00    -0.015 C 
HETATM   18  C10 UNL     1      -3.990  16.765  -8.351  1.00  0.00    -0.086 C 
HETATM   19  C11 UNL     1      -2.538  17.133  -8.145  1.00  0.00     0.043 C 
HETATM   20  C12 UNL     1      -4.935  17.912  -8.328  1.00  0.00     0.038 C 
HETATM   21  C13 UNL     1      -6.285  17.437  -8.745  1.00  0.00    -0.006 C 
HETATM   22  C14 UNL     1      -7.376  18.448  -8.492  1.00  0.00     0.011 C 
HETATM   23  C15 UNL     1      -6.622  16.096  -8.070  1.00  0.00     0.024 C 
BRANCH  23  24
HETATM   24  C16 UNL     1      -6.505  16.197  -6.615  1.00  0.00    -0.024 C 
HETATM   25  C17 UNL     1      -7.487  16.000  -5.757  1.00  0.00    -0.026 C 
BRANCH  25  26
HETATM   26  C18 UNL     1      -7.294  16.120  -4.295  1.00  0.00    -0.001 C 
HETATM   27  C19 UNL     1      -7.773  17.444  -3.756  1.00  0.00     0.013 C 
HETATM   28  C20 UNL     1      -8.023  15.020  -3.535  1.00  0.00     0.013 C 
ENDBRANCH  25  26
ENDBRANCH  23  24
ENDBRANCH   1  16
TORSDOF 11
ENDMDL
MODEL 4
REMARK VINA RESULT: -7.888322690      1.824      4.172
REMARK  11 active torsions:
REMARK  status: ('A' for Active; 'I' for Inactive)
REMARK    1  A    between atoms: C2_2  and  C21_21 
REMARK    2  A    between atoms: C3_3  and  C4_4 
REMARK    3  A    between atoms: C4_4  and  C5_5 
REMARK    4  A    between atoms: C5_5  and  C6_6 
REMARK    5  A    between atoms: C6_6  and  C8_8 
REMARK    6  A    between atoms: C15_15  and  C16_16 
REMARK    7  A    between atoms: C17_17  and  C18_18 
REMARK    8  A    between atoms: C21_21  and  C22_22 
REMARK    9  A    between atoms: C22_22  and  C23_23 
REMARK   10  A    between atoms: C23_23  and  C24_24 
REMARK   11  A    between atoms: C24_24  and  C26_26 
ROOT
HETATM    1  C6  UNL     1      -7.028  15.724  -6.082  1.00  0.00    -0.075 C 
HETATM    2  C7  UNL     1      -5.824  16.311  -5.458  1.00  0.00     0.044 C 
ENDROOT
BRANCH   1   3
HETATM    3  C5  UNL     1      -8.180  15.815  -5.468  1.00  0.00     0.003 C 
BRANCH   3   4
HETATM    4  C4  UNL     1      -8.901  17.109  -5.533  1.00  0.00     0.001 C 
BRANCH   4   5
HETATM    5  C3  UNL     1      -9.302  17.598  -6.677  1.00  0.00     0.007 C 
HETATM    6  C2  UNL     1      -8.772  18.780  -7.307  1.00  0.00    -0.062 C 
HETATM    7  C1  UNL     1      -7.687  19.615  -6.740  1.00  0.00     0.048 C 
BRANCH   6   8
HETATM    8  C21 UNL     1      -9.292  19.168  -8.506  1.00  0.00     0.006 C 
BRANCH   8   9
HETATM    9  C22 UNL     1      -8.700  18.682  -9.736  1.00  0.00    -0.003 C 
BRANCH   9  10
HETATM   10  C23 UNL     1      -9.373  18.400 -10.822  1.00  0.00    -0.012 C 
BRANCH  10  11
HETATM   11  C24 UNL     1     -10.722  17.838 -10.880  1.00  0.00     0.105 C 
HETATM   12  C25 UNL     1     -10.754  16.484 -11.573  1.00  0.00     0.025 C 
BRANCH  11  13
HETATM   13  C26 UNL     1     -11.627  18.759 -11.623  1.00  0.00     0.180 C 
HETATM   14  O1  UNL     1     -11.922  19.863 -11.113  1.00  0.00    -0.647 OA
HETATM   15  O2  UNL     1     -12.129  18.387 -12.860  1.00  0.00    -0.647 OA
ENDBRANCH  11  13
ENDBRANCH  10  11
ENDBRANCH   9  10
ENDBRANCH   8   9
ENDBRANCH   6   8
ENDBRANCH   4   5
ENDBRANCH   3   4
ENDBRANCH   1   3
BRANCH   1  16
HETATM   16  C8  UNL     1      -6.981  15.029  -7.369  1.00  0.00     0.045 C 
HETATM   17  C9  UNL     1      -5.995  13.918  -7.330  1.00  0.00    -0.015 C 
HETATM   18  C10 UNL     1      -5.419  13.441  -8.417  1.00  0.00    -0.086 C 
HETATM   19  C11 UNL     1      -4.423  12.308  -8.322  1.00  0.00     0.043 C 
HETATM   20  C12 UNL     1      -5.670  13.938  -9.796  1.00  0.00     0.038 C 
HETATM   21  C13 UNL     1      -6.810  14.898  -9.764  1.00  0.00    -0.006 C 
HETATM   22  C14 UNL     1      -6.972  15.672 -11.050  1.00  0.00     0.011 C 
HETATM   23  C15 UNL     1      -6.679  15.858  -8.568  1.00  0.00     0.024 C 
BRANCH  23  24
HETATM   24  C16 UNL     1      -5.388  16.545  -8.584  1.00  0.00    -0.024 C 
HETATM   25  C17 UNL     1      -5.219  17.845  -8.721  1.00  0.00    -0.026 C 
BRANCH  25  26
HETATM   26  C18 UNL     1      -3.878  18.471  -8.729  1.00  0.00    -0.001 C 
HETATM   27  C19 UNL     1      -2.791  17.512  -8.315  1.00  0.00     0.013 C 
HETATM   28  C20 UNL     1      -3.515  19.017 -10.103  1.00  0.00     0.013 C 
ENDBRANCH  25  26
ENDBRANCH  23  24
ENDBRANCH   1  16
TORSDOF 11
ENDMDL
MODEL 5
REMARK VINA RESULT: -7.822002290      1.580      2.775
REMARK  11 active torsions:
REMARK  status: ('A' for Active; 'I' for Inactive)
REMARK    1  A    between atoms: C2_2  and  C21_21 
REMARK    2  A    between atoms: C3_3  and  C4_4 
REMARK    3  A    between atoms: C4_4  and  C5_5 
REMARK    4  A    between atoms: C5_5  and  C6_6 
REMARK    5  A    between atoms: C6_6  and  C8_8 
REMARK    6  A    between atoms: C15_15  and  C16_16 
REMARK    7  A    between atoms: C17_17  and  C18_18 
REMARK    8  A    between atoms: C21_21  and  C22_22 
REMARK    9  A    between atoms: C22_22  and  C23_23 
REMARK   10  A    between atoms: C23_23  and  C24_24 
REMARK   11  A    between atoms: C24_24  and  C26_26 
ROOT
HETATM    1  C6  UNL     1      -6.352  13.154  -8.086  1.00  0.00    -0.075 C 
HETATM    2  C7  UNL     1      -4.972  12.686  -7.844  1.00  0.00     0.044 C 
ENDROOT
BRANCH   1   3
HETATM    3  C5  UNL     1      -6.929  12.891  -9.232  1.00  0.00     0.003 C 
BRANCH   3   4
HETATM    4  C4  UNL     1      -6.331  13.467 -10.459  1.00  0.00     0.001 C 
BRANCH   4   5
HETATM    5  C3  UNL     1      -6.288  14.761 -10.641  1.00  0.00     0.007 C 
HETATM    6  C2  UNL     1      -7.436  15.613 -10.825  1.00  0.00    -0.062 C 
HETATM    7  C1  UNL     1      -8.839  15.136 -10.832  1.00  0.00     0.048 C 
BRANCH   6   8
HETATM    8  C21 UNL     1      -7.233  16.949 -11.003  1.00  0.00     0.006 C 
BRANCH   8   9
HETATM    9  C22 UNL     1      -8.348  17.803 -11.358  1.00  0.00    -0.003 C 
BRANCH   9  10
HETATM   10  C23 UNL     1      -9.030  18.524 -10.506  1.00  0.00    -0.012 C 
BRANCH  10  11
HETATM   11  C24 UNL     1     -10.488  18.594 -10.407  1.00  0.00     0.105 C 
HETATM   12  C25 UNL     1     -11.179  17.941 -11.594  1.00  0.00     0.025 C 
BRANCH  11  13
HETATM   13  C26 UNL     1     -10.927  20.017 -10.341  1.00  0.00     0.180 C 
HETATM   14  O1  UNL     1     -11.889  20.389 -11.049  1.00  0.00    -0.647 OA
HETATM   15  O2  UNL     1     -10.271  20.905  -9.504  1.00  0.00    -0.647 OA
ENDBRANCH  11  13
ENDBRANCH  10  11
ENDBRANCH   9  10
ENDBRANCH   8   9
ENDBRANCH   6   8
ENDBRANCH   4   5
ENDBRANCH   3   4
ENDBRANCH   1   3
BRANCH   1  16
HETATM   16  C8  UNL     1      -7.106  13.916  -7.091  1.00  0.00     0.045 C 
HETATM   17  C9  UNL     1      -8.385  14.409  -7.666  1.00  0.00    -0.015 C 
HETATM   18  C10 UNL     1      -9.019  15.464  -7.188  1.00  0.00    -0.086 C 
HETATM   19  C11 UNL     1     -10.318  15.923  -7.810  1.00  0.00     0.043 C 
HETATM   20  C12 UNL     1      -8.552  16.283  -6.039  1.00  0.00     0.038 C 
HETATM   21  C13 UNL     1      -7.388  15.605  -5.402  1.00  0.00    -0.006 C 
HETATM   22  C14 UNL     1      -6.663  16.477  -4.406  1.00  0.00     0.011 C 
HETATM   23  C15 UNL     1      -6.414  15.079  -6.470  1.00  0.00     0.024 C 
BRANCH  23  24
HETATM   24  C16 UNL     1      -5.993  16.152  -7.372  1.00  0.00    -0.024 C 
HETATM   25  C17 UNL     1      -4.753  16.381  -7.756  1.00  0.00    -0.026 C 
BRANCH  25  26
HETATM   26  C18 UNL     1      -4.402  17.488  -8.672  1.00  0.00    -0.001 C 
HETATM   27  C19 UNL     1      -5.224  18.727  -8.423  1.00  0.00     0.013 C 
HETATM   28  C20 UNL     1      -2.934  17.876  -8.556  1.00  0.00     0.013 C 
ENDBRANCH  25  26
ENDBRANCH  23  24
ENDBRANCH   1  16
TORSDOF 11
ENDMDL
