MODEL 1
REMARK VINA RESULT: -6.884078429      0.000      0.000
REMARK  4 active torsions:
REMARK  status: ('A' for Active; 'I' for Inactive)
REMARK    1  A    between atoms: C11_13  and  C12_14 
REMARK    2  A    between atoms: C20_23  and  C21_24 
REMARK    3  A    between atoms: C21_24  and  C22_29 
REMARK    4  A    between atoms: N1_25  and  O4_27 
ROOT
HETATM    1  C22 UNL     1      18.122  -8.659  10.237  1.00  0.00     0.083 C 
HETATM    2  C23 UNL     1      19.088  -9.311   9.259  1.00  0.00     0.037 C 
HETATM    3  C24 UNL     1      16.802  -9.116   9.646  1.00  0.00     0.037 C 
HETATM    4  C25 UNL     1      18.205  -9.467  11.465  1.00  0.00     0.074 C 
HETATM    5  N2  UNL     1      18.253 -10.146  12.440  1.00  0.00    -0.196 NA
ENDROOT
BRANCH   1   6
HETATM    6  C21 UNL     1      18.358  -7.292  10.481  1.00  0.00     0.041 C 
HETATM    7  N1  UNL     1      19.406  -7.081  11.173  1.00  0.00    -0.275 N 
ATOM      8  H1  UNL     1      19.544  -6.075  11.270  1.00  0.00     0.193 HD
BRANCH   6   9
HETATM    9  C20 UNL     1      17.722  -5.989  10.067  1.00  0.00     0.011 C 
HETATM   10  C7  UNL     1      18.643  -4.826   9.970  1.00  0.00    -0.018 C 
HETATM   11  C6  UNL     1      17.807  -3.761   9.194  1.00  0.00     0.011 C 
HETATM   12  C8  UNL     1      19.863  -4.876   9.147  1.00  0.00     0.017 C 
HETATM   13  C9  UNL     1      19.071  -4.139  11.239  1.00  0.00     0.105 C 
HETATM   14  C5  UNL     1      18.003  -3.750   7.723  1.00  0.00     0.002 C 
HETATM   15  C4  UNL     1      17.040  -4.640   6.983  1.00  0.00     0.009 C 
HETATM   16  C2  UNL     1      16.884  -6.017   7.561  1.00  0.00    -0.047 C 
HETATM   17  C1  UNL     1      15.438  -6.402   7.041  1.00  0.00     0.015 C 
HETATM   18  C3  UNL     1      17.626  -7.042   6.726  1.00  0.00     0.015 C 
HETATM   19  C26 UNL     1      16.739  -6.185   8.978  1.00  0.00     0.025 C 
HETATM   20  C10 UNL     1      20.310  -4.471  11.893  1.00  0.00     0.265 C 
HETATM   21  C16 UNL     1      18.104  -4.024  12.352  1.00  0.00     0.001 C 
HETATM   22  O1  UNL     1      21.539  -4.603  11.668  1.00  0.00    -0.265 OA
HETATM   23  O2  UNL     1      19.993  -4.727  13.262  1.00  0.00    -0.310 OA
HETATM   24  C11 UNL     1      18.946  -3.780  13.578  1.00  0.00     0.175 C 
HETATM   25  C17 UNL     1      17.164  -2.879  12.310  1.00  0.00     0.019 C 
HETATM   26  C18 UNL     1      17.480  -5.361  12.511  1.00  0.00     0.014 C 
HETATM   27  C19 UNL     1      16.764  -5.616  11.234  1.00  0.00     0.017 C 
BRANCH  24  28
HETATM   28  C12 UNL     1      18.344  -4.045  14.865  1.00  0.00    -0.004 A 
HETATM   29  C13 UNL     1      18.710  -5.113  15.694  1.00  0.00     0.036 A 
HETATM   30  C14 UNL     1      17.919  -5.065  16.814  1.00  0.00     0.142 A 
HETATM   31  O3  UNL     1      17.113  -4.038  16.692  1.00  0.00    -0.334 OA
HETATM   32  C15 UNL     1      17.336  -3.417  15.559  1.00  0.00     0.151 A 
ENDBRANCH  24  28
ENDBRANCH   6   9
BRANCH   7  33
HETATM   33  O4  UNL     1      20.351  -7.698  11.792  1.00  0.00    -0.290 OA
ATOM     34  H4  UNL     1      21.077  -7.547  12.387  1.00  0.00     0.244 HD
ENDBRANCH   7  33
ENDBRANCH   1   6
TORSDOF 4
ENDMDL
MODEL 2
REMARK VINA RESULT: -6.727271533      2.764      6.346
REMARK  4 active torsions:
REMARK  status: ('A' for Active; 'I' for Inactive)
REMARK    1  A    between atoms: C11_13  and  C12_14 
REMARK    2  A    between atoms: C20_23  and  C21_24 
REMARK    3  A    between atoms: C21_24  and  C22_29 
REMARK    4  A    between atoms: N1_25  and  O4_27 
ROOT
HETATM    1  C22 UNL     1      18.248  -4.179  12.189  1.00  0.00     0.083 C 
HETATM    2  C23 UNL     1      17.856  -3.129  11.160  1.00  0.00     0.037 C 
HETATM    3  C24 UNL     1      19.752  -3.987  12.200  1.00  0.00     0.037 C 
HETATM    4  C25 UNL     1      17.856  -3.615  13.491  1.00  0.00     0.074 C 
HETATM    5  N2  UNL     1      17.568  -3.136  14.541  1.00  0.00    -0.196 NA
ENDROOT
BRANCH   1   6
HETATM    6  C21 UNL     1      17.694  -5.456  11.973  1.00  0.00     0.041 C 
HETATM    7  N1  UNL     1      16.482  -5.546  12.349  1.00  0.00    -0.275 N 
ATOM      8  H1  UNL     1      16.129  -6.476  12.120  1.00  0.00     0.193 HD
BRANCH   6   9
HETATM    9  C20 UNL     1      18.151  -6.744  11.335  1.00  0.00     0.011 C 
HETATM   10  C7  UNL     1      19.278  -6.621  10.374  1.00  0.00    -0.018 C 
HETATM   11  C6  UNL     1      19.753  -8.095  10.175  1.00  0.00     0.011 C 
HETATM   12  C8  UNL     1      20.544  -5.969  10.749  1.00  0.00     0.017 C 
HETATM   13  C9  UNL     1      18.988  -6.113   8.986  1.00  0.00     0.105 C 
HETATM   14  C5  UNL     1      20.858  -8.530  11.065  1.00  0.00     0.002 C 
HETATM   15  C4  UNL     1      20.383  -9.148  12.352  1.00  0.00     0.009 C 
HETATM   16  C2  UNL     1      19.305  -8.380  13.060  1.00  0.00    -0.047 C 
HETATM   17  C1  UNL     1      18.610  -9.533  13.896  1.00  0.00     0.015 C 
HETATM   18  C3  UNL     1      19.867  -7.638  14.258  1.00  0.00     0.015 C 
HETATM   19  C26 UNL     1      18.199  -7.851  12.317  1.00  0.00     0.025 C 
HETATM   20  C10 UNL     1      19.157  -4.726   8.643  1.00  0.00     0.265 C 
HETATM   21  C16 UNL     1      17.709  -6.484   8.341  1.00  0.00     0.001 C 
HETATM   22  O1  UNL     1      19.993  -3.790   8.703  1.00  0.00    -0.265 OA
HETATM   23  O2  UNL     1      17.940  -4.307   8.023  1.00  0.00    -0.310 OA
HETATM   24  C11 UNL     1      17.506  -5.456   7.258  1.00  0.00     0.175 C 
HETATM   25  C17 UNL     1      17.666  -7.785   7.635  1.00  0.00     0.019 C 
HETATM   26  C18 UNL     1      16.646  -6.266   9.353  1.00  0.00     0.014 C 
HETATM   27  C19 UNL     1      16.954  -7.210  10.458  1.00  0.00     0.017 C 
BRANCH  24  28
HETATM   28  C12 UNL     1      16.168  -5.290   6.739  1.00  0.00    -0.004 A 
HETATM   29  C13 UNL     1      15.649  -4.067   6.291  1.00  0.00     0.036 A 
HETATM   30  C14 UNL     1      14.354  -4.281   5.893  1.00  0.00     0.142 A 
HETATM   31  O3  UNL     1      14.082  -5.551   6.079  1.00  0.00    -0.334 OA
HETATM   32  C15 UNL     1      15.125  -6.171   6.574  1.00  0.00     0.151 A 
ENDBRANCH  24  28
ENDBRANCH   6   9
BRANCH   7  33
HETATM   33  O4  UNL     1      15.546  -4.870  12.918  1.00  0.00    -0.290 OA
ATOM     34  H4  UNL     1      14.676  -4.965  13.290  1.00  0.00     0.244 HD
ENDBRANCH   7  33
ENDBRANCH   1   6
TORSDOF 4
ENDMDL
MODEL 3
REMARK VINA RESULT: -6.601966687      6.230      9.048
REMARK  4 active torsions:
REMARK  status: ('A' for Active; 'I' for Inactive)
REMARK    1  A    between atoms: C11_13  and  C12_14 
REMARK    2  A    between atoms: C20_23  and  C21_24 
REMARK    3  A    between atoms: C21_24  and  C22_29 
REMARK    4  A    between atoms: N1_25  and  O4_27 
ROOT
HETATM    1  C22 UNL     1      24.608  -1.758   9.200  1.00  0.00     0.083 C 
HETATM    2  C23 UNL     1      25.497  -2.992   9.226  1.00  0.00     0.037 C 
HETATM    3  C24 UNL     1      23.586  -2.148  10.251  1.00  0.00     0.037 C 
HETATM    4  C25 UNL     1      25.375  -0.709   9.891  1.00  0.00     0.074 C 
HETATM    5  N2  UNL     1      25.989   0.121  10.482  1.00  0.00    -0.196 NA
ENDROOT
BRANCH   1   6
HETATM    6  C21 UNL     1      24.191  -1.355   7.917  1.00  0.00     0.041 C 
HETATM    7  N1  UNL     1      23.782  -0.150   7.879  1.00  0.00    -0.275 N 
ATOM      8  H1  UNL     1      23.543   0.092   6.917  1.00  0.00     0.193 HD
BRANCH   6   9
HETATM    9  C20 UNL     1      24.173  -1.966   6.538  1.00  0.00     0.011 C 
HETATM   10  C7  UNL     1      23.422  -1.204   5.506  1.00  0.00    -0.018 C 
HETATM   11  C6  UNL     1      23.877  -1.857   4.164  1.00  0.00     0.011 C 
HETATM   12  C8  UNL     1      23.708   0.215   5.236  1.00  0.00     0.017 C 
HETATM   13  C9  UNL     1      21.919  -1.295   5.495  1.00  0.00     0.105 C 
HETATM   14  C5  UNL     1      25.023  -1.194   3.493  1.00  0.00     0.002 C 
HETATM   15  C4  UNL     1      26.361  -1.754   3.899  1.00  0.00     0.009 C 
HETATM   16  C2  UNL     1      26.547  -1.931   5.378  1.00  0.00    -0.047 C 
HETATM   17  C1  UNL     1      27.644  -3.074   5.410  1.00  0.00     0.015 C 
HETATM   18  C3  UNL     1      27.440  -0.845   5.945  1.00  0.00     0.015 C 
HETATM   19  C26 UNL     1      25.498  -2.510   6.166  1.00  0.00     0.025 C 
HETATM   20  C10 UNL     1      21.101  -0.308   6.151  1.00  0.00     0.265 C 
HETATM   21  C16 UNL     1      21.278  -2.579   5.853  1.00  0.00     0.001 C 
HETATM   22  O1  UNL     1      20.926   0.933   6.227  1.00  0.00    -0.265 OA
HETATM   23  O2  UNL     1      20.190  -1.023   6.987  1.00  0.00    -0.310 OA
HETATM   24  C11 UNL     1      19.866  -2.218   6.237  1.00  0.00     0.175 C 
HETATM   25  C17 UNL     1      21.126  -3.578   4.769  1.00  0.00     0.019 C 
HETATM   26  C18 UNL     1      21.954  -3.063   7.082  1.00  0.00     0.014 C 
HETATM   27  C19 UNL     1      23.369  -3.289   6.690  1.00  0.00     0.017 C 
BRANCH  24  28
HETATM   28  C12 UNL     1      19.125  -3.172   7.029  1.00  0.00    -0.004 A 
HETATM   29  C13 UNL     1      19.143  -3.207   8.430  1.00  0.00     0.036 A 
HETATM   30  C14 UNL     1      18.347  -4.250   8.834  1.00  0.00     0.142 A 
HETATM   31  O3  UNL     1      17.865  -4.826   7.759  1.00  0.00    -0.334 OA
HETATM   32  C15 UNL     1      18.302  -4.218   6.683  1.00  0.00     0.151 A 
ENDBRANCH  24  28
ENDBRANCH   6   9
BRANCH   7  33
HETATM   33  O4  UNL     1      23.564   0.868   8.635  1.00  0.00    -0.290 OA
ATOM     34  H4  UNL     1      22.953   1.585   8.765  1.00  0.00     0.244 HD
ENDBRANCH   7  33
ENDBRANCH   1   6
TORSDOF 4
ENDMDL
MODEL 4
REMARK VINA RESULT: -6.519295942      6.566      9.502
REMARK  4 active torsions:
REMARK  status: ('A' for Active; 'I' for Inactive)
REMARK    1  A    between atoms: C11_13  and  C12_14 
REMARK    2  A    between atoms: C20_23  and  C21_24 
REMARK    3  A    between atoms: C21_24  and  C22_29 
REMARK    4  A    between atoms: N1_25  and  O4_27 
ROOT
HETATM    1  C22 UNL     1      24.539   0.448   7.991  1.00  0.00     0.083 C 
HETATM    2  C23 UNL     1      23.273   1.238   8.282  1.00  0.00     0.037 C 
HETATM    3  C24 UNL     1      25.252   1.423   7.073  1.00  0.00     0.037 C 
HETATM    4  C25 UNL     1      25.347   0.535   9.218  1.00  0.00     0.074 C 
HETATM    5  N2  UNL     1      26.007   0.642  10.203  1.00  0.00    -0.196 NA
ENDROOT
BRANCH   1   6
HETATM    6  C21 UNL     1      24.328  -0.885   7.587  1.00  0.00     0.041 C 
HETATM    7  N1  UNL     1      24.013  -1.656   8.549  1.00  0.00    -0.275 N 
ATOM      8  H1  UNL     1      23.826  -2.589   8.182  1.00  0.00     0.193 HD
BRANCH   6   9
HETATM    9  C20 UNL     1      24.305  -1.633   6.277  1.00  0.00     0.011 C 
HETATM   10  C7  UNL     1      23.506  -1.004   5.192  1.00  0.00    -0.018 C 
HETATM   11  C6  UNL     1      23.959  -1.773   3.911  1.00  0.00     0.011 C 
HETATM   12  C8  UNL     1      23.734   0.390   4.775  1.00  0.00     0.017 C 
HETATM   13  C9  UNL     1      22.008  -1.148   5.225  1.00  0.00     0.105 C 
HETATM   14  C5  UNL     1      25.067  -1.141   3.152  1.00  0.00     0.002 C 
HETATM   15  C4  UNL     1      26.431  -1.611   3.580  1.00  0.00     0.009 C 
HETATM   16  C2  UNL     1      26.653  -1.632   5.065  1.00  0.00    -0.047 C 
HETATM   17  C1  UNL     1      27.791  -2.727   5.186  1.00  0.00     0.015 C 
HETATM   18  C3  UNL     1      27.516  -0.463   5.500  1.00  0.00     0.015 C 
HETATM   19  C26 UNL     1      25.642  -2.165   5.931  1.00  0.00     0.025 C 
HETATM   20  C10 UNL     1      21.167  -0.130   5.797  1.00  0.00     0.265 C 
HETATM   21  C16 UNL     1      21.422  -2.412   5.724  1.00  0.00     0.001 C 
HETATM   22  O1  UNL     1      20.947   1.106   5.754  1.00  0.00    -0.265 OA
HETATM   23  O2  UNL     1      20.299  -0.788   6.722  1.00  0.00    -0.310 OA
HETATM   24  C11 UNL     1      20.005  -2.062   6.103  1.00  0.00     0.175 C 
HETATM   25  C17 UNL     1      21.285  -3.519   4.749  1.00  0.00     0.019 C 
HETATM   26  C18 UNL     1      22.139  -2.745   6.979  1.00  0.00     0.014 C 
HETATM   27  C19 UNL     1      23.553  -2.960   6.579  1.00  0.00     0.017 C 
BRANCH  24  28
HETATM   28  C12 UNL     1      19.315  -2.957   7.003  1.00  0.00    -0.004 A 
HETATM   29  C13 UNL     1      18.398  -3.932   6.587  1.00  0.00     0.036 A 
HETATM   30  C14 UNL     1      17.930  -4.573   7.706  1.00  0.00     0.142 A 
HETATM   31  O3  UNL     1      18.515  -4.035   8.750  1.00  0.00    -0.334 OA
HETATM   32  C15 UNL     1      19.334  -3.084   8.373  1.00  0.00     0.151 A 
ENDBRANCH  24  28
ENDBRANCH   6   9
BRANCH   7  33
HETATM   33  O4  UNL     1      23.849  -1.665   9.826  1.00  0.00    -0.290 OA
ATOM     34  H4  UNL     1      24.281  -1.924  10.633  1.00  0.00     0.244 HD
ENDBRANCH   7  33
ENDBRANCH   1   6
TORSDOF 4
ENDMDL
MODEL 5
REMARK VINA RESULT: -6.502267288      0.895      1.010
REMARK  4 active torsions:
REMARK  status: ('A' for Active; 'I' for Inactive)
REMARK    1  A    between atoms: C11_13  and  C12_14 
REMARK    2  A    between atoms: C20_23  and  C21_24 
REMARK    3  A    between atoms: C21_24  and  C22_29 
REMARK    4  A    between atoms: N1_25  and  O4_27 
ROOT
HETATM    1  C22 UNL     1      19.135  -8.432  10.317  1.00  0.00     0.083 C 
HETATM    2  C23 UNL     1      20.551  -8.280  10.849  1.00  0.00     0.037 C 
HETATM    3  C24 UNL     1      19.422  -8.539   8.831  1.00  0.00     0.037 C 
HETATM    4  C25 UNL     1      18.738  -9.810  10.652  1.00  0.00     0.074 C 
HETATM    5  N2  UNL     1      18.440 -10.935  10.896  1.00  0.00    -0.196 NA
ENDROOT
BRANCH   1   6
HETATM    6  C21 UNL     1      18.215  -7.481  10.798  1.00  0.00     0.041 C 
HETATM    7  N1  UNL     1      17.825  -7.717  11.986  1.00  0.00    -0.275 N 
ATOM      8  H1  UNL     1      17.202  -6.968  12.289  1.00  0.00     0.193 HD
BRANCH   6   9
HETATM    9  C20 UNL     1      17.617  -6.193  10.288  1.00  0.00     0.011 C 
HETATM   10  C7  UNL     1      18.574  -5.072  10.096  1.00  0.00    -0.018 C 
HETATM   11  C6  UNL     1      17.768  -4.042   9.245  1.00  0.00     0.011 C 
HETATM   12  C8  UNL     1      19.786  -5.225   9.273  1.00  0.00     0.017 C 
HETATM   13  C9  UNL     1      19.035  -4.303  11.306  1.00  0.00     0.105 C 
HETATM   14  C5  UNL     1      17.953  -4.151   7.776  1.00  0.00     0.002 C 
HETATM   15  C4  UNL     1      16.956  -5.064   7.113  1.00  0.00     0.009 C 
HETATM   16  C2  UNL     1      16.760  -6.386   7.796  1.00  0.00    -0.047 C 
HETATM   17  C1  UNL     1      15.298  -6.762   7.315  1.00  0.00     0.015 C 
HETATM   18  C3  UNL     1      17.462  -7.496   7.038  1.00  0.00     0.015 C 
HETATM   19  C26 UNL     1      16.620  -6.439   9.222  1.00  0.00     0.025 C 
HETATM   20  C10 UNL     1      20.267  -4.624  11.978  1.00  0.00     0.265 C 
HETATM   21  C16 UNL     1      18.080  -4.072  12.412  1.00  0.00     0.001 C 
HETATM   22  O1  UNL     1      21.489  -4.814  11.757  1.00  0.00    -0.265 OA
HETATM   23  O2  UNL     1      19.952  -4.764  13.364  1.00  0.00    -0.310 OA
HETATM   24  C11 UNL     1      18.939  -3.762  13.611  1.00  0.00     0.175 C 
HETATM   25  C17 UNL     1      17.178  -2.903  12.287  1.00  0.00     0.019 C 
HETATM   26  C18 UNL     1      17.415  -5.372  12.677  1.00  0.00     0.014 C 
HETATM   27  C19 UNL     1      16.681  -5.700  11.428  1.00  0.00     0.017 C 
BRANCH  24  28
HETATM   28  C12 UNL     1      18.338  -3.908  14.918  1.00  0.00    -0.004 A 
HETATM   29  C13 UNL     1      18.641  -4.948  15.806  1.00  0.00     0.036 A 
HETATM   30  C14 UNL     1      17.872  -4.779  16.929  1.00  0.00     0.142 A 
HETATM   31  O3  UNL     1      17.138  -3.706  16.754  1.00  0.00    -0.334 OA
HETATM   32  C15 UNL     1      17.387  -3.170  15.584  1.00  0.00     0.151 A 
ENDBRANCH  24  28
ENDBRANCH   6   9
BRANCH   7  33
HETATM   33  O4  UNL     1      17.944  -8.575  12.938  1.00  0.00    -0.290 OA
ATOM     34  H4  UNL     1      17.468  -9.266  13.385  1.00  0.00     0.244 HD
ENDBRANCH   7  33
ENDBRANCH   1   6
TORSDOF 4
ENDMDL
