MODEL 1
REMARK VINA RESULT: -6.704116913      0.000      0.000
REMARK  4 active torsions:
REMARK  status: ('A' for Active; 'I' for Inactive)
REMARK    1  A    between atoms: C2_2  and  C4_4 
REMARK    2  A    between atoms: C18_21  and  O3_23 
REMARK    3  A    between atoms: C20_25  and  N1_26 
REMARK    4  A    between atoms: N2_28  and  C21_30 
ROOT
HETATM    1  C4  UNL     1      17.535  -4.331  13.046  1.00  0.00    -0.013 A 
HETATM    2  C5  UNL     1      18.156  -3.746  11.977  1.00  0.00     0.025 A 
HETATM    3  C6  UNL     1      18.688  -4.556  11.040  1.00  0.00    -0.016 A 
HETATM    4  C7  UNL     1      18.570  -5.902  11.223  1.00  0.00     0.005 A 
HETATM    5  S1  UNL     1      17.715  -5.988  12.707  1.00  0.00    -0.097 SA
HETATM    6  C8  UNL     1      19.216  -6.640  10.072  1.00  0.00     0.050 C 
HETATM    7  C9  UNL     1      20.666  -6.869  10.467  1.00  0.00     0.027 C 
HETATM    8  C10 UNL     1      19.184  -5.661   8.962  1.00  0.00     0.176 C 
HETATM    9  O1  UNL     1      18.208  -5.621   8.071  1.00  0.00    -0.312 OA
HETATM   10  C11 UNL     1      16.995  -5.395   7.652  1.00  0.00     0.267 C 
HETATM   11  O2  UNL     1      16.263  -4.342   7.703  1.00  0.00    -0.264 OA
HETATM   12  C12 UNL     1      16.276  -6.545   6.978  1.00  0.00     0.041 C 
HETATM   13  C13 UNL     1      17.197  -6.926   5.807  1.00  0.00     0.025 C 
HETATM   14  C14 UNL     1      14.974  -6.159   6.363  1.00  0.00     0.025 C 
HETATM   15  C15 UNL     1      16.064  -7.694   7.917  1.00  0.00     0.019 C 
HETATM   16  C16 UNL     1      16.212  -7.338   9.369  1.00  0.00     0.004 C 
HETATM   17  C17 UNL     1      17.192  -8.172  10.093  1.00  0.00     0.038 C 
HETATM   18  C18 UNL     1      18.625  -7.971   9.839  1.00  0.00     0.069 C 
HETATM   19  C19 UNL     1      19.326  -8.971  10.788  1.00  0.00     0.047 C 
HETATM   20  C20 UNL     1      19.443  -4.353   9.736  1.00  0.00     0.163 C 
ENDROOT
BRANCH  20  21
HETATM   21  N1  UNL     1      18.918  -3.278   8.989  1.00  0.00    -0.328 N 
HETATM   22  N2  UNL     1      19.388  -2.629   8.091  1.00  0.00    -0.331 N 
ATOM     23  H2  UNL     1      18.786  -1.895   7.720  1.00  0.00     0.180 HD
ATOM     24  H1  UNL     1      17.973  -3.002   9.257  1.00  0.00     0.180 HD
BRANCH  22  25
HETATM   25  C21 UNL     1      20.654  -2.740   7.478  1.00  0.00     0.034 C 
HETATM   26  C22 UNL     1      21.062  -1.349   6.967  1.00  0.00     0.039 C 
HETATM   27  C23 UNL     1      21.695  -3.129   8.516  1.00  0.00     0.039 C 
HETATM   28  C24 UNL     1      20.680  -3.673   6.306  1.00  0.00     0.039 C 
ENDBRANCH  22  25
ENDBRANCH  20  21
BRANCH   1  29
HETATM   29  C2  UNL     1      16.860  -3.712  14.225  1.00  0.00     0.017 C 
HETATM   30  C1  UNL     1      16.954  -4.619  15.417  1.00  0.00     0.015 C 
HETATM   31  C3  UNL     1      17.545  -2.385  14.496  1.00  0.00     0.015 C 
ENDBRANCH   1  29
BRANCH  18  32
HETATM   32  O3  UNL     1      19.054  -8.405   8.566  1.00  0.00    -0.389 OA
ATOM     33  H3  UNL     1      19.748  -9.040   8.702  1.00  0.00     0.210 HD
ENDBRANCH  18  32
TORSDOF 4
ENDMDL
MODEL 2
REMARK VINA RESULT: -6.287238563      4.081      7.531
REMARK  4 active torsions:
REMARK  status: ('A' for Active; 'I' for Inactive)
REMARK    1  A    between atoms: C2_2  and  C4_4 
REMARK    2  A    between atoms: C18_21  and  O3_23 
REMARK    3  A    between atoms: C20_25  and  N1_26 
REMARK    4  A    between atoms: N2_28  and  C21_30 
ROOT
HETATM    1  C4  UNL     1      19.738  -3.536   9.170  1.00  0.00    -0.013 A 
HETATM    2  C5  UNL     1      21.102  -3.536   9.279  1.00  0.00     0.025 A 
HETATM    3  C6  UNL     1      21.817  -3.157   8.201  1.00  0.00    -0.016 A 
HETATM    4  C7  UNL     1      21.132  -2.801   7.078  1.00  0.00     0.005 A 
HETATM    5  S1  UNL     1      19.503  -3.010   7.570  1.00  0.00    -0.097 SA
HETATM    6  C8  UNL     1      22.099  -2.402   5.985  1.00  0.00     0.050 C 
HETATM    7  C9  UNL     1      22.414  -3.668   5.206  1.00  0.00     0.027 C 
HETATM    8  C10 UNL     1      23.315  -1.993   6.722  1.00  0.00     0.176 C 
HETATM    9  O1  UNL     1      23.558  -0.738   7.062  1.00  0.00    -0.312 OA
HETATM   10  C11 UNL     1      23.377   0.364   7.733  1.00  0.00     0.267 C 
HETATM   11  O2  UNL     1      23.354   0.595   8.995  1.00  0.00    -0.264 OA
HETATM   12  C12 UNL     1      23.147   1.627   6.929  1.00  0.00     0.041 C 
HETATM   13  C13 UNL     1      24.393   1.731   6.034  1.00  0.00     0.025 C 
HETATM   14  C14 UNL     1      23.135   2.868   7.755  1.00  0.00     0.025 C 
HETATM   15  C15 UNL     1      21.886   1.551   6.123  1.00  0.00     0.019 C 
HETATM   16  C16 UNL     1      20.933   0.479   6.571  1.00  0.00     0.004 C 
HETATM   17  C17 UNL     1      20.540  -0.458   5.500  1.00  0.00     0.038 C 
HETATM   18  C18 UNL     1      21.517  -1.447   5.024  1.00  0.00     0.069 C 
HETATM   19  C19 UNL     1      20.749  -2.261   3.956  1.00  0.00     0.047 C 
HETATM   20  C20 UNL     1      23.296  -3.011   7.880  1.00  0.00     0.163 C 
ENDROOT
BRANCH  20  21
HETATM   21  N1  UNL     1      24.016  -2.471   8.965  1.00  0.00    -0.328 N 
HETATM   22  N2  UNL     1      25.175  -2.564   9.276  1.00  0.00    -0.331 N 
ATOM     23  H2  UNL     1      25.442  -2.066  10.124  1.00  0.00     0.180 HD
ATOM     24  H1  UNL     1      23.456  -1.900   9.599  1.00  0.00     0.180 HD
BRANCH  22  25
HETATM   25  C21 UNL     1      26.217  -3.266   8.633  1.00  0.00     0.034 C 
HETATM   26  C22 UNL     1      27.400  -3.367   9.609  1.00  0.00     0.039 C 
HETATM   27  C23 UNL     1      25.779  -4.695   8.353  1.00  0.00     0.039 C 
HETATM   28  C24 UNL     1      26.719  -2.598   7.389  1.00  0.00     0.039 C 
ENDBRANCH  22  25
ENDBRANCH  20  21
BRANCH   1  29
HETATM   29  C2  UNL     1      18.692  -3.897  10.172  1.00  0.00     0.017 C 
HETATM   30  C1  UNL     1      17.542  -4.588   9.501  1.00  0.00     0.015 C 
HETATM   31  C3  UNL     1      19.343  -4.801  11.204  1.00  0.00     0.015 C 
ENDBRANCH   1  29
BRANCH  18  32
HETATM   32  O3  UNL     1      22.583  -0.896   4.280  1.00  0.00    -0.389 OA
ATOM     33  H3  UNL     1      23.379  -1.033   4.780  1.00  0.00     0.210 HD
ENDBRANCH  18  32
TORSDOF 4
ENDMDL
MODEL 3
REMARK VINA RESULT: -6.159402740      2.391      5.780
REMARK  4 active torsions:
REMARK  status: ('A' for Active; 'I' for Inactive)
REMARK    1  A    between atoms: C2_2  and  C4_4 
REMARK    2  A    between atoms: C18_21  and  O3_23 
REMARK    3  A    between atoms: C20_25  and  N1_26 
REMARK    4  A    between atoms: N2_28  and  C21_30 
ROOT
HETATM    1  C4  UNL     1      20.908  -3.443   8.674  1.00  0.00    -0.013 A 
HETATM    2  C5  UNL     1      19.770  -4.200   8.629  1.00  0.00     0.025 A 
HETATM    3  C6  UNL     1      19.583  -5.109   9.605  1.00  0.00    -0.016 A 
HETATM    4  C7  UNL     1      20.541  -5.213  10.570  1.00  0.00     0.005 A 
HETATM    5  S1  UNL     1      21.677  -4.027  10.074  1.00  0.00    -0.097 SA
HETATM    6  C8  UNL     1      20.154  -6.274  11.575  1.00  0.00     0.050 C 
HETATM    7  C9  UNL     1      20.740  -7.581  11.069  1.00  0.00     0.027 C 
HETATM    8  C10 UNL     1      18.680  -6.347  11.460  1.00  0.00     0.176 C 
HETATM    9  O1  UNL     1      17.865  -5.656  12.239  1.00  0.00    -0.312 OA
HETATM   10  C11 UNL     1      17.284  -4.578  12.686  1.00  0.00     0.267 C 
HETATM   11  O2  UNL     1      16.609  -3.667  12.084  1.00  0.00    -0.264 OA
HETATM   12  C12 UNL     1      17.396  -4.303  14.171  1.00  0.00     0.041 C 
HETATM   13  C13 UNL     1      16.798  -5.559  14.828  1.00  0.00     0.025 C 
HETATM   14  C14 UNL     1      16.554  -3.163  14.634  1.00  0.00     0.025 C 
HETATM   15  C15 UNL     1      18.817  -4.079  14.590  1.00  0.00     0.019 C 
HETATM   16  C16 UNL     1      19.750  -3.762  13.455  1.00  0.00     0.004 C 
HETATM   17  C17 UNL     1      20.921  -4.658  13.376  1.00  0.00     0.038 C 
HETATM   18  C18 UNL     1      20.733  -6.039  12.911  1.00  0.00     0.069 C 
HETATM   19  C19 UNL     1      22.157  -6.643  12.920  1.00  0.00     0.047 C 
HETATM   20  C20 UNL     1      18.507  -6.130   9.944  1.00  0.00     0.163 C 
ENDROOT
BRANCH  20  21
HETATM   21  N1  UNL     1      17.213  -5.622   9.707  1.00  0.00    -0.328 N 
HETATM   22  N2  UNL     1      16.475  -5.733   8.763  1.00  0.00    -0.331 N 
ATOM     23  H2  UNL     1      15.578  -5.257   8.850  1.00  0.00     0.180 HD
ATOM     24  H1  UNL     1      16.834  -5.063  10.473  1.00  0.00     0.180 HD
BRANCH  22  25
HETATM   25  C21 UNL     1      16.675  -6.429   7.551  1.00  0.00     0.034 C 
HETATM   26  C22 UNL     1      15.298  -6.762   6.957  1.00  0.00     0.039 C 
HETATM   27  C23 UNL     1      17.359  -5.518   6.543  1.00  0.00     0.039 C 
HETATM   28  C24 UNL     1      17.419  -7.719   7.710  1.00  0.00     0.039 C 
ENDBRANCH  22  25
ENDBRANCH  20  21
BRANCH   1  29
HETATM   29  C2  UNL     1      21.389  -2.371   7.752  1.00  0.00     0.017 C 
HETATM   30  C1  UNL     1      22.461  -2.902   6.846  1.00  0.00     0.015 C 
HETATM   31  C3  UNL     1      20.193  -1.886   6.954  1.00  0.00     0.015 C 
ENDBRANCH   1  29
BRANCH  18  32
HETATM   32  O3  UNL     1      20.043  -6.867  13.822  1.00  0.00    -0.389 OA
ATOM     33  H3  UNL     1      19.717  -6.312  14.520  1.00  0.00     0.210 HD
ENDBRANCH  18  32
TORSDOF 4
ENDMDL
MODEL 4
REMARK VINA RESULT: -6.114934124      2.183      5.795
REMARK  4 active torsions:
REMARK  status: ('A' for Active; 'I' for Inactive)
REMARK    1  A    between atoms: C2_2  and  C4_4 
REMARK    2  A    between atoms: C18_21  and  O3_23 
REMARK    3  A    between atoms: C20_25  and  N1_26 
REMARK    4  A    between atoms: N2_28  and  C21_30 
ROOT
HETATM    1  C4  UNL     1      20.058  -3.374   5.871  1.00  0.00    -0.013 A 
HETATM    2  C5  UNL     1      19.815  -3.329   7.216  1.00  0.00     0.025 A 
HETATM    3  C6  UNL     1      18.654  -3.849   7.661  1.00  0.00    -0.016 A 
HETATM    4  C7  UNL     1      17.803  -4.384   6.740  1.00  0.00     0.005 A 
HETATM    5  S1  UNL     1      18.661  -4.138   5.275  1.00  0.00    -0.097 SA
HETATM    6  C8  UNL     1      16.567  -4.921   7.426  1.00  0.00     0.050 C 
HETATM    7  C9  UNL     1      15.564  -3.780   7.462  1.00  0.00     0.027 C 
HETATM    8  C10 UNL     1      17.019  -5.190   8.809  1.00  0.00     0.176 C 
HETATM    9  O1  UNL     1      17.457  -6.374   9.202  1.00  0.00    -0.312 OA
HETATM   10  C11 UNL     1      18.298  -7.368   9.258  1.00  0.00     0.267 C 
HETATM   11  O2  UNL     1      19.544  -7.407   9.564  1.00  0.00    -0.264 OA
HETATM   12  C12 UNL     1      17.764  -8.741   8.909  1.00  0.00     0.041 C 
HETATM   13  C13 UNL     1      16.604  -8.951   9.897  1.00  0.00     0.025 C 
HETATM   14  C14 UNL     1      18.730  -9.845   9.176  1.00  0.00     0.025 C 
HETATM   15  C15 UNL     1      17.303  -8.813   7.485  1.00  0.00     0.019 C 
HETATM   16  C16 UNL     1      17.826  -7.707   6.613  1.00  0.00     0.004 C 
HETATM   17  C17 UNL     1      16.770  -6.949   5.912  1.00  0.00     0.038 C 
HETATM   18  C18 UNL     1      15.928  -6.022   6.680  1.00  0.00     0.069 C 
HETATM   19  C19 UNL     1      14.989  -5.393   5.623  1.00  0.00     0.047 C 
HETATM   20  C20 UNL     1      17.990  -4.010   9.019  1.00  0.00     0.163 C 
ENDROOT
BRANCH  20  21
HETATM   21  N1  UNL     1      18.920  -4.367  10.017  1.00  0.00    -0.328 N 
HETATM   22  N2  UNL     1      18.838  -4.364  11.218  1.00  0.00    -0.331 N 
ATOM     23  H2  UNL     1      19.673  -4.674  11.714  1.00  0.00     0.180 HD
ATOM     24  H1  UNL     1      19.821  -4.683   9.658  1.00  0.00     0.180 HD
BRANCH  22  25
HETATM   25  C21 UNL     1      17.751  -3.992  12.037  1.00  0.00     0.034 C 
HETATM   26  C22 UNL     1      18.302  -3.612  13.421  1.00  0.00     0.039 C 
HETATM   27  C23 UNL     1      17.097  -2.735  11.485  1.00  0.00     0.039 C 
HETATM   28  C24 UNL     1      16.745  -5.083  12.240  1.00  0.00     0.039 C 
ENDBRANCH  22  25
ENDBRANCH  20  21
BRANCH   1  29
HETATM   29  C2  UNL     1      21.233  -2.889   5.087  1.00  0.00     0.017 C 
HETATM   30  C1  UNL     1      21.110  -1.419   4.814  1.00  0.00     0.015 C 
HETATM   31  C3  UNL     1      22.478  -3.188   5.903  1.00  0.00     0.015 C 
ENDBRANCH   1  29
BRANCH  18  32
HETATM   32  O3  UNL     1      15.022  -6.655   7.557  1.00  0.00    -0.389 OA
ATOM     33  H3  UNL     1      15.412  -7.479   7.822  1.00  0.00     0.210 HD
ENDBRANCH  18  32
TORSDOF 4
ENDMDL
MODEL 5
REMARK VINA RESULT: -6.022877221      6.587     10.188
REMARK  4 active torsions:
REMARK  status: ('A' for Active; 'I' for Inactive)
REMARK    1  A    between atoms: C2_2  and  C4_4 
REMARK    2  A    between atoms: C18_21  and  O3_23 
REMARK    3  A    between atoms: C20_25  and  N1_26 
REMARK    4  A    between atoms: N2_28  and  C21_30 
ROOT
HETATM    1  C4  UNL     1      26.741  -2.810   5.461  1.00  0.00    -0.013 A 
HETATM    2  C5  UNL     1      26.259  -2.085   4.406  1.00  0.00     0.025 A 
HETATM    3  C6  UNL     1      24.958  -1.734   4.429  1.00  0.00    -0.016 A 
HETATM    4  C7  UNL     1      24.213  -2.125   5.501  1.00  0.00     0.005 A 
HETATM    5  S1  UNL     1      25.365  -2.976   6.446  1.00  0.00    -0.097 SA
HETATM    6  C8  UNL     1      22.791  -1.634   5.352  1.00  0.00     0.050 C 
HETATM    7  C9  UNL     1      22.031  -2.729   4.621  1.00  0.00     0.027 C 
HETATM    8  C10 UNL     1      22.912  -0.468   4.450  1.00  0.00     0.176 C 
HETATM    9  O1  UNL     1      23.037   0.772   4.894  1.00  0.00    -0.312 OA
HETATM   10  C11 UNL     1      23.651   1.770   5.463  1.00  0.00     0.267 C 
HETATM   11  O2  UNL     1      24.786   2.317   5.219  1.00  0.00    -0.264 OA
HETATM   12  C12 UNL     1      22.946   2.438   6.624  1.00  0.00     0.041 C 
HETATM   13  C13 UNL     1      21.600   2.891   6.032  1.00  0.00     0.025 C 
HETATM   14  C14 UNL     1      23.619   3.681   7.099  1.00  0.00     0.025 C 
HETATM   15  C15 UNL     1      22.759   1.498   7.777  1.00  0.00     0.019 C 
HETATM   16  C16 UNL     1      23.636   0.279   7.725  1.00  0.00     0.004 C 
HETATM   17  C17 UNL     1      22.895  -0.995   7.807  1.00  0.00     0.038 C 
HETATM   18  C18 UNL     1      22.111  -1.440   6.647  1.00  0.00     0.069 C 
HETATM   19  C19 UNL     1      21.525  -2.804   7.082  1.00  0.00     0.047 C 
HETATM   20  C20 UNL     1      24.029  -0.960   3.507  1.00  0.00     0.163 C 
ENDROOT
BRANCH  20  21
HETATM   21  N1  UNL     1      24.668   0.163   2.943  1.00  0.00    -0.328 N 
HETATM   22  N2  UNL     1      25.093   0.363   1.835  1.00  0.00    -0.331 N 
ATOM     23  H2  UNL     1      25.518   1.278   1.688  1.00  0.00     0.180 HD
ATOM     24  H1  UNL     1      24.792   0.944   3.588  1.00  0.00     0.180 HD
BRANCH  22  25
HETATM   25  C21 UNL     1      25.086  -0.488   0.709  1.00  0.00     0.034 C 
HETATM   26  C22 UNL     1      25.350   0.368  -0.540  1.00  0.00     0.039 C 
HETATM   27  C23 UNL     1      26.245  -1.468   0.800  1.00  0.00     0.039 C 
HETATM   28  C24 UNL     1      23.787  -1.202   0.498  1.00  0.00     0.039 C 
ENDBRANCH  22  25
ENDBRANCH  20  21
BRANCH   1  29
HETATM   29  C2  UNL     1      28.114  -3.338   5.720  1.00  0.00     0.017 C 
HETATM   30  C1  UNL     1      29.037  -2.970   4.596  1.00  0.00     0.015 C 
HETATM   31  C3  UNL     1      28.590  -2.742   7.032  1.00  0.00     0.015 C 
ENDBRANCH   1  29
BRANCH  18  32
HETATM   32  O3  UNL     1      20.952  -0.673   6.403  1.00  0.00    -0.389 OA
ATOM     33  H3  UNL     1      20.370  -0.794   7.145  1.00  0.00     0.210 HD
ENDBRANCH  18  32
TORSDOF 4
ENDMDL
