MODEL 1
REMARK VINA RESULT: -9.045963145      0.000      0.000
REMARK  6 active torsions:
REMARK  status: ('A' for Active; 'I' for Inactive)
REMARK    1  A    between atoms: C2_2  and  C3_3 
REMARK    2  A    between atoms: C14_14  and  C15_15 
REMARK    3  A    between atoms: C15_15  and  C16_16 
REMARK    4  A    between atoms: C16_16  and  C17_17 
REMARK    5  A    between atoms: C17_17  and  C18_18 
REMARK    6  A    between atoms: C24_27  and  C25_28 
ROOT
HETATM    1  C3  UNL     1      14.032   4.000  -1.886  1.00  0.00    -0.026 C 
HETATM    2  C4  UNL     1      13.627   3.165  -0.670  1.00  0.00     0.019 C 
HETATM    3  C5  UNL     1      15.250   3.444  -2.489  1.00  0.00     0.017 C 
HETATM    4  C6  UNL     1      15.143   2.357  -3.502  1.00  0.00     0.037 C 
HETATM    5  C7  UNL     1      13.755   2.328  -4.106  1.00  0.00    -0.058 C 
HETATM    6  C8  UNL     1      13.324   3.732  -4.171  1.00  0.00     0.044 C 
HETATM    7  C9  UNL     1      12.855   4.199  -2.815  1.00  0.00     0.026 C 
HETATM    8  C10 UNL     1      12.400   4.009  -5.261  1.00  0.00    -0.081 C 
HETATM    9  C11 UNL     1      11.237   4.559  -5.060  1.00  0.00     0.015 C 
HETATM   10  C12 UNL     1      12.701   3.699  -6.693  1.00  0.00     0.035 C 
HETATM   11  C13 UNL     1      14.081   3.021  -6.832  1.00  0.00     0.016 C 
HETATM   12  C14 UNL     1      13.834   1.564  -6.593  1.00  0.00     0.054 C 
HETATM   13  C24 UNL     1      13.516   1.368  -5.177  1.00  0.00     0.028 C 
ENDROOT
BRANCH  12  14
HETATM   14  C15 UNL     1      14.847   0.634  -7.232  1.00  0.00     0.037 C 
HETATM   15  C20 UNL     1      14.974  -0.700  -6.540  1.00  0.00     0.032 C 
HETATM   16  C21 UNL     1      16.158  -1.494  -7.018  1.00  0.00     0.007 C 
HETATM   17  C22 UNL     1      17.489  -0.834  -6.742  1.00  0.00     0.044 C 
HETATM   18  C23 UNL     1      17.178   0.613  -6.499  1.00  0.00     0.056 C 
HETATM   19  N1  UNL     1      16.161   1.176  -7.261  1.00  0.00    -0.392 N 
ATOM     20  H1  UNL     1      16.359   1.986  -7.847  1.00  0.00     0.159 HD
BRANCH  14  21
HETATM   21  C16 UNL     1      14.461   0.302  -8.671  1.00  0.00     0.034 C 
BRANCH  21  22
HETATM   22  C17 UNL     1      13.144  -0.289  -8.898  1.00  0.00     0.036 C 
BRANCH  22  23
HETATM   23  C18 UNL     1      12.238   0.439  -9.864  1.00  0.00     0.145 A 
HETATM   24  C19 UNL     1      10.774   0.146  -9.882  1.00  0.00     0.200 A 
HETATM   25  O1  UNL     1      11.291   1.324  -9.357  1.00  0.00    -0.381 OA
ENDBRANCH  22  23
ENDBRANCH  21  22
ENDBRANCH  14  21
ENDBRANCH  12  14
BRANCH  13  26
HETATM   26  C25 UNL     1      12.144   0.808  -5.009  1.00  0.00     0.205 C 
HETATM   27  O2  UNL     1      11.746   0.452  -3.885  1.00  0.00    -0.644 OA
HETATM   28  O3  UNL     1      11.293   0.670  -6.083  1.00  0.00    -0.644 OA
ENDBRANCH  13  26
BRANCH   1  29
HETATM   29  C2  UNL     1      14.358   5.351  -1.336  1.00  0.00    -0.028 C 
HETATM   30  C1  UNL     1      13.656   6.403  -1.671  1.00  0.00     0.007 C 
ENDBRANCH   1  29
TORSDOF 6
ENDMDL
MODEL 2
REMARK VINA RESULT: -8.965483020      0.990      1.099
REMARK  6 active torsions:
REMARK  status: ('A' for Active; 'I' for Inactive)
REMARK    1  A    between atoms: C2_2  and  C3_3 
REMARK    2  A    between atoms: C14_14  and  C15_15 
REMARK    3  A    between atoms: C15_15  and  C16_16 
REMARK    4  A    between atoms: C16_16  and  C17_17 
REMARK    5  A    between atoms: C17_17  and  C18_18 
REMARK    6  A    between atoms: C24_27  and  C25_28 
ROOT
HETATM    1  C3  UNL     1      14.004   4.019  -1.868  1.00  0.00    -0.026 C 
HETATM    2  C4  UNL     1      13.628   3.152  -0.666  1.00  0.00     0.019 C 
HETATM    3  C5  UNL     1      15.240   3.512  -2.479  1.00  0.00     0.017 C 
HETATM    4  C6  UNL     1      15.170   2.439  -3.509  1.00  0.00     0.037 C 
HETATM    5  C7  UNL     1      13.784   2.373  -4.115  1.00  0.00    -0.058 C 
HETATM    6  C8  UNL     1      13.307   3.762  -4.158  1.00  0.00     0.044 C 
HETATM    7  C9  UNL     1      12.822   4.192  -2.795  1.00  0.00     0.026 C 
HETATM    8  C10 UNL     1      12.374   4.025  -5.244  1.00  0.00    -0.081 C 
HETATM    9  C11 UNL     1      11.194   4.533  -5.035  1.00  0.00     0.015 C 
HETATM   10  C12 UNL     1      12.685   3.747  -6.681  1.00  0.00     0.035 C 
HETATM   11  C13 UNL     1      14.087   3.117  -6.829  1.00  0.00     0.016 C 
HETATM   12  C14 UNL     1      13.889   1.650  -6.613  1.00  0.00     0.054 C 
HETATM   13  C24 UNL     1      13.577   1.421  -5.200  1.00  0.00     0.028 C 
ENDROOT
BRANCH  12  14
HETATM   14  C15 UNL     1      14.932   0.764  -7.266  1.00  0.00     0.037 C 
HETATM   15  C20 UNL     1      15.434  -0.347  -6.377  1.00  0.00     0.032 C 
HETATM   16  C21 UNL     1      16.645  -1.039  -6.938  1.00  0.00     0.007 C 
HETATM   17  C22 UNL     1      17.851  -0.141  -7.082  1.00  0.00     0.044 C 
HETATM   18  C23 UNL     1      17.316   1.259  -7.057  1.00  0.00     0.056 C 
HETATM   19  N1  UNL     1      16.091   1.477  -7.676  1.00  0.00    -0.392 N 
ATOM     20  H1  UNL     1      16.023   2.157  -8.433  1.00  0.00     0.159 HD
BRANCH  14  21
HETATM   21  C16 UNL     1      14.368   0.065  -8.499  1.00  0.00     0.034 C 
BRANCH  21  22
HETATM   22  C17 UNL     1      13.279   0.727  -9.213  1.00  0.00     0.036 C 
BRANCH  22  23
HETATM   23  C18 UNL     1      13.669   1.566 -10.407  1.00  0.00     0.145 A 
HETATM   24  C19 UNL     1      13.224   2.988 -10.499  1.00  0.00     0.200 A 
HETATM   25  O1  UNL     1      14.539   2.636 -10.219  1.00  0.00    -0.381 OA
ENDBRANCH  22  23
ENDBRANCH  21  22
ENDBRANCH  14  21
ENDBRANCH  12  14
BRANCH  13  26
HETATM   26  C25 UNL     1      12.225   0.813  -5.042  1.00  0.00     0.205 C 
HETATM   27  O2  UNL     1      11.800   0.516  -3.911  1.00  0.00    -0.644 OA
HETATM   28  O3  UNL     1      11.421   0.566  -6.133  1.00  0.00    -0.644 OA
ENDBRANCH  13  26
BRANCH   1  29
HETATM   29  C2  UNL     1      14.286   5.371  -1.298  1.00  0.00    -0.028 C 
HETATM   30  C1  UNL     1      13.552   6.405  -1.621  1.00  0.00     0.007 C 
ENDBRANCH   1  29
TORSDOF 6
ENDMDL
MODEL 3
REMARK VINA RESULT: -8.590407450      1.972      3.135
REMARK  6 active torsions:
REMARK  status: ('A' for Active; 'I' for Inactive)
REMARK    1  A    between atoms: C2_2  and  C3_3 
REMARK    2  A    between atoms: C14_14  and  C15_15 
REMARK    3  A    between atoms: C15_15  and  C16_16 
REMARK    4  A    between atoms: C16_16  and  C17_17 
REMARK    5  A    between atoms: C17_17  and  C18_18 
REMARK    6  A    between atoms: C24_27  and  C25_28 
ROOT
HETATM    1  C3  UNL     1      13.880   4.911  -1.957  1.00  0.00    -0.026 C 
HETATM    2  C4  UNL     1      13.856   4.043  -0.698  1.00  0.00     0.019 C 
HETATM    3  C5  UNL     1      15.217   4.869  -2.564  1.00  0.00     0.017 C 
HETATM    4  C6  UNL     1      15.559   3.787  -3.527  1.00  0.00     0.037 C 
HETATM    5  C7  UNL     1      14.301   3.167  -4.098  1.00  0.00    -0.058 C 
HETATM    6  C8  UNL     1      13.335   4.269  -4.212  1.00  0.00     0.044 C 
HETATM    7  C9  UNL     1      12.721   4.569  -2.866  1.00  0.00     0.026 C 
HETATM    8  C10 UNL     1      12.374   4.093  -5.291  1.00  0.00    -0.081 C 
HETATM    9  C11 UNL     1      11.089   4.132  -5.086  1.00  0.00     0.015 C 
HETATM   10  C12 UNL     1      12.770   3.864  -6.715  1.00  0.00     0.035 C 
HETATM   11  C13 UNL     1      14.306   3.801  -6.857  1.00  0.00     0.016 C 
HETATM   12  C14 UNL     1      14.675   2.383  -6.552  1.00  0.00     0.054 C 
HETATM   13  C24 UNL     1      14.470   2.142  -5.122  1.00  0.00     0.028 C 
ENDROOT
BRANCH  12  14
HETATM   14  C15 UNL     1      15.976   1.915  -7.174  1.00  0.00     0.037 C 
HETATM   15  C20 UNL     1      16.889   3.038  -7.598  1.00  0.00     0.032 C 
HETATM   16  C21 UNL     1      18.038   2.566  -8.446  1.00  0.00     0.007 C 
HETATM   17  C22 UNL     1      17.616   1.950  -9.759  1.00  0.00     0.044 C 
HETATM   18  C23 UNL     1      16.172   1.585  -9.587  1.00  0.00     0.056 C 
HETATM   19  N1  UNL     1      15.784   1.120  -8.337  1.00  0.00    -0.392 N 
ATOM     20  H1  UNL     1      15.356   0.199  -8.252  1.00  0.00     0.159 HD
BRANCH  14  21
HETATM   21  C16 UNL     1      16.793   1.087  -6.187  1.00  0.00     0.034 C 
BRANCH  21  22
HETATM   22  C17 UNL     1      16.726  -0.368  -6.308  1.00  0.00     0.036 C 
BRANCH  22  23
HETATM   23  C18 UNL     1      17.941  -1.050  -6.894  1.00  0.00     0.145 A 
HETATM   24  C19 UNL     1      17.812  -2.401  -7.516  1.00  0.00     0.200 A 
HETATM   25  O1  UNL     1      17.998  -1.249  -8.270  1.00  0.00    -0.381 OA
ENDBRANCH  22  23
ENDBRANCH  21  22
ENDBRANCH  14  21
ENDBRANCH  12  14
BRANCH  13  26
HETATM   26  C25 UNL     1      13.446   1.081  -4.899  1.00  0.00     0.205 C 
HETATM   27  O2  UNL     1      12.810   1.038  -3.830  1.00  0.00    -0.644 OA
HETATM   28  O3  UNL     1      13.181   0.130  -5.860  1.00  0.00    -0.644 OA
ENDBRANCH  13  26
BRANCH   1  29
HETATM   29  C2  UNL     1      13.630   6.302  -1.472  1.00  0.00    -0.028 C 
HETATM   30  C1  UNL     1      14.226   6.760  -0.400  1.00  0.00     0.007 C 
ENDBRANCH   1  29
TORSDOF 6
ENDMDL
MODEL 4
REMARK VINA RESULT: -8.589103533      1.454      1.928
REMARK  6 active torsions:
REMARK  status: ('A' for Active; 'I' for Inactive)
REMARK    1  A    between atoms: C2_2  and  C3_3 
REMARK    2  A    between atoms: C14_14  and  C15_15 
REMARK    3  A    between atoms: C15_15  and  C16_16 
REMARK    4  A    between atoms: C16_16  and  C17_17 
REMARK    5  A    between atoms: C17_17  and  C18_18 
REMARK    6  A    between atoms: C24_27  and  C25_28 
ROOT
HETATM    1  C3  UNL     1      13.950   3.983  -1.785  1.00  0.00    -0.026 C 
HETATM    2  C4  UNL     1      13.550   3.115  -0.591  1.00  0.00     0.019 C 
HETATM    3  C5  UNL     1      15.194   3.472  -2.377  1.00  0.00     0.017 C 
HETATM    4  C6  UNL     1      15.135   2.401  -3.410  1.00  0.00     0.037 C 
HETATM    5  C7  UNL     1      13.759   2.344  -4.038  1.00  0.00    -0.058 C 
HETATM    6  C8  UNL     1      13.289   3.736  -4.086  1.00  0.00     0.044 C 
HETATM    7  C9  UNL     1      12.784   4.165  -2.730  1.00  0.00     0.026 C 
HETATM    8  C10 UNL     1      12.375   4.005  -5.186  1.00  0.00    -0.081 C 
HETATM    9  C11 UNL     1      11.194   4.519  -4.996  1.00  0.00     0.015 C 
HETATM   10  C12 UNL     1      12.709   3.730  -6.618  1.00  0.00     0.035 C 
HETATM   11  C13 UNL     1      14.110   3.094  -6.745  1.00  0.00     0.016 C 
HETATM   12  C14 UNL     1      13.901   1.626  -6.537  1.00  0.00     0.054 C 
HETATM   13  C24 UNL     1      13.565   1.396  -5.130  1.00  0.00     0.028 C 
ENDROOT
BRANCH  12  14
HETATM   14  C15 UNL     1      14.950   0.737  -7.174  1.00  0.00     0.037 C 
HETATM   15  C20 UNL     1      15.113  -0.601  -6.496  1.00  0.00     0.032 C 
HETATM   16  C21 UNL     1      16.327  -1.350  -6.969  1.00  0.00     0.007 C 
HETATM   17  C22 UNL     1      17.632  -0.651  -6.670  1.00  0.00     0.044 C 
HETATM   18  C23 UNL     1      17.272   0.782  -6.414  1.00  0.00     0.056 C 
HETATM   19  N1  UNL     1      16.246   1.321  -7.181  1.00  0.00    -0.392 N 
ATOM     20  H1  UNL     1      16.425   2.144  -7.755  1.00  0.00     0.159 HD
BRANCH  14  21
HETATM   21  C16 UNL     1      14.591   0.410  -8.621  1.00  0.00     0.034 C 
BRANCH  21  22
HETATM   22  C17 UNL     1      15.052   1.333  -9.656  1.00  0.00     0.036 C 
BRANCH  22  23
HETATM   23  C18 UNL     1      16.134   0.821 -10.579  1.00  0.00     0.145 A 
HETATM   24  C19 UNL     1      17.464   1.497 -10.618  1.00  0.00     0.200 A 
HETATM   25  O1  UNL     1      17.277   0.256 -10.023  1.00  0.00    -0.381 OA
ENDBRANCH  22  23
ENDBRANCH  21  22
ENDBRANCH  14  21
ENDBRANCH  12  14
BRANCH  13  26
HETATM   26  C25 UNL     1      12.208   0.794  -4.995  1.00  0.00     0.205 C 
HETATM   27  O2  UNL     1      11.716   0.603  -3.868  1.00  0.00    -0.644 OA
HETATM   28  O3  UNL     1      11.471   0.438  -6.103  1.00  0.00    -0.644 OA
ENDBRANCH  13  26
BRANCH   1  29
HETATM   29  C2  UNL     1      14.229   5.333  -1.206  1.00  0.00    -0.028 C 
HETATM   30  C1  UNL     1      13.575   6.390  -1.615  1.00  0.00     0.007 C 
ENDBRANCH   1  29
TORSDOF 6
ENDMDL
MODEL 5
REMARK VINA RESULT: -8.584601428      1.582      3.094
REMARK  6 active torsions:
REMARK  status: ('A' for Active; 'I' for Inactive)
REMARK    1  A    between atoms: C2_2  and  C3_3 
REMARK    2  A    between atoms: C14_14  and  C15_15 
REMARK    3  A    between atoms: C15_15  and  C16_16 
REMARK    4  A    between atoms: C16_16  and  C17_17 
REMARK    5  A    between atoms: C17_17  and  C18_18 
REMARK    6  A    between atoms: C24_27  and  C25_28 
ROOT
HETATM    1  C3  UNL     1      13.965   4.049  -1.778  1.00  0.00    -0.026 C 
HETATM    2  C4  UNL     1      13.557   3.188  -0.582  1.00  0.00     0.019 C 
HETATM    3  C5  UNL     1      15.225   3.550  -2.343  1.00  0.00     0.017 C 
HETATM    4  C6  UNL     1      15.200   2.468  -3.366  1.00  0.00     0.037 C 
HETATM    5  C7  UNL     1      13.835   2.384  -4.017  1.00  0.00    -0.058 C 
HETATM    6  C8  UNL     1      13.347   3.768  -4.087  1.00  0.00     0.044 C 
HETATM    7  C9  UNL     1      12.812   4.204  -2.745  1.00  0.00     0.026 C 
HETATM    8  C10 UNL     1      12.448   4.013  -5.206  1.00  0.00    -0.081 C 
HETATM    9  C11 UNL     1      11.257   4.511  -5.041  1.00  0.00     0.015 C 
HETATM   10  C12 UNL     1      12.810   3.727  -6.629  1.00  0.00     0.035 C 
HETATM   11  C13 UNL     1      14.222   3.110  -6.725  1.00  0.00     0.016 C 
HETATM   12  C14 UNL     1      14.031   1.642  -6.505  1.00  0.00     0.054 C 
HETATM   13  C24 UNL     1      13.674   1.422  -5.101  1.00  0.00     0.028 C 
ENDROOT
BRANCH  12  14
HETATM   14  C15 UNL     1      15.103   0.762  -7.115  1.00  0.00     0.037 C 
HETATM   15  C20 UNL     1      14.767   0.255  -8.495  1.00  0.00     0.032 C 
HETATM   16  C21 UNL     1      15.707  -0.819  -8.967  1.00  0.00     0.007 C 
HETATM   17  C22 UNL     1      15.678  -2.072  -8.123  1.00  0.00     0.044 C 
HETATM   18  C23 UNL     1      15.063  -1.663  -6.818  1.00  0.00     0.056 C 
HETATM   19  N1  UNL     1      15.380  -0.398  -6.340  1.00  0.00    -0.392 N 
ATOM     20  H1  UNL     1      15.815  -0.300  -5.423  1.00  0.00     0.159 HD
BRANCH  14  21
HETATM   21  C16 UNL     1      16.416   1.523  -7.277  1.00  0.00     0.034 C 
BRANCH  21  22
HETATM   22  C17 UNL     1      17.400   1.409  -6.204  1.00  0.00     0.036 C 
BRANCH  22  23
HETATM   23  C18 UNL     1      18.568   0.485  -6.457  1.00  0.00     0.145 A 
HETATM   24  C19 UNL     1      19.305  -0.121  -5.309  1.00  0.00     0.200 A 
HETATM   25  O1  UNL     1      18.446  -0.858  -6.115  1.00  0.00    -0.381 OA
ENDBRANCH  22  23
ENDBRANCH  21  22
ENDBRANCH  14  21
ENDBRANCH  12  14
BRANCH  13  26
HETATM   26  C25 UNL     1      12.323   0.802  -4.983  1.00  0.00     0.205 C 
HETATM   27  O2  UNL     1      11.830   0.581  -3.862  1.00  0.00    -0.644 OA
HETATM   28  O3  UNL     1      11.594   0.459  -6.101  1.00  0.00    -0.644 OA
ENDBRANCH  13  26
BRANCH   1  29
HETATM   29  C2  UNL     1      14.214   5.408  -1.209  1.00  0.00    -0.028 C 
HETATM   30  C1  UNL     1      13.571   6.456  -1.659  1.00  0.00     0.007 C 
ENDBRANCH   1  29
TORSDOF 6
ENDMDL
