MODEL 1
REMARK VINA RESULT: -9.854090115      0.000      0.000
REMARK  8 active torsions:
REMARK  status: ('A' for Active; 'I' for Inactive)
REMARK    1  A    between atoms: C3_3  and  C4_4 
REMARK    2  A    between atoms: C4_4  and  C6_6 
REMARK    3  A    between atoms: C6_6  and  C7_7 
REMARK    4  A    between atoms: C7_7  and  C8_8 
REMARK    5  A    between atoms: C8_8  and  C9_10 
REMARK    6  A    between atoms: C9_10  and  C10_11 
REMARK    7  A    between atoms: C10_11  and  N1_12 
REMARK    8  A    between atoms: C24_29  and  O2_30 
ROOT
HETATM    1  C1  UNL     1      11.315   4.407  -3.938  1.00  0.00     0.015 C 
HETATM    2  C2  UNL     1      12.428   3.872  -4.384  1.00  0.00    -0.073 C 
HETATM    3  C3  UNL     1      13.685   4.136  -3.645  1.00  0.00     0.018 C 
HETATM    4  C11 UNL     1      14.714   3.064  -3.665  1.00  0.00     0.010 C 
HETATM    5  C12 UNL     1      14.672   2.104  -4.803  1.00  0.00     0.007 C 
HETATM    6  C13 UNL     1      13.274   1.797  -5.216  1.00  0.00     0.009 C 
HETATM    7  C14 UNL     1      13.127   0.619  -6.157  1.00  0.00    -0.035 C 
HETATM    8  C15 UNL     1      12.132  -0.398  -5.639  1.00  0.00     0.016 C 
HETATM    9  C16 UNL     1      14.446  -0.135  -6.288  1.00  0.00     0.010 C 
HETATM   10  C17 UNL     1      14.274  -1.323  -7.154  1.00  0.00     0.002 C 
HETATM   11  C18 UNL     1      13.225  -1.301  -8.187  1.00  0.00     0.009 C 
HETATM   12  C19 UNL     1      12.715   0.040  -8.589  1.00  0.00    -0.043 C 
HETATM   13  C20 UNL     1      13.540   0.457  -9.803  1.00  0.00     0.015 C 
HETATM   14  C21 UNL     1      11.327  -0.133  -9.180  1.00  0.00     0.015 C 
HETATM   15  C22 UNL     1      12.772   1.089  -7.523  1.00  0.00     0.004 C 
HETATM   16  C23 UNL     1      11.485   1.829  -7.479  1.00  0.00     0.039 C 
HETATM   17  C24 UNL     1      11.244   2.717  -6.291  1.00  0.00     0.131 C 
HETATM   18  C25 UNL     1      12.549   3.038  -5.596  1.00  0.00     0.009 C 
HETATM   19  C26 UNL     1      13.296   3.973  -6.552  1.00  0.00     0.023 C 
ENDROOT
BRANCH   3  20
HETATM   20  C4  UNL     1      13.445   4.619  -2.232  1.00  0.00    -0.010 C 
HETATM   21  C5  UNL     1      13.595   3.557  -1.201  1.00  0.00     0.010 C 
BRANCH  20  22
HETATM   22  C6  UNL     1      14.315   5.802  -1.895  1.00  0.00     0.012 C 
BRANCH  22  23
HETATM   23  C7  UNL     1      13.630   6.885  -1.105  1.00  0.00     0.079 C 
BRANCH  23  24
HETATM   24  C8  UNL     1      14.221   7.131   0.223  1.00  0.00     0.128 C 
HETATM   25  O1  UNL     1      13.941   8.106   0.886  1.00  0.00    -0.298 OA
BRANCH  24  26
HETATM   26  C9  UNL     1      15.203   6.182   0.825  1.00  0.00     0.105 C 
BRANCH  26  27
HETATM   27  C10 UNL     1      16.118   6.914   1.803  1.00  0.00     0.237 C 
BRANCH  27  28
HETATM   28  N1  UNL     1      17.502   6.694   1.514  1.00  0.00    -0.079 N 
ATOM     29  H13 UNL     1      17.664   6.626   0.510  1.00  0.00     0.274 HD
ATOM     30  H12 UNL     1      18.057   7.527   1.711  1.00  0.00     0.274 HD
ATOM     31  H11 UNL     1      17.872   5.879   2.004  1.00  0.00     0.274 HD
ENDBRANCH  27  28
ENDBRANCH  26  27
ENDBRANCH  24  26
ENDBRANCH  23  24
ENDBRANCH  22  23
ENDBRANCH  20  22
ENDBRANCH   3  20
BRANCH  17  32
HETATM   32  O2  UNL     1      10.310   2.104  -5.431  1.00  0.00    -0.394 OA
ATOM     33  H2  UNL     1      10.626   1.243  -5.185  1.00  0.00     0.210 HD
ENDBRANCH  17  32
TORSDOF 8
ENDMDL
MODEL 2
REMARK VINA RESULT: -9.838783667      2.523      4.774
REMARK  8 active torsions:
REMARK  status: ('A' for Active; 'I' for Inactive)
REMARK    1  A    between atoms: C3_3  and  C4_4 
REMARK    2  A    between atoms: C4_4  and  C6_6 
REMARK    3  A    between atoms: C6_6  and  C7_7 
REMARK    4  A    between atoms: C7_7  and  C8_8 
REMARK    5  A    between atoms: C8_8  and  C9_10 
REMARK    6  A    between atoms: C9_10  and  C10_11 
REMARK    7  A    between atoms: C10_11  and  N1_12 
REMARK    8  A    between atoms: C24_29  and  O2_30 
ROOT
HETATM    1  C1  UNL     1      16.714   4.315  -0.619  1.00  0.00     0.015 C 
HETATM    2  C2  UNL     1      15.442   4.432  -0.923  1.00  0.00    -0.073 C 
HETATM    3  C3  UNL     1      14.665   5.530  -0.302  1.00  0.00     0.018 C 
HETATM    4  C11 UNL     1      13.552   6.102  -1.101  1.00  0.00     0.010 C 
HETATM    5  C12 UNL     1      12.956   5.234  -2.156  1.00  0.00     0.007 C 
HETATM    6  C13 UNL     1      13.986   4.385  -2.818  1.00  0.00     0.009 C 
HETATM    7  C14 UNL     1      13.529   3.696  -4.088  1.00  0.00    -0.035 C 
HETATM    8  C15 UNL     1      14.459   3.976  -5.249  1.00  0.00     0.016 C 
HETATM    9  C16 UNL     1      12.165   4.218  -4.524  1.00  0.00     0.010 C 
HETATM   10  C17 UNL     1      11.759   3.589  -5.801  1.00  0.00     0.002 C 
HETATM   11  C18 UNL     1      12.278   2.250  -6.128  1.00  0.00     0.009 C 
HETATM   12  C19 UNL     1      12.800   1.442  -4.989  1.00  0.00    -0.043 C 
HETATM   13  C20 UNL     1      11.635   0.578  -4.517  1.00  0.00     0.015 C 
HETATM   14  C21 UNL     1      13.770   0.413  -5.538  1.00  0.00     0.015 C 
HETATM   15  C22 UNL     1      13.367   2.236  -3.853  1.00  0.00     0.004 C 
HETATM   16  C23 UNL     1      14.665   1.649  -3.431  1.00  0.00     0.039 C 
HETATM   17  C24 UNL     1      15.521   2.470  -2.508  1.00  0.00     0.131 C 
HETATM   18  C25 UNL     1      14.693   3.535  -1.824  1.00  0.00     0.009 C 
HETATM   19  C26 UNL     1      13.792   2.779  -0.843  1.00  0.00     0.023 C 
ENDROOT
BRANCH   3  20
HETATM   20  C4  UNL     1      15.543   6.630   0.254  1.00  0.00    -0.010 C 
HETATM   21  C5  UNL     1      15.259   7.972  -0.322  1.00  0.00     0.010 C 
BRANCH  20  22
HETATM   22  C6  UNL     1      15.483   6.682   1.758  1.00  0.00     0.012 C 
BRANCH  22  23
HETATM   23  C7  UNL     1      16.301   7.779   2.385  1.00  0.00     0.079 C 
BRANCH  23  24
HETATM   24  C8  UNL     1      15.536   8.670   3.276  1.00  0.00     0.128 C 
HETATM   25  O1  UNL     1      14.691   9.433   2.860  1.00  0.00    -0.298 OA
BRANCH  24  26
HETATM   26  C9  UNL     1      15.764   8.677   4.751  1.00  0.00     0.105 C 
BRANCH  26  27
HETATM   27  C10 UNL     1      14.675   9.484   5.453  1.00  0.00     0.237 C 
BRANCH  27  28
HETATM   28  N1  UNL     1      14.811   9.449   6.877  1.00  0.00    -0.079 N 
ATOM     29  H13 UNL     1      13.900   9.438   7.335  1.00  0.00     0.274 HD
ATOM     30  H12 UNL     1      15.162   8.545   7.192  1.00  0.00     0.274 HD
ATOM     31  H11 UNL     1      15.391  10.213   7.226  1.00  0.00     0.274 HD
ENDBRANCH  27  28
ENDBRANCH  26  27
ENDBRANCH  24  26
ENDBRANCH  23  24
ENDBRANCH  22  23
ENDBRANCH  20  22
ENDBRANCH   3  20
BRANCH  17  32
HETATM   32  O2  UNL     1      16.605   3.008  -3.230  1.00  0.00    -0.394 OA
ATOM     33  H2  UNL     1      17.276   3.296  -2.623  1.00  0.00     0.210 HD
ENDBRANCH  17  32
TORSDOF 8
ENDMDL
MODEL 3
REMARK VINA RESULT: -9.599464709      1.931      3.708
REMARK  8 active torsions:
REMARK  status: ('A' for Active; 'I' for Inactive)
REMARK    1  A    between atoms: C3_3  and  C4_4 
REMARK    2  A    between atoms: C4_4  and  C6_6 
REMARK    3  A    between atoms: C6_6  and  C7_7 
REMARK    4  A    between atoms: C7_7  and  C8_8 
REMARK    5  A    between atoms: C8_8  and  C9_10 
REMARK    6  A    between atoms: C9_10  and  C10_11 
REMARK    7  A    between atoms: C10_11  and  N1_12 
REMARK    8  A    between atoms: C24_29  and  O2_30 
ROOT
HETATM    1  C1  UNL     1      16.152   4.137  -1.608  1.00  0.00     0.015 C 
HETATM    2  C2  UNL     1      14.923   4.009  -2.052  1.00  0.00    -0.073 C 
HETATM    3  C3  UNL     1      13.885   4.930  -1.534  1.00  0.00     0.018 C 
HETATM    4  C11 UNL     1      12.777   5.282  -2.458  1.00  0.00     0.010 C 
HETATM    5  C12 UNL     1      12.480   4.325  -3.560  1.00  0.00     0.007 C 
HETATM    6  C13 UNL     1      13.721   3.698  -4.095  1.00  0.00     0.009 C 
HETATM    7  C14 UNL     1      13.548   2.944  -5.398  1.00  0.00    -0.035 C 
HETATM    8  C15 UNL     1      14.529   3.408  -6.454  1.00  0.00     0.016 C 
HETATM    9  C16 UNL     1      12.166   3.196  -5.987  1.00  0.00     0.010 C 
HETATM   10  C17 UNL     1      12.032   2.512  -7.293  1.00  0.00     0.002 C 
HETATM   11  C18 UNL     1      12.833   1.301  -7.545  1.00  0.00     0.009 C 
HETATM   12  C19 UNL     1      13.373   0.600  -6.346  1.00  0.00    -0.043 C 
HETATM   13  C20 UNL     1      12.352  -0.478  -5.993  1.00  0.00     0.015 C 
HETATM   14  C21 UNL     1      14.578  -0.218  -6.772  1.00  0.00     0.015 C 
HETATM   15  C22 UNL     1      13.647   1.478  -5.164  1.00  0.00     0.004 C 
HETATM   16  C23 UNL     1      14.979   1.150  -4.595  1.00  0.00     0.039 C 
HETATM   17  C24 UNL     1      15.554   2.112  -3.593  1.00  0.00     0.131 C 
HETATM   18  C25 UNL     1      14.466   2.991  -3.019  1.00  0.00     0.009 C 
HETATM   19  C26 UNL     1      13.625   2.066  -2.133  1.00  0.00     0.023 C 
ENDROOT
BRANCH   3  20
HETATM   20  C4  UNL     1      14.467   6.174  -0.899  1.00  0.00    -0.010 C 
HETATM   21  C5  UNL     1      13.898   7.441  -1.431  1.00  0.00     0.010 C 
BRANCH  20  22
HETATM   22  C6  UNL     1      14.351   6.138   0.602  1.00  0.00     0.012 C 
BRANCH  22  23
HETATM   23  C7  UNL     1      15.570   6.620   1.341  1.00  0.00     0.079 C 
BRANCH  23  24
HETATM   24  C8  UNL     1      15.406   7.936   1.986  1.00  0.00     0.128 C 
HETATM   25  O1  UNL     1      14.575   8.737   1.620  1.00  0.00    -0.298 OA
BRANCH  24  26
HETATM   26  C9  UNL     1      16.264   8.350   3.135  1.00  0.00     0.105 C 
BRANCH  26  27
HETATM   27  C10 UNL     1      15.431   9.090   4.179  1.00  0.00     0.237 C 
BRANCH  27  28
HETATM   28  N1  UNL     1      15.801   8.736   5.514  1.00  0.00    -0.079 N 
ATOM     29  H13 UNL     1      15.638   7.745   5.692  1.00  0.00     0.274 HD
ATOM     30  H12 UNL     1      16.813   8.757   5.635  1.00  0.00     0.274 HD
ATOM     31  H11 UNL     1      15.334   9.317   6.210  1.00  0.00     0.274 HD
ENDBRANCH  27  28
ENDBRANCH  26  27
ENDBRANCH  24  26
ENDBRANCH  23  24
ENDBRANCH  22  23
ENDBRANCH  20  22
ENDBRANCH   3  20
BRANCH  17  32
HETATM   32  O2  UNL     1      16.587   2.856  -4.199  1.00  0.00    -0.394 OA
ATOM     33  H2  UNL     1      16.462   3.779  -4.010  1.00  0.00     0.210 HD
ENDBRANCH  17  32
TORSDOF 8
ENDMDL
MODEL 4
REMARK VINA RESULT: -9.310472475      1.022      1.078
REMARK  8 active torsions:
REMARK  status: ('A' for Active; 'I' for Inactive)
REMARK    1  A    between atoms: C3_3  and  C4_4 
REMARK    2  A    between atoms: C4_4  and  C6_6 
REMARK    3  A    between atoms: C6_6  and  C7_7 
REMARK    4  A    between atoms: C7_7  and  C8_8 
REMARK    5  A    between atoms: C8_8  and  C9_10 
REMARK    6  A    between atoms: C9_10  and  C10_11 
REMARK    7  A    between atoms: C10_11  and  N1_12 
REMARK    8  A    between atoms: C24_29  and  O2_30 
ROOT
HETATM    1  C1  UNL     1      11.901   4.283  -4.577  1.00  0.00     0.015 C 
HETATM    2  C2  UNL     1      13.056   3.692  -4.782  1.00  0.00    -0.073 C 
HETATM    3  C3  UNL     1      14.148   3.917  -3.806  1.00  0.00     0.018 C 
HETATM    4  C11 UNL     1      15.109   2.803  -3.604  1.00  0.00     0.010 C 
HETATM    5  C12 UNL     1      15.255   1.821  -4.715  1.00  0.00     0.007 C 
HETATM    6  C13 UNL     1      13.956   1.566  -5.400  1.00  0.00     0.009 C 
HETATM    7  C14 UNL     1      13.949   0.375  -6.337  1.00  0.00    -0.035 C 
HETATM    8  C15 UNL     1      12.823  -0.587  -6.020  1.00  0.00     0.016 C 
HETATM    9  C16 UNL     1      15.230  -0.436  -6.188  1.00  0.00     0.010 C 
HETATM   10  C17 UNL     1      15.183  -1.634  -7.057  1.00  0.00     0.002 C 
HETATM   11  C18 UNL     1      14.367  -1.590  -8.282  1.00  0.00     0.009 C 
HETATM   12  C19 UNL     1      14.011  -0.237  -8.795  1.00  0.00    -0.043 C 
HETATM   13  C20 UNL     1      15.083   0.120  -9.821  1.00  0.00     0.015 C 
HETATM   14  C21 UNL     1      12.765  -0.363  -9.653  1.00  0.00     0.015 C 
HETATM   15  C22 UNL     1      13.899   0.832  -7.752  1.00  0.00     0.004 C 
HETATM   16  C23 UNL     1      12.665   1.627  -7.979  1.00  0.00     0.039 C 
HETATM   17  C24 UNL     1      12.230   2.549  -6.875  1.00  0.00     0.131 C 
HETATM   18  C25 UNL     1      13.381   2.828  -5.934  1.00  0.00     0.009 C 
HETATM   19  C26 UNL     1      14.348   3.710  -6.729  1.00  0.00     0.023 C 
ENDROOT
BRANCH   3  20
HETATM   20  C4  UNL     1      13.650   4.440  -2.477  1.00  0.00    -0.010 C 
HETATM   21  C5  UNL     1      13.532   3.393  -1.427  1.00  0.00     0.010 C 
BRANCH  20  22
HETATM   22  C6  UNL     1      14.492   5.587  -1.981  1.00  0.00     0.012 C 
BRANCH  22  23
HETATM   23  C7  UNL     1      13.874   6.387  -0.865  1.00  0.00     0.079 C 
BRANCH  23  24
HETATM   24  C8  UNL     1      14.674   6.413   0.374  1.00  0.00     0.128 C 
HETATM   25  O1  UNL     1      14.846   5.427   1.055  1.00  0.00    -0.298 OA
BRANCH  24  26
HETATM   26  C9  UNL     1      15.318   7.670   0.856  1.00  0.00     0.105 C 
BRANCH  26  27
HETATM   27  C10 UNL     1      16.271   7.369   2.010  1.00  0.00     0.237 C 
BRANCH  27  28
HETATM   28  N1  UNL     1      17.551   6.925   1.550  1.00  0.00    -0.079 N 
ATOM     29  H13 UNL     1      17.824   6.054   2.005  1.00  0.00     0.274 HD
ATOM     30  H12 UNL     1      17.503   6.597   0.586  1.00  0.00     0.274 HD
ATOM     31  H11 UNL     1      18.269   7.641   1.662  1.00  0.00     0.274 HD
ENDBRANCH  27  28
ENDBRANCH  26  27
ENDBRANCH  24  26
ENDBRANCH  23  24
ENDBRANCH  22  23
ENDBRANCH  20  22
ENDBRANCH   3  20
BRANCH  17  32
HETATM   32  O2  UNL     1      11.114   1.995  -6.215  1.00  0.00    -0.394 OA
ATOM     33  H2  UNL     1      10.395   1.911  -6.830  1.00  0.00     0.210 HD
ENDBRANCH  17  32
TORSDOF 8
ENDMDL
MODEL 5
REMARK VINA RESULT: -9.197557268      1.961      3.257
REMARK  8 active torsions:
REMARK  status: ('A' for Active; 'I' for Inactive)
REMARK    1  A    between atoms: C3_3  and  C4_4 
REMARK    2  A    between atoms: C4_4  and  C6_6 
REMARK    3  A    between atoms: C6_6  and  C7_7 
REMARK    4  A    between atoms: C7_7  and  C8_8 
REMARK    5  A    between atoms: C8_8  and  C9_10 
REMARK    6  A    between atoms: C9_10  and  C10_11 
REMARK    7  A    between atoms: C10_11  and  N1_12 
REMARK    8  A    between atoms: C24_29  and  O2_30 
ROOT
HETATM    1  C1  UNL     1      16.065   3.134  -2.588  1.00  0.00     0.015 C 
HETATM    2  C2  UNL     1      14.931   3.135  -3.252  1.00  0.00    -0.073 C 
HETATM    3  C3  UNL     1      13.812   3.957  -2.737  1.00  0.00     0.018 C 
HETATM    4  C11 UNL     1      12.877   4.525  -3.742  1.00  0.00     0.010 C 
HETATM    5  C12 UNL     1      12.784   3.827  -5.055  1.00  0.00     0.007 C 
HETATM    6  C13 UNL     1      14.104   3.290  -5.489  1.00  0.00     0.009 C 
HETATM    7  C14 UNL     1      14.166   2.830  -6.932  1.00  0.00    -0.035 C 
HETATM    8  C15 UNL     1      15.310   3.477  -7.683  1.00  0.00     0.016 C 
HETATM    9  C16 UNL     1      12.904   3.238  -7.682  1.00  0.00     0.010 C 
HETATM   10  C17 UNL     1      13.004   2.845  -9.106  1.00  0.00     0.002 C 
HETATM   11  C18 UNL     1      13.847   1.692  -9.465  1.00  0.00     0.009 C 
HETATM   12  C19 UNL     1      14.177   0.741  -8.366  1.00  0.00    -0.043 C 
HETATM   13  C20 UNL     1      13.120  -0.358  -8.427  1.00  0.00     0.015 C 
HETATM   14  C21 UNL     1      15.445  -0.003  -8.742  1.00  0.00     0.015 C 
HETATM   15  C22 UNL     1      14.235   1.346  -6.997  1.00  0.00     0.004 C 
HETATM   16  C23 UNL     1      15.452   0.869  -6.291  1.00  0.00     0.039 C 
HETATM   17  C24 UNL     1      15.836   1.585  -5.027  1.00  0.00     0.131 C 
HETATM   18  C25 UNL     1      14.657   2.355  -4.474  1.00  0.00     0.009 C 
HETATM   19  C26 UNL     1      13.685   1.289  -3.959  1.00  0.00     0.023 C 
ENDROOT
BRANCH   3  20
HETATM   20  C4  UNL     1      14.265   5.025  -1.766  1.00  0.00    -0.010 C 
HETATM   21  C5  UNL     1      13.474   6.282  -1.845  1.00  0.00     0.010 C 
BRANCH  20  22
HETATM   22  C6  UNL     1      14.292   4.512  -0.350  1.00  0.00     0.012 C 
BRANCH  22  23
HETATM   23  C7  UNL     1      14.202   5.577   0.710  1.00  0.00     0.079 C 
BRANCH  23  24
HETATM   24  C8  UNL     1      15.488   6.227   1.024  1.00  0.00     0.128 C 
HETATM   25  O1  UNL     1      16.541   5.631   0.987  1.00  0.00    -0.298 OA
BRANCH  24  26
HETATM   26  C9  UNL     1      15.557   7.668   1.406  1.00  0.00     0.105 C 
BRANCH  26  27
HETATM   27  C10 UNL     1      16.486   7.856   2.603  1.00  0.00     0.237 C 
BRANCH  27  28
HETATM   28  N1  UNL     1      17.862   7.897   2.216  1.00  0.00    -0.079 N 
ATOM     29  H13 UNL     1      18.043   8.670   1.577  1.00  0.00     0.274 HD
ATOM     30  H12 UNL     1      18.455   8.187   2.993  1.00  0.00     0.274 HD
ATOM     31  H11 UNL     1      18.177   7.010   1.823  1.00  0.00     0.274 HD
ENDBRANCH  27  28
ENDBRANCH  26  27
ENDBRANCH  24  26
ENDBRANCH  23  24
ENDBRANCH  22  23
ENDBRANCH  20  22
ENDBRANCH   3  20
BRANCH  17  32
HETATM   32  O2  UNL     1      16.952   2.410  -5.277  1.00  0.00    -0.394 OA
ATOM     33  H2  UNL     1      17.371   2.631  -4.454  1.00  0.00     0.210 HD
ENDBRANCH  17  32
TORSDOF 8
ENDMDL
