MODEL 1
REMARK VINA RESULT: -8.579371001      0.000      0.000
REMARK  7 active torsions:
REMARK  status: ('A' for Active; 'I' for Inactive)
REMARK    1  A    between atoms: C2_2  and  S1_3 
REMARK    2  A    between atoms: S1_3  and  C3_4 
REMARK    3  A    between atoms: C3_4  and  C4_5 
REMARK    4  A    between atoms: C4_5  and  O1_7 
REMARK    5  A    between atoms: C4_5  and  C6_9 
REMARK    6  A    between atoms: C15_18  and  O2_19 
REMARK    7  A    between atoms: C23_28  and  C24_29 
ROOT
HETATM    1  C6  UNL     1      12.831   1.208  -7.295  1.00  0.00     0.036 C 
HETATM    2  C7  UNL     1      12.795   2.408  -8.212  1.00  0.00     0.009 C 
HETATM    3  C8  UNL     1      13.329   3.582  -7.378  1.00  0.00     0.007 C 
HETATM    4  C9  UNL     1      13.661   2.932  -6.085  1.00  0.00     0.006 C 
HETATM    5  C10 UNL     1      13.887   3.782  -4.911  1.00  0.00    -0.001 C 
HETATM    6  C11 UNL     1      15.381   3.877  -4.694  1.00  0.00     0.033 C 
HETATM    7  C12 UNL     1      15.762   4.263  -3.328  1.00  0.00    -0.023 C 
HETATM    8  C13 UNL     1      14.965   4.296  -2.294  1.00  0.00    -0.072 C 
HETATM    9  C14 UNL     1      15.485   4.705  -0.974  1.00  0.00     0.066 C 
HETATM   10  C15 UNL     1      14.603   5.840  -0.506  1.00  0.00     0.122 C 
HETATM   11  C16 UNL     1      13.592   6.292  -1.501  1.00  0.00     0.033 C 
HETATM   12  C17 UNL     1      12.768   5.224  -2.145  1.00  0.00     0.016 C 
HETATM   13  C18 UNL     1      13.560   3.947  -2.404  1.00  0.00    -0.017 C 
HETATM   14  C19 UNL     1      13.104   3.009  -1.274  1.00  0.00     0.020 C 
HETATM   15  C20 UNL     1      13.145   3.294  -3.701  1.00  0.00     0.003 C 
HETATM   16  C21 UNL     1      13.205   1.800  -3.549  1.00  0.00     0.007 C 
HETATM   17  C22 UNL     1      13.006   1.020  -4.791  1.00  0.00     0.018 C 
HETATM   18  C23 UNL     1      12.596   1.844  -5.957  1.00  0.00     0.023 C 
ENDROOT
BRANCH   1  19
HETATM   19  C4  UNL     1      12.026   0.070  -7.690  1.00  0.00     0.067 C 
HETATM   20  C5  UNL     1      11.084   0.242  -8.834  1.00  0.00     0.047 C 
BRANCH  19  21
HETATM   21  C3  UNL     1      13.004  -1.038  -8.129  1.00  0.00     0.111 C 
BRANCH  21  22
HETATM   22  S1  UNL     1      14.689  -0.399  -8.197  1.00  0.00    -0.167 SA
BRANCH  22  23
HETATM   23  C2  UNL     1      15.581  -1.024  -6.754  1.00  0.00     0.069 C 
HETATM   24  C1  UNL     1      16.266   0.067  -5.985  1.00  0.00     0.016 C 
ENDBRANCH  22  23
ENDBRANCH  21  22
ENDBRANCH  19  21
BRANCH  19  25
HETATM   25  O1  UNL     1      11.317  -0.469  -6.628  1.00  0.00    -0.389 OA
ATOM     26  H1  UNL     1      11.649  -0.027  -5.856  1.00  0.00     0.210 HD
ENDBRANCH  19  25
ENDBRANCH   1  19
BRANCH  18  27
HETATM   27  C24 UNL     1      11.221   2.318  -5.909  1.00  0.00     0.241 C 
HETATM   28  O3  UNL     1      10.272   1.810  -5.389  1.00  0.00    -0.306 OA
ENDBRANCH  18  27
BRANCH  10  29
HETATM   29  O2  UNL     1      15.451   6.951  -0.271  1.00  0.00    -0.395 OA
ATOM     30  H2  UNL     1      15.033   7.483   0.397  1.00  0.00     0.210 HD
ENDBRANCH  10  29
TORSDOF 7
ENDMDL
MODEL 2
REMARK VINA RESULT: -8.437948072      1.073      1.912
REMARK  7 active torsions:
REMARK  status: ('A' for Active; 'I' for Inactive)
REMARK    1  A    between atoms: C2_2  and  S1_3 
REMARK    2  A    between atoms: S1_3  and  C3_4 
REMARK    3  A    between atoms: C3_4  and  C4_5 
REMARK    4  A    between atoms: C4_5  and  O1_7 
REMARK    5  A    between atoms: C4_5  and  C6_9 
REMARK    6  A    between atoms: C15_18  and  O2_19 
REMARK    7  A    between atoms: C23_28  and  C24_29 
ROOT
HETATM    1  C6  UNL     1      12.804   1.234  -7.252  1.00  0.00     0.036 C 
HETATM    2  C7  UNL     1      12.814   2.429  -8.176  1.00  0.00     0.009 C 
HETATM    3  C8  UNL     1      13.373   3.592  -7.341  1.00  0.00     0.007 C 
HETATM    4  C9  UNL     1      13.671   2.938  -6.041  1.00  0.00     0.006 C 
HETATM    5  C10 UNL     1      13.909   3.787  -4.868  1.00  0.00    -0.001 C 
HETATM    6  C11 UNL     1      15.402   3.839  -4.634  1.00  0.00     0.033 C 
HETATM    7  C12 UNL     1      15.779   4.220  -3.266  1.00  0.00    -0.023 C 
HETATM    8  C13 UNL     1      14.971   4.282  -2.242  1.00  0.00    -0.072 C 
HETATM    9  C14 UNL     1      15.488   4.682  -0.918  1.00  0.00     0.066 C 
HETATM   10  C15 UNL     1      14.635   5.846  -0.465  1.00  0.00     0.122 C 
HETATM   11  C16 UNL     1      13.649   6.323  -1.475  1.00  0.00     0.033 C 
HETATM   12  C17 UNL     1      12.802   5.276  -2.123  1.00  0.00     0.016 C 
HETATM   13  C18 UNL     1      13.557   3.975  -2.366  1.00  0.00    -0.017 C 
HETATM   14  C19 UNL     1      13.062   3.056  -1.238  1.00  0.00     0.020 C 
HETATM   15  C20 UNL     1      13.138   3.328  -3.665  1.00  0.00     0.003 C 
HETATM   16  C21 UNL     1      13.153   1.833  -3.505  1.00  0.00     0.007 C 
HETATM   17  C22 UNL     1      12.945   1.053  -4.746  1.00  0.00     0.018 C 
HETATM   18  C23 UNL     1      12.573   1.883  -5.920  1.00  0.00     0.023 C 
ENDROOT
BRANCH   1  19
HETATM   19  C4  UNL     1      11.970   0.118  -7.652  1.00  0.00     0.067 C 
HETATM   20  C5  UNL     1      10.901   0.369  -8.661  1.00  0.00     0.047 C 
BRANCH  19  21
HETATM   21  C3  UNL     1      12.902  -0.928  -8.296  1.00  0.00     0.111 C 
BRANCH  21  22
HETATM   22  S1  UNL     1      12.463  -1.182 -10.026  1.00  0.00    -0.167 SA
BRANCH  22  23
HETATM   23  C2  UNL     1      11.919  -2.895 -10.219  1.00  0.00     0.069 C 
HETATM   24  C1  UNL     1      10.469  -3.000 -10.591  1.00  0.00     0.016 C 
ENDBRANCH  22  23
ENDBRANCH  21  22
ENDBRANCH  19  21
BRANCH  19  25
HETATM   25  O1  UNL     1      11.394  -0.525  -6.567  1.00  0.00    -0.389 OA
ATOM     26  H1  UNL     1      10.508  -0.732  -6.840  1.00  0.00     0.210 HD
ENDBRANCH  19  25
ENDBRANCH   1  19
BRANCH  18  27
HETATM   27  C24 UNL     1      11.212   2.398  -5.890  1.00  0.00     0.241 C 
HETATM   28  O3  UNL     1      10.244   1.924  -5.372  1.00  0.00    -0.306 OA
ENDBRANCH  18  27
BRANCH  10  29
HETATM   29  O2  UNL     1      15.513   6.932  -0.225  1.00  0.00    -0.395 OA
ATOM     30  H2  UNL     1      15.370   7.211   0.672  1.00  0.00     0.210 HD
ENDBRANCH  10  29
TORSDOF 7
ENDMDL
MODEL 3
REMARK VINA RESULT: -8.226076207      2.873      7.383
REMARK  7 active torsions:
REMARK  status: ('A' for Active; 'I' for Inactive)
REMARK    1  A    between atoms: C2_2  and  S1_3 
REMARK    2  A    between atoms: S1_3  and  C3_4 
REMARK    3  A    between atoms: C3_4  and  C4_5 
REMARK    4  A    between atoms: C4_5  and  O1_7 
REMARK    5  A    between atoms: C4_5  and  C6_9 
REMARK    6  A    between atoms: C15_18  and  O2_19 
REMARK    7  A    between atoms: C23_28  and  C24_29 
ROOT
HETATM    1  C6  UNL     1      13.643   3.479  -2.217  1.00  0.00     0.036 C 
HETATM    2  C7  UNL     1      12.969   4.817  -2.415  1.00  0.00     0.009 C 
HETATM    3  C8  UNL     1      12.337   4.759  -3.814  1.00  0.00     0.007 C 
HETATM    4  C9  UNL     1      12.671   3.381  -4.259  1.00  0.00     0.006 C 
HETATM    5  C10 UNL     1      12.530   3.051  -5.681  1.00  0.00    -0.001 C 
HETATM    6  C11 UNL     1      11.243   2.274  -5.848  1.00  0.00     0.033 C 
HETATM    7  C12 UNL     1      11.189   1.464  -7.072  1.00  0.00    -0.023 C 
HETATM    8  C13 UNL     1      12.199   1.200  -7.857  1.00  0.00    -0.072 C 
HETATM    9  C14 UNL     1      12.000   0.369  -9.061  1.00  0.00     0.066 C 
HETATM   10  C15 UNL     1      12.520   1.180 -10.226  1.00  0.00     0.122 C 
HETATM   11  C16 UNL     1      12.948   2.563  -9.877  1.00  0.00     0.033 C 
HETATM   12  C17 UNL     1      13.857   2.701  -8.698  1.00  0.00     0.016 C 
HETATM   13  C18 UNL     1      13.530   1.711  -7.585  1.00  0.00    -0.017 C 
HETATM   14  C19 UNL     1      14.611   0.629  -7.740  1.00  0.00     0.020 C 
HETATM   15  C20 UNL     1      13.730   2.329  -6.222  1.00  0.00     0.003 C 
HETATM   16  C21 UNL     1      14.252   1.286  -5.274  1.00  0.00     0.007 C 
HETATM   17  C22 UNL     1      14.323   1.690  -3.851  1.00  0.00     0.018 C 
HETATM   18  C23 UNL     1      14.036   3.129  -3.622  1.00  0.00     0.023 C 
ENDROOT
BRANCH   1  19
HETATM   19  C4  UNL     1      14.636   3.408  -1.164  1.00  0.00     0.067 C 
HETATM   20  C5  UNL     1      16.060   3.671  -1.524  1.00  0.00     0.047 C 
BRANCH  19  21
HETATM   21  C3  UNL     1      14.269   4.492  -0.130  1.00  0.00     0.111 C 
BRANCH  21  22
HETATM   22  S1  UNL     1      15.698   5.534   0.224  1.00  0.00    -0.167 SA
BRANCH  22  23
HETATM   23  C2  UNL     1      15.100   7.060   0.986  1.00  0.00     0.069 C 
HETATM   24  C1  UNL     1      13.764   7.484   0.454  1.00  0.00     0.016 C 
ENDBRANCH  22  23
ENDBRANCH  21  22
ENDBRANCH  19  21
BRANCH  19  25
HETATM   25  O1  UNL     1      14.584   2.209  -0.470  1.00  0.00    -0.389 OA
ATOM     26  H1  UNL     1      13.659   2.040  -0.332  1.00  0.00     0.210 HD
ENDBRANCH  19  25
ENDBRANCH   1  19
BRANCH  18  27
HETATM   27  C24 UNL     1      15.098   4.032  -4.041  1.00  0.00     0.241 C 
HETATM   28  O3  UNL     1      16.054   3.798  -4.719  1.00  0.00    -0.306 OA
ENDBRANCH  18  27
BRANCH  10  29
HETATM   29  O2  UNL     1      11.450   1.317 -11.144  1.00  0.00    -0.395 OA
ATOM     30  H2  UNL     1      10.976   2.105 -10.903  1.00  0.00     0.210 HD
ENDBRANCH  10  29
TORSDOF 7
ENDMDL
MODEL 4
REMARK VINA RESULT: -7.953204988      3.129      7.917
REMARK  7 active torsions:
REMARK  status: ('A' for Active; 'I' for Inactive)
REMARK    1  A    between atoms: C2_2  and  S1_3 
REMARK    2  A    between atoms: S1_3  and  C3_4 
REMARK    3  A    between atoms: C3_4  and  C4_5 
REMARK    4  A    between atoms: C4_5  and  O1_7 
REMARK    5  A    between atoms: C4_5  and  C6_9 
REMARK    6  A    between atoms: C15_18  and  O2_19 
REMARK    7  A    between atoms: C23_28  and  C24_29 
ROOT
HETATM    1  C6  UNL     1      15.123   5.513  -1.160  1.00  0.00     0.036 C 
HETATM    2  C7  UNL     1      16.258   4.556  -0.877  1.00  0.00     0.009 C 
HETATM    3  C8  UNL     1      16.252   3.554  -2.041  1.00  0.00     0.007 C 
HETATM    4  C9  UNL     1      15.149   4.061  -2.897  1.00  0.00     0.006 C 
HETATM    5  C10 UNL     1      14.609   3.182  -3.939  1.00  0.00    -0.001 C 
HETATM    6  C11 UNL     1      15.191   3.627  -5.262  1.00  0.00     0.033 C 
HETATM    7  C12 UNL     1      14.412   3.199  -6.432  1.00  0.00    -0.023 C 
HETATM    8  C13 UNL     1      13.206   2.697  -6.403  1.00  0.00    -0.072 C 
HETATM    9  C14 UNL     1      12.539   2.307  -7.661  1.00  0.00     0.066 C 
HETATM   10  C15 UNL     1      12.129   0.862  -7.491  1.00  0.00     0.122 C 
HETATM   11  C16 UNL     1      12.595   0.228  -6.227  1.00  0.00     0.033 C 
HETATM   12  C17 UNL     1      12.344   0.992  -4.968  1.00  0.00     0.016 C 
HETATM   13  C18 UNL     1      12.493   2.498  -5.154  1.00  0.00    -0.017 C 
HETATM   14  C19 UNL     1      11.040   2.996  -5.229  1.00  0.00     0.020 C 
HETATM   15  C20 UNL     1      13.109   3.146  -3.936  1.00  0.00     0.003 C 
HETATM   16  C21 UNL     1      12.499   4.505  -3.733  1.00  0.00     0.007 C 
HETATM   17  C22 UNL     1      13.131   5.342  -2.688  1.00  0.00     0.018 C 
HETATM   18  C23 UNL     1      14.154   4.626  -1.884  1.00  0.00     0.023 C 
ENDROOT
BRANCH   1  19
HETATM   19  C4  UNL     1      14.657   6.307  -0.041  1.00  0.00     0.067 C 
HETATM   20  C5  UNL     1      14.336   5.602   1.234  1.00  0.00     0.047 C 
BRANCH  19  21
HETATM   21  C3  UNL     1      15.791   7.291   0.311  1.00  0.00     0.111 C 
BRANCH  21  22
HETATM   22  S1  UNL     1      16.173   7.209   2.071  1.00  0.00    -0.167 SA
BRANCH  22  23
HETATM   23  C2  UNL     1      15.511   8.697   2.856  1.00  0.00     0.069 C 
HETATM   24  C1  UNL     1      15.746   8.719   4.338  1.00  0.00     0.016 C 
ENDBRANCH  22  23
ENDBRANCH  21  22
ENDBRANCH  19  21
BRANCH  19  25
HETATM   25  O1  UNL     1      13.573   7.104  -0.375  1.00  0.00    -0.389 OA
ATOM     26  H1  UNL     1      13.729   7.934   0.059  1.00  0.00     0.210 HD
ENDBRANCH  19  25
ENDBRANCH   1  19
BRANCH  18  27
HETATM   27  C24 UNL     1      13.613   3.664  -0.936  1.00  0.00     0.241 C 
HETATM   28  O3  UNL     1      14.073   2.616  -0.588  1.00  0.00    -0.306 OA
ENDBRANCH  18  27
BRANCH  10  29
HETATM   29  O2  UNL     1      12.735   0.134  -8.546  1.00  0.00    -0.395 OA
ATOM     30  H2  UNL     1      12.737   0.702  -9.308  1.00  0.00     0.210 HD
ENDBRANCH  10  29
TORSDOF 7
ENDMDL
MODEL 5
REMARK VINA RESULT: -7.918291149      0.860      1.047
REMARK  7 active torsions:
REMARK  status: ('A' for Active; 'I' for Inactive)
REMARK    1  A    between atoms: C2_2  and  S1_3 
REMARK    2  A    between atoms: S1_3  and  C3_4 
REMARK    3  A    between atoms: C3_4  and  C4_5 
REMARK    4  A    between atoms: C4_5  and  O1_7 
REMARK    5  A    between atoms: C4_5  and  C6_9 
REMARK    6  A    between atoms: C15_18  and  O2_19 
REMARK    7  A    between atoms: C23_28  and  C24_29 
ROOT
HETATM    1  C6  UNL     1      12.879   1.228  -7.542  1.00  0.00     0.036 C 
HETATM    2  C7  UNL     1      12.924   2.429  -8.457  1.00  0.00     0.009 C 
HETATM    3  C8  UNL     1      13.475   3.580  -7.602  1.00  0.00     0.007 C 
HETATM    4  C9  UNL     1      13.735   2.915  -6.299  1.00  0.00     0.006 C 
HETATM    5  C10 UNL     1      13.953   3.755  -5.116  1.00  0.00    -0.001 C 
HETATM    6  C11 UNL     1      15.441   3.789  -4.846  1.00  0.00     0.033 C 
HETATM    7  C12 UNL     1      15.789   4.158  -3.467  1.00  0.00    -0.023 C 
HETATM    8  C13 UNL     1      14.957   4.223  -2.462  1.00  0.00    -0.072 C 
HETATM    9  C14 UNL     1      15.447   4.609  -1.124  1.00  0.00     0.066 C 
HETATM   10  C15 UNL     1      14.596   5.779  -0.684  1.00  0.00     0.122 C 
HETATM   11  C16 UNL     1      13.640   6.272  -1.714  1.00  0.00     0.033 C 
HETATM   12  C17 UNL     1      12.797   5.239  -2.388  1.00  0.00     0.016 C 
HETATM   13  C18 UNL     1      13.544   3.931  -2.622  1.00  0.00    -0.017 C 
HETATM   14  C19 UNL     1      13.012   3.011  -1.511  1.00  0.00     0.020 C 
HETATM   15  C20 UNL     1      13.149   3.297  -3.934  1.00  0.00     0.003 C 
HETATM   16  C21 UNL     1      13.144   1.801  -3.783  1.00  0.00     0.007 C 
HETATM   17  C22 UNL     1      12.958   1.031  -5.034  1.00  0.00     0.018 C 
HETATM   18  C23 UNL     1      12.623   1.872  -6.211  1.00  0.00     0.023 C 
ENDROOT
BRANCH   1  19
HETATM   19  C4  UNL     1      12.043   0.124  -7.968  1.00  0.00     0.067 C 
HETATM   20  C5  UNL     1      11.139   0.339  -9.135  1.00  0.00     0.047 C 
BRANCH  19  21
HETATM   21  C3  UNL     1      12.991  -1.017  -8.390  1.00  0.00     0.111 C 
BRANCH  21  22
HETATM   22  S1  UNL     1      14.675  -0.668  -7.848  1.00  0.00    -0.167 SA
BRANCH  22  23
HETATM   23  C2  UNL     1      15.612  -0.082  -9.279  1.00  0.00     0.069 C 
HETATM   24  C1  UNL     1      15.521  -1.017 -10.448  1.00  0.00     0.016 C 
ENDBRANCH  22  23
ENDBRANCH  21  22
ENDBRANCH  19  21
BRANCH  19  25
HETATM   25  O1  UNL     1      11.286  -0.396  -6.930  1.00  0.00    -0.389 OA
ATOM     26  H1  UNL     1      10.561  -0.845  -7.348  1.00  0.00     0.210 HD
ENDBRANCH  19  25
ENDBRANCH   1  19
BRANCH  18  27
HETATM   27  C24 UNL     1      11.267   2.401  -6.211  1.00  0.00     0.241 C 
HETATM   28  O3  UNL     1      10.278   1.923  -5.740  1.00  0.00    -0.306 OA
ENDBRANCH  18  27
BRANCH  10  29
HETATM   29  O2  UNL     1      15.479   6.854  -0.417  1.00  0.00    -0.395 OA
ATOM     30  H2  UNL     1      15.167   7.600  -0.916  1.00  0.00     0.210 HD
ENDBRANCH  10  29
TORSDOF 7
ENDMDL
