MODEL 1
REMARK VINA RESULT: -8.784290936      0.000      0.000
REMARK  5 active torsions:
REMARK  status: ('A' for Active; 'I' for Inactive)
REMARK    1  A    between atoms: C2_2  and  C3_3 
REMARK    2  A    between atoms: C3_3  and  N1_4 
REMARK    3  A    between atoms: C9_12  and  C10_13 
REMARK    4  A    between atoms: C16_19  and  O2_20 
REMARK    5  A    between atoms: C25_30  and  O3_31 
ROOT
HETATM    1  C10 UNL     1      15.514   2.894  -4.508  1.00  0.00     0.012 C 
HETATM    2  C11 UNL     1      15.962   4.299  -4.806  1.00  0.00     0.020 C 
HETATM    3  C12 UNL     1      14.054   2.861  -4.275  1.00  0.00     0.015 C 
HETATM    4  C13 UNL     1      13.354   3.507  -5.451  1.00  0.00     0.006 C 
HETATM    5  C14 UNL     1      13.569   2.651  -6.632  1.00  0.00    -0.001 C 
HETATM    6  C15 UNL     1      12.951   3.337  -7.832  1.00  0.00     0.037 C 
HETATM    7  C16 UNL     1      13.298   2.600  -9.089  1.00  0.00     0.123 C 
HETATM    8  C17 UNL     1      13.665   1.205  -8.750  1.00  0.00     0.019 C 
HETATM    9  C18 UNL     1      13.973   0.415 -10.016  1.00  0.00     0.007 C 
HETATM   10  C19 UNL     1      14.337  -0.980  -9.566  1.00  0.00     0.000 C 
HETATM   11  C20 UNL     1      13.882  -1.263  -8.164  1.00  0.00     0.000 C 
HETATM   12  C21 UNL     1      14.579  -0.325  -7.159  1.00  0.00     0.006 C 
HETATM   13  C22 UNL     1      14.800   0.997  -7.797  1.00  0.00     0.003 C 
HETATM   14  C23 UNL     1      14.984   2.183  -6.886  1.00  0.00    -0.009 C 
HETATM   15  C24 UNL     1      15.735   3.215  -7.753  1.00  0.00     0.018 C 
HETATM   16  C25 UNL     1      15.799   1.959  -5.692  1.00  0.00     0.138 C 
ENDROOT
BRANCH   1  17
HETATM   17  C9  UNL     1      16.370   2.461  -3.334  1.00  0.00     0.169 A 
HETATM   18  C2  UNL     1      16.414   2.919  -2.020  1.00  0.00     0.111 A 
HETATM   19  C1  UNL     1      17.783   2.764  -1.289  1.00  0.00     0.050 C 
HETATM   20  O1  UNL     1      15.834   1.619  -2.362  1.00  0.00    -0.367 OA
BRANCH  18  21
HETATM   21  C3  UNL     1      15.491   3.645  -1.131  1.00  0.00     0.312 C 
BRANCH  21  22
HETATM   22  N1  UNL     1      15.850   5.075  -1.049  1.00  0.00     0.091 N 
HETATM   23  C4  UNL     1      16.113   5.498   0.270  1.00  0.00     0.275 C 
HETATM   24  C5  UNL     1      15.659   6.948   0.437  1.00  0.00     0.067 C 
HETATM   25  C6  UNL     1      14.120   6.873   0.384  1.00  0.00     0.173 C 
HETATM   26  F1  UNL     1      13.524   8.055   0.684  1.00  0.00    -0.249 F 
HETATM   27  C7  UNL     1      13.715   6.308  -0.968  1.00  0.00     0.067 C 
HETATM   28  C8  UNL     1      14.930   5.887  -1.760  1.00  0.00     0.275 C 
ENDBRANCH  21  22
ENDBRANCH  18  21
ENDBRANCH   1  17
BRANCH  16  29
HETATM   29  O3  UNL     1      15.811   0.697  -5.134  1.00  0.00    -0.394 OA
ATOM     30  H3  UNL     1      15.363   0.155  -5.773  1.00  0.00     0.210 HD
ENDBRANCH  16  29
BRANCH   7  31
HETATM   31  O2  UNL     1      12.100   2.507  -9.849  1.00  0.00    -0.395 OA
ATOM     32  H2  UNL     1      11.903   3.384 -10.155  1.00  0.00     0.210 HD
ENDBRANCH   7  31
TORSDOF 5
ENDMDL
MODEL 2
REMARK VINA RESULT: -8.580053253      1.456      1.720
REMARK  5 active torsions:
REMARK  status: ('A' for Active; 'I' for Inactive)
REMARK    1  A    between atoms: C2_2  and  C3_3 
REMARK    2  A    between atoms: C3_3  and  N1_4 
REMARK    3  A    between atoms: C9_12  and  C10_13 
REMARK    4  A    between atoms: C16_19  and  O2_20 
REMARK    5  A    between atoms: C25_30  and  O3_31 
ROOT
HETATM    1  C10 UNL     1      14.257   2.465  -5.370  1.00  0.00     0.012 C 
HETATM    2  C11 UNL     1      15.376   3.390  -5.762  1.00  0.00     0.020 C 
HETATM    3  C12 UNL     1      12.955   3.157  -5.489  1.00  0.00     0.015 C 
HETATM    4  C13 UNL     1      12.833   3.736  -6.882  1.00  0.00     0.006 C 
HETATM    5  C14 UNL     1      12.753   2.614  -7.834  1.00  0.00    -0.001 C 
HETATM    6  C15 UNL     1      12.724   3.184  -9.237  1.00  0.00     0.037 C 
HETATM    7  C16 UNL     1      12.827   2.085 -10.248  1.00  0.00     0.123 C 
HETATM    8  C17 UNL     1      12.407   0.807  -9.624  1.00  0.00     0.019 C 
HETATM    9  C18 UNL     1      12.451  -0.322 -10.646  1.00  0.00     0.007 C 
HETATM   10  C19 UNL     1      12.014  -1.570  -9.917  1.00  0.00     0.000 C 
HETATM   11  C20 UNL     1      11.294  -1.258  -8.637  1.00  0.00     0.000 C 
HETATM   12  C21 UNL     1      12.221  -0.522  -7.648  1.00  0.00     0.006 C 
HETATM   13  C22 UNL     1      13.150   0.351  -8.408  1.00  0.00     0.003 C 
HETATM   14  C23 UNL     1      13.771   1.508  -7.670  1.00  0.00    -0.009 C 
HETATM   15  C24 UNL     1      15.043   1.836  -8.479  1.00  0.00     0.018 C 
HETATM   16  C25 UNL     1      14.199   1.243  -6.296  1.00  0.00     0.138 C 
ENDROOT
BRANCH   1  17
HETATM   17  C9  UNL     1      14.619   1.997  -3.974  1.00  0.00     0.169 A 
HETATM   18  C2  UNL     1      14.606   2.669  -2.755  1.00  0.00     0.111 A 
HETATM   19  C1  UNL     1      15.623   2.163  -1.687  1.00  0.00     0.050 C 
HETATM   20  O1  UNL     1      13.610   1.647  -3.079  1.00  0.00    -0.367 OA
BRANCH  18  21
HETATM   21  C3  UNL     1      13.925   3.861  -2.222  1.00  0.00     0.312 C 
BRANCH  21  22
HETATM   22  N1  UNL     1      14.858   4.701  -1.445  1.00  0.00     0.091 N 
HETATM   23  C4  UNL     1      14.673   4.580  -0.053  1.00  0.00     0.275 C 
HETATM   24  C5  UNL     1      14.970   5.923   0.616  1.00  0.00     0.067 C 
HETATM   25  C6  UNL     1      13.805   6.832   0.176  1.00  0.00     0.173 C 
HETATM   26  F1  UNL     1      13.805   8.032   0.811  1.00  0.00    -0.249 F 
HETATM   27  C7  UNL     1      13.829   6.941  -1.340  1.00  0.00     0.067 C 
HETATM   28  C8  UNL     1      14.885   6.035  -1.926  1.00  0.00     0.275 C 
ENDBRANCH  21  22
ENDBRANCH  18  21
ENDBRANCH   1  17
BRANCH  16  29
HETATM   29  O3  UNL     1      13.510   0.295  -5.567  1.00  0.00    -0.394 OA
ATOM     30  H3  UNL     1      13.594  -0.501  -6.079  1.00  0.00     0.210 HD
ENDBRANCH  16  29
BRANCH   7  31
HETATM   31  O2  UNL     1      11.855   2.360 -11.248  1.00  0.00    -0.395 OA
ATOM     32  H2  UNL     1      11.674   1.536 -11.686  1.00  0.00     0.210 HD
ENDBRANCH   7  31
TORSDOF 5
ENDMDL
MODEL 3
REMARK VINA RESULT: -8.492076871      4.672      8.004
REMARK  5 active torsions:
REMARK  status: ('A' for Active; 'I' for Inactive)
REMARK    1  A    between atoms: C2_2  and  C3_3 
REMARK    2  A    between atoms: C3_3  and  N1_4 
REMARK    3  A    between atoms: C9_12  and  C10_13 
REMARK    4  A    between atoms: C16_19  and  O2_20 
REMARK    5  A    between atoms: C25_30  and  O3_31 
ROOT
HETATM    1  C10 UNL     1      15.526   1.466  -6.499  1.00  0.00     0.012 C 
HETATM    2  C11 UNL     1      15.699   1.366  -7.989  1.00  0.00     0.020 C 
HETATM    3  C12 UNL     1      15.351   0.120  -5.912  1.00  0.00     0.015 C 
HETATM    4  C13 UNL     1      16.499  -0.761  -6.353  1.00  0.00     0.006 C 
HETATM    5  C14 UNL     1      17.733  -0.238  -5.739  1.00  0.00    -0.001 C 
HETATM    6  C15 UNL     1      18.900  -1.058  -6.249  1.00  0.00     0.037 C 
HETATM    7  C16 UNL     1      20.196  -0.456  -5.801  1.00  0.00     0.123 C 
HETATM    8  C17 UNL     1      19.951   0.399  -4.614  1.00  0.00     0.019 C 
HETATM    9  C18 UNL     1      21.260   0.984  -4.102  1.00  0.00     0.007 C 
HETATM   10  C19 UNL     1      20.905   1.835  -2.906  1.00  0.00     0.000 C 
HETATM   11  C20 UNL     1      19.547   1.507  -2.358  1.00  0.00     0.000 C 
HETATM   12  C21 UNL     1      18.447   1.802  -3.398  1.00  0.00     0.006 C 
HETATM   13  C22 UNL     1      18.974   1.524  -4.758  1.00  0.00     0.003 C 
HETATM   14  C23 UNL     1      17.969   1.251  -5.846  1.00  0.00    -0.009 C 
HETATM   15  C24 UNL     1      18.726   1.574  -7.152  1.00  0.00     0.018 C 
HETATM   16  C25 UNL     1      16.766   2.083  -5.838  1.00  0.00     0.138 C 
ENDROOT
BRANCH   1  17
HETATM   17  C9  UNL     1      14.357   2.414  -6.312  1.00  0.00     0.169 A 
HETATM   18  C2  UNL     1      13.001   2.254  -6.586  1.00  0.00     0.111 A 
HETATM   19  C1  UNL     1      12.214   3.560  -6.914  1.00  0.00     0.050 C 
HETATM   20  O1  UNL     1      13.513   2.262  -5.215  1.00  0.00    -0.367 OA
BRANCH  18  21
HETATM   21  C3  UNL     1      12.095   1.106  -6.761  1.00  0.00     0.312 C 
BRANCH  21  22
HETATM   22  N1  UNL     1      12.160   0.585  -8.141  1.00  0.00     0.091 N 
HETATM   23  C4  UNL     1      10.984   0.838  -8.876  1.00  0.00     0.275 C 
HETATM   24  C5  UNL     1      10.737  -0.318  -9.846  1.00  0.00     0.067 C 
HETATM   25  C6  UNL     1      10.345  -1.500  -8.938  1.00  0.00     0.173 C 
HETATM   26  F1  UNL     1       9.921  -2.584  -9.636  1.00  0.00    -0.249 F 
HETATM   27  C7  UNL     1      11.508  -1.790  -8.002  1.00  0.00     0.067 C 
HETATM   28  C8  UNL     1      12.601  -0.762  -8.171  1.00  0.00     0.275 C 
ENDBRANCH  21  22
ENDBRANCH  18  21
ENDBRANCH   1  17
BRANCH  16  29
HETATM   29  O3  UNL     1      16.306   2.556  -4.626  1.00  0.00    -0.394 OA
ATOM     30  H3  UNL     1      16.944   2.243  -3.995  1.00  0.00     0.210 HD
ENDBRANCH  16  29
BRANCH   7  31
HETATM   31  O2  UNL     1      21.004  -1.530  -5.338  1.00  0.00    -0.395 OA
ATOM     32  H2  UNL     1      21.872  -1.392  -5.701  1.00  0.00     0.210 HD
ENDBRANCH   7  31
TORSDOF 5
ENDMDL
MODEL 4
REMARK VINA RESULT: -8.458681150      1.925      2.928
REMARK  5 active torsions:
REMARK  status: ('A' for Active; 'I' for Inactive)
REMARK    1  A    between atoms: C2_2  and  C3_3 
REMARK    2  A    between atoms: C3_3  and  N1_4 
REMARK    3  A    between atoms: C9_12  and  C10_13 
REMARK    4  A    between atoms: C16_19  and  O2_20 
REMARK    5  A    between atoms: C25_30  and  O3_31 
ROOT
HETATM    1  C10 UNL     1      14.890   2.674  -4.726  1.00  0.00     0.012 C 
HETATM    2  C11 UNL     1      15.880   1.665  -4.212  1.00  0.00     0.020 C 
HETATM    3  C12 UNL     1      15.594   3.885  -5.202  1.00  0.00     0.015 C 
HETATM    4  C13 UNL     1      16.652   3.476  -6.204  1.00  0.00     0.006 C 
HETATM    5  C14 UNL     1      15.965   2.944  -7.395  1.00  0.00    -0.001 C 
HETATM    6  C15 UNL     1      17.018   2.447  -8.365  1.00  0.00     0.037 C 
HETATM    7  C16 UNL     1      16.373   1.731  -9.512  1.00  0.00     0.123 C 
HETATM    8  C17 UNL     1      14.961   2.167  -9.626  1.00  0.00     0.019 C 
HETATM    9  C18 UNL     1      14.292   1.494 -10.818  1.00  0.00     0.007 C 
HETATM   10  C19 UNL     1      12.868   1.996 -10.845  1.00  0.00     0.000 C 
HETATM   11  C20 UNL     1      12.691   3.246 -10.032  1.00  0.00     0.000 C 
HETATM   12  C21 UNL     1      12.993   2.982  -8.543  1.00  0.00     0.006 C 
HETATM   13  C22 UNL     1      14.074   1.971  -8.436  1.00  0.00     0.003 C 
HETATM   14  C23 UNL     1      14.865   1.936  -7.155  1.00  0.00    -0.009 C 
HETATM   15  C24 UNL     1      15.454   0.510  -7.110  1.00  0.00     0.018 C 
HETATM   16  C25 UNL     1      14.102   2.118  -5.920  1.00  0.00     0.138 C 
ENDROOT
BRANCH   1  17
HETATM   17  C9  UNL     1      13.931   2.891  -3.572  1.00  0.00     0.169 A 
HETATM   18  C2  UNL     1      14.046   3.674  -2.427  1.00  0.00     0.111 A 
HETATM   19  C1  UNL     1      13.247   3.181  -1.182  1.00  0.00     0.050 C 
HETATM   20  O1  UNL     1      13.155   4.047  -3.527  1.00  0.00    -0.367 OA
BRANCH  18  21
HETATM   21  C3  UNL     1      14.848   4.845  -2.033  1.00  0.00     0.312 C 
BRANCH  21  22
HETATM   22  N1  UNL     1      14.375   5.402  -0.749  1.00  0.00     0.091 N 
HETATM   23  C4  UNL     1      14.070   6.776  -0.829  1.00  0.00     0.275 C 
HETATM   24  C5  UNL     1      14.406   7.448   0.502  1.00  0.00     0.067 C 
HETATM   25  C6  UNL     1      15.946   7.426   0.561  1.00  0.00     0.173 C 
HETATM   26  F1  UNL     1      16.444   8.135   1.605  1.00  0.00    -0.249 F 
HETATM   27  C7  UNL     1      16.405   5.977   0.530  1.00  0.00     0.067 C 
HETATM   28  C8  UNL     1      15.234   5.047   0.322  1.00  0.00     0.275 C 
ENDBRANCH  21  22
ENDBRANCH  18  21
ENDBRANCH   1  17
BRANCH  16  29
HETATM   29  O3  UNL     1      12.960   2.892  -5.964  1.00  0.00    -0.394 OA
ATOM     30  H3  UNL     1      13.034   3.372  -6.781  1.00  0.00     0.210 HD
ENDBRANCH  16  29
BRANCH   7  31
HETATM   31  O2  UNL     1      17.014   2.196 -10.693  1.00  0.00    -0.395 OA
ATOM     32  H2  UNL     1      16.427   2.000 -11.415  1.00  0.00     0.210 HD
ENDBRANCH   7  31
TORSDOF 5
ENDMDL
MODEL 5
REMARK VINA RESULT: -8.427883452      1.070      1.168
REMARK  5 active torsions:
REMARK  status: ('A' for Active; 'I' for Inactive)
REMARK    1  A    between atoms: C2_2  and  C3_3 
REMARK    2  A    between atoms: C3_3  and  N1_4 
REMARK    3  A    between atoms: C9_12  and  C10_13 
REMARK    4  A    between atoms: C16_19  and  O2_20 
REMARK    5  A    between atoms: C25_30  and  O3_31 
ROOT
HETATM    1  C10 UNL     1      14.547   2.701  -3.866  1.00  0.00     0.012 C 
HETATM    2  C11 UNL     1      14.257   4.174  -3.957  1.00  0.00     0.020 C 
HETATM    3  C12 UNL     1      13.329   1.963  -3.469  1.00  0.00     0.015 C 
HETATM    4  C13 UNL     1      12.205   2.325  -4.416  1.00  0.00     0.006 C 
HETATM    5  C14 UNL     1      12.550   1.798  -5.749  1.00  0.00    -0.001 C 
HETATM    6  C15 UNL     1      11.475   2.235  -6.723  1.00  0.00     0.037 C 
HETATM    7  C16 UNL     1      11.867   1.883  -8.124  1.00  0.00     0.123 C 
HETATM    8  C17 UNL     1      12.874   0.795  -8.089  1.00  0.00     0.019 C 
HETATM    9  C18 UNL     1      13.254   0.379  -9.504  1.00  0.00     0.007 C 
HETATM   10  C19 UNL     1      14.280  -0.721  -9.361  1.00  0.00     0.000 C 
HETATM   11  C20 UNL     1      14.274  -1.329  -7.989  1.00  0.00     0.000 C 
HETATM   12  C21 UNL     1      14.658  -0.284  -6.922  1.00  0.00     0.006 C 
HETATM   13  C22 UNL     1      14.141   1.046  -7.332  1.00  0.00     0.003 C 
HETATM   14  C23 UNL     1      13.947   2.076  -6.252  1.00  0.00    -0.009 C 
HETATM   15  C24 UNL     1      13.980   3.425  -7.002  1.00  0.00     0.018 C 
HETATM   16  C25 UNL     1      14.987   2.138  -5.224  1.00  0.00     0.138 C 
ENDROOT
BRANCH   1  17
HETATM   17  C9  UNL     1      15.712   2.600  -2.900  1.00  0.00     0.169 A 
HETATM   18  C2  UNL     1      15.982   3.289  -1.721  1.00  0.00     0.111 A 
HETATM   19  C1  UNL     1      17.489   3.444  -1.352  1.00  0.00     0.050 C 
HETATM   20  O1  UNL     1      15.566   1.886  -1.714  1.00  0.00    -0.367 OA
BRANCH  18  21
HETATM   21  C3  UNL     1      15.181   4.040  -0.739  1.00  0.00     0.312 C 
BRANCH  21  22
HETATM   22  N1  UNL     1      15.697   5.414  -0.575  1.00  0.00     0.091 N 
HETATM   23  C4  UNL     1      15.949   5.745   0.772  1.00  0.00     0.275 C 
HETATM   24  C5  UNL     1      15.656   7.230   0.990  1.00  0.00     0.067 C 
HETATM   25  C6  UNL     1      14.123   7.336   0.876  1.00  0.00     0.173 C 
HETATM   26  F1  UNL     1      13.652   8.564   1.210  1.00  0.00    -0.249 F 
HETATM   27  C7  UNL     1      13.714   6.881  -0.516  1.00  0.00     0.067 C 
HETATM   28  C8  UNL     1      14.906   6.356  -1.280  1.00  0.00     0.275 C 
ENDBRANCH  21  22
ENDBRANCH  18  21
ENDBRANCH   1  17
BRANCH  16  29
HETATM   29  O3  UNL     1      15.665   0.979  -4.909  1.00  0.00    -0.394 OA
ATOM     30  H3  UNL     1      16.449   1.279  -4.462  1.00  0.00     0.210 HD
ENDBRANCH  16  29
BRANCH   7  31
HETATM   31  O2  UNL     1      10.716   1.318  -8.739  1.00  0.00    -0.395 OA
ATOM     32  H2  UNL     1      10.826   0.375  -8.707  1.00  0.00     0.210 HD
ENDBRANCH   7  31
TORSDOF 5
ENDMDL
