MODEL 1
REMARK VINA RESULT: -8.816802735      0.000      0.000
REMARK  3 active torsions:
REMARK  status: ('A' for Active; 'I' for Inactive)
REMARK    1  A    between atoms: C2_2  and  S1_3 
REMARK    2  A    between atoms: S1_3  and  C3_4 
REMARK    3  A    between atoms: C3_4  and  C4_5 
ROOT
HETATM    1  C4  UNL     1      10.730  10.708   9.235  1.00  0.00    -0.023 A 
HETATM    2  C5  UNL     1      10.994  12.087   8.999  1.00  0.00    -0.001 A 
HETATM    3  C6  UNL     1      12.093  12.381   8.220  1.00  0.00     0.015 A 
HETATM    4  C7  UNL     1      12.398  13.749   8.019  1.00  0.00     0.018 A 
HETATM    5  C8  UNL     1      11.603  14.723   8.600  1.00  0.00     0.088 A 
HETATM    6  N1  UNL     1      10.553  14.351   9.354  1.00  0.00    -0.365 N 
ATOM      7  H1  UNL     1       9.978  15.075   9.784  1.00  0.00     0.165 HD
HETATM    8  C9  UNL     1      10.235  13.075   9.562  1.00  0.00     0.045 A 
HETATM    9  C10 UNL     1       9.176  12.758  10.386  1.00  0.00     0.060 A 
HETATM   10  C11 UNL     1       8.897  11.454  10.630  1.00  0.00     0.046 A 
HETATM   11  N2  UNL     1       7.877  10.882  11.312  1.00  0.00    -0.353 N 
ATOM     12  H2  UNL     1       7.149  11.374  11.828  1.00  0.00     0.166 HD
HETATM   13  C12 UNL     1       7.995   9.551  11.188  1.00  0.00     0.067 A 
HETATM   14  C13 UNL     1       7.066   8.638  11.689  1.00  0.00     0.044 C 
HETATM   15 BR1  UNL     1       6.226   9.123  13.302  1.00  0.00    -0.049 Br
HETATM   16  C14 UNL     1       6.730   7.427  11.057  1.00  0.00     0.095 C 
HETATM   17  C15 UNL     1       7.469   6.783  10.044  1.00  0.00     0.249 C 
HETATM   18  O1  UNL     1       6.825   6.003   9.314  1.00  0.00    -0.268 OA
HETATM   19  N3  UNL     1       8.790   6.962   9.832  1.00  0.00    -0.290 N 
ATOM     20  H3  UNL     1       9.231   6.199   9.320  1.00  0.00     0.172 HD
HETATM   21  C16 UNL     1       9.638   7.950  10.165  1.00  0.00     0.261 C 
HETATM   22  O2  UNL     1      10.782   7.828  10.260  1.00  0.00    -0.267 OA
HETATM   23  C17 UNL     1       9.096   9.249  10.428  1.00  0.00     0.073 A 
HETATM   24  C18 UNL     1       9.688  10.418  10.046  1.00  0.00     0.017 A 
ENDROOT
BRANCH   1  25
HETATM   25  C3  UNL     1      11.539   9.821   8.382  1.00  0.00     0.114 C 
BRANCH  25  26
HETATM   26  S1  UNL     1      13.167   9.559   9.132  1.00  0.00    -0.165 SA
BRANCH  26  27
HETATM   27  C2  UNL     1      14.515   9.419   8.015  1.00  0.00     0.069 C 
HETATM   28  C1  UNL     1      14.207   9.780   6.571  1.00  0.00     0.016 C 
ENDBRANCH  26  27
ENDBRANCH  25  26
ENDBRANCH   1  25
TORSDOF 3
ENDMDL
MODEL 2
REMARK VINA RESULT: -8.702040555     14.151     17.237
REMARK  3 active torsions:
REMARK  status: ('A' for Active; 'I' for Inactive)
REMARK    1  A    between atoms: C2_2  and  S1_3 
REMARK    2  A    between atoms: S1_3  and  C3_4 
REMARK    3  A    between atoms: C3_4  and  C4_5 
ROOT
HETATM    1  C4  UNL     1      14.440   3.004  -3.144  1.00  0.00    -0.023 A 
HETATM    2  C5  UNL     1      13.342   3.527  -3.885  1.00  0.00    -0.001 A 
HETATM    3  C6  UNL     1      12.382   4.209  -3.166  1.00  0.00     0.015 A 
HETATM    4  C7  UNL     1      11.259   4.691  -3.882  1.00  0.00     0.018 A 
HETATM    5  C8  UNL     1      11.163   4.465  -5.245  1.00  0.00     0.088 A 
HETATM    6  N1  UNL     1      12.140   3.782  -5.868  1.00  0.00    -0.365 N 
ATOM      7  H1  UNL     1      12.057   3.613  -6.871  1.00  0.00     0.165 HD
HETATM    8  C9  UNL     1      13.210   3.317  -5.229  1.00  0.00     0.045 A 
HETATM    9  C10 UNL     1      14.153   2.581  -5.915  1.00  0.00     0.060 A 
HETATM   10  C11 UNL     1      15.211   2.070  -5.240  1.00  0.00     0.046 A 
HETATM   11  N2  UNL     1      16.304   1.405  -5.683  1.00  0.00    -0.353 N 
ATOM     12  H2  UNL     1      16.484   1.118  -6.645  1.00  0.00     0.166 HD
HETATM   13  C12 UNL     1      17.110   1.192  -4.631  1.00  0.00     0.067 A 
HETATM   14  C13 UNL     1      18.374   0.608  -4.728  1.00  0.00     0.044 C 
HETATM   15 BR1  UNL     1      18.568  -0.723  -6.044  1.00  0.00    -0.049 Br
HETATM   16  C14 UNL     1      19.473   0.970  -3.926  1.00  0.00     0.095 C 
HETATM   17  C15 UNL     1      19.420   1.698  -2.720  1.00  0.00     0.249 C 
HETATM   18  O1  UNL     1      20.467   2.295  -2.400  1.00  0.00    -0.268 OA
HETATM   19  N3  UNL     1      18.333   1.778  -1.924  1.00  0.00    -0.290 N 
ATOM     20  H3  UNL     1      18.548   2.034  -0.960  1.00  0.00     0.172 HD
HETATM   21  C16 UNL     1      17.022   1.587  -2.153  1.00  0.00     0.261 C 
HETATM   22  O2  UNL     1      16.247   1.322  -1.340  1.00  0.00    -0.267 OA
HETATM   23  C17 UNL     1      16.544   1.712  -3.497  1.00  0.00     0.073 A 
HETATM   24  C18 UNL     1      15.352   2.285  -3.836  1.00  0.00     0.017 A 
ENDROOT
BRANCH   1  25
HETATM   25  C3  UNL     1      14.486   3.511  -1.762  1.00  0.00     0.114 C 
BRANCH  25  26
HETATM   26  S1  UNL     1      15.537   4.983  -1.678  1.00  0.00    -0.165 SA
BRANCH  26  27
HETATM   27  C2  UNL     1      14.882   6.347  -0.785  1.00  0.00     0.069 C 
HETATM   28  C1  UNL     1      13.631   6.975  -1.378  1.00  0.00     0.016 C 
ENDBRANCH  26  27
ENDBRANCH  25  26
ENDBRANCH   1  25
TORSDOF 3
ENDMDL
MODEL 3
REMARK VINA RESULT: -8.613102438     15.132     18.077
REMARK  3 active torsions:
REMARK  status: ('A' for Active; 'I' for Inactive)
REMARK    1  A    between atoms: C2_2  and  S1_3 
REMARK    2  A    between atoms: S1_3  and  C3_4 
REMARK    3  A    between atoms: C3_4  and  C4_5 
ROOT
HETATM    1  C4  UNL     1      16.158   0.600  -5.157  1.00  0.00    -0.023 A 
HETATM    2  C5  UNL     1      17.545   0.313  -5.301  1.00  0.00    -0.001 A 
HETATM    3  C6  UNL     1      17.881  -0.659  -6.221  1.00  0.00     0.015 A 
HETATM    4  C7  UNL     1      19.253  -0.991  -6.340  1.00  0.00     0.018 A 
HETATM    5  C8  UNL     1      20.188  -0.348  -5.545  1.00  0.00     0.088 A 
HETATM    6  N1  UNL     1      19.774   0.581  -4.665  1.00  0.00    -0.365 N 
ATOM      7  H1  UNL     1      20.468   1.043  -4.078  1.00  0.00     0.165 HD
HETATM    8  C9  UNL     1      18.495   0.921  -4.528  1.00  0.00     0.045 A 
HETATM    9  C10 UNL     1      18.129   1.846  -3.574  1.00  0.00     0.060 A 
HETATM   10  C11 UNL     1      16.816   2.143  -3.411  1.00  0.00     0.046 A 
HETATM   11  N2  UNL     1      16.210   3.065  -2.626  1.00  0.00    -0.353 N 
ATOM     12  H2  UNL     1      16.671   3.676  -1.952  1.00  0.00     0.166 HD
HETATM   13  C12 UNL     1      14.895   3.032  -2.894  1.00  0.00     0.067 A 
HETATM   14  C13 UNL     1      13.967   3.910  -2.333  1.00  0.00     0.044 C 
HETATM   15 BR1  UNL     1      14.311   4.453  -0.565  1.00  0.00    -0.049 Br
HETATM   16  C14 UNL     1      12.837   4.402  -3.012  1.00  0.00     0.095 C 
HETATM   17  C15 UNL     1      12.276   3.869  -4.191  1.00  0.00     0.249 C 
HETATM   18  O1  UNL     1      11.594   4.660  -4.873  1.00  0.00    -0.268 OA
HETATM   19  N3  UNL     1      12.434   2.593  -4.602  1.00  0.00    -0.290 N 
ATOM     20  H3  UNL     1      11.713   2.278  -5.250  1.00  0.00     0.172 HD
HETATM   21  C16 UNL     1      13.356   1.656  -4.323  1.00  0.00     0.261 C 
HETATM   22  O2  UNL     1      13.189   0.519  -4.432  1.00  0.00    -0.267 OA
HETATM   23  C17 UNL     1      14.638   2.086  -3.851  1.00  0.00     0.073 A 
HETATM   24  C18 UNL     1      15.821   1.509  -4.214  1.00  0.00     0.017 A 
ENDROOT
BRANCH   1  25
HETATM   25  C3  UNL     1      15.337  -0.017  -6.212  1.00  0.00     0.114 C 
BRANCH  25  26
HETATM   26  S1  UNL     1      15.039   1.177  -7.541  1.00  0.00    -0.165 SA
BRANCH  26  27
HETATM   27  C2  UNL     1      16.019   2.635  -7.499  1.00  0.00     0.069 C 
HETATM   28  C1  UNL     1      15.304   3.889  -7.021  1.00  0.00     0.016 C 
ENDBRANCH  26  27
ENDBRANCH  25  26
ENDBRANCH   1  25
TORSDOF 3
ENDMDL
MODEL 4
REMARK VINA RESULT: -8.584189123     13.289     15.851
REMARK  3 active torsions:
REMARK  status: ('A' for Active; 'I' for Inactive)
REMARK    1  A    between atoms: C2_2  and  S1_3 
REMARK    2  A    between atoms: S1_3  and  C3_4 
REMARK    3  A    between atoms: C3_4  and  C4_5 
ROOT
HETATM    1  C4  UNL     1      15.273   3.907  -2.577  1.00  0.00    -0.023 A 
HETATM    2  C5  UNL     1      15.292   4.807  -1.475  1.00  0.00    -0.001 A 
HETATM    3  C6  UNL     1      16.446   4.834  -0.720  1.00  0.00     0.015 A 
HETATM    4  C7  UNL     1      16.461   5.687   0.411  1.00  0.00     0.018 A 
HETATM    5  C8  UNL     1      15.342   6.445   0.716  1.00  0.00     0.088 A 
HETATM    6  N1  UNL     1      14.253   6.352  -0.067  1.00  0.00    -0.365 N 
ATOM      7  H1  UNL     1      13.431   6.907   0.169  1.00  0.00     0.165 HD
HETATM    8  C9  UNL     1      14.203   5.564  -1.139  1.00  0.00     0.045 A 
HETATM    9  C10 UNL     1      13.040   5.476  -1.873  1.00  0.00     0.060 A 
HETATM   10  C11 UNL     1      12.989   4.629  -2.931  1.00  0.00     0.046 A 
HETATM   11  N2  UNL     1      12.019   4.427  -3.854  1.00  0.00    -0.353 N 
ATOM     12  H2  UNL     1      11.099   4.864  -3.864  1.00  0.00     0.166 HD
HETATM   13  C12 UNL     1      12.486   3.548  -4.754  1.00  0.00     0.067 A 
HETATM   14  C13 UNL     1      11.789   3.168  -5.902  1.00  0.00     0.044 C 
HETATM   15 BR1  UNL     1       9.918   3.077  -5.736  1.00  0.00    -0.049 Br
HETATM   16  C14 UNL     1      12.401   2.879  -7.136  1.00  0.00     0.095 C 
HETATM   17  C15 UNL     1      13.768   2.599  -7.343  1.00  0.00     0.249 C 
HETATM   18  O1  UNL     1      14.196   2.809  -8.496  1.00  0.00    -0.268 OA
HETATM   19  N3  UNL     1      14.604   2.132  -6.392  1.00  0.00    -0.290 N 
ATOM     20  H3  UNL     1      15.430   1.665  -6.765  1.00  0.00     0.172 HD
HETATM   21  C16 UNL     1      14.560   2.163  -5.049  1.00  0.00     0.261 C 
HETATM   22  O2  UNL     1      15.120   1.426  -4.358  1.00  0.00    -0.267 OA
HETATM   23  C17 UNL     1      13.761   3.170  -4.419  1.00  0.00     0.073 A 
HETATM   24  C18 UNL     1      14.122   3.835  -3.283  1.00  0.00     0.017 A 
ENDROOT
BRANCH   1  25
HETATM   25  C3  UNL     1      16.601   3.344  -2.874  1.00  0.00     0.114 C 
BRANCH  25  26
HETATM   26  S1  UNL     1      16.932   1.935  -1.786  1.00  0.00    -0.165 SA
BRANCH  26  27
HETATM   27  C2  UNL     1      18.625   1.579  -1.482  1.00  0.00     0.069 C 
HETATM   28  C1  UNL     1      19.542   1.684  -2.690  1.00  0.00     0.016 C 
ENDBRANCH  26  27
ENDBRANCH  25  26
ENDBRANCH   1  25
TORSDOF 3
ENDMDL
MODEL 5
REMARK VINA RESULT: -8.517259020     14.907     17.887
REMARK  3 active torsions:
REMARK  status: ('A' for Active; 'I' for Inactive)
REMARK    1  A    between atoms: C2_2  and  S1_3 
REMARK    2  A    between atoms: S1_3  and  C3_4 
REMARK    3  A    between atoms: C3_4  and  C4_5 
ROOT
HETATM    1  C4  UNL     1      15.680   3.383  -3.857  1.00  0.00    -0.023 A 
HETATM    2  C5  UNL     1      15.366   4.030  -2.628  1.00  0.00    -0.001 A 
HETATM    3  C6  UNL     1      14.261   4.855  -2.630  1.00  0.00     0.015 A 
HETATM    4  C7  UNL     1      13.966   5.546  -1.429  1.00  0.00     0.018 A 
HETATM    5  C8  UNL     1      14.780   5.376  -0.320  1.00  0.00     0.088 A 
HETATM    6  N1  UNL     1      15.845   4.559  -0.406  1.00  0.00    -0.365 N 
ATOM      7  H1  UNL     1      16.443   4.447   0.412  1.00  0.00     0.165 HD
HETATM    8  C9  UNL     1      16.151   3.893  -1.517  1.00  0.00     0.045 A 
HETATM    9  C10 UNL     1      17.285   3.109  -1.556  1.00  0.00     0.060 A 
HETATM   10  C11 UNL     1      17.611   2.478  -2.711  1.00  0.00     0.046 A 
HETATM   11  N2  UNL     1      18.599   1.593  -2.985  1.00  0.00    -0.353 N 
ATOM     12  H2  UNL     1      19.329   1.291  -2.342  1.00  0.00     0.166 HD
HETATM   13  C12 UNL     1      18.444   1.185  -4.254  1.00  0.00     0.067 A 
HETATM   14  C13 UNL     1      19.232   0.202  -4.855  1.00  0.00     0.044 C 
HETATM   15 BR1  UNL     1      21.033   0.146  -4.312  1.00  0.00    -0.049 Br
HETATM   16  C14 UNL     1      18.753  -0.723  -5.800  1.00  0.00     0.095 C 
HETATM   17  C15 UNL     1      17.551  -0.622  -6.530  1.00  0.00     0.249 C 
HETATM   18  O1  UNL     1      17.083  -1.697  -6.957  1.00  0.00    -0.268 OA
HETATM   19  N3  UNL     1      16.905   0.536  -6.780  1.00  0.00    -0.290 N 
ATOM     20  H3  UNL     1      16.275   0.490  -7.580  1.00  0.00     0.172 HD
HETATM   21  C16 UNL     1      16.929   1.738  -6.179  1.00  0.00     0.261 C 
HETATM   22  O2  UNL     1      16.633   2.731  -6.688  1.00  0.00    -0.267 OA
HETATM   23  C17 UNL     1      17.358   1.806  -4.815  1.00  0.00     0.073 A 
HETATM   24  C18 UNL     1      16.796   2.621  -3.875  1.00  0.00     0.017 A 
ENDROOT
BRANCH   1  25
HETATM   25  C3  UNL     1      14.606   3.510  -4.856  1.00  0.00     0.114 C 
BRANCH  25  26
HETATM   26  S1  UNL     1      13.482   2.096  -4.739  1.00  0.00    -0.165 SA
BRANCH  26  27
HETATM   27  C2  UNL     1      11.811   2.401  -5.188  1.00  0.00     0.069 C 
HETATM   28  C1  UNL     1      11.394   3.863  -5.197  1.00  0.00     0.016 C 
ENDBRANCH  26  27
ENDBRANCH  25  26
ENDBRANCH   1  25
TORSDOF 3
ENDMDL
