MODEL 1
REMARK VINA RESULT: -8.872876387      0.000      0.000
REMARK  5 active torsions:
REMARK  status: ('A' for Active; 'I' for Inactive)
REMARK    1  A    between atoms: C4_5  and  O2_7 
REMARK    2  A    between atoms: C8_12  and  O3_13 
REMARK    3  A    between atoms: C8_12  and  C9_15 
REMARK    4  A    between atoms: C10_16  and  C11_17 
REMARK    5  A    between atoms: C12_18  and  C13_19 
ROOT
HETATM    1  C9  UNL     1      17.531   1.141  -4.487  1.00  0.00     0.009 C 
HETATM    2  C10 UNL     1      17.254   2.296  -3.949  1.00  0.00    -0.018 C 
ENDROOT
BRANCH   2   3
HETATM    3  C11 UNL     1      16.083   2.491  -3.024  1.00  0.00     0.052 C 
HETATM    4  C12 UNL     1      16.600   2.517  -1.661  1.00  0.00    -0.016 C 
HETATM    5  C14 UNL     1      16.773   3.650  -1.030  1.00  0.00    -0.015 C 
HETATM    6  C15 UNL     1      16.445   4.914  -1.698  1.00  0.00     0.034 C 
HETATM    7  C16 UNL     1      15.177   4.795  -2.545  1.00  0.00     0.006 C 
HETATM    8  C17 UNL     1      13.987   4.992  -1.699  1.00  0.00    -0.043 C 
HETATM    9  C23 UNL     1      15.232   3.628  -3.461  1.00  0.00    -0.028 C 
HETATM   10  C18 UNL     1      13.573   6.481  -1.632  1.00  0.00     0.015 C 
HETATM   11  C19 UNL     1      14.146   4.607  -0.236  1.00  0.00     0.015 C 
HETATM   12  C20 UNL     1      12.740   4.270  -2.142  1.00  0.00     0.009 C 
HETATM   13  C21 UNL     1      12.816   4.137  -3.653  1.00  0.00     0.002 C 
HETATM   14  C22 UNL     1      13.875   3.047  -3.808  1.00  0.00     0.010 C 
HETATM   15  C24 UNL     1      15.762   4.061  -4.848  1.00  0.00     0.016 C 
BRANCH   4  16
HETATM   16  C13 UNL     1      16.922   1.222  -1.021  1.00  0.00     0.266 C 
HETATM   17  O4  UNL     1      16.082   0.743  -0.228  1.00  0.00    -0.302 OA
ENDBRANCH   4  16
ENDBRANCH   2   3
BRANCH   1  18
HETATM   18  C8  UNL     1      18.662   0.878  -5.401  1.00  0.00     0.102 C 
HETATM   19  C2  UNL     1      18.775  -0.605  -5.609  1.00  0.00     0.094 C 
HETATM   20  C1  UNL     1      17.667  -1.032  -6.549  1.00  0.00     0.021 C 
HETATM   21  C3  UNL     1      20.121  -0.921  -6.122  1.00  0.00     0.167 C 
HETATM   22  O1  UNL     1      20.548  -2.061  -5.926  1.00  0.00    -0.294 OA
HETATM   23  C4  UNL     1      20.908   0.116  -6.845  1.00  0.00     0.116 C 
HETATM   24  C5  UNL     1      22.334  -0.436  -6.968  1.00  0.00     0.054 C 
HETATM   25  C6  UNL     1      20.900   1.448  -6.157  1.00  0.00     0.069 C 
HETATM   26  C7  UNL     1      19.967   1.438  -4.937  1.00  0.00     0.124 C 
HETATM   27 CL1  UNL     1      20.772   0.360  -3.743  1.00  0.00    -0.121 Cl
BRANCH  23  28
HETATM   28  O2  UNL     1      20.447   0.216  -8.178  1.00  0.00    -0.382 OA
ATOM     29  H2  UNL     1      21.188   0.205  -8.773  1.00  0.00     0.211 HD
ENDBRANCH  23  28
BRANCH  18  30
HETATM   30  O3  UNL     1      18.347   1.495  -6.617  1.00  0.00    -0.383 OA
ATOM     31  H3  UNL     1      17.446   1.794  -6.596  1.00  0.00     0.211 HD
ENDBRANCH  18  30
ENDBRANCH   1  18
TORSDOF 5
ENDMDL
MODEL 2
REMARK VINA RESULT: -8.811945512      4.477      7.858
REMARK  5 active torsions:
REMARK  status: ('A' for Active; 'I' for Inactive)
REMARK    1  A    between atoms: C4_5  and  O2_7 
REMARK    2  A    between atoms: C8_12  and  O3_13 
REMARK    3  A    between atoms: C8_12  and  C9_15 
REMARK    4  A    between atoms: C10_16  and  C11_17 
REMARK    5  A    between atoms: C12_18  and  C13_19 
ROOT
HETATM    1  C9  UNL     1      13.204   2.778  -4.313  1.00  0.00     0.009 C 
HETATM    2  C10 UNL     1      13.026   1.547  -4.706  1.00  0.00    -0.018 C 
ENDROOT
BRANCH   2   3
HETATM    3  C11 UNL     1      12.338   1.210  -6.001  1.00  0.00     0.052 C 
HETATM    4  C12 UNL     1      11.863   2.459  -6.584  1.00  0.00    -0.016 C 
HETATM    5  C14 UNL     1      12.522   3.042  -7.551  1.00  0.00    -0.015 C 
HETATM    6  C15 UNL     1      13.757   2.436  -8.060  1.00  0.00     0.034 C 
HETATM    7  C16 UNL     1      13.653   0.912  -8.131  1.00  0.00     0.006 C 
HETATM    8  C17 UNL     1      12.999   0.511  -9.389  1.00  0.00    -0.043 C 
HETATM    9  C23 UNL     1      13.182   0.330  -6.849  1.00  0.00    -0.028 C 
HETATM   10  C18 UNL     1      14.025   0.302 -10.527  1.00  0.00     0.015 C 
HETATM   11  C19 UNL     1      12.025   1.520  -9.977  1.00  0.00     0.015 C 
HETATM   12  C20 UNL     1      12.218  -0.778  -9.340  1.00  0.00     0.009 C 
HETATM   13  C21 UNL     1      12.878  -1.659  -8.293  1.00  0.00     0.002 C 
HETATM   14  C22 UNL     1      12.431  -0.979  -7.000  1.00  0.00     0.010 C 
HETATM   15  C24 UNL     1      14.388  -0.090  -5.976  1.00  0.00     0.016 C 
BRANCH   4  16
HETATM   16  C13 UNL     1      10.614   3.042  -6.043  1.00  0.00     0.266 C 
HETATM   17  O4  UNL     1       9.578   2.345  -6.100  1.00  0.00    -0.302 OA
ENDBRANCH   4  16
ENDBRANCH   2   3
BRANCH   1  18
HETATM   18  C8  UNL     1      13.870   3.182  -3.056  1.00  0.00     0.102 C 
HETATM   19  C2  UNL     1      13.643   4.650  -2.844  1.00  0.00     0.094 C 
HETATM   20  C1  UNL     1      12.217   4.840  -2.373  1.00  0.00     0.021 C 
HETATM   21  C3  UNL     1      14.640   5.161  -1.886  1.00  0.00     0.167 C 
HETATM   22  O1  UNL     1      14.905   6.364  -1.932  1.00  0.00    -0.294 OA
HETATM   23  C4  UNL     1      15.284   4.236  -0.913  1.00  0.00     0.116 C 
HETATM   24  C5  UNL     1      16.454   5.012  -0.292  1.00  0.00     0.054 C 
HETATM   25  C6  UNL     1      15.753   2.957  -1.537  1.00  0.00     0.069 C 
HETATM   26  C7  UNL     1      15.331   2.870  -3.011  1.00  0.00     0.124 C 
HETATM   27 CL1  UNL     1      16.310   4.124  -3.851  1.00  0.00    -0.121 Cl
BRANCH  23  28
HETATM   28  O2  UNL     1      14.403   3.996   0.167  1.00  0.00    -0.382 OA
ATOM     29  H2  UNL     1      14.692   3.230   0.650  1.00  0.00     0.211 HD
ENDBRANCH  23  28
BRANCH  18  30
HETATM   30  O3  UNL     1      13.254   2.462  -2.026  1.00  0.00    -0.383 OA
ATOM     31  H3  UNL     1      12.345   2.303  -2.251  1.00  0.00     0.211 HD
ENDBRANCH  18  30
ENDBRANCH   1  18
TORSDOF 5
ENDMDL
MODEL 3
REMARK VINA RESULT: -8.702876820      4.334      7.482
REMARK  5 active torsions:
REMARK  status: ('A' for Active; 'I' for Inactive)
REMARK    1  A    between atoms: C4_5  and  O2_7 
REMARK    2  A    between atoms: C8_12  and  O3_13 
REMARK    3  A    between atoms: C8_12  and  C9_15 
REMARK    4  A    between atoms: C10_16  and  C11_17 
REMARK    5  A    between atoms: C12_18  and  C13_19 
ROOT
HETATM    1  C9  UNL     1      13.771   2.469  -4.048  1.00  0.00     0.009 C 
HETATM    2  C10 UNL     1      14.582   1.924  -4.911  1.00  0.00    -0.018 C 
ENDROOT
BRANCH   2   3
HETATM    3  C11 UNL     1      14.091   1.303  -6.192  1.00  0.00     0.052 C 
HETATM    4  C12 UNL     1      12.678   0.992  -6.015  1.00  0.00    -0.016 C 
HETATM    5  C14 UNL     1      11.751   1.771  -6.508  1.00  0.00    -0.015 C 
HETATM    6  C15 UNL     1      12.132   2.978  -7.249  1.00  0.00     0.034 C 
HETATM    7  C16 UNL     1      13.358   2.737  -8.132  1.00  0.00     0.006 C 
HETATM    8  C17 UNL     1      12.944   2.143  -9.415  1.00  0.00    -0.043 C 
HETATM    9  C23 UNL     1      14.474   2.121  -7.372  1.00  0.00    -0.028 C 
HETATM   10  C18 UNL     1      12.632   3.225 -10.474  1.00  0.00     0.015 C 
HETATM   11  C19 UNL     1      11.670   1.312  -9.377  1.00  0.00     0.015 C 
HETATM   12  C20 UNL     1      13.957   1.243 -10.077  1.00  0.00     0.009 C 
HETATM   13  C21 UNL     1      15.331   1.739  -9.663  1.00  0.00     0.002 C 
HETATM   14  C22 UNL     1      15.400   1.264  -8.212  1.00  0.00     0.010 C 
HETATM   15  C24 UNL     1      15.434   3.216  -6.849  1.00  0.00     0.016 C 
BRANCH   4  16
HETATM   16  C13 UNL     1      12.331  -0.234  -5.259  1.00  0.00     0.266 C 
HETATM   17  O4  UNL     1      11.603  -0.106  -4.252  1.00  0.00    -0.302 OA
ENDBRANCH   4  16
ENDBRANCH   2   3
BRANCH   1  18
HETATM   18  C8  UNL     1      14.183   3.095  -2.773  1.00  0.00     0.102 C 
HETATM   19  C2  UNL     1      13.778   4.541  -2.797  1.00  0.00     0.094 C 
HETATM   20  C1  UNL     1      12.283   4.612  -2.569  1.00  0.00     0.021 C 
HETATM   21  C3  UNL     1      14.551   5.277  -1.780  1.00  0.00     0.167 C 
HETATM   22  O1  UNL     1      14.698   6.489  -1.949  1.00  0.00    -0.294 OA
HETATM   23  C4  UNL     1      15.120   4.557  -0.607  1.00  0.00     0.116 C 
HETATM   24  C5  UNL     1      16.091   5.536   0.067  1.00  0.00     0.054 C 
HETATM   25  C6  UNL     1      15.810   3.279  -0.978  1.00  0.00     0.069 C 
HETATM   26  C7  UNL     1      15.641   2.969  -2.473  1.00  0.00     0.124 C 
HETATM   27 CL1  UNL     1      16.611   4.224  -3.321  1.00  0.00    -0.121 Cl
BRANCH  23  28
HETATM   28  O2  UNL     1      14.105   4.341   0.354  1.00  0.00    -0.382 OA
ATOM     29  H2  UNL     1      13.265   4.264  -0.083  1.00  0.00     0.211 HD
ENDBRANCH  23  28
BRANCH  18  30
HETATM   30  O3  UNL     1      13.484   2.433  -1.757  1.00  0.00    -0.383 OA
ATOM     31  H3  UNL     1      13.885   1.586  -1.598  1.00  0.00     0.211 HD
ENDBRANCH  18  30
ENDBRANCH   1  18
TORSDOF 5
ENDMDL
MODEL 4
REMARK VINA RESULT: -8.564540778      4.092      7.533
REMARK  5 active torsions:
REMARK  status: ('A' for Active; 'I' for Inactive)
REMARK    1  A    between atoms: C4_5  and  O2_7 
REMARK    2  A    between atoms: C8_12  and  O3_13 
REMARK    3  A    between atoms: C8_12  and  C9_15 
REMARK    4  A    between atoms: C10_16  and  C11_17 
REMARK    5  A    between atoms: C12_18  and  C13_19 
ROOT
HETATM    1  C9  UNL     1      15.046   2.524  -4.126  1.00  0.00     0.009 C 
HETATM    2  C10 UNL     1      14.381   2.860  -5.196  1.00  0.00    -0.018 C 
ENDROOT
BRANCH   2   3
HETATM    3  C11 UNL     1      14.234   1.934  -6.374  1.00  0.00     0.052 C 
HETATM    4  C12 UNL     1      12.880   1.396  -6.343  1.00  0.00    -0.016 C 
HETATM    5  C14 UNL     1      11.946   1.882  -7.119  1.00  0.00    -0.015 C 
HETATM    6  C15 UNL     1      12.260   2.984  -8.035  1.00  0.00     0.034 C 
HETATM    7  C16 UNL     1      13.648   2.824  -8.658  1.00  0.00     0.006 C 
HETATM    8  C17 UNL     1      13.573   1.937  -9.833  1.00  0.00    -0.043 C 
HETATM    9  C23 UNL     1      14.691   2.581  -7.631  1.00  0.00    -0.028 C 
HETATM   10  C18 UNL     1      13.291   2.729 -11.131  1.00  0.00     0.015 C 
HETATM   11  C19 UNL     1      12.460   0.900  -9.806  1.00  0.00     0.015 C 
HETATM   12  C20 UNL     1      14.817   1.141 -10.135  1.00  0.00     0.009 C 
HETATM   13  C21 UNL     1      15.998   1.958  -9.639  1.00  0.00     0.002 C 
HETATM   14  C22 UNL     1      15.877   1.777  -8.127  1.00  0.00     0.010 C 
HETATM   15  C24 UNL     1      15.356   3.915  -7.217  1.00  0.00     0.016 C 
BRANCH   4  16
HETATM   16  C13 UNL     1      12.600   0.286  -5.403  1.00  0.00     0.266 C 
HETATM   17  O4  UNL     1      11.607   0.399  -4.652  1.00  0.00    -0.302 OA
ENDBRANCH   4  16
ENDBRANCH   2   3
BRANCH   1  18
HETATM   18  C8  UNL     1      15.231   3.380  -2.935  1.00  0.00     0.102 C 
HETATM   19  C2  UNL     1      14.786   2.616  -1.722  1.00  0.00     0.094 C 
HETATM   20  C1  UNL     1      15.858   1.598  -1.392  1.00  0.00     0.021 C 
HETATM   21  C3  UNL     1      14.530   3.561  -0.620  1.00  0.00     0.167 C 
HETATM   22  O1  UNL     1      13.754   3.200   0.267  1.00  0.00    -0.294 OA
HETATM   23  C4  UNL     1      15.198   4.893  -0.607  1.00  0.00     0.116 C 
HETATM   24  C5  UNL     1      14.496   5.714   0.483  1.00  0.00     0.054 C 
HETATM   25  C6  UNL     1      15.144   5.592  -1.932  1.00  0.00     0.069 C 
HETATM   26  C7  UNL     1      14.521   4.693  -3.010  1.00  0.00     0.124 C 
HETATM   27 CL1  UNL     1      12.788   4.545  -2.549  1.00  0.00    -0.121 Cl
BRANCH  23  28
HETATM   28  O2  UNL     1      16.527   4.751  -0.147  1.00  0.00    -0.382 OA
ATOM     29  H2  UNL     1      16.526   4.621   0.795  1.00  0.00     0.211 HD
ENDBRANCH  23  28
BRANCH  18  30
HETATM   30  O3  UNL     1      16.601   3.647  -2.841  1.00  0.00    -0.383 OA
ATOM     31  H3  UNL     1      16.831   3.804  -1.933  1.00  0.00     0.211 HD
ENDBRANCH  18  30
ENDBRANCH   1  18
TORSDOF 5
ENDMDL
MODEL 5
REMARK VINA RESULT: -8.531389125      3.861      7.408
REMARK  5 active torsions:
REMARK  status: ('A' for Active; 'I' for Inactive)
REMARK    1  A    between atoms: C4_5  and  O2_7 
REMARK    2  A    between atoms: C8_12  and  O3_13 
REMARK    3  A    between atoms: C8_12  and  C9_15 
REMARK    4  A    between atoms: C10_16  and  C11_17 
REMARK    5  A    between atoms: C12_18  and  C13_19 
ROOT
HETATM    1  C9  UNL     1      15.302   3.141  -4.343  1.00  0.00     0.009 C 
HETATM    2  C10 UNL     1      14.297   2.462  -4.822  1.00  0.00    -0.018 C 
ENDROOT
BRANCH   2   3
HETATM    3  C11 UNL     1      14.328   1.843  -6.193  1.00  0.00     0.052 C 
HETATM    4  C12 UNL     1      14.662   0.433  -6.031  1.00  0.00    -0.016 C 
HETATM    5  C14 UNL     1      13.734  -0.487  -6.075  1.00  0.00    -0.015 C 
HETATM    6  C15 UNL     1      12.335  -0.102  -6.290  1.00  0.00     0.034 C 
HETATM    7  C16 UNL     1      12.211   1.039  -7.302  1.00  0.00     0.006 C 
HETATM    8  C17 UNL     1      12.219   0.498  -8.672  1.00  0.00    -0.043 C 
HETATM    9  C23 UNL     1      13.103   2.176  -6.965  1.00  0.00    -0.028 C 
HETATM   10  C18 UNL     1      10.791   0.162  -9.163  1.00  0.00     0.015 C 
HETATM   11  C19 UNL     1      12.970  -0.811  -8.861  1.00  0.00     0.015 C 
HETATM   12  C20 UNL     1      12.782   1.408  -9.734  1.00  0.00     0.009 C 
HETATM   13  C21 UNL     1      12.522   2.834  -9.281  1.00  0.00     0.002 C 
HETATM   14  C22 UNL     1      13.553   2.989  -8.164  1.00  0.00     0.010 C 
HETATM   15  C24 UNL     1      12.336   3.229  -6.131  1.00  0.00     0.016 C 
BRANCH   4  16
HETATM   16  C13 UNL     1      16.084   0.082  -5.813  1.00  0.00     0.266 C 
HETATM   17  O4  UNL     1      16.942   0.704  -6.477  1.00  0.00    -0.302 OA
ENDBRANCH   4  16
ENDBRANCH   2   3
BRANCH   1  18
HETATM   18  C8  UNL     1      15.341   3.775  -3.008  1.00  0.00     0.102 C 
HETATM   19  C2  UNL     1      14.898   2.768  -1.986  1.00  0.00     0.094 C 
HETATM   20  C1  UNL     1      16.035   1.793  -1.767  1.00  0.00     0.021 C 
HETATM   21  C3  UNL     1      14.496   3.472  -0.754  1.00  0.00     0.167 C 
HETATM   22  O1  UNL     1      13.706   2.896  -0.005  1.00  0.00    -0.294 OA
HETATM   23  C4  UNL     1      15.041   4.826  -0.456  1.00  0.00     0.116 C 
HETATM   24  C5  UNL     1      14.208   5.376   0.709  1.00  0.00     0.054 C 
HETATM   25  C6  UNL     1      15.001   5.751  -1.634  1.00  0.00     0.069 C 
HETATM   26  C7  UNL     1      14.523   5.021  -2.899  1.00  0.00     0.124 C 
HETATM   27 CL1  UNL     1      12.787   4.658  -2.598  1.00  0.00    -0.121 Cl
BRANCH  23  28
HETATM   28  O2  UNL     1      16.349   4.705   0.067  1.00  0.00    -0.382 OA
ATOM     29  H2  UNL     1      16.400   5.152   0.904  1.00  0.00     0.211 HD
ENDBRANCH  23  28
BRANCH  18  30
HETATM   30  O3  UNL     1      16.675   4.125  -2.769  1.00  0.00    -0.383 OA
ATOM     31  H3  UNL     1      16.863   4.958  -3.184  1.00  0.00     0.211 HD
ENDBRANCH  18  30
ENDBRANCH   1  18
TORSDOF 5
ENDMDL
