MODEL 1
REMARK VINA RESULT: -10.160702478      0.000      0.000
REMARK  5 active torsions:
REMARK  status: ('A' for Active; 'I' for Inactive)
REMARK    1  A    between atoms: C2_2  and  C3_3 
REMARK    2  A    between atoms: C3_3  and  C4_4 
REMARK    3  A    between atoms: C5_5  and  C6_6 
REMARK    4  A    between atoms: C17_19  and  O3_20 
REMARK    5  A    between atoms: C19_23  and  O4_24 
ROOT
HETATM    1  C6  UNL     1      11.626   2.317  -5.642  1.00  0.00     0.120 C 
HETATM    2  C7  UNL     1      10.399   3.209  -5.681  1.00  0.00     0.268 C 
HETATM    3  O1  UNL     1       9.261   2.789  -5.926  1.00  0.00    -0.264 OA
HETATM    4  O2  UNL     1      10.810   4.462  -5.409  1.00  0.00    -0.315 OA
HETATM    5  C8  UNL     1      12.143   4.455  -4.920  1.00  0.00     0.143 C 
HETATM    6  C9  UNL     1      12.109   4.451  -3.458  1.00  0.00     0.039 C 
HETATM    7  C10 UNL     1      13.589   4.466  -3.090  1.00  0.00     0.009 C 
HETATM    8  C11 UNL     1      13.622   4.911  -1.693  1.00  0.00     0.010 C 
HETATM    9  C12 UNL     1      13.278   6.413  -1.693  1.00  0.00     0.014 C 
HETATM   10  C13 UNL     1      14.963   4.797  -1.142  1.00  0.00    -0.012 C 
HETATM   11  C14 UNL     1      15.869   4.055  -1.748  1.00  0.00    -0.027 C 
HETATM   12  C15 UNL     1      17.185   4.002  -1.117  1.00  0.00     0.008 C 
HETATM   13  C16 UNL     1      17.805   2.833  -1.028  1.00  0.00     0.005 C 
HETATM   14  C17 UNL     1      17.069   1.679  -1.593  1.00  0.00     0.144 C 
HETATM   15  C18 UNL     1      16.484   2.057  -2.901  1.00  0.00     0.079 C 
HETATM   16  C19 UNL     1      15.694   3.302  -3.015  1.00  0.00     0.097 C 
HETATM   17  C20 UNL     1      14.244   3.159  -3.442  1.00  0.00     0.018 C 
HETATM   18  C21 UNL     1      13.658   2.156  -2.444  1.00  0.00     0.021 C 
HETATM   19  C22 UNL     1      13.990   2.723  -4.822  1.00  0.00     0.055 C 
HETATM   20  C23 UNL     1      15.127   2.787  -5.789  1.00  0.00     0.034 C 
HETATM   21 CL1  UNL     1      13.665   0.932  -4.717  1.00  0.00    -0.118 Cl
HETATM   22  C24 UNL     1      12.793   3.245  -5.580  1.00  0.00     0.021 C 
HETATM   23  C25 UNL     1      13.081   3.806  -6.948  1.00  0.00     0.021 C 
ENDROOT
BRANCH   1  24
HETATM   24  C5  UNL     1      11.511   1.302  -6.668  1.00  0.00    -0.015 C 
HETATM   25  C4  UNL     1      11.315   1.266  -7.940  1.00  0.00    -0.030 C 
BRANCH  25  26
HETATM   26  C3  UNL     1      11.243  -0.011  -8.745  1.00  0.00     0.026 C 
BRANCH  26  27
HETATM   27  C2  UNL     1      11.811  -1.194  -8.011  1.00  0.00    -0.001 C 
HETATM   28  C1  UNL     1      12.464  -2.116  -8.980  1.00  0.00     0.005 C 
ENDBRANCH  26  27
ENDBRANCH  25  26
ENDBRANCH   1  24
BRANCH  16  29
HETATM   29  O4  UNL     1      16.236   4.219  -3.971  1.00  0.00    -0.384 OA
ATOM     30  H4  UNL     1      17.069   3.812  -4.174  1.00  0.00     0.211 HD
ENDBRANCH  16  29
BRANCH  14  31
HETATM   31  O3  UNL     1      16.240   1.072  -0.678  1.00  0.00    -0.392 OA
ATOM     32  H3  UNL     1      15.964   0.204  -0.947  1.00  0.00     0.210 HD
ENDBRANCH  14  31
TORSDOF 5
ENDMDL
MODEL 2
REMARK VINA RESULT: -9.221952268      1.281      1.662
REMARK  5 active torsions:
REMARK  status: ('A' for Active; 'I' for Inactive)
REMARK    1  A    between atoms: C2_2  and  C3_3 
REMARK    2  A    between atoms: C3_3  and  C4_4 
REMARK    3  A    between atoms: C5_5  and  C6_6 
REMARK    4  A    between atoms: C17_19  and  O3_20 
REMARK    5  A    between atoms: C19_23  and  O4_24 
ROOT
HETATM    1  C6  UNL     1      13.048   1.372  -6.825  1.00  0.00     0.120 C 
HETATM    2  C7  UNL     1      11.626   1.799  -7.138  1.00  0.00     0.268 C 
HETATM    3  O1  UNL     1      10.787   1.047  -7.648  1.00  0.00    -0.264 OA
HETATM    4  O2  UNL     1      11.506   3.086  -6.759  1.00  0.00    -0.315 OA
HETATM    5  C8  UNL     1      12.620   3.481  -5.972  1.00  0.00     0.143 C 
HETATM    6  C9  UNL     1      12.276   3.327  -4.558  1.00  0.00     0.039 C 
HETATM    7  C10 UNL     1      13.542   3.804  -3.853  1.00  0.00     0.009 C 
HETATM    8  C11 UNL     1      13.117   4.099  -2.482  1.00  0.00     0.010 C 
HETATM    9  C12 UNL     1      12.279   5.392  -2.541  1.00  0.00     0.014 C 
HETATM   10  C13 UNL     1      14.262   4.390  -1.634  1.00  0.00    -0.012 C 
HETATM   11  C14 UNL     1      15.477   4.057  -2.021  1.00  0.00    -0.027 C 
HETATM   12  C15 UNL     1      16.561   4.390  -1.100  1.00  0.00     0.008 C 
HETATM   13  C16 UNL     1      17.514   3.494  -0.884  1.00  0.00     0.005 C 
HETATM   14  C17 UNL     1      17.366   2.218  -1.622  1.00  0.00     0.144 C 
HETATM   15  C18 UNL     1      16.982   2.500  -3.025  1.00  0.00     0.079 C 
HETATM   16  C19 UNL     1      15.852   3.412  -3.304  1.00  0.00     0.097 C 
HETATM   17  C20 UNL     1      14.670   2.832  -4.061  1.00  0.00     0.018 C 
HETATM   18  C21 UNL     1      14.271   1.600  -3.242  1.00  0.00     0.021 C 
HETATM   19  C22 UNL     1      14.887   2.469  -5.468  1.00  0.00     0.055 C 
HETATM   20  C23 UNL     1      16.110   3.001  -6.141  1.00  0.00     0.034 C 
HETATM   21 CL1  UNL     1      15.192   0.670  -5.468  1.00  0.00    -0.118 Cl
HETATM   22  C24 UNL     1      13.776   2.627  -6.478  1.00  0.00     0.021 C 
HETATM   23  C25 UNL     1      14.137   3.379  -7.732  1.00  0.00     0.021 C 
ENDROOT
BRANCH   1  24
HETATM   24  C5  UNL     1      13.518   0.478  -7.863  1.00  0.00    -0.015 C 
HETATM   25  C4  UNL     1      13.619  -0.793  -8.037  1.00  0.00    -0.030 C 
BRANCH  25  26
HETATM   26  C3  UNL     1      14.179  -1.429  -9.288  1.00  0.00     0.026 C 
BRANCH  26  27
HETATM   27  C2  UNL     1      13.497  -2.723  -9.639  1.00  0.00    -0.001 C 
HETATM   28  C1  UNL     1      12.027  -2.505  -9.722  1.00  0.00     0.005 C 
ENDBRANCH  26  27
ENDBRANCH  25  26
ENDBRANCH   1  24
BRANCH  16  29
HETATM   29  O4  UNL     1      16.232   4.544  -4.093  1.00  0.00    -0.384 OA
ATOM     30  H4  UNL     1      16.613   5.114  -3.437  1.00  0.00     0.211 HD
ENDBRANCH  16  29
BRANCH  14  31
HETATM   31  O3  UNL     1      16.625   1.285  -0.936  1.00  0.00    -0.392 OA
ATOM     32  H3  UNL     1      15.691   1.454  -0.972  1.00  0.00     0.210 HD
ENDBRANCH  14  31
TORSDOF 5
ENDMDL
MODEL 3
REMARK VINA RESULT: -9.191148569     14.239     17.549
REMARK  5 active torsions:
REMARK  status: ('A' for Active; 'I' for Inactive)
REMARK    1  A    between atoms: C2_2  and  C3_3 
REMARK    2  A    between atoms: C3_3  and  C4_4 
REMARK    3  A    between atoms: C5_5  and  C6_6 
REMARK    4  A    between atoms: C17_19  and  O3_20 
REMARK    5  A    between atoms: C19_23  and  O4_24 
ROOT
HETATM    1  C6  UNL     1      10.673  10.563   9.020  1.00  0.00     0.120 C 
HETATM    2  C7  UNL     1      10.555  12.060   8.800  1.00  0.00     0.268 C 
HETATM    3  O1  UNL     1      10.868  12.618   7.741  1.00  0.00    -0.264 OA
HETATM    4  O2  UNL     1      10.071  12.592   9.938  1.00  0.00    -0.315 OA
HETATM    5  C8  UNL     1       9.593  11.572  10.802  1.00  0.00     0.143 C 
HETATM    6  C9  UNL     1       8.153  11.415  10.595  1.00  0.00     0.039 C 
HETATM    7  C10 UNL     1       7.790  10.320  11.592  1.00  0.00     0.009 C 
HETATM    8  C11 UNL     1       6.337  10.431  11.757  1.00  0.00     0.010 C 
HETATM    9  C12 UNL     1       6.077  11.709  12.579  1.00  0.00     0.014 C 
HETATM   10  C13 UNL     1       5.816   9.324  12.543  1.00  0.00    -0.012 C 
HETATM   11  C14 UNL     1       6.543   8.239  12.724  1.00  0.00    -0.027 C 
HETATM   12  C15 UNL     1       5.931   7.182  13.526  1.00  0.00     0.008 C 
HETATM   13  C16 UNL     1       6.046   5.925  13.121  1.00  0.00     0.005 C 
HETATM   14  C17 UNL     1       6.802   5.730  11.862  1.00  0.00     0.144 C 
HETATM   15  C18 UNL     1       8.024   6.567  11.883  1.00  0.00     0.079 C 
HETATM   16  C19 UNL     1       7.920   8.002  12.226  1.00  0.00     0.097 C 
HETATM   17  C20 UNL     1       8.363   8.996  11.168  1.00  0.00     0.018 C 
HETATM   18  C21 UNL     1       7.553   8.607   9.927  1.00  0.00     0.021 C 
HETATM   19  C22 UNL     1       9.798   9.047  10.853  1.00  0.00     0.055 C 
HETATM   20  C23 UNL     1      10.741   8.392  11.809  1.00  0.00     0.034 C 
HETATM   21 CL1  UNL     1      10.004   8.039   9.347  1.00  0.00    -0.118 Cl
HETATM   22  C24 UNL     1      10.453  10.356  10.481  1.00  0.00     0.021 C 
HETATM   23  C25 UNL     1      11.703  10.700  11.246  1.00  0.00     0.021 C 
ENDROOT
BRANCH   1  24
HETATM   24  C5  UNL     1      11.859  10.074   8.349  1.00  0.00    -0.015 C 
HETATM   25  C4  UNL     1      13.106  10.387   8.293  1.00  0.00    -0.030 C 
BRANCH  25  26
HETATM   26  C3  UNL     1      14.124   9.643   7.460  1.00  0.00     0.026 C 
BRANCH  26  27
HETATM   27  C2  UNL     1      14.048   9.994   5.999  1.00  0.00    -0.001 C 
HETATM   28  C1  UNL     1      15.122   9.278   5.258  1.00  0.00     0.005 C 
ENDBRANCH  26  27
ENDBRANCH  25  26
ENDBRANCH   1  24
BRANCH  16  29
HETATM   29  O4  UNL     1       8.704   8.359  13.370  1.00  0.00    -0.384 OA
ATOM     30  H4  UNL     1       9.110   7.529  13.588  1.00  0.00     0.211 HD
ENDBRANCH  16  29
BRANCH  14  31
HETATM   31  O3  UNL     1       6.005   5.797  10.743  1.00  0.00    -0.392 OA
ATOM     32  H3  UNL     1       6.416   6.260  10.023  1.00  0.00     0.210 HD
ENDBRANCH  14  31
TORSDOF 5
ENDMDL
MODEL 4
REMARK VINA RESULT: -9.151180924      2.584      4.415
REMARK  5 active torsions:
REMARK  status: ('A' for Active; 'I' for Inactive)
REMARK    1  A    between atoms: C2_2  and  C3_3 
REMARK    2  A    between atoms: C3_3  and  C4_4 
REMARK    3  A    between atoms: C5_5  and  C6_6 
REMARK    4  A    between atoms: C17_19  and  O3_20 
REMARK    5  A    between atoms: C19_23  and  O4_24 
ROOT
HETATM    1  C6  UNL     1      15.102   1.767  -6.888  1.00  0.00     0.120 C 
HETATM    2  C7  UNL     1      16.254   0.883  -7.327  1.00  0.00     0.268 C 
HETATM    3  O1  UNL     1      16.653   0.817  -8.496  1.00  0.00    -0.264 OA
HETATM    4  O2  UNL     1      16.702   0.242  -6.230  1.00  0.00    -0.315 OA
HETATM    5  C8  UNL     1      16.146   0.813  -5.056  1.00  0.00     0.143 C 
HETATM    6  C9  UNL     1      17.087   1.796  -4.519  1.00  0.00     0.039 C 
HETATM    7  C10 UNL     1      16.371   2.296  -3.269  1.00  0.00     0.009 C 
HETATM    8  C11 UNL     1      17.421   2.925  -2.463  1.00  0.00     0.010 C 
HETATM    9  C12 UNL     1      18.293   1.787  -1.897  1.00  0.00     0.014 C 
HETATM   10  C13 UNL     1      16.854   3.617  -1.317  1.00  0.00    -0.012 C 
HETATM   11  C14 UNL     1      15.567   3.901  -1.284  1.00  0.00    -0.027 C 
HETATM   12  C15 UNL     1      15.092   4.599  -0.091  1.00  0.00     0.008 C 
HETATM   13  C16 UNL     1      14.243   5.607  -0.236  1.00  0.00     0.005 C 
HETATM   14  C17 UNL     1      13.864   5.922  -1.632  1.00  0.00     0.144 C 
HETATM   15  C18 UNL     1      13.580   4.666  -2.364  1.00  0.00     0.079 C 
HETATM   16  C19 UNL     1      14.556   3.556  -2.315  1.00  0.00     0.097 C 
HETATM   17  C20 UNL     1      15.162   3.112  -3.634  1.00  0.00     0.018 C 
HETATM   18  C21 UNL     1      15.735   4.400  -4.233  1.00  0.00     0.021 C 
HETATM   19  C22 UNL     1      14.268   2.449  -4.593  1.00  0.00     0.055 C 
HETATM   20  C23 UNL     1      12.952   1.954  -4.087  1.00  0.00     0.034 C 
HETATM   21 CL1  UNL     1      13.769   3.746  -5.775  1.00  0.00    -0.118 Cl
HETATM   22  C24 UNL     1      14.789   1.351  -5.490  1.00  0.00     0.021 C 
HETATM   23  C25 UNL     1      13.984   0.078  -5.496  1.00  0.00     0.021 C 
ENDROOT
BRANCH   1  24
HETATM   24  C5  UNL     1      14.090   1.783  -7.925  1.00  0.00    -0.015 C 
HETATM   25  C4  UNL     1      13.732   2.569  -8.879  1.00  0.00    -0.030 C 
BRANCH  25  26
HETATM   26  C3  UNL     1      12.586   2.282  -9.821  1.00  0.00     0.026 C 
BRANCH  26  27
HETATM   27  C2  UNL     1      12.548   3.220 -10.996  1.00  0.00    -0.001 C 
HETATM   28  C1  UNL     1      12.537   2.435 -12.260  1.00  0.00     0.005 C 
ENDBRANCH  26  27
ENDBRANCH  25  26
ENDBRANCH   1  24
BRANCH  16  29
HETATM   29  O4  UNL     1      14.001   2.350  -1.778  1.00  0.00    -0.384 OA
ATOM     30  H4  UNL     1      13.852   1.843  -2.567  1.00  0.00     0.211 HD
ENDBRANCH  16  29
BRANCH  14  31
HETATM   31  O3  UNL     1      14.712   6.827  -2.227  1.00  0.00    -0.392 OA
ATOM     32  H3  UNL     1      14.255   7.476  -2.748  1.00  0.00     0.210 HD
ENDBRANCH  14  31
TORSDOF 5
ENDMDL
MODEL 5
REMARK VINA RESULT: -9.045096692      2.198      7.319
REMARK  5 active torsions:
REMARK  status: ('A' for Active; 'I' for Inactive)
REMARK    1  A    between atoms: C2_2  and  C3_3 
REMARK    2  A    between atoms: C3_3  and  C4_4 
REMARK    3  A    between atoms: C5_5  and  C6_6 
REMARK    4  A    between atoms: C17_19  and  O3_20 
REMARK    5  A    between atoms: C19_23  and  O4_24 
ROOT
HETATM    1  C6  UNL     1      14.770   2.932  -3.604  1.00  0.00     0.120 C 
HETATM    2  C7  UNL     1      15.835   2.264  -2.754  1.00  0.00     0.268 C 
HETATM    3  O1  UNL     1      15.849   2.316  -1.518  1.00  0.00    -0.264 OA
HETATM    4  O2  UNL     1      16.689   1.653  -3.597  1.00  0.00    -0.315 OA
HETATM    5  C8  UNL     1      16.152   1.612  -4.910  1.00  0.00     0.143 C 
HETATM    6  C9  UNL     1      15.483   0.326  -5.106  1.00  0.00     0.039 C 
HETATM    7  C10 UNL     1      14.987   0.423  -6.544  1.00  0.00     0.009 C 
HETATM    8  C11 UNL     1      14.717  -0.962  -6.941  1.00  0.00     0.010 C 
HETATM    9  C12 UNL     1      16.084  -1.650  -7.122  1.00  0.00     0.014 C 
HETATM   10  C13 UNL     1      14.057  -1.013  -8.236  1.00  0.00    -0.012 C 
HETATM   11  C14 UNL     1      13.492   0.068  -8.736  1.00  0.00    -0.027 C 
HETATM   12  C15 UNL     1      12.853  -0.085 -10.042  1.00  0.00     0.008 C 
HETATM   13  C16 UNL     1      11.668   0.473 -10.243  1.00  0.00     0.005 C 
HETATM   14  C17 UNL     1      11.108   1.208  -9.085  1.00  0.00     0.144 C 
HETATM   15  C18 UNL     1      12.168   2.035  -8.463  1.00  0.00     0.079 C 
HETATM   16  C19 UNL     1      13.470   1.420  -8.125  1.00  0.00     0.097 C 
HETATM   17  C20 UNL     1      13.877   1.432  -6.662  1.00  0.00     0.018 C 
HETATM   18  C21 UNL     1      12.692   0.785  -5.939  1.00  0.00     0.021 C 
HETATM   19  C22 UNL     1      14.197   2.736  -6.066  1.00  0.00     0.055 C 
HETATM   20  C23 UNL     1      14.436   3.883  -6.993  1.00  0.00     0.034 C 
HETATM   21 CL1  UNL     1      12.688   3.254  -5.182  1.00  0.00    -0.118 Cl
HETATM   22  C24 UNL     1      15.269   2.850  -5.008  1.00  0.00     0.021 C 
HETATM   23  C25 UNL     1      16.313   3.908  -5.249  1.00  0.00     0.021 C 
ENDROOT
BRANCH   1  24
HETATM   24  C5  UNL     1      14.398   4.194  -2.999  1.00  0.00    -0.015 C 
HETATM   25  C4  UNL     1      13.464   4.629  -2.227  1.00  0.00    -0.030 C 
BRANCH  25  26
HETATM   26  C3  UNL     1      13.356   6.064  -1.762  1.00  0.00     0.026 C 
BRANCH  26  27
HETATM   27  C2  UNL     1      14.584   6.533  -1.032  1.00  0.00    -0.001 C 
HETATM   28  C1  UNL     1      14.760   5.734   0.212  1.00  0.00     0.005 C 
ENDBRANCH  26  27
ENDBRANCH  25  26
ENDBRANCH   1  24
BRANCH  16  29
HETATM   29  O4  UNL     1      14.572   2.051  -8.785  1.00  0.00    -0.384 OA
ATOM     30  H4  UNL     1      15.197   2.133  -8.075  1.00  0.00     0.211 HD
ENDBRANCH  16  29
BRANCH  14  31
HETATM   31  O3  UNL     1      10.357   0.408  -8.255  1.00  0.00    -0.392 OA
ATOM     32  H3  UNL     1       9.740   0.900  -7.725  1.00  0.00     0.210 HD
ENDBRANCH  14  31
TORSDOF 5
ENDMDL
