MODEL 1
REMARK VINA RESULT: -7.370154152      0.000      0.000
REMARK  4 active torsions:
REMARK  status: ('A' for Active; 'I' for Inactive)
REMARK    1  A    between atoms: C2_2  and  O1_4 
REMARK    2  A    between atoms: O1_4  and  C4_5 
REMARK    3  A    between atoms: C9_10  and  C10_11 
REMARK    4  A    between atoms: C19_21  and  O2_23 
ROOT
HETATM    1  C10 UNL     1       0.273  14.788  16.847  1.00  0.00     0.071 C 
HETATM    2  C11 UNL     1       1.273  13.907  17.614  1.00  0.00     0.036 C 
HETATM    3  C12 UNL     1      -0.905  13.900  16.577  1.00  0.00     0.036 C 
HETATM    4  C13 UNL     1       0.965  15.199  15.621  1.00  0.00     0.073 C 
HETATM    5  N1  UNL     1       1.495  15.523  14.641  1.00  0.00    -0.196 NA
ENDROOT
BRANCH   1   6
HETATM    6  C9  UNL     1      -0.054  15.957  17.716  1.00  0.00    -0.002 A 
HETATM    7  C4  UNL     1      -0.864  16.996  17.253  1.00  0.00     0.077 A 
HETATM    8  C5  UNL     1      -1.104  18.048  18.159  1.00  0.00     0.048 A 
HETATM    9  C6  UNL     1      -0.600  18.100  19.429  1.00  0.00    -0.015 A 
HETATM   10  C7  UNL     1       0.198  17.073  19.879  1.00  0.00    -0.040 A 
HETATM   11  C19 UNL     1      -0.888  19.245  20.344  1.00  0.00     0.082 C 
HETATM   12  C8  UNL     1       0.439  16.029  18.986  1.00  0.00     0.020 A 
HETATM   13  C14 UNL     1       0.808  17.001  21.229  1.00  0.00    -0.020 C 
HETATM   14  C15 UNL     1       0.127  15.851  21.952  1.00  0.00     0.020 C 
HETATM   15  C16 UNL     1       2.303  16.799  21.169  1.00  0.00     0.020 C 
HETATM   16  C17 UNL     1       0.541  18.243  22.016  1.00  0.00     0.017 C 
HETATM   17  C18 UNL     1       0.392  19.457  21.138  1.00  0.00     0.043 C 
HETATM   18  C20 UNL     1      -1.136  20.525  19.584  1.00  0.00     0.051 C 
BRANCH   7  19
HETATM   19  O1  UNL     1      -1.366  16.996  16.061  1.00  0.00    -0.346 OA
BRANCH  19  20
HETATM   20  C2  UNL     1      -1.866  16.996  14.878  1.00  0.00     0.120 C 
HETATM   21  C1  UNL     1      -0.981  17.626  13.769  1.00  0.00     0.040 C 
HETATM   22  C3  UNL     1      -3.233  17.673  14.691  1.00  0.00     0.040 C 
ENDBRANCH  19  20
ENDBRANCH   7  19
BRANCH  11  23
HETATM   23  O2  UNL     1      -1.978  18.973  21.151  1.00  0.00    -0.385 OA
ATOM     24  H2  UNL     1      -2.550  19.729  21.217  1.00  0.00     0.211 HD
ENDBRANCH  11  23
ENDBRANCH   1   6
TORSDOF 4
ENDMDL
MODEL 2
REMARK VINA RESULT: -7.357241690      5.541      8.822
REMARK  4 active torsions:
REMARK  status: ('A' for Active; 'I' for Inactive)
REMARK    1  A    between atoms: C2_2  and  O1_4 
REMARK    2  A    between atoms: O1_4  and  C4_5 
REMARK    3  A    between atoms: C9_10  and  C10_11 
REMARK    4  A    between atoms: C19_21  and  O2_23 
ROOT
HETATM    1  C10 UNL     1      -2.816  20.230  26.212  1.00  0.00     0.071 C 
HETATM    2  C11 UNL     1      -4.343  20.386  26.316  1.00  0.00     0.036 C 
HETATM    3  C12 UNL     1      -2.542  18.800  26.576  1.00  0.00     0.036 C 
HETATM    4  C13 UNL     1      -2.253  21.178  27.178  1.00  0.00     0.073 C 
HETATM    5  N1  UNL     1      -1.792  21.915  27.946  1.00  0.00    -0.196 NA
ENDROOT
BRANCH   1   6
HETATM    6  C9  UNL     1      -2.425  20.569  24.812  1.00  0.00    -0.002 A 
HETATM    7  C4  UNL     1      -2.684  21.831  24.275  1.00  0.00     0.077 A 
HETATM    8  C5  UNL     1      -2.273  22.038  22.944  1.00  0.00     0.048 A 
HETATM    9  C6  UNL     1      -1.651  21.094  22.175  1.00  0.00    -0.015 A 
HETATM   10  C7  UNL     1      -1.399  19.851  22.709  1.00  0.00    -0.040 A 
HETATM   11  C19 UNL     1      -1.240  21.371  20.766  1.00  0.00     0.082 C 
HETATM   12  C8  UNL     1      -1.805  19.640  24.028  1.00  0.00     0.020 A 
HETATM   13  C14 UNL     1      -0.733  18.737  21.990  1.00  0.00    -0.020 C 
HETATM   14  C15 UNL     1       0.611  18.526  22.667  1.00  0.00     0.020 C 
HETATM   15  C16 UNL     1      -1.558  17.473  22.010  1.00  0.00     0.020 C 
HETATM   16  C17 UNL     1      -0.464  19.091  20.565  1.00  0.00     0.017 C 
HETATM   17  C18 UNL     1      -1.470  20.067  20.016  1.00  0.00     0.043 C 
HETATM   18  C20 UNL     1      -2.127  22.402  20.113  1.00  0.00     0.051 C 
BRANCH   7  19
HETATM   19  O1  UNL     1      -3.269  22.761  24.959  1.00  0.00    -0.346 OA
BRANCH  19  20
HETATM   20  C2  UNL     1      -3.850  23.684  25.637  1.00  0.00     0.120 C 
HETATM   21  C1  UNL     1      -5.312  23.392  26.065  1.00  0.00     0.040 C 
HETATM   22  C3  UNL     1      -3.921  25.083  25.005  1.00  0.00     0.040 C 
ENDBRANCH  19  20
ENDBRANCH   7  19
BRANCH  11  23
HETATM   23  O2  UNL     1       0.075  21.795  20.708  1.00  0.00    -0.385 OA
ATOM     24  H2  UNL     1       0.125  22.740  20.613  1.00  0.00     0.211 HD
ENDBRANCH  11  23
ENDBRANCH   1   6
TORSDOF 4
ENDMDL
MODEL 3
REMARK VINA RESULT: -7.106378211      5.449      7.610
REMARK  4 active torsions:
REMARK  status: ('A' for Active; 'I' for Inactive)
REMARK    1  A    between atoms: C2_2  and  O1_4 
REMARK    2  A    between atoms: O1_4  and  C4_5 
REMARK    3  A    between atoms: C9_10  and  C10_11 
REMARK    4  A    between atoms: C19_21  and  O2_23 
ROOT
HETATM    1  C10 UNL     1      -1.242  20.067  22.087  1.00  0.00     0.071 C 
HETATM    2  C11 UNL     1      -0.196  19.301  22.914  1.00  0.00     0.036 C 
HETATM    3  C12 UNL     1      -1.918  19.024  21.247  1.00  0.00     0.036 C 
HETATM    4  C13 UNL     1      -0.485  21.036  21.287  1.00  0.00     0.073 C 
HETATM    5  N1  UNL     1       0.101  21.799  20.640  1.00  0.00    -0.196 NA
ENDROOT
BRANCH   1   6
HETATM    6  C9  UNL     1      -2.165  20.743  23.046  1.00  0.00    -0.002 A 
HETATM    7  C4  UNL     1      -3.227  21.530  22.594  1.00  0.00     0.077 A 
HETATM    8  C5  UNL     1      -4.031  22.120  23.589  1.00  0.00     0.048 A 
HETATM    9  C6  UNL     1      -3.831  21.966  24.932  1.00  0.00    -0.015 A 
HETATM   10  C7  UNL     1      -2.783  21.189  25.372  1.00  0.00    -0.040 A 
HETATM   11  C19 UNL     1      -4.717  22.620  25.941  1.00  0.00     0.082 C 
HETATM   12  C8  UNL     1      -1.983  20.602  24.391  1.00  0.00     0.020 A 
HETATM   13  C14 UNL     1      -2.452  20.937  26.796  1.00  0.00    -0.020 C 
HETATM   14  C15 UNL     1      -2.731  19.465  27.051  1.00  0.00     0.020 C 
HETATM   15  C16 UNL     1      -1.019  21.285  27.118  1.00  0.00     0.020 C 
HETATM   16  C17 UNL     1      -3.336  21.722  27.709  1.00  0.00     0.017 C 
HETATM   17  C18 UNL     1      -3.799  23.013  27.088  1.00  0.00     0.043 C 
HETATM   18  C20 UNL     1      -5.318  23.901  25.416  1.00  0.00     0.051 C 
BRANCH   7  19
HETATM   19  O1  UNL     1      -3.461  21.709  21.334  1.00  0.00    -0.346 OA
BRANCH  19  20
HETATM   20  C2  UNL     1      -3.694  21.886  20.084  1.00  0.00     0.120 C 
HETATM   21  C1  UNL     1      -3.094  23.174  19.459  1.00  0.00     0.040 C 
HETATM   22  C3  UNL     1      -5.164  21.908  19.638  1.00  0.00     0.040 C 
ENDBRANCH  19  20
ENDBRANCH   7  19
BRANCH  11  23
HETATM   23  O2  UNL     1      -5.732  21.767  26.337  1.00  0.00    -0.385 OA
ATOM     24  H2  UNL     1      -5.633  21.521  27.250  1.00  0.00     0.211 HD
ENDBRANCH  11  23
ENDBRANCH   1   6
TORSDOF 4
ENDMDL
MODEL 4
REMARK VINA RESULT: -7.005094568      2.361      6.438
REMARK  4 active torsions:
REMARK  status: ('A' for Active; 'I' for Inactive)
REMARK    1  A    between atoms: C2_2  and  O1_4 
REMARK    2  A    between atoms: O1_4  and  C4_5 
REMARK    3  A    between atoms: C9_10  and  C10_11 
REMARK    4  A    between atoms: C19_21  and  O2_23 
ROOT
HETATM    1  C10 UNL     1      -0.654  18.775  19.550  1.00  0.00     0.071 C 
HETATM    2  C11 UNL     1       0.594  19.429  20.165  1.00  0.00     0.036 C 
HETATM    3  C12 UNL     1      -1.290  19.850  18.719  1.00  0.00     0.036 C 
HETATM    4  C13 UNL     1      -1.490  18.369  20.685  1.00  0.00     0.073 C 
HETATM    5  N1  UNL     1      -2.167  18.051  21.572  1.00  0.00    -0.196 NA
ENDROOT
BRANCH   1   6
HETATM    6  C9  UNL     1      -0.198  17.600  18.750  1.00  0.00    -0.002 A 
HETATM    7  C4  UNL     1       0.756  16.712  19.251  1.00  0.00     0.077 A 
HETATM    8  C5  UNL     1       1.112  15.641  18.408  1.00  0.00     0.048 A 
HETATM    9  C6  UNL     1       0.586  15.434  17.163  1.00  0.00    -0.015 A 
HETATM   10  C7  UNL     1      -0.354  16.313  16.675  1.00  0.00    -0.040 A 
HETATM   11  C19 UNL     1       1.005  14.280  16.313  1.00  0.00     0.082 C 
HETATM   12  C8  UNL     1      -0.710  17.376  17.506  1.00  0.00     0.020 A 
HETATM   13  C14 UNL     1      -1.006  16.207  15.347  1.00  0.00    -0.020 C 
HETATM   14  C15 UNL     1      -2.468  15.883  15.605  1.00  0.00     0.020 C 
HETATM   15  C16 UNL     1      -0.863  17.475  14.540  1.00  0.00     0.020 C 
HETATM   16  C17 UNL     1      -0.435  15.082  14.547  1.00  0.00     0.017 C 
HETATM   17  C18 UNL     1       1.006  14.809  14.887  1.00  0.00     0.043 C 
HETATM   18  C20 UNL     1       2.420  13.847  16.609  1.00  0.00     0.051 C 
BRANCH   7  19
HETATM   19  O1  UNL     1       1.286  16.862  20.422  1.00  0.00    -0.346 OA
BRANCH  19  20
HETATM   20  C2  UNL     1       1.811  17.010  21.584  1.00  0.00     0.120 C 
HETATM   21  C1  UNL     1       3.206  16.361  21.785  1.00  0.00     0.040 C 
HETATM   22  C3  UNL     1       0.996  16.521  22.792  1.00  0.00     0.040 C 
ENDBRANCH  19  20
ENDBRANCH   7  19
BRANCH  11  23
HETATM   23  O2  UNL     1       0.153  13.203  16.482  1.00  0.00    -0.385 OA
ATOM     24  H2  UNL     1      -0.465  13.141  15.763  1.00  0.00     0.211 HD
ENDBRANCH  11  23
ENDBRANCH   1   6
TORSDOF 4
ENDMDL
MODEL 5
REMARK VINA RESULT: -6.572614603      5.635      9.625
REMARK  4 active torsions:
REMARK  status: ('A' for Active; 'I' for Inactive)
REMARK    1  A    between atoms: C2_2  and  O1_4 
REMARK    2  A    between atoms: O1_4  and  C4_5 
REMARK    3  A    between atoms: C9_10  and  C10_11 
REMARK    4  A    between atoms: C19_21  and  O2_23 
ROOT
HETATM    1  C10 UNL     1      -3.791  23.422  24.825  1.00  0.00     0.071 C 
HETATM    2  C11 UNL     1      -2.730  23.971  25.793  1.00  0.00     0.036 C 
HETATM    3  C12 UNL     1      -4.177  24.589  23.964  1.00  0.00     0.036 C 
HETATM    4  C13 UNL     1      -4.895  22.953  25.670  1.00  0.00     0.073 C 
HETATM    5  N1  UNL     1      -5.780  22.587  26.323  1.00  0.00    -0.196 NA
ENDROOT
BRANCH   1   6
HETATM    6  C9  UNL     1      -3.166  22.304  24.060  1.00  0.00    -0.002 A 
HETATM    7  C4  UNL     1      -2.608  21.204  24.714  1.00  0.00     0.077 A 
HETATM    8  C5  UNL     1      -2.043  20.210  23.891  1.00  0.00     0.048 A 
HETATM    9  C6  UNL     1      -2.016  20.267  22.525  1.00  0.00    -0.015 A 
HETATM   10  C7  UNL     1      -2.567  21.354  21.886  1.00  0.00    -0.040 A 
HETATM   11  C19 UNL     1      -1.401  19.182  21.704  1.00  0.00     0.082 C 
HETATM   12  C8  UNL     1      -3.127  22.341  22.697  1.00  0.00     0.020 A 
HETATM   13  C14 UNL     1      -2.607  21.543  20.415  1.00  0.00    -0.020 C 
HETATM   14  C15 UNL     1      -4.067  21.447  20.005  1.00  0.00     0.020 C 
HETATM   15  C16 UNL     1      -2.008  22.862  19.994  1.00  0.00     0.020 C 
HETATM   16  C17 UNL     1      -1.873  20.453  19.704  1.00  0.00     0.017 C 
HETATM   17  C18 UNL     1      -0.745  19.889  20.528  1.00  0.00     0.043 C 
HETATM   18  C20 UNL     1      -0.294  18.473  22.446  1.00  0.00     0.051 C 
BRANCH   7  19
HETATM   19  O1  UNL     1      -2.607  21.101  26.004  1.00  0.00    -0.346 OA
BRANCH  19  20
HETATM   20  C2  UNL     1      -2.606  20.998  27.284  1.00  0.00     0.120 C 
HETATM   21  C1  UNL     1      -1.339  21.527  28.006  1.00  0.00     0.040 C 
HETATM   22  C3  UNL     1      -2.813  19.595  27.878  1.00  0.00     0.040 C 
ENDBRANCH  19  20
ENDBRANCH   7  19
BRANCH  11  23
HETATM   23  O2  UNL     1      -2.351  18.258  21.309  1.00  0.00    -0.385 OA
ATOM     24  H2  UNL     1      -3.105  18.689  20.922  1.00  0.00     0.211 HD
ENDBRANCH  11  23
ENDBRANCH   1   6
TORSDOF 4
ENDMDL
