MODEL 1
REMARK VINA RESULT: -8.164170370      0.000      0.000
REMARK  2 active torsions:
REMARK  status: ('A' for Active; 'I' for Inactive)
REMARK    1  A    between atoms: C4_4  and  C5_5 
REMARK    2  A    between atoms: C7_7  and  C8_8 
ROOT
HETATM    1  C5  UNL     1       0.673  15.735  17.847  1.00  0.00    -0.009 C 
HETATM    2  C6  UNL     1      -0.583  14.908  18.111  1.00  0.00     0.021 C 
HETATM    3  C7  UNL     1       1.849  15.018  18.353  1.00  0.00     0.038 C 
HETATM    4  C12 UNL     1       1.607  14.971  19.882  1.00  0.00     0.082 C 
HETATM    5  C13 UNL     1       0.663  16.050  20.186  1.00  0.00     0.206 C 
HETATM    6  O1  UNL     1      -0.557  15.672  20.673  1.00  0.00    -0.197 OA
HETATM    7  O2  UNL     1      -0.898  16.433  21.678  1.00  0.00    -0.198 OA
HETATM    8  C14 UNL     1      -0.191  17.608  21.364  1.00  0.00     0.197 C 
HETATM    9  C15 UNL     1      -0.066  18.527  22.535  1.00  0.00     0.082 C 
HETATM   10  C16 UNL     1      -0.863  18.253  20.234  1.00  0.00     0.072 C 
HETATM   11  C17 UNL     1      -0.461  17.816  18.836  1.00  0.00     0.016 C 
HETATM   12  C18 UNL     1       0.625  16.848  18.882  1.00  0.00     0.064 C 
HETATM   13  O3  UNL     1       1.068  17.022  21.104  1.00  0.00    -0.313 OA
ENDROOT
BRANCH   3  14
HETATM   14  C8  UNL     1       2.173  13.671  17.907  1.00  0.00    -0.036 A 
HETATM   15  C9  UNL     1       2.398  12.612  18.809  1.00  0.00     0.026 A 
HETATM   16  C10 UNL     1       2.690  11.476  18.114  1.00  0.00     0.088 A 
HETATM   17  N1  UNL     1       2.653  11.794  16.826  1.00  0.00    -0.375 N 
HETATM   18  C11 UNL     1       2.346  13.103  16.670  1.00  0.00     0.095 A 
ATOM     19  H1  UNL     1       2.831  11.143  16.061  1.00  0.00     0.164 HD
ENDBRANCH   3  14
BRANCH   1  20
HETATM   20  C4  UNL     1       0.582  16.159  16.470  1.00  0.00    -0.014 C 
HETATM   21  C2  UNL     1      -0.402  15.800  15.480  1.00  0.00    -0.091 C 
HETATM   22  C1  UNL     1      -1.860  16.166  15.791  1.00  0.00     0.042 C 
HETATM   23  C3  UNL     1      -0.372  14.482  14.791  1.00  0.00     0.042 C 
ENDBRANCH   1  20
TORSDOF 2
ENDMDL
MODEL 2
REMARK VINA RESULT: -7.995105989      4.229      7.653
REMARK  2 active torsions:
REMARK  status: ('A' for Active; 'I' for Inactive)
REMARK    1  A    between atoms: C4_4  and  C5_5 
REMARK    2  A    between atoms: C7_7  and  C8_8 
ROOT
HETATM    1  C5  UNL     1      -1.357  20.209  22.019  1.00  0.00    -0.009 C 
HETATM    2  C6  UNL     1      -0.181  20.042  22.979  1.00  0.00     0.021 C 
HETATM    3  C7  UNL     1      -2.568  19.641  22.622  1.00  0.00     0.038 C 
HETATM    4  C12 UNL     1      -2.236  18.132  22.732  1.00  0.00     0.082 C 
HETATM    5  C13 UNL     1      -1.166  17.870  21.766  1.00  0.00     0.206 C 
HETATM    6  O1  UNL     1       0.036  17.470  22.281  1.00  0.00    -0.197 OA
HETATM    7  O2  UNL     1       0.518  16.476  21.586  1.00  0.00    -0.198 OA
HETATM    8  C14 UNL     1      -0.079  16.721  20.336  1.00  0.00     0.197 C 
HETATM    9  C15 UNL     1      -0.032  15.528  19.439  1.00  0.00     0.082 C 
HETATM   10  C16 UNL     1       0.585  17.881  19.736  1.00  0.00     0.072 C 
HETATM   11  C17 UNL     1       0.052  19.257  20.093  1.00  0.00     0.016 C 
HETATM   12  C18 UNL     1      -1.126  19.159  20.943  1.00  0.00     0.064 C 
HETATM   13  O3  UNL     1      -1.407  16.909  20.781  1.00  0.00    -0.313 OA
ENDROOT
BRANCH   3  14
HETATM   14  C8  UNL     1      -3.060  20.089  23.916  1.00  0.00    -0.036 A 
HETATM   15  C9  UNL     1      -3.196  19.216  25.014  1.00  0.00     0.026 A 
HETATM   16  C10 UNL     1      -3.685  19.905  26.084  1.00  0.00     0.088 A 
HETATM   17  N1  UNL     1      -3.855  21.161  25.689  1.00  0.00    -0.375 N 
HETATM   18  C11 UNL     1      -3.489  21.302  24.393  1.00  0.00     0.095 A 
ATOM     19  H1  UNL     1      -4.212  21.913  26.278  1.00  0.00     0.164 HD
ENDBRANCH   3  14
BRANCH   1  20
HETATM   20  C4  UNL     1      -1.308  21.580  21.573  1.00  0.00    -0.014 C 
HETATM   21  C2  UNL     1      -2.181  22.260  20.649  1.00  0.00    -0.091 C 
HETATM   22  C1  UNL     1      -3.666  22.335  21.030  1.00  0.00     0.042 C 
HETATM   23  C3  UNL     1      -2.070  22.060  19.179  1.00  0.00     0.042 C 
ENDBRANCH   1  20
TORSDOF 2
ENDMDL
MODEL 3
REMARK VINA RESULT: -7.955275012      1.873      3.895
REMARK  2 active torsions:
REMARK  status: ('A' for Active; 'I' for Inactive)
REMARK    1  A    between atoms: C4_4  and  C5_5 
REMARK    2  A    between atoms: C7_7  and  C8_8 
ROOT
HETATM    1  C5  UNL     1       0.222  15.821  18.475  1.00  0.00    -0.009 C 
HETATM    2  C6  UNL     1       1.615  16.440  18.383  1.00  0.00     0.021 C 
HETATM    3  C7  UNL     1      -0.663  16.456  17.491  1.00  0.00     0.038 C 
HETATM    4  C12 UNL     1      -0.747  17.922  17.983  1.00  0.00     0.082 C 
HETATM    5  C13 UNL     1      -0.378  17.907  19.401  1.00  0.00     0.206 C 
HETATM    6  O1  UNL     1       0.762  18.579  19.741  1.00  0.00    -0.197 OA
HETATM    7  O2  UNL     1       0.566  19.286  20.822  1.00  0.00    -0.198 OA
HETATM    8  C14 UNL     1      -0.458  18.541  21.435  1.00  0.00     0.197 C 
HETATM    9  C15 UNL     1      -1.169  19.316  22.495  1.00  0.00     0.082 C 
HETATM   10  C16 UNL     1       0.133  17.309  21.963  1.00  0.00     0.072 C 
HETATM   11  C17 UNL     1       0.232  16.120  21.025  1.00  0.00     0.016 C 
HETATM   12  C18 UNL     1      -0.380  16.415  19.738  1.00  0.00     0.064 C 
HETATM   13  O3  UNL     1      -1.309  18.408  20.315  1.00  0.00    -0.313 OA
ENDROOT
BRANCH   3  14
HETATM   14  C8  UNL     1      -0.342  16.474  16.073  1.00  0.00    -0.036 A 
HETATM   15  C9  UNL     1      -0.874  17.437  15.191  1.00  0.00     0.026 A 
HETATM   16  C10 UNL     1      -0.411  17.205  13.930  1.00  0.00     0.088 A 
HETATM   17  N1  UNL     1       0.381  16.142  14.001  1.00  0.00    -0.375 N 
HETATM   18  C11 UNL     1       0.442  15.681  15.272  1.00  0.00     0.095 A 
ATOM     19  H1  UNL     1       0.874  15.730  13.209  1.00  0.00     0.164 HD
ENDBRANCH   3  14
BRANCH   1  20
HETATM   20  C4  UNL     1       0.428  14.392  18.493  1.00  0.00    -0.014 C 
HETATM   21  C2  UNL     1       1.661  13.658  18.359  1.00  0.00    -0.091 C 
HETATM   22  C1  UNL     1       2.744  13.925  19.412  1.00  0.00     0.042 C 
HETATM   23  C3  UNL     1       2.313  13.463  17.036  1.00  0.00     0.042 C 
ENDBRANCH   1  20
TORSDOF 2
ENDMDL
MODEL 4
REMARK VINA RESULT: -7.862435798      5.254      9.105
REMARK  2 active torsions:
REMARK  status: ('A' for Active; 'I' for Inactive)
REMARK    1  A    between atoms: C4_4  and  C5_5 
REMARK    2  A    between atoms: C7_7  and  C8_8 
ROOT
HETATM    1  C5  UNL     1      -2.741  20.873  22.614  1.00  0.00    -0.009 C 
HETATM    2  C6  UNL     1      -3.702  20.413  21.520  1.00  0.00     0.021 C 
HETATM    3  C7  UNL     1      -2.083  22.117  22.199  1.00  0.00     0.038 C 
HETATM    4  C12 UNL     1      -1.251  21.686  20.966  1.00  0.00     0.082 C 
HETATM    5  C13 UNL     1      -1.070  20.236  21.073  1.00  0.00     0.206 C 
HETATM    6  O1  UNL     1      -1.645  19.476  20.093  1.00  0.00    -0.197 OA
HETATM    7  O2  UNL     1      -0.815  18.551  19.693  1.00  0.00    -0.198 OA
HETATM    8  C14 UNL     1      -0.033  18.387  20.850  1.00  0.00     0.197 C 
HETATM    9  C15 UNL     1       1.253  17.679  20.572  1.00  0.00     0.082 C 
HETATM   10  C16 UNL     1      -0.840  17.680  21.847  1.00  0.00     0.072 C 
HETATM   11  C17 UNL     1      -1.731  18.515  22.748  1.00  0.00     0.016 C 
HETATM   12  C18 UNL     1      -1.548  19.936  22.495  1.00  0.00     0.064 C 
HETATM   13  O3  UNL     1       0.239  19.750  21.104  1.00  0.00    -0.313 OA
ENDROOT
BRANCH   3  14
HETATM   14  C8  UNL     1      -2.847  23.301  21.835  1.00  0.00    -0.036 A 
HETATM   15  C9  UNL     1      -3.166  23.611  20.497  1.00  0.00     0.026 A 
HETATM   16  C10 UNL     1      -3.875  24.774  20.456  1.00  0.00     0.088 A 
HETATM   17  N1  UNL     1      -4.004  25.190  21.710  1.00  0.00    -0.375 N 
HETATM   18  C11 UNL     1      -3.398  24.328  22.559  1.00  0.00     0.095 A 
ATOM     19  H1  UNL     1      -4.491  26.040  21.994  1.00  0.00     0.164 HD
ENDBRANCH   3  14
BRANCH   1  20
HETATM   20  C4  UNL     1      -3.482  20.786  23.849  1.00  0.00    -0.014 C 
HETATM   21  C2  UNL     1      -3.021  21.019  25.195  1.00  0.00    -0.091 C 
HETATM   22  C1  UNL     1      -2.478  22.419  25.507  1.00  0.00     0.042 C 
HETATM   23  C3  UNL     1      -2.207  20.012  25.926  1.00  0.00     0.042 C 
ENDBRANCH   1  20
TORSDOF 2
ENDMDL
MODEL 5
REMARK VINA RESULT: -7.607979628      3.671      6.995
REMARK  2 active torsions:
REMARK  status: ('A' for Active; 'I' for Inactive)
REMARK    1  A    between atoms: C4_4  and  C5_5 
REMARK    2  A    between atoms: C7_7  and  C8_8 
ROOT
HETATM    1  C5  UNL     1      -1.209  19.472  20.537  1.00  0.00    -0.009 C 
HETATM    2  C6  UNL     1       0.103  19.916  21.182  1.00  0.00     0.021 C 
HETATM    3  C7  UNL     1      -2.097  18.916  21.564  1.00  0.00     0.038 C 
HETATM    4  C12 UNL     1      -1.338  17.654  22.046  1.00  0.00     0.082 C 
HETATM    5  C13 UNL     1      -0.405  17.297  20.974  1.00  0.00     0.206 C 
HETATM    6  O1  UNL     1       0.927  17.374  21.275  1.00  0.00    -0.197 OA
HETATM    7  O2  UNL     1       1.555  16.324  20.821  1.00  0.00    -0.198 OA
HETATM    8  C14 UNL     1       0.723  15.971  19.744  1.00  0.00     0.197 C 
HETATM    9  C15 UNL     1       0.964  14.574  19.272  1.00  0.00     0.082 C 
HETATM   10  C16 UNL     1       0.926  16.950  18.674  1.00  0.00     0.072 C 
HETATM   11  C17 UNL     1       0.089  18.215  18.712  1.00  0.00     0.016 C 
HETATM   12  C18 UNL     1      -0.862  18.181  19.813  1.00  0.00     0.064 C 
HETATM   13  O3  UNL     1      -0.516  16.019  20.422  1.00  0.00    -0.313 OA
ENDROOT
BRANCH   3  14
HETATM   14  C8  UNL     1      -2.485  19.683  22.737  1.00  0.00    -0.036 A 
HETATM   15  C9  UNL     1      -1.589  19.955  23.791  1.00  0.00     0.026 A 
HETATM   16  C10 UNL     1      -2.225  20.680  24.754  1.00  0.00     0.088 A 
HETATM   17  N1  UNL     1      -3.471  20.864  24.336  1.00  0.00    -0.375 N 
HETATM   18  C11 UNL     1      -3.658  20.278  23.131  1.00  0.00     0.095 A 
ATOM     19  H1  UNL     1      -4.188  21.375  24.852  1.00  0.00     0.164 HD
ENDBRANCH   3  14
BRANCH   1  20
HETATM   20  C4  UNL     1      -1.622  20.569  19.695  1.00  0.00    -0.014 C 
HETATM   21  C2  UNL     1      -2.474  21.685  20.021  1.00  0.00    -0.091 C 
HETATM   22  C1  UNL     1      -2.004  22.606  21.154  1.00  0.00     0.042 C 
HETATM   23  C3  UNL     1      -3.953  21.541  20.100  1.00  0.00     0.042 C 
ENDBRANCH   1  20
TORSDOF 2
ENDMDL
