MODEL 1
REMARK VINA RESULT: -9.438787720      0.000      0.000
REMARK  17 active torsions:
REMARK  status: ('A' for Active; 'I' for Inactive)
REMARK    1  A    between atoms: C2_2  and  O1_3 
REMARK    2  A    between atoms: O1_3  and  C3_4 
REMARK    3  A    between atoms: C3_4  and  O2_5 
REMARK    4  A    between atoms: C3_4  and  C4_7 
REMARK    5  A    between atoms: C4_7  and  C5_8 
REMARK    6  A    between atoms: C5_8  and  C6_9 
REMARK    7  A    between atoms: C6_9  and  N1_10 
REMARK       I    between atoms: N1_10  and  C7_12 
REMARK    8  A    between atoms: C7_12  and  C8_14 
REMARK    9  A    between atoms: C8_14  and  N2_15 
REMARK   10  A    between atoms: C8_14  and  C15_24 
REMARK       I    between atoms: N2_15  and  C9_17 
REMARK   11  A    between atoms: C9_17  and  C10_19 
REMARK   12  A    between atoms: C15_24  and  C17_26 
REMARK   13  A    between atoms: C17_26  and  C18_27 
REMARK       I    between atoms: N3_29  and  C19_31 
REMARK   14  A    between atoms: C19_31  and  C20_33 
REMARK       I    between atoms: N4_37  and  C24_38 
REMARK   15  A    between atoms: C24_38  and  C25_40 
REMARK   16  A    between atoms: C25_40  and  C26_42 
REMARK   17  A    between atoms: C26_42  and  C27_43 
ROOT
HETATM    1  C6  UNL     1      13.606  19.974  15.401  1.00  0.00     0.086 C 
HETATM    2  N3  UNL     1      14.716  20.322  16.078  1.00  0.00    -0.315 N 
ATOM      3  H3  UNL     1      14.763  20.022  17.052  1.00  0.00     0.170 HD
HETATM    4  C19 UNL     1      15.875  21.090  15.573  1.00  0.00     0.246 C 
HETATM    5  O6  UNL     1      15.909  21.451  14.437  1.00  0.00    -0.271 OA
ENDROOT
BRANCH   1   6
HETATM    6  C5  UNL     1      13.061  18.837  16.727  1.00  0.00     0.081 C 
BRANCH   6   7
HETATM    7  C4  UNL     1      12.080  19.681  17.417  1.00  0.00     0.068 C 
BRANCH   7   8
HETATM    8  C3  UNL     1      10.865  18.932  17.886  1.00  0.00     0.257 C 
BRANCH   8   9
HETATM    9  O1  UNL     1      10.762  18.746  19.255  1.00  0.00    -0.362 OA
BRANCH   9  10
HETATM   10  C2  UNL     1      11.623  17.718  19.663  1.00  0.00     0.166 C 
HETATM   11  C1  UNL     1      12.549  18.116  20.785  1.00  0.00     0.033 C 
ENDBRANCH   9  10
ENDBRANCH   8   9
BRANCH   8  12
HETATM   12  O2  UNL     1       9.728  19.680  17.508  1.00  0.00    -0.371 OA
ATOM     13  H2  UNL     1       8.976  19.153  17.752  1.00  0.00     0.212 HD
ENDBRANCH   8  12
ENDBRANCH   7   8
ENDBRANCH   6   7
ENDBRANCH   1   6
BRANCH   1  14
HETATM   14  N1  UNL     1      12.612  19.661  14.795  1.00  0.00    -0.315 N 
HETATM   15  C7  UNL     1      12.300  19.253  13.501  1.00  0.00     0.246 C 
HETATM   16  O3  UNL     1      13.003  19.794  12.577  1.00  0.00    -0.271 OA
ATOM     17  H1  UNL     1      11.782  19.707  15.385  1.00  0.00     0.170 HD
BRANCH  15  18
HETATM   18  C8  UNL     1      11.277  18.300  13.030  1.00  0.00     0.181 C 
BRANCH  18  19
HETATM   19  N2  UNL     1      10.661  17.650  14.164  1.00  0.00    -0.347 N 
HETATM   20  C9  UNL     1      10.808  16.250  14.375  1.00  0.00     0.222 C 
HETATM   21  O4  UNL     1      11.506  15.555  13.553  1.00  0.00    -0.273 OA
ATOM     22  H2  UNL     1      10.112  18.202  14.824  1.00  0.00     0.163 HD
BRANCH  20  23
HETATM   23  C10 UNL     1      10.210  15.530  15.485  1.00  0.00     0.078 C 
HETATM   24  C11 UNL     1      11.052  15.354  16.698  1.00  0.00     0.014 C 
HETATM   25  C12 UNL     1      10.006  14.992  17.754  1.00  0.00     0.001 C 
HETATM   26  C13 UNL     1       8.827  15.891  17.419  1.00  0.00     0.001 C 
HETATM   27  C14 UNL     1       9.035  16.346  16.007  1.00  0.00     0.014 C 
ENDBRANCH  20  23
ENDBRANCH  18  19
BRANCH  18  28
HETATM   28  C15 UNL     1      10.316  18.994  12.145  1.00  0.00     0.020 C 
HETATM   29  C16 UNL     1      10.243  18.445  10.753  1.00  0.00     0.013 C 
BRANCH  28  30
HETATM   30  C17 UNL     1       8.965  19.286  12.684  1.00  0.00     0.076 C 
BRANCH  30  31
HETATM   31  C18 UNL     1       8.917  20.498  13.536  1.00  0.00     0.231 C 
HETATM   32  O5  UNL     1       8.938  20.390  14.738  1.00  0.00    -0.307 OA
ENDBRANCH  30  31
ENDBRANCH  28  30
ENDBRANCH  18  28
ENDBRANCH  15  18
ENDBRANCH   1  14
BRANCH   4  33
HETATM   33  C20 UNL     1      16.868  21.303  16.642  1.00  0.00     0.180 C 
HETATM   34  C21 UNL     1      16.224  20.686  17.936  1.00  0.00     0.037 C 
HETATM   35  C22 UNL     1      16.556  21.708  19.027  1.00  0.00     0.022 C 
HETATM   36  C23 UNL     1      17.823  22.300  18.427  1.00  0.00     0.127 C 
HETATM   37  N4  UNL     1      17.292  22.569  17.050  1.00  0.00    -0.332 N 
HETATM   38  C24 UNL     1      17.469  23.872  16.462  1.00  0.00     0.294 C 
HETATM   39  O7  UNL     1      17.350  23.935  15.205  1.00  0.00    -0.264 OA
BRANCH  38  40
HETATM   40  C25 UNL     1      17.781  25.037  17.260  1.00  0.00     0.236 C 
HETATM   41  O8  UNL     1      16.806  25.635  17.857  1.00  0.00    -0.283 OA
BRANCH  40  42
HETATM   42  C26 UNL     1      19.107  25.565  17.434  1.00  0.00     0.043 C 
BRANCH  42  43
HETATM   43  C27 UNL     1      19.835  26.314  16.403  1.00  0.00    -0.018 C 
HETATM   44  C28 UNL     1      19.077  27.021  15.344  1.00  0.00     0.018 C 
HETATM   45  C29 UNL     1      20.072  27.588  14.349  1.00  0.00    -0.013 C 
HETATM   46  C30 UNL     1      20.995  28.618  14.990  1.00  0.00     0.009 C 
HETATM   47  C34 UNL     1      20.953  26.562  13.719  1.00  0.00     0.009 C 
HETATM   48  C31 UNL     1      21.701  27.978  16.161  1.00  0.00    -0.013 C 
HETATM   49  C32 UNL     1      22.630  26.924  15.568  1.00  0.00     0.009 C 
HETATM   50  C36 UNL     1      20.710  27.381  17.089  1.00  0.00     0.018 C 
HETATM   51  C33 UNL     1      21.769  25.919  14.829  1.00  0.00    -0.013 C 
HETATM   52  C35 UNL     1      20.817  25.299  15.781  1.00  0.00     0.018 C 
ENDBRANCH  42  43
ENDBRANCH  40  42
ENDBRANCH  38  40
ENDBRANCH   4  33
TORSDOF 17
ENDMDL
MODEL 2
REMARK VINA RESULT: -9.405925077      0.901      1.507
REMARK  17 active torsions:
REMARK  status: ('A' for Active; 'I' for Inactive)
REMARK    1  A    between atoms: C2_2  and  O1_3 
REMARK    2  A    between atoms: O1_3  and  C3_4 
REMARK    3  A    between atoms: C3_4  and  O2_5 
REMARK    4  A    between atoms: C3_4  and  C4_7 
REMARK    5  A    between atoms: C4_7  and  C5_8 
REMARK    6  A    between atoms: C5_8  and  C6_9 
REMARK    7  A    between atoms: C6_9  and  N1_10 
REMARK       I    between atoms: N1_10  and  C7_12 
REMARK    8  A    between atoms: C7_12  and  C8_14 
REMARK    9  A    between atoms: C8_14  and  N2_15 
REMARK   10  A    between atoms: C8_14  and  C15_24 
REMARK       I    between atoms: N2_15  and  C9_17 
REMARK   11  A    between atoms: C9_17  and  C10_19 
REMARK   12  A    between atoms: C15_24  and  C17_26 
REMARK   13  A    between atoms: C17_26  and  C18_27 
REMARK       I    between atoms: N3_29  and  C19_31 
REMARK   14  A    between atoms: C19_31  and  C20_33 
REMARK       I    between atoms: N4_37  and  C24_38 
REMARK   15  A    between atoms: C24_38  and  C25_40 
REMARK   16  A    between atoms: C25_40  and  C26_42 
REMARK   17  A    between atoms: C26_42  and  C27_43 
ROOT
HETATM    1  C6  UNL     1      13.312  20.357  15.442  1.00  0.00     0.086 C 
HETATM    2  N3  UNL     1      14.392  20.633  16.195  1.00  0.00    -0.315 N 
ATOM      3  H3  UNL     1      14.265  20.571  17.206  1.00  0.00     0.170 HD
HETATM    4  C19 UNL     1      15.743  21.014  15.729  1.00  0.00     0.246 C 
HETATM    5  O6  UNL     1      15.979  21.080  14.561  1.00  0.00    -0.271 OA
ENDROOT
BRANCH   1   6
HETATM    6  C5  UNL     1      12.384  19.700  16.876  1.00  0.00     0.081 C 
BRANCH   6   7
HETATM    7  C4  UNL     1      12.768  18.286  16.818  1.00  0.00     0.068 C 
BRANCH   7   8
HETATM    8  C3  UNL     1      13.405  17.783  18.084  1.00  0.00     0.257 C 
BRANCH   8   9
HETATM    9  O1  UNL     1      12.608  16.975  18.879  1.00  0.00    -0.362 OA
BRANCH   9  10
HETATM   10  C2  UNL     1      12.074  17.726  19.937  1.00  0.00     0.166 C 
HETATM   11  C1  UNL     1      13.099  18.563  20.660  1.00  0.00     0.033 C 
ENDBRANCH   9  10
ENDBRANCH   8   9
BRANCH   8  12
HETATM   12  O2  UNL     1      14.517  16.994  17.719  1.00  0.00    -0.371 OA
ATOM     13  H2  UNL     1      14.691  16.427  18.462  1.00  0.00     0.212 HD
ENDBRANCH   8  12
ENDBRANCH   7   8
ENDBRANCH   6   7
ENDBRANCH   1   6
BRANCH   1  14
HETATM   14  N1  UNL     1      12.344  20.108  14.767  1.00  0.00    -0.315 N 
HETATM   15  C7  UNL     1      12.099  19.611  13.490  1.00  0.00     0.246 C 
HETATM   16  O3  UNL     1      12.949  19.961  12.599  1.00  0.00    -0.271 OA
ATOM     17  H1  UNL     1      11.478  20.318  15.262  1.00  0.00     0.170 HD
BRANCH  15  18
HETATM   18  C8  UNL     1      11.005  18.748  13.005  1.00  0.00     0.181 C 
BRANCH  18  19
HETATM   19  N2  UNL     1      10.369  18.094  14.126  1.00  0.00    -0.347 N 
HETATM   20  C9  UNL     1      10.542  16.700  14.355  1.00  0.00     0.222 C 
HETATM   21  O4  UNL     1      11.281  16.014  13.562  1.00  0.00    -0.273 OA
ATOM     22  H2  UNL     1       9.787  18.639  14.763  1.00  0.00     0.163 HD
BRANCH  20  23
HETATM   23  C10 UNL     1       9.926  15.976  15.453  1.00  0.00     0.078 C 
HETATM   24  C11 UNL     1      10.835  15.176  16.317  1.00  0.00     0.014 C 
HETATM   25  C12 UNL     1       9.967  14.950  17.556  1.00  0.00     0.001 C 
HETATM   26  C13 UNL     1       9.245  16.275  17.740  1.00  0.00     0.001 C 
HETATM   27  C14 UNL     1       9.343  16.990  16.428  1.00  0.00     0.014 C 
ENDBRANCH  20  23
ENDBRANCH  18  19
BRANCH  18  28
HETATM   28  C15 UNL     1      10.075  19.541  12.170  1.00  0.00     0.020 C 
HETATM   29  C16 UNL     1       9.849  18.990  10.796  1.00  0.00     0.013 C 
BRANCH  28  30
HETATM   30  C17 UNL     1       8.805  19.995  12.790  1.00  0.00     0.076 C 
BRANCH  30  31
HETATM   31  C18 UNL     1       8.950  21.227  13.600  1.00  0.00     0.231 C 
HETATM   32  O5  UNL     1       9.254  21.150  14.764  1.00  0.00    -0.307 OA
ENDBRANCH  30  31
ENDBRANCH  28  30
ENDBRANCH  18  28
ENDBRANCH  15  18
ENDBRANCH   1  14
BRANCH   4  33
HETATM   33  C20 UNL     1      16.637  21.279  16.871  1.00  0.00     0.180 C 
HETATM   34  C21 UNL     1      15.838  20.812  18.141  1.00  0.00     0.037 C 
HETATM   35  C22 UNL     1      16.117  21.913  19.168  1.00  0.00     0.022 C 
HETATM   36  C23 UNL     1      17.466  22.390  18.651  1.00  0.00     0.127 C 
HETATM   37  N4  UNL     1      17.086  22.556  17.209  1.00  0.00    -0.332 N 
HETATM   38  C24 UNL     1      17.390  23.791  16.533  1.00  0.00     0.294 C 
HETATM   39  O7  UNL     1      17.397  23.745  15.269  1.00  0.00    -0.264 OA
BRANCH  38  40
HETATM   40  C25 UNL     1      17.686  25.009  17.255  1.00  0.00     0.236 C 
HETATM   41  O8  UNL     1      16.693  25.680  17.732  1.00  0.00    -0.283 OA
BRANCH  40  42
HETATM   42  C26 UNL     1      19.013  25.512  17.481  1.00  0.00     0.043 C 
BRANCH  42  43
HETATM   43  C27 UNL     1      19.898  26.001  16.417  1.00  0.00    -0.018 C 
HETATM   44  C28 UNL     1      20.709  25.033  15.642  1.00  0.00     0.018 C 
HETATM   45  C29 UNL     1      21.621  25.815  14.715  1.00  0.00    -0.013 C 
HETATM   46  C30 UNL     1      20.834  26.639  13.703  1.00  0.00     0.009 C 
HETATM   47  C34 UNL     1      22.533  26.764  15.419  1.00  0.00     0.009 C 
HETATM   48  C31 UNL     1      19.895  27.558  14.447  1.00  0.00    -0.013 C 
HETATM   49  C32 UNL     1      20.781  28.563  15.176  1.00  0.00     0.009 C 
HETATM   50  C36 UNL     1      19.056  26.778  15.387  1.00  0.00     0.018 C 
HETATM   51  C33 UNL     1      21.662  27.785  16.134  1.00  0.00    -0.013 C 
HETATM   52  C35 UNL     1      20.807  27.049  17.094  1.00  0.00     0.018 C 
ENDBRANCH  42  43
ENDBRANCH  40  42
ENDBRANCH  38  40
ENDBRANCH   4  33
TORSDOF 17
ENDMDL
MODEL 3
REMARK VINA RESULT: -9.276882634      1.326      1.808
REMARK  17 active torsions:
REMARK  status: ('A' for Active; 'I' for Inactive)
REMARK    1  A    between atoms: C2_2  and  O1_3 
REMARK    2  A    between atoms: O1_3  and  C3_4 
REMARK    3  A    between atoms: C3_4  and  O2_5 
REMARK    4  A    between atoms: C3_4  and  C4_7 
REMARK    5  A    between atoms: C4_7  and  C5_8 
REMARK    6  A    between atoms: C5_8  and  C6_9 
REMARK    7  A    between atoms: C6_9  and  N1_10 
REMARK       I    between atoms: N1_10  and  C7_12 
REMARK    8  A    between atoms: C7_12  and  C8_14 
REMARK    9  A    between atoms: C8_14  and  N2_15 
REMARK   10  A    between atoms: C8_14  and  C15_24 
REMARK       I    between atoms: N2_15  and  C9_17 
REMARK   11  A    between atoms: C9_17  and  C10_19 
REMARK   12  A    between atoms: C15_24  and  C17_26 
REMARK   13  A    between atoms: C17_26  and  C18_27 
REMARK       I    between atoms: N3_29  and  C19_31 
REMARK   14  A    between atoms: C19_31  and  C20_33 
REMARK       I    between atoms: N4_37  and  C24_38 
REMARK   15  A    between atoms: C24_38  and  C25_40 
REMARK   16  A    between atoms: C25_40  and  C26_42 
REMARK   17  A    between atoms: C26_42  and  C27_43 
ROOT
HETATM    1  C6  UNL     1      13.569  20.336  15.971  1.00  0.00     0.086 C 
HETATM    2  N3  UNL     1      14.768  20.659  16.489  1.00  0.00    -0.315 N 
ATOM      3  H3  UNL     1      14.860  20.574  17.502  1.00  0.00     0.170 HD
HETATM    4  C19 UNL     1      15.969  21.123  15.761  1.00  0.00     0.246 C 
HETATM    5  O6  UNL     1      15.951  21.222  14.573  1.00  0.00    -0.271 OA
ENDROOT
BRANCH   1   6
HETATM    6  C5  UNL     1      12.998  19.604  17.547  1.00  0.00     0.081 C 
BRANCH   6   7
HETATM    7  C4  UNL     1      13.841  18.406  17.607  1.00  0.00     0.068 C 
BRANCH   7   8
HETATM    8  C3  UNL     1      13.103  17.172  18.044  1.00  0.00     0.257 C 
BRANCH   8   9
HETATM    9  O1  UNL     1      11.962  17.387  18.800  1.00  0.00    -0.362 OA
BRANCH   9  10
HETATM   10  C2  UNL     1      12.225  17.107  20.149  1.00  0.00     0.166 C 
HETATM   11  C1  UNL     1      12.556  18.331  20.965  1.00  0.00     0.033 C 
ENDBRANCH   9  10
ENDBRANCH   8   9
BRANCH   8  12
HETATM   12  O2  UNL     1      12.676  16.494  16.880  1.00  0.00    -0.371 OA
ATOM     13  H2  UNL     1      13.279  16.751  16.192  1.00  0.00     0.212 HD
ENDBRANCH   8  12
ENDBRANCH   7   8
ENDBRANCH   6   7
ENDBRANCH   1   6
BRANCH   1  14
HETATM   14  N1  UNL     1      12.495  20.046  15.507  1.00  0.00    -0.315 N 
HETATM   15  C7  UNL     1      12.010  19.571  14.291  1.00  0.00     0.246 C 
HETATM   16  O3  UNL     1      12.629  20.001  13.255  1.00  0.00    -0.271 OA
ATOM     17  H1  UNL     1      11.744  20.185  16.182  1.00  0.00     0.170 HD
BRANCH  15  18
HETATM   18  C8  UNL     1      10.889  18.654  14.012  1.00  0.00     0.181 C 
BRANCH  18  19
HETATM   19  N2  UNL     1      11.231  17.321  14.455  1.00  0.00    -0.347 N 
HETATM   20  C9  UNL     1      10.900  16.182  13.669  1.00  0.00     0.222 C 
HETATM   21  O4  UNL     1      10.299  16.338  12.546  1.00  0.00    -0.273 OA
ATOM     22  H2  UNL     1      11.715  17.195  15.344  1.00  0.00     0.163 HD
BRANCH  20  23
HETATM   23  C10 UNL     1      11.203  14.815  14.055  1.00  0.00     0.078 C 
HETATM   24  C11 UNL     1      10.601  14.333  15.327  1.00  0.00     0.014 C 
HETATM   25  C12 UNL     1      10.740  12.816  15.181  1.00  0.00     0.001 C 
HETATM   26  C13 UNL     1      10.430  12.563  13.715  1.00  0.00     0.001 C 
HETATM   27  C14 UNL     1      10.592  13.879  13.020  1.00  0.00     0.014 C 
ENDBRANCH  20  23
ENDBRANCH  18  19
BRANCH  18  28
HETATM   28  C15 UNL     1       9.647  19.185  14.618  1.00  0.00     0.020 C 
HETATM   29  C16 UNL     1       9.385  18.711  16.015  1.00  0.00     0.013 C 
BRANCH  28  30
HETATM   30  C17 UNL     1       9.373  20.636  14.477  1.00  0.00     0.076 C 
BRANCH  30  31
HETATM   31  C18 UNL     1       8.889  21.018  13.129  1.00  0.00     0.231 C 
HETATM   32  O5  UNL     1       8.164  20.273  12.517  1.00  0.00    -0.307 OA
ENDBRANCH  30  31
ENDBRANCH  28  30
ENDBRANCH  18  28
ENDBRANCH  15  18
ENDBRANCH   1  14
BRANCH   4  33
HETATM   33  C20 UNL     1      17.069  21.418  16.698  1.00  0.00     0.180 C 
HETATM   34  C21 UNL     1      16.640  20.764  18.061  1.00  0.00     0.037 C 
HETATM   35  C22 UNL     1      17.028  21.817  19.104  1.00  0.00     0.022 C 
HETATM   36  C23 UNL     1      18.163  22.496  18.351  1.00  0.00     0.127 C 
HETATM   37  N4  UNL     1      17.445  22.715  17.052  1.00  0.00    -0.332 N 
HETATM   38  C24 UNL     1      17.449  24.023  16.449  1.00  0.00     0.294 C 
HETATM   39  O7  UNL     1      17.170  24.067  15.217  1.00  0.00    -0.264 OA
BRANCH  38  40
HETATM   40  C25 UNL     1      17.771  25.214  17.204  1.00  0.00     0.236 C 
HETATM   41  O8  UNL     1      16.797  25.861  17.748  1.00  0.00    -0.283 OA
BRANCH  40  42
HETATM   42  C26 UNL     1      19.105  25.716  17.390  1.00  0.00     0.043 C 
BRANCH  42  43
HETATM   43  C27 UNL     1      19.871  26.419  16.354  1.00  0.00    -0.018 C 
HETATM   44  C28 UNL     1      19.150  27.142  15.280  1.00  0.00     0.018 C 
HETATM   45  C29 UNL     1      20.175  27.653  14.284  1.00  0.00    -0.013 C 
HETATM   46  C30 UNL     1      21.135  28.652  14.918  1.00  0.00     0.009 C 
HETATM   47  C34 UNL     1      21.016  26.582  13.674  1.00  0.00     0.009 C 
HETATM   48  C31 UNL     1      21.806  28.000  16.102  1.00  0.00    -0.013 C 
HETATM   49  C32 UNL     1      22.695  26.900  15.531  1.00  0.00     0.009 C 
HETATM   50  C36 UNL     1      20.786  27.458  17.031  1.00  0.00     0.018 C 
HETATM   51  C33 UNL     1      21.797  25.921  14.800  1.00  0.00    -0.013 C 
HETATM   52  C35 UNL     1      20.814  25.355  15.753  1.00  0.00     0.018 C 
ENDBRANCH  42  43
ENDBRANCH  40  42
ENDBRANCH  38  40
ENDBRANCH   4  33
TORSDOF 17
ENDMDL
MODEL 4
REMARK VINA RESULT: -9.273238666      1.914      2.651
REMARK  17 active torsions:
REMARK  status: ('A' for Active; 'I' for Inactive)
REMARK    1  A    between atoms: C2_2  and  O1_3 
REMARK    2  A    between atoms: O1_3  and  C3_4 
REMARK    3  A    between atoms: C3_4  and  O2_5 
REMARK    4  A    between atoms: C3_4  and  C4_7 
REMARK    5  A    between atoms: C4_7  and  C5_8 
REMARK    6  A    between atoms: C5_8  and  C6_9 
REMARK    7  A    between atoms: C6_9  and  N1_10 
REMARK       I    between atoms: N1_10  and  C7_12 
REMARK    8  A    between atoms: C7_12  and  C8_14 
REMARK    9  A    between atoms: C8_14  and  N2_15 
REMARK   10  A    between atoms: C8_14  and  C15_24 
REMARK       I    between atoms: N2_15  and  C9_17 
REMARK   11  A    between atoms: C9_17  and  C10_19 
REMARK   12  A    between atoms: C15_24  and  C17_26 
REMARK   13  A    between atoms: C17_26  and  C18_27 
REMARK       I    between atoms: N3_29  and  C19_31 
REMARK   14  A    between atoms: C19_31  and  C20_33 
REMARK       I    between atoms: N4_37  and  C24_38 
REMARK   15  A    between atoms: C24_38  and  C25_40 
REMARK   16  A    between atoms: C25_40  and  C26_42 
REMARK   17  A    between atoms: C26_42  and  C27_43 
ROOT
HETATM    1  C6  UNL     1      14.135  20.167  16.130  1.00  0.00     0.086 C 
HETATM    2  N3  UNL     1      15.302  20.423  16.749  1.00  0.00    -0.315 N 
ATOM      3  H3  UNL     1      15.428  20.000  17.669  1.00  0.00     0.170 HD
HETATM    4  C19 UNL     1      16.425  21.247  16.249  1.00  0.00     0.246 C 
HETATM    5  O6  UNL     1      16.367  21.751  15.170  1.00  0.00    -0.271 OA
ENDROOT
BRANCH   1   6
HETATM    6  C5  UNL     1      13.689  18.870  17.341  1.00  0.00     0.081 C 
BRANCH   6   7
HETATM    7  C4  UNL     1      12.704  19.590  18.154  1.00  0.00     0.068 C 
BRANCH   7   8
HETATM    8  C3  UNL     1      11.418  18.837  18.349  1.00  0.00     0.257 C 
BRANCH   8   9
HETATM    9  O1  UNL     1      10.945  18.776  19.650  1.00  0.00    -0.362 OA
BRANCH   9  10
HETATM   10  C2  UNL     1      11.989  18.431  20.520  1.00  0.00     0.166 C 
HETATM   11  C1  UNL     1      12.427  16.993  20.398  1.00  0.00     0.033 C 
ENDBRANCH   9  10
ENDBRANCH   8   9
BRANCH   8  12
HETATM   12  O2  UNL     1      10.417  19.497  17.602  1.00  0.00    -0.371 OA
ATOM     13  H2  UNL     1      10.701  19.462  16.696  1.00  0.00     0.212 HD
ENDBRANCH   8  12
ENDBRANCH   7   8
ENDBRANCH   6   7
ENDBRANCH   1   6
BRANCH   1  14
HETATM   14  N1  UNL     1      13.090  19.936  15.576  1.00  0.00    -0.315 N 
HETATM   15  C7  UNL     1      12.654  19.761  14.265  1.00  0.00     0.246 C 
HETATM   16  O3  UNL     1      13.251  20.483  13.393  1.00  0.00    -0.271 OA
ATOM     17  H1  UNL     1      12.323  19.847  16.242  1.00  0.00     0.170 HD
BRANCH  15  18
HETATM   18  C8  UNL     1      11.603  18.875  13.728  1.00  0.00     0.181 C 
BRANCH  18  19
HETATM   19  N2  UNL     1      11.032  18.093  14.802  1.00  0.00    -0.347 N 
HETATM   20  C9  UNL     1      10.857  16.687  14.671  1.00  0.00     0.222 C 
HETATM   21  O4  UNL     1      11.220  16.101  13.588  1.00  0.00    -0.273 OA
ATOM     22  H2  UNL     1      10.750  18.556  15.666  1.00  0.00     0.163 HD
BRANCH  20  23
HETATM   23  C10 UNL     1      10.282  15.841  15.701  1.00  0.00     0.078 C 
HETATM   24  C11 UNL     1      11.147  15.533  16.871  1.00  0.00     0.014 C 
HETATM   25  C12 UNL     1      10.122  15.047  17.897  1.00  0.00     0.001 C 
HETATM   26  C13 UNL     1       8.934  15.972  17.689  1.00  0.00     0.001 C 
HETATM   27  C14 UNL     1       9.115  16.586  16.335  1.00  0.00     0.014 C 
ENDBRANCH  20  23
ENDBRANCH  18  19
BRANCH  18  28
HETATM   28  C15 UNL     1      10.609  19.675  12.979  1.00  0.00     0.020 C 
HETATM   29  C16 UNL     1      10.504  19.333  11.525  1.00  0.00     0.013 C 
BRANCH  28  30
HETATM   30  C17 UNL     1       9.271  19.865  13.590  1.00  0.00     0.076 C 
BRANCH  30  31
HETATM   31  C18 UNL     1       9.184  21.059  14.465  1.00  0.00     0.231 C 
HETATM   32  O5  UNL     1       8.738  20.955  15.581  1.00  0.00    -0.307 OA
ENDBRANCH  30  31
ENDBRANCH  28  30
ENDBRANCH  18  28
ENDBRANCH  15  18
ENDBRANCH   1  14
BRANCH   4  33
HETATM   33  C20 UNL     1      17.507  21.319  17.248  1.00  0.00     0.180 C 
HETATM   34  C21 UNL     1      16.830  20.962  18.621  1.00  0.00     0.037 C 
HETATM   35  C22 UNL     1      17.444  21.968  19.599  1.00  0.00     0.022 C 
HETATM   36  C23 UNL     1      18.768  22.217  18.891  1.00  0.00     0.127 C 
HETATM   37  N4  UNL     1      18.219  22.488  17.520  1.00  0.00    -0.332 N 
HETATM   38  C24 UNL     1      18.635  23.670  16.810  1.00  0.00     0.294 C 
HETATM   39  O7  UNL     1      18.451  23.659  15.559  1.00  0.00    -0.264 OA
BRANCH  38  40
HETATM   40  C25 UNL     1      19.242  24.796  17.485  1.00  0.00     0.236 C 
HETATM   41  O8  UNL     1      18.473  25.769  17.839  1.00  0.00    -0.283 OA
BRANCH  40  42
HETATM   42  C26 UNL     1      20.643  24.895  17.790  1.00  0.00     0.043 C 
BRANCH  42  43
HETATM   43  C27 UNL     1      21.176  25.485  19.024  1.00  0.00    -0.018 C 
HETATM   44  C28 UNL     1      20.385  25.395  20.274  1.00  0.00     0.018 C 
HETATM   45  C29 UNL     1      21.102  26.197  21.345  1.00  0.00    -0.013 C 
HETATM   46  C30 UNL     1      22.481  25.628  21.655  1.00  0.00     0.009 C 
HETATM   47  C34 UNL     1      21.303  27.633  20.995  1.00  0.00     0.009 C 
HETATM   48  C31 UNL     1      23.287  25.580  20.380  1.00  0.00    -0.013 C 
HETATM   49  C32 UNL     1      23.536  27.032  19.984  1.00  0.00     0.009 C 
HETATM   50  C36 UNL     1      22.542  24.842  19.333  1.00  0.00     0.018 C 
HETATM   51  C33 UNL     1      22.184  27.681  19.756  1.00  0.00    -0.013 C 
HETATM   52  C35 UNL     1      21.473  26.959  18.675  1.00  0.00     0.018 C 
ENDBRANCH  42  43
ENDBRANCH  40  42
ENDBRANCH  38  40
ENDBRANCH   4  33
TORSDOF 17
ENDMDL
MODEL 5
REMARK VINA RESULT: -9.221153857      1.774     11.339
REMARK  17 active torsions:
REMARK  status: ('A' for Active; 'I' for Inactive)
REMARK    1  A    between atoms: C2_2  and  O1_3 
REMARK    2  A    between atoms: O1_3  and  C3_4 
REMARK    3  A    between atoms: C3_4  and  O2_5 
REMARK    4  A    between atoms: C3_4  and  C4_7 
REMARK    5  A    between atoms: C4_7  and  C5_8 
REMARK    6  A    between atoms: C5_8  and  C6_9 
REMARK    7  A    between atoms: C6_9  and  N1_10 
REMARK       I    between atoms: N1_10  and  C7_12 
REMARK    8  A    between atoms: C7_12  and  C8_14 
REMARK    9  A    between atoms: C8_14  and  N2_15 
REMARK   10  A    between atoms: C8_14  and  C15_24 
REMARK       I    between atoms: N2_15  and  C9_17 
REMARK   11  A    between atoms: C9_17  and  C10_19 
REMARK   12  A    between atoms: C15_24  and  C17_26 
REMARK   13  A    between atoms: C17_26  and  C18_27 
REMARK       I    between atoms: N3_29  and  C19_31 
REMARK   14  A    between atoms: C19_31  and  C20_33 
REMARK       I    between atoms: N4_37  and  C24_38 
REMARK   15  A    between atoms: C24_38  and  C25_40 
REMARK   16  A    between atoms: C25_40  and  C26_42 
REMARK   17  A    between atoms: C26_42  and  C27_43 
ROOT
HETATM    1  C6  UNL     1      16.502  21.522  16.057  1.00  0.00     0.086 C 
HETATM    2  N3  UNL     1      15.516  20.728  15.602  1.00  0.00    -0.315 N 
ATOM      3  H3  UNL     1      15.492  19.779  15.976  1.00  0.00     0.170 HD
HETATM    4  C19 UNL     1      14.462  21.072  14.623  1.00  0.00     0.246 C 
HETATM    5  O6  UNL     1      14.405  22.171  14.162  1.00  0.00    -0.271 OA
ENDROOT
BRANCH   1   6
HETATM    6  C5  UNL     1      16.952  20.337  17.377  1.00  0.00     0.081 C 
BRANCH   6   7
HETATM    7  C4  UNL     1      15.880  20.594  18.344  1.00  0.00     0.068 C 
BRANCH   7   8
HETATM    8  C3  UNL     1      15.227  19.345  18.864  1.00  0.00     0.257 C 
BRANCH   8   9
HETATM    9  O1  UNL     1      14.140  19.536  19.702  1.00  0.00    -0.362 OA
BRANCH   9  10
HETATM   10  C2  UNL     1      13.564  18.299  20.026  1.00  0.00     0.166 C 
HETATM   11  C1  UNL     1      12.111  18.394  20.419  1.00  0.00     0.033 C 
ENDBRANCH   9  10
ENDBRANCH   8   9
BRANCH   8  12
HETATM   12  O2  UNL     1      14.738  18.623  17.753  1.00  0.00    -0.371 OA
ATOM     13  H2  UNL     1      15.300  17.862  17.667  1.00  0.00     0.212 HD
ENDBRANCH   8  12
ENDBRANCH   7   8
ENDBRANCH   6   7
ENDBRANCH   1   6
BRANCH   1  14
HETATM   14  N1  UNL     1      17.386  22.234  16.466  1.00  0.00    -0.315 N 
HETATM   15  C7  UNL     1      17.778  23.559  16.302  1.00  0.00     0.246 C 
HETATM   16  O3  UNL     1      17.581  24.043  15.133  1.00  0.00    -0.271 OA
ATOM     17  H1  UNL     1      18.009  21.733  17.098  1.00  0.00     0.170 HD
BRANCH  15  18
HETATM   18  C8  UNL     1      18.393  24.490  17.267  1.00  0.00     0.181 C 
BRANCH  18  19
HETATM   19  N2  UNL     1      18.646  25.760  16.623  1.00  0.00    -0.347 N 
HETATM   20  C9  UNL     1      19.967  26.284  16.531  1.00  0.00     0.222 C 
HETATM   21  O4  UNL     1      20.949  25.617  17.018  1.00  0.00    -0.273 OA
ATOM     22  H2  UNL     1      17.868  26.288  16.229  1.00  0.00     0.163 HD
BRANCH  20  23
HETATM   23  C10 UNL     1      20.293  27.554  15.909  1.00  0.00     0.078 C 
HETATM   24  C11 UNL     1      21.625  28.132  16.231  1.00  0.00     0.014 C 
HETATM   25  C12 UNL     1      21.799  29.158  15.111  1.00  0.00     0.001 C 
HETATM   26  C13 UNL     1      21.230  28.458  13.887  1.00  0.00     0.001 C 
HETATM   27  C14 UNL     1      20.376  27.342  14.403  1.00  0.00     0.014 C 
ENDBRANCH  20  23
ENDBRANCH  18  19
BRANCH  18  28
HETATM   28  C15 UNL     1      17.544  24.593  18.475  1.00  0.00     0.020 C 
HETATM   29  C16 UNL     1      16.088  24.805  18.194  1.00  0.00     0.013 C 
BRANCH  28  30
HETATM   30  C17 UNL     1      17.749  23.594  19.552  1.00  0.00     0.076 C 
BRANCH  30  31
HETATM   31  C18 UNL     1      19.108  23.002  19.559  1.00  0.00     0.231 C 
HETATM   32  O5  UNL     1      19.266  21.856  19.217  1.00  0.00    -0.307 OA
ENDBRANCH  30  31
ENDBRANCH  28  30
ENDBRANCH  18  28
ENDBRANCH  15  18
ENDBRANCH   1  14
BRANCH   4  33
HETATM   33  C20 UNL     1      13.598  19.908  14.353  1.00  0.00     0.180 C 
HETATM   34  C21 UNL     1      13.188  20.037  12.841  1.00  0.00     0.037 C 
HETATM   35  C22 UNL     1      11.702  19.669  12.837  1.00  0.00     0.022 C 
HETATM   36  C23 UNL     1      11.672  18.768  14.063  1.00  0.00     0.127 C 
HETATM   37  N4  UNL     1      12.387  19.687  15.010  1.00  0.00    -0.332 N 
HETATM   38  C24 UNL     1      11.811  19.965  16.301  1.00  0.00     0.294 C 
HETATM   39  O7  UNL     1      12.602  20.419  17.176  1.00  0.00    -0.264 OA
BRANCH  38  40
HETATM   40  C25 UNL     1      10.413  19.724  16.585  1.00  0.00     0.236 C 
HETATM   41  O8  UNL     1       9.548  20.528  16.066  1.00  0.00    -0.283 OA
BRANCH  40  42
HETATM   42  C26 UNL     1       9.929  18.643  17.399  1.00  0.00     0.043 C 
BRANCH  42  43
HETATM   43  C27 UNL     1       9.995  17.229  17.013  1.00  0.00    -0.018 C 
HETATM   44  C28 UNL     1      11.310  16.548  16.960  1.00  0.00     0.018 C 
HETATM   45  C29 UNL     1      11.098  15.152  16.405  1.00  0.00    -0.013 C 
HETATM   46  C30 UNL     1      10.203  14.310  17.308  1.00  0.00     0.009 C 
HETATM   47  C34 UNL     1      10.479  15.125  15.048  1.00  0.00     0.009 C 
HETATM   48  C31 UNL     1       8.888  15.027  17.496  1.00  0.00    -0.013 C 
HETATM   49  C32 UNL     1       8.203  15.015  16.134  1.00  0.00     0.009 C 
HETATM   50  C36 UNL     1       9.125  16.407  17.983  1.00  0.00     0.018 C 
HETATM   51  C33 UNL     1       9.101  15.759  15.164  1.00  0.00    -0.013 C 
HETATM   52  C35 UNL     1       9.289  17.149  15.642  1.00  0.00     0.018 C 
ENDBRANCH  42  43
ENDBRANCH  40  42
ENDBRANCH  38  40
ENDBRANCH   4  33
TORSDOF 17
ENDMDL
