MODEL 1
REMARK VINA RESULT: -9.147246089      0.000      0.000
REMARK  16 active torsions:
REMARK  status: ('A' for Active; 'I' for Inactive)
REMARK    1  A    between atoms: N1_2  and  C2_5 
REMARK    2  A    between atoms: C2_5  and  C3_6 
REMARK    3  A    between atoms: C3_6  and  C4_7 
REMARK    4  A    between atoms: C4_7  and  C5_8 
REMARK    5  A    between atoms: C5_8  and  C6_9 
REMARK    6  A    between atoms: C6_9  and  C7_10 
REMARK    7  A    between atoms: C7_10  and  N2_11 
REMARK    8  A    between atoms: C12_17  and  C13_18 
REMARK    9  A    between atoms: C13_18  and  C14_19 
REMARK       I    between atoms: C14_19  and  N3_21 
REMARK   10  A    between atoms: N3_21  and  C15_23 
REMARK   11  A    between atoms: C15_23  and  O2_24 
REMARK   12  A    between atoms: C15_23  and  C16_26 
REMARK   13  A    between atoms: C16_26  and  N4_27 
REMARK   14  A    between atoms: C21_32  and  N5_33 
REMARK       I    between atoms: N5_33  and  C22_35 
REMARK   15  A    between atoms: C22_35  and  C23_37 
REMARK   16  A    between atoms: C23_37  and  C24_38 
ROOT
HETATM    1  C15 UNL     1      20.294  24.523  18.155  1.00  0.00     0.153 C 
ENDROOT
BRANCH   1   2
HETATM    2  N3  UNL     1      20.868  24.866  16.952  1.00  0.00    -0.307 N 
HETATM    3  C14 UNL     1      20.725  25.912  16.042  1.00  0.00     0.228 C 
HETATM    4  O1  UNL     1      19.915  26.836  16.157  1.00  0.00    -0.273 OA
ATOM      5  H3  UNL     1      21.571  24.189  16.653  1.00  0.00     0.171 HD
BRANCH   3   6
HETATM    6  C13 UNL     1      21.620  25.936  14.811  1.00  0.00     0.150 C 
BRANCH   6   7
HETATM    7  C12 UNL     1      22.186  27.335  14.700  1.00  0.00    -0.000 A 
HETATM    8  S1  UNL     1      21.655  28.655  13.767  1.00  0.00    -0.105 SA
HETATM    9  C11 UNL     1      22.814  29.809  14.237  1.00  0.00     0.058 A 
HETATM   10  C10 UNL     1      23.606  29.129  15.128  1.00  0.00    -0.041 A 
HETATM   11  C9  UNL     1      24.797  29.767  15.830  1.00  0.00     0.070 C 
HETATM   12  C34 UNL     1      23.272  27.838  15.366  1.00  0.00    -0.010 A 
HETATM   13  C8  UNL     1      25.352  28.935  16.942  1.00  0.00     0.277 C 
HETATM   14  N2  UNL     1      24.368  28.025  17.428  1.00  0.00     0.092 N 
HETATM   15  C35 UNL     1      24.136  27.060  16.352  1.00  0.00     0.312 C 
BRANCH  14  16
HETATM   16  C7  UNL     1      24.695  27.364  18.652  1.00  0.00     0.273 C 
BRANCH  16  17
HETATM   17  C6  UNL     1      24.239  25.942  18.631  1.00  0.00     0.030 C 
BRANCH  17  18
HETATM   18  C5  UNL     1      24.424  25.222  19.920  1.00  0.00     0.002 C 
BRANCH  18  19
HETATM   19  C4  UNL     1      24.173  26.122  21.103  1.00  0.00     0.002 C 
BRANCH  19  20
HETATM   20  C3  UNL     1      22.810  25.867  21.652  1.00  0.00     0.027 C 
BRANCH  20  21
HETATM   21  C2  UNL     1      21.908  27.094  21.613  1.00  0.00     0.231 C 
BRANCH  21  22
HETATM   22  N1  UNL     1      20.904  26.984  20.600  1.00  0.00    -0.079 N 
HETATM   23  C1  UNL     1      21.238  27.876  19.484  1.00  0.00     0.266 C 
ATOM     24  H12 UNL     1      19.967  27.157  20.964  1.00  0.00     0.276 HD
ATOM     25  H11 UNL     1      20.767  26.020  20.296  1.00  0.00     0.276 HD
ENDBRANCH  21  22
ENDBRANCH  20  21
ENDBRANCH  19  20
ENDBRANCH  18  19
ENDBRANCH  17  18
ENDBRANCH  16  17
ENDBRANCH  14  16
ENDBRANCH   6   7
ENDBRANCH   3   6
ENDBRANCH   1   2
BRANCH   1  26
HETATM   26  O2  UNL     1      21.240  24.122  19.041  1.00  0.00    -0.345 OA
ATOM     27  H2  UNL     1      21.998  24.694  19.005  1.00  0.00     0.219 HD
ENDBRANCH   1  26
BRANCH   1  28
HETATM   28  C16 UNL     1      18.997  24.462  18.765  1.00  0.00     0.116 C 
BRANCH  28  29
HETATM   29  N4  UNL     1      18.129  23.415  18.456  1.00  0.00    -0.280 NA
HETATM   30  C17 UNL     1      17.586  22.658  19.556  1.00  0.00     0.101 C 
HETATM   31  C18 UNL     1      16.237  22.150  19.094  1.00  0.00     0.005 C 
HETATM   32  C19 UNL     1      16.302  20.810  18.491  1.00  0.00     0.008 C 
HETATM   33  C30 UNL     1      15.830  23.255  18.178  1.00  0.00     0.015 C 
HETATM   34  C20 UNL     1      15.545  20.564  17.241  1.00  0.00     0.026 C 
HETATM   35  C21 UNL     1      14.545  21.550  16.804  1.00  0.00     0.084 C 
HETATM   36  C29 UNL     1      14.679  22.958  17.308  1.00  0.00     0.032 C 
HETATM   37  C31 UNL     1      17.059  23.752  17.544  1.00  0.00     0.014 C 
HETATM   38  C32 UNL     1      16.912  25.273  17.368  1.00  0.00     0.032 C 
HETATM   39  C33 UNL     1      17.435  23.216  16.203  1.00  0.00     0.032 C 
BRANCH  35  40
HETATM   40  N5  UNL     1      13.192  21.036  17.034  1.00  0.00    -0.356 N 
HETATM   41  C22 UNL     1      12.603  20.218  16.056  1.00  0.00     0.220 C 
HETATM   42  O3  UNL     1      13.243  19.956  15.012  1.00  0.00    -0.274 OA
ATOM     43  H5  UNL     1      12.687  21.267  17.889  1.00  0.00     0.162 HD
BRANCH  41  44
HETATM   44  C23 UNL     1      11.257  19.680  16.252  1.00  0.00     0.137 C 
BRANCH  44  45
HETATM   45  C24 UNL     1      11.198  18.489  17.151  1.00  0.00     0.157 C 
HETATM   46  C25 UNL     1      11.658  17.199  16.562  1.00  0.00     0.204 C 
HETATM   47  O4  UNL     1      11.993  16.495  17.736  1.00  0.00    -0.353 OA
HETATM   48  C26 UNL     1      12.662  17.457  18.515  1.00  0.00     0.157 C 
HETATM   49  C27 UNL     1      14.144  17.290  18.201  1.00  0.00     0.078 C 
HETATM   50  C28 UNL     1      12.476  17.253  19.989  1.00  0.00     0.078 C 
HETATM   51  O5  UNL     1      12.164  18.691  18.150  1.00  0.00    -0.348 OA
ENDBRANCH  44  45
ENDBRANCH  41  44
ENDBRANCH  35  40
ENDBRANCH  28  29
ENDBRANCH   1  28
TORSDOF 16
ENDMDL
MODEL 2
REMARK VINA RESULT: -8.895297406      1.474      2.617
REMARK  16 active torsions:
REMARK  status: ('A' for Active; 'I' for Inactive)
REMARK    1  A    between atoms: N1_2  and  C2_5 
REMARK    2  A    between atoms: C2_5  and  C3_6 
REMARK    3  A    between atoms: C3_6  and  C4_7 
REMARK    4  A    between atoms: C4_7  and  C5_8 
REMARK    5  A    between atoms: C5_8  and  C6_9 
REMARK    6  A    between atoms: C6_9  and  C7_10 
REMARK    7  A    between atoms: C7_10  and  N2_11 
REMARK    8  A    between atoms: C12_17  and  C13_18 
REMARK    9  A    between atoms: C13_18  and  C14_19 
REMARK       I    between atoms: C14_19  and  N3_21 
REMARK   10  A    between atoms: N3_21  and  C15_23 
REMARK   11  A    between atoms: C15_23  and  O2_24 
REMARK   12  A    between atoms: C15_23  and  C16_26 
REMARK   13  A    between atoms: C16_26  and  N4_27 
REMARK   14  A    between atoms: C21_32  and  N5_33 
REMARK       I    between atoms: N5_33  and  C22_35 
REMARK   15  A    between atoms: C22_35  and  C23_37 
REMARK   16  A    between atoms: C23_37  and  C24_38 
ROOT
HETATM    1  C15 UNL     1      18.035  25.329  16.106  1.00  0.00     0.153 C 
ENDROOT
BRANCH   1   2
HETATM    2  N3  UNL     1      19.245  25.473  15.467  1.00  0.00    -0.307 N 
HETATM    3  C14 UNL     1      20.564  25.682  15.867  1.00  0.00     0.228 C 
HETATM    4  O1  UNL     1      20.927  25.825  17.038  1.00  0.00    -0.273 OA
ATOM      5  H3  UNL     1      19.155  25.413  14.452  1.00  0.00     0.171 HD
BRANCH   3   6
HETATM    6  C13 UNL     1      21.649  25.741  14.801  1.00  0.00     0.150 C 
BRANCH   6   7
HETATM    7  C12 UNL     1      22.158  27.166  14.764  1.00  0.00    -0.000 A 
HETATM    8  S1  UNL     1      21.573  28.511  13.901  1.00  0.00    -0.105 SA
HETATM    9  C11 UNL     1      22.685  29.684  14.432  1.00  0.00     0.058 A 
HETATM   10  C10 UNL     1      23.505  28.991  15.287  1.00  0.00    -0.041 A 
HETATM   11  C9  UNL     1      24.670  29.638  16.023  1.00  0.00     0.070 C 
HETATM   12  C34 UNL     1      23.224  27.677  15.457  1.00  0.00    -0.010 A 
HETATM   13  C8  UNL     1      25.258  28.773  17.091  1.00  0.00     0.277 C 
HETATM   14  N2  UNL     1      24.313  27.799  17.528  1.00  0.00     0.092 N 
HETATM   15  C35 UNL     1      24.119  26.884  16.402  1.00  0.00     0.312 C 
BRANCH  14  16
HETATM   16  C7  UNL     1      24.667  27.089  18.716  1.00  0.00     0.273 C 
BRANCH  16  17
HETATM   17  C6  UNL     1      23.449  26.652  19.460  1.00  0.00     0.030 C 
BRANCH  17  18
HETATM   18  C5  UNL     1      22.433  27.723  19.652  1.00  0.00     0.002 C 
BRANCH  18  19
HETATM   19  C4  UNL     1      21.332  27.288  20.583  1.00  0.00     0.002 C 
BRANCH  19  20
HETATM   20  C3  UNL     1      21.399  25.813  20.792  1.00  0.00     0.027 C 
BRANCH  20  21
HETATM   21  C2  UNL     1      20.028  25.149  20.830  1.00  0.00     0.231 C 
BRANCH  21  22
HETATM   22  N1  UNL     1      19.500  24.945  19.516  1.00  0.00    -0.079 N 
HETATM   23  C1  UNL     1      19.425  23.506  19.239  1.00  0.00     0.266 C 
ATOM     24  H12 UNL     1      20.031  25.448  18.804  1.00  0.00     0.276 HD
ATOM     25  H11 UNL     1      18.602  25.410  19.385  1.00  0.00     0.276 HD
ENDBRANCH  21  22
ENDBRANCH  20  21
ENDBRANCH  19  20
ENDBRANCH  18  19
ENDBRANCH  17  18
ENDBRANCH  16  17
ENDBRANCH  14  16
ENDBRANCH   6   7
ENDBRANCH   3   6
ENDBRANCH   1   2
BRANCH   1  26
HETATM   26  O2  UNL     1      18.034  25.992  17.289  1.00  0.00    -0.345 OA
ATOM     27  H2  UNL     1      18.093  26.930  17.149  1.00  0.00     0.219 HD
ENDBRANCH   1  26
BRANCH   1  28
HETATM   28  C16 UNL     1      16.765  24.692  15.903  1.00  0.00     0.116 C 
BRANCH  28  29
HETATM   29  N4  UNL     1      16.348  23.678  16.765  1.00  0.00    -0.280 NA
HETATM   30  C17 UNL     1      15.344  24.011  17.744  1.00  0.00     0.101 C 
HETATM   31  C18 UNL     1      14.574  22.735  18.011  1.00  0.00     0.005 C 
HETATM   32  C19 UNL     1      15.109  21.966  19.145  1.00  0.00     0.008 C 
HETATM   33  C30 UNL     1      14.670  22.076  16.676  1.00  0.00     0.015 C 
HETATM   34  C20 UNL     1      15.252  20.499  18.995  1.00  0.00     0.026 C 
HETATM   35  C21 UNL     1      14.601  19.829  17.858  1.00  0.00     0.084 C 
HETATM   36  C29 UNL     1      14.277  20.656  16.647  1.00  0.00     0.032 C 
HETATM   37  C31 UNL     1      15.982  22.436  16.121  1.00  0.00     0.014 C 
HETATM   38  C32 UNL     1      15.815  22.604  14.601  1.00  0.00     0.032 C 
HETATM   39  C33 UNL     1      17.120  21.488  16.309  1.00  0.00     0.032 C 
BRANCH  35  40
HETATM   40  N5  UNL     1      13.426  19.081  18.314  1.00  0.00    -0.356 N 
HETATM   41  C22 UNL     1      13.518  17.685  18.436  1.00  0.00     0.220 C 
HETATM   42  O3  UNL     1      14.595  17.116  18.146  1.00  0.00    -0.274 OA
ATOM     43  H5  UNL     1      12.558  19.566  18.539  1.00  0.00     0.162 HD
BRANCH  41  44
HETATM   44  C23 UNL     1      12.369  16.904  18.894  1.00  0.00     0.137 C 
BRANCH  44  45
HETATM   45  C24 UNL     1      11.275  16.774  17.884  1.00  0.00     0.157 C 
HETATM   46  C25 UNL     1      10.083  17.644  18.091  1.00  0.00     0.204 C 
HETATM   47  O4  UNL     1       9.577  17.689  16.777  1.00  0.00    -0.353 OA
HETATM   48  C26 UNL     1      10.730  17.857  15.988  1.00  0.00     0.157 C 
HETATM   49  C27 UNL     1      10.885  19.360  15.793  1.00  0.00     0.078 C 
HETATM   50  C28 UNL     1      10.612  17.225  14.633  1.00  0.00     0.078 C 
HETATM   51  O5  UNL     1      11.780  17.286  16.677  1.00  0.00    -0.348 OA
ENDBRANCH  44  45
ENDBRANCH  41  44
ENDBRANCH  35  40
ENDBRANCH  28  29
ENDBRANCH   1  28
TORSDOF 16
ENDMDL
MODEL 3
REMARK VINA RESULT: -8.858712485      2.006      4.185
REMARK  16 active torsions:
REMARK  status: ('A' for Active; 'I' for Inactive)
REMARK    1  A    between atoms: N1_2  and  C2_5 
REMARK    2  A    between atoms: C2_5  and  C3_6 
REMARK    3  A    between atoms: C3_6  and  C4_7 
REMARK    4  A    between atoms: C4_7  and  C5_8 
REMARK    5  A    between atoms: C5_8  and  C6_9 
REMARK    6  A    between atoms: C6_9  and  C7_10 
REMARK    7  A    between atoms: C7_10  and  N2_11 
REMARK    8  A    between atoms: C12_17  and  C13_18 
REMARK    9  A    between atoms: C13_18  and  C14_19 
REMARK       I    between atoms: C14_19  and  N3_21 
REMARK   10  A    between atoms: N3_21  and  C15_23 
REMARK   11  A    between atoms: C15_23  and  O2_24 
REMARK   12  A    between atoms: C15_23  and  C16_26 
REMARK   13  A    between atoms: C16_26  and  N4_27 
REMARK   14  A    between atoms: C21_32  and  N5_33 
REMARK       I    between atoms: N5_33  and  C22_35 
REMARK   15  A    between atoms: C22_35  and  C23_37 
REMARK   16  A    between atoms: C23_37  and  C24_38 
ROOT
HETATM    1  C15 UNL     1      20.291  25.110  18.484  1.00  0.00     0.153 C 
ENDROOT
BRANCH   1   2
HETATM    2  N3  UNL     1      21.364  25.922  18.773  1.00  0.00    -0.307 N 
HETATM    3  C14 UNL     1      21.740  27.226  18.457  1.00  0.00     0.228 C 
HETATM    4  O1  UNL     1      21.095  27.985  17.728  1.00  0.00    -0.273 OA
ATOM      5  H3  UNL     1      22.053  25.454  19.363  1.00  0.00     0.171 HD
BRANCH   3   6
HETATM    6  C13 UNL     1      23.035  27.773  19.040  1.00  0.00     0.150 C 
BRANCH   6   7
HETATM    7  C12 UNL     1      24.173  27.072  18.331  1.00  0.00    -0.000 A 
HETATM    8  S1  UNL     1      24.810  25.512  18.568  1.00  0.00    -0.105 SA
HETATM    9  C11 UNL     1      26.022  25.524  17.375  1.00  0.00     0.058 A 
HETATM   10  C10 UNL     1      25.904  26.766  16.804  1.00  0.00    -0.041 A 
HETATM   11  C9  UNL     1      26.793  27.242  15.664  1.00  0.00     0.070 C 
HETATM   12  C34 UNL     1      24.936  27.570  17.308  1.00  0.00    -0.010 A 
HETATM   13  C8  UNL     1      26.324  28.511  15.028  1.00  0.00     0.277 C 
HETATM   14  N2  UNL     1      24.930  28.704  15.257  1.00  0.00     0.092 N 
HETATM   15  C35 UNL     1      24.783  28.956  16.692  1.00  0.00     0.312 C 
BRANCH  14  16
HETATM   16  C7  UNL     1      24.318  29.739  14.486  1.00  0.00     0.273 C 
BRANCH  16  17
HETATM   17  C6  UNL     1      22.839  29.756  14.692  1.00  0.00     0.030 C 
BRANCH  17  18
HETATM   18  C5  UNL     1      22.067  29.067  13.621  1.00  0.00     0.002 C 
BRANCH  18  19
HETATM   19  C4  UNL     1      20.984  28.188  14.192  1.00  0.00     0.002 C 
BRANCH  19  20
HETATM   20  C3  UNL     1      21.526  26.823  14.455  1.00  0.00     0.027 C 
BRANCH  20  21
HETATM   21  C2  UNL     1      20.466  25.839  14.934  1.00  0.00     0.231 C 
BRANCH  21  22
HETATM   22  N1  UNL     1      19.332  26.509  15.492  1.00  0.00    -0.079 N 
HETATM   23  C1  UNL     1      18.108  26.007  14.856  1.00  0.00     0.266 C 
ATOM     24  H12 UNL     1      19.412  27.523  15.426  1.00  0.00     0.276 HD
ATOM     25  H11 UNL     1      19.299  26.430  16.508  1.00  0.00     0.276 HD
ENDBRANCH  21  22
ENDBRANCH  20  21
ENDBRANCH  19  20
ENDBRANCH  18  19
ENDBRANCH  17  18
ENDBRANCH  16  17
ENDBRANCH  14  16
ENDBRANCH   6   7
ENDBRANCH   3   6
ENDBRANCH   1   2
BRANCH   1  26
HETATM   26  O2  UNL     1      19.158  25.844  18.341  1.00  0.00    -0.345 OA
ATOM     27  H2  UNL     1      18.617  25.496  17.642  1.00  0.00     0.219 HD
ENDBRANCH   1  26
BRANCH   1  28
HETATM   28  C16 UNL     1      19.998  23.720  18.282  1.00  0.00     0.116 C 
BRANCH  28  29
HETATM   29  N4  UNL     1      18.753  23.333  17.789  1.00  0.00    -0.280 NA
HETATM   30  C17 UNL     1      18.694  22.872  16.424  1.00  0.00     0.101 C 
HETATM   31  C18 UNL     1      17.543  21.891  16.359  1.00  0.00     0.005 C 
HETATM   32  C19 UNL     1      16.271  22.519  15.970  1.00  0.00     0.008 C 
HETATM   33  C30 UNL     1      17.592  21.323  17.738  1.00  0.00     0.015 C 
HETATM   34  C20 UNL     1      15.047  22.150  16.717  1.00  0.00     0.026 C 
HETATM   35  C21 UNL     1      15.079  20.982  17.612  1.00  0.00     0.084 C 
HETATM   36  C29 UNL     1      16.413  20.533  18.134  1.00  0.00     0.032 C 
HETATM   37  C31 UNL     1      18.018  22.412  18.627  1.00  0.00     0.014 C 
HETATM   38  C32 UNL     1      18.907  21.799  19.723  1.00  0.00     0.032 C 
HETATM   39  C33 UNL     1      16.971  23.202  19.340  1.00  0.00     0.032 C 
BRANCH  35  40
HETATM   40  N5  UNL     1      14.346  19.864  17.011  1.00  0.00    -0.356 N 
HETATM   41  C22 UNL     1      13.346  19.227  17.765  1.00  0.00     0.220 C 
HETATM   42  O3  UNL     1      13.112  19.625  18.929  1.00  0.00    -0.274 OA
ATOM     43  H5  UNL     1      14.558  19.553  16.064  1.00  0.00     0.162 HD
BRANCH  41  44
HETATM   44  C23 UNL     1      12.588  18.111  17.198  1.00  0.00     0.137 C 
BRANCH  44  45
HETATM   45  C24 UNL     1      11.526  18.521  16.230  1.00  0.00     0.157 C 
HETATM   46  C25 UNL     1      10.656  19.655  16.652  1.00  0.00     0.204 C 
HETATM   47  O4  UNL     1      10.213  20.110  15.394  1.00  0.00    -0.353 OA
HETATM   48  C26 UNL     1      11.375  20.069  14.603  1.00  0.00     0.157 C 
HETATM   49  C27 UNL     1      11.989  21.461  14.694  1.00  0.00     0.078 C 
HETATM   50  C28 UNL     1      11.094  19.781  13.158  1.00  0.00     0.078 C 
HETATM   51  O5  UNL     1      12.186  19.081  15.124  1.00  0.00    -0.348 OA
ENDBRANCH  44  45
ENDBRANCH  41  44
ENDBRANCH  35  40
ENDBRANCH  28  29
ENDBRANCH   1  28
TORSDOF 16
ENDMDL
MODEL 4
REMARK VINA RESULT: -8.835938345      1.716      3.166
REMARK  16 active torsions:
REMARK  status: ('A' for Active; 'I' for Inactive)
REMARK    1  A    between atoms: N1_2  and  C2_5 
REMARK    2  A    between atoms: C2_5  and  C3_6 
REMARK    3  A    between atoms: C3_6  and  C4_7 
REMARK    4  A    between atoms: C4_7  and  C5_8 
REMARK    5  A    between atoms: C5_8  and  C6_9 
REMARK    6  A    between atoms: C6_9  and  C7_10 
REMARK    7  A    between atoms: C7_10  and  N2_11 
REMARK    8  A    between atoms: C12_17  and  C13_18 
REMARK    9  A    between atoms: C13_18  and  C14_19 
REMARK       I    between atoms: C14_19  and  N3_21 
REMARK   10  A    between atoms: N3_21  and  C15_23 
REMARK   11  A    between atoms: C15_23  and  O2_24 
REMARK   12  A    between atoms: C15_23  and  C16_26 
REMARK   13  A    between atoms: C16_26  and  N4_27 
REMARK   14  A    between atoms: C21_32  and  N5_33 
REMARK       I    between atoms: N5_33  and  C22_35 
REMARK   15  A    between atoms: C22_35  and  C23_37 
REMARK   16  A    between atoms: C23_37  and  C24_38 
ROOT
HETATM    1  C15 UNL     1      18.279  25.074  15.718  1.00  0.00     0.153 C 
ENDROOT
BRANCH   1   2
HETATM    2  N3  UNL     1      18.844  26.325  15.611  1.00  0.00    -0.307 N 
HETATM    3  C14 UNL     1      19.883  26.889  14.873  1.00  0.00     0.228 C 
HETATM    4  O1  UNL     1      20.608  26.265  14.093  1.00  0.00    -0.273 OA
ATOM      5  H3  UNL     1      18.390  27.006  16.220  1.00  0.00     0.171 HD
BRANCH   3   6
HETATM    6  C13 UNL     1      20.162  28.377  15.026  1.00  0.00     0.150 C 
BRANCH   6   7
HETATM    7  C12 UNL     1      21.639  28.525  15.317  1.00  0.00    -0.000 A 
HETATM    8  S1  UNL     1      22.869  29.239  14.383  1.00  0.00    -0.105 SA
HETATM    9  C11 UNL     1      24.188  28.995  15.430  1.00  0.00     0.058 A 
HETATM   10  C10 UNL     1      23.633  28.351  16.507  1.00  0.00    -0.041 A 
HETATM   11  C9  UNL     1      24.442  27.924  17.724  1.00  0.00     0.070 C 
HETATM   12  C34 UNL     1      22.301  28.109  16.442  1.00  0.00    -0.010 A 
HETATM   13  C8  UNL     1      23.601  27.480  18.877  1.00  0.00     0.277 C 
HETATM   14  N2  UNL     1      22.289  28.031  18.784  1.00  0.00     0.092 N 
HETATM   15  C35 UNL     1      21.660  27.394  17.626  1.00  0.00     0.312 C 
BRANCH  14  16
HETATM   16  C7  UNL     1      21.480  27.890  19.953  1.00  0.00     0.273 C 
BRANCH  16  17
HETATM   17  C6  UNL     1      22.167  27.054  20.981  1.00  0.00     0.030 C 
BRANCH  17  18
HETATM   18  C5  UNL     1      21.364  25.895  21.460  1.00  0.00     0.002 C 
BRANCH  18  19
HETATM   19  C4  UNL     1      20.649  25.205  20.327  1.00  0.00     0.002 C 
BRANCH  19  20
HETATM   20  C3  UNL     1      19.445  24.493  20.847  1.00  0.00     0.027 C 
BRANCH  20  21
HETATM   21  C2  UNL     1      18.399  24.220  19.774  1.00  0.00     0.231 C 
BRANCH  21  22
HETATM   22  N1  UNL     1      18.812  23.181  18.881  1.00  0.00    -0.079 N 
HETATM   23  C1  UNL     1      18.954  21.925  19.627  1.00  0.00     0.266 C 
ATOM     24  H12 UNL     1      19.661  23.425  18.371  1.00  0.00     0.276 HD
ATOM     25  H11 UNL     1      18.184  23.086  18.083  1.00  0.00     0.276 HD
ENDBRANCH  21  22
ENDBRANCH  20  21
ENDBRANCH  19  20
ENDBRANCH  18  19
ENDBRANCH  17  18
ENDBRANCH  16  17
ENDBRANCH  14  16
ENDBRANCH   6   7
ENDBRANCH   3   6
ENDBRANCH   1   2
BRANCH   1  26
HETATM   26  O2  UNL     1      19.210  24.158  16.088  1.00  0.00    -0.345 OA
ATOM     27  H2  UNL     1      19.899  24.097  15.437  1.00  0.00     0.219 HD
ENDBRANCH   1  26
BRANCH   1  28
HETATM   28  C16 UNL     1      17.004  24.437  15.562  1.00  0.00     0.116 C 
BRANCH  28  29
HETATM   29  N4  UNL     1      16.566  23.509  16.507  1.00  0.00    -0.280 NA
HETATM   30  C17 UNL     1      15.560  23.943  17.444  1.00  0.00     0.101 C 
HETATM   31  C18 UNL     1      14.771  22.706  17.819  1.00  0.00     0.005 C 
HETATM   32  C19 UNL     1      15.288  22.035  19.021  1.00  0.00     0.008 C 
HETATM   33  C30 UNL     1      14.866  21.929  16.549  1.00  0.00     0.015 C 
HETATM   34  C20 UNL     1      15.410  20.558  19.004  1.00  0.00     0.026 C 
HETATM   35  C21 UNL     1      14.758  19.799  17.926  1.00  0.00     0.084 C 
HETATM   36  C29 UNL     1      14.454  20.518  16.644  1.00  0.00     0.032 C 
HETATM   37  C31 UNL     1      16.187  22.220  15.974  1.00  0.00     0.014 C 
HETATM   38  C32 UNL     1      16.033  22.253  14.444  1.00  0.00     0.032 C 
HETATM   39  C33 UNL     1      17.310  21.277  16.255  1.00  0.00     0.032 C 
BRANCH  35  40
HETATM   40  N5  UNL     1      13.569  19.111  18.438  1.00  0.00    -0.356 N 
HETATM   41  C22 UNL     1      13.598  17.712  18.564  1.00  0.00     0.220 C 
HETATM   42  O3  UNL     1      14.632  17.089  18.230  1.00  0.00    -0.274 OA
ATOM     43  H5  UNL     1      12.737  19.638  18.699  1.00  0.00     0.162 HD
BRANCH  41  44
HETATM   44  C23 UNL     1      12.434  16.990  19.077  1.00  0.00     0.137 C 
BRANCH  44  45
HETATM   45  C24 UNL     1      11.317  16.852  18.094  1.00  0.00     0.157 C 
HETATM   46  C25 UNL     1      10.146  17.751  18.301  1.00  0.00     0.204 C 
HETATM   47  O4  UNL     1       9.613  17.769  16.997  1.00  0.00    -0.353 OA
HETATM   48  C26 UNL     1      10.751  17.892  16.179  1.00  0.00     0.157 C 
HETATM   49  C27 UNL     1      10.931  19.385  15.938  1.00  0.00     0.078 C 
HETATM   50  C28 UNL     1      10.593  17.224  14.846  1.00  0.00     0.078 C 
HETATM   51  O5  UNL     1      11.805  17.320  16.863  1.00  0.00    -0.348 OA
ENDBRANCH  44  45
ENDBRANCH  41  44
ENDBRANCH  35  40
ENDBRANCH  28  29
ENDBRANCH   1  28
TORSDOF 16
ENDMDL
MODEL 5
REMARK VINA RESULT: -8.813643172      1.663      2.441
REMARK  16 active torsions:
REMARK  status: ('A' for Active; 'I' for Inactive)
REMARK    1  A    between atoms: N1_2  and  C2_5 
REMARK    2  A    between atoms: C2_5  and  C3_6 
REMARK    3  A    between atoms: C3_6  and  C4_7 
REMARK    4  A    between atoms: C4_7  and  C5_8 
REMARK    5  A    between atoms: C5_8  and  C6_9 
REMARK    6  A    between atoms: C6_9  and  C7_10 
REMARK    7  A    between atoms: C7_10  and  N2_11 
REMARK    8  A    between atoms: C12_17  and  C13_18 
REMARK    9  A    between atoms: C13_18  and  C14_19 
REMARK       I    between atoms: C14_19  and  N3_21 
REMARK   10  A    between atoms: N3_21  and  C15_23 
REMARK   11  A    between atoms: C15_23  and  O2_24 
REMARK   12  A    between atoms: C15_23  and  C16_26 
REMARK   13  A    between atoms: C16_26  and  N4_27 
REMARK   14  A    between atoms: C21_32  and  N5_33 
REMARK       I    between atoms: N5_33  and  C22_35 
REMARK   15  A    between atoms: C22_35  and  C23_37 
REMARK   16  A    between atoms: C23_37  and  C24_38 
ROOT
HETATM    1  C15 UNL     1      20.321  24.593  18.060  1.00  0.00     0.153 C 
ENDROOT
BRANCH   1   2
HETATM    2  N3  UNL     1      20.867  24.926  16.841  1.00  0.00    -0.307 N 
HETATM    3  C14 UNL     1      20.514  25.767  15.788  1.00  0.00     0.228 C 
HETATM    4  O1  UNL     1      19.480  26.439  15.743  1.00  0.00    -0.273 OA
ATOM      5  H3  UNL     1      21.746  24.437  16.666  1.00  0.00     0.171 HD
BRANCH   3   6
HETATM    6  C13 UNL     1      21.457  25.881  14.598  1.00  0.00     0.150 C 
BRANCH   6   7
HETATM    7  C12 UNL     1      22.105  27.247  14.673  1.00  0.00    -0.000 A 
HETATM    8  S1  UNL     1      21.735  28.677  13.829  1.00  0.00    -0.105 SA
HETATM    9  C11 UNL     1      22.905  29.709  14.509  1.00  0.00     0.058 A 
HETATM   10  C10 UNL     1      23.572  28.903  15.396  1.00  0.00    -0.041 A 
HETATM   11  C9  UNL     1      24.724  29.398  16.260  1.00  0.00     0.070 C 
HETATM   12  C34 UNL     1      23.149  27.618  15.478  1.00  0.00    -0.010 A 
HETATM   13  C8  UNL     1      25.126  28.436  17.331  1.00  0.00     0.277 C 
HETATM   14  N2  UNL     1      24.054  27.548  17.638  1.00  0.00     0.092 N 
HETATM   15  C35 UNL     1      23.873  26.701  16.458  1.00  0.00     0.312 C 
BRANCH  14  16
HETATM   16  C7  UNL     1      24.229  26.759  18.817  1.00  0.00     0.273 C 
BRANCH  16  17
HETATM   17  C6  UNL     1      25.116  25.588  18.550  1.00  0.00     0.030 C 
BRANCH  17  18
HETATM   18  C5  UNL     1      25.273  24.666  19.708  1.00  0.00     0.002 C 
BRANCH  18  19
HETATM   19  C4  UNL     1      26.413  23.703  19.503  1.00  0.00     0.002 C 
BRANCH  19  20
HETATM   20  C3  UNL     1      25.998  22.618  18.567  1.00  0.00     0.027 C 
BRANCH  20  21
HETATM   21  C2  UNL     1      26.336  21.223  19.077  1.00  0.00     0.231 C 
BRANCH  21  22
HETATM   22  N1  UNL     1      25.401  20.245  18.611  1.00  0.00    -0.079 N 
HETATM   23  C1  UNL     1      25.385  19.105  19.534  1.00  0.00     0.266 C 
ATOM     24  H12 UNL     1      25.589  19.961  17.649  1.00  0.00     0.276 HD
ATOM     25  H11 UNL     1      24.471  20.639  18.467  1.00  0.00     0.276 HD
ENDBRANCH  21  22
ENDBRANCH  20  21
ENDBRANCH  19  20
ENDBRANCH  18  19
ENDBRANCH  17  18
ENDBRANCH  16  17
ENDBRANCH  14  16
ENDBRANCH   6   7
ENDBRANCH   3   6
ENDBRANCH   1   2
BRANCH   1  26
HETATM   26  O2  UNL     1      21.291  24.233  18.938  1.00  0.00    -0.345 OA
ATOM     27  H2  UNL     1      21.782  24.994  19.227  1.00  0.00     0.219 HD
ENDBRANCH   1  26
BRANCH   1  28
HETATM   28  C16 UNL     1      19.036  24.512  18.693  1.00  0.00     0.116 C 
BRANCH  28  29
HETATM   29  N4  UNL     1      18.170  23.465  18.381  1.00  0.00    -0.280 NA
HETATM   30  C17 UNL     1      17.716  22.634  19.469  1.00  0.00     0.101 C 
HETATM   31  C18 UNL     1      16.349  22.122  19.068  1.00  0.00     0.005 C 
HETATM   32  C19 UNL     1      16.399  20.820  18.386  1.00  0.00     0.008 C 
HETATM   33  C30 UNL     1      15.861  23.268  18.247  1.00  0.00     0.015 C 
HETATM   34  C20 UNL     1      15.565  20.628  17.177  1.00  0.00     0.026 C 
HETATM   35  C21 UNL     1      14.519  21.614  16.865  1.00  0.00     0.084 C 
HETATM   36  C29 UNL     1      14.659  22.994  17.439  1.00  0.00     0.032 C 
HETATM   37  C31 UNL     1      17.034  23.828  17.563  1.00  0.00     0.014 C 
HETATM   38  C32 UNL     1      16.846  25.352  17.486  1.00  0.00     0.032 C 
HETATM   39  C33 UNL     1      17.330  23.377  16.171  1.00  0.00     0.032 C 
BRANCH  35  40
HETATM   40  N5  UNL     1      13.195  21.056  17.153  1.00  0.00    -0.356 N 
HETATM   41  C22 UNL     1      12.596  20.209  16.206  1.00  0.00     0.220 C 
HETATM   42  O3  UNL     1      13.203  19.958  15.140  1.00  0.00    -0.274 OA
ATOM     43  H5  UNL     1      12.717  21.279  18.026  1.00  0.00     0.162 HD
BRANCH  41  44
HETATM   44  C23 UNL     1      11.277  19.628  16.461  1.00  0.00     0.137 C 
BRANCH  44  45
HETATM   45  C24 UNL     1      11.293  18.459  17.392  1.00  0.00     0.157 C 
HETATM   46  C25 UNL     1      11.867  17.195  16.850  1.00  0.00     0.204 C 
HETATM   47  O4  UNL     1      12.229  16.552  18.050  1.00  0.00    -0.353 OA
HETATM   48  C26 UNL     1      12.801  17.585  18.815  1.00  0.00     0.157 C 
HETATM   49  C27 UNL     1      14.299  17.528  18.538  1.00  0.00     0.078 C 
HETATM   50  C28 UNL     1      12.598  17.406  20.291  1.00  0.00     0.078 C 
HETATM   51  O5  UNL     1      12.216  18.765  18.405  1.00  0.00    -0.348 OA
ENDBRANCH  44  45
ENDBRANCH  41  44
ENDBRANCH  35  40
ENDBRANCH  28  29
ENDBRANCH   1  28
TORSDOF 16
ENDMDL
