MODEL 1
REMARK VINA RESULT: -8.439110888      0.000      0.000
REMARK  20 active torsions:
REMARK  status: ('A' for Active; 'I' for Inactive)
REMARK    1  A    between atoms: C2_2  and  C3_3 
REMARK    2  A    between atoms: C3_3  and  C4_4 
REMARK    3  A    between atoms: C4_4  and  C5_5 
REMARK    4  A    between atoms: C5_5  and  N1_6 
REMARK    5  A    between atoms: C5_5  and  C20_29 
REMARK    6  A    between atoms: N1_6  and  C6_8 
REMARK    7  A    between atoms: C6_8  and  C7_9 
REMARK    8  A    between atoms: C6_8  and  C15_22 
REMARK    9  A    between atoms: C7_9  and  O1_10 
REMARK   10  A    between atoms: C7_9  and  N2_12 
REMARK       I    between atoms: N2_12  and  C8_14 
REMARK   11  A    between atoms: C8_14  and  C9_16 
REMARK   12  A    between atoms: C9_16  and  C10_17 
REMARK   13  A    between atoms: C9_16  and  C12_19 
REMARK   14  A    between atoms: C15_22  and  O4_24 
REMARK   15  A    between atoms: O4_24  and  C16_25 
REMARK       I    between atoms: C20_29  and  N3_31 
REMARK   16  A    between atoms: C23_34  and  C24_35 
REMARK       I    between atoms: C24_35  and  N4_37 
REMARK   17  A    between atoms: N4_37  and  C25_39 
REMARK   18  A    between atoms: C25_39  and  C26_40 
REMARK   19  A    between atoms: C25_39  and  C28_44 
REMARK   20  A    between atoms: C26_40  and  O8_42 
ROOT
HETATM    1  C5  UNL     1      21.119  25.135  19.603  1.00  0.00     0.170 C 
ENDROOT
BRANCH   1   2
HETATM    2  C4  UNL     1      20.814  26.379  20.466  1.00  0.00     0.034 C 
BRANCH   2   3
HETATM    3  C3  UNL     1      21.297  26.184  21.861  1.00  0.00     0.002 C 
BRANCH   3   4
HETATM    4  C2  UNL     1      21.935  27.456  22.417  1.00  0.00    -0.004 C 
HETATM    5  C1  UNL     1      21.728  27.427  23.937  1.00  0.00     0.005 C 
ENDBRANCH   3   4
ENDBRANCH   2   3
ENDBRANCH   1   2
BRANCH   1   6
HETATM    6  N1  UNL     1      22.377  25.304  18.982  1.00  0.00    -0.390 N 
ATOM      7  H1  UNL     1      22.547  24.762  18.135  1.00  0.00     0.155 HD
BRANCH   6   8
HETATM    8  C6  UNL     1      23.406  26.134  19.410  1.00  0.00     0.254 C 
BRANCH   8   9
HETATM    9  C7  UNL     1      23.564  27.209  18.356  1.00  0.00     0.151 C 
BRANCH   9  10
HETATM   10  O1  UNL     1      24.448  28.109  18.669  1.00  0.00    -0.347 OA
ATOM     11  H1  UNL     1      24.155  28.997  18.502  1.00  0.00     0.219 HD
ENDBRANCH   9  10
BRANCH   9  12
HETATM   12  N2  UNL     1      22.933  27.378  17.154  1.00  0.00    -0.309 N 
HETATM   13  C8  UNL     1      23.380  27.144  15.860  1.00  0.00     0.228 C 
HETATM   14  O2  UNL     1      24.533  26.761  15.610  1.00  0.00    -0.273 OA
ATOM     15  H2  UNL     1      21.979  27.732  17.219  1.00  0.00     0.170 HD
BRANCH  13  16
HETATM   16  C9  UNL     1      22.489  27.339  14.661  1.00  0.00     0.081 C 
BRANCH  16  17
HETATM   17  C10 UNL     1      22.112  28.791  14.530  1.00  0.00     0.010 C 
HETATM   18  C11 UNL     1      23.246  29.718  14.228  1.00  0.00     0.006 C 
ENDBRANCH  16  17
BRANCH  16  19
HETATM   19  C12 UNL     1      21.242  26.529  14.842  1.00  0.00    -0.010 C 
HETATM   20  C13 UNL     1      20.115  27.053  13.958  1.00  0.00     0.010 C 
HETATM   21  C14 UNL     1      21.490  25.097  14.379  1.00  0.00     0.010 C 
ENDBRANCH  16  19
ENDBRANCH  13  16
ENDBRANCH   9  12
ENDBRANCH   8   9
BRANCH   8  22
HETATM   22  C15 UNL     1      24.759  25.410  19.283  1.00  0.00     0.290 C 
HETATM   23  O3  UNL     1      25.399  25.511  18.219  1.00  0.00    -0.262 OA
BRANCH  22  24
HETATM   24  O4  UNL     1      25.265  24.668  20.295  1.00  0.00    -0.309 OA
BRANCH  24  25
HETATM   25  C16 UNL     1      25.807  25.190  21.493  1.00  0.00     0.060 C 
HETATM   26  C17 UNL     1      24.824  25.189  22.631  1.00  0.00     0.045 C 
HETATM   27  C18 UNL     1      26.336  26.608  21.268  1.00  0.00     0.045 C 
HETATM   28  C19 UNL     1      26.997  24.345  21.891  1.00  0.00     0.045 C 
ENDBRANCH  24  25
ENDBRANCH  22  24
ENDBRANCH   8  22
ENDBRANCH   6   8
ENDBRANCH   1   6
BRANCH   1  29
HETATM   29  C20 UNL     1      20.004  25.007  18.599  1.00  0.00     0.243 C 
HETATM   30  O5  UNL     1      19.934  25.916  17.742  1.00  0.00    -0.271 OA
HETATM   31  N3  UNL     1      19.046  23.981  18.524  1.00  0.00    -0.340 N 
HETATM   32  C21 UNL     1      19.037  22.724  19.243  1.00  0.00     0.127 C 
HETATM   33  C31 UNL     1      17.817  23.972  17.711  1.00  0.00     0.047 C 
HETATM   34  C22 UNL     1      17.695  22.064  19.023  1.00  0.00     0.036 C 
HETATM   35  C23 UNL     1      16.849  23.266  18.616  1.00  0.00     0.107 C 
HETATM   36  C32 UNL     1      17.329  25.354  17.359  1.00  0.00     0.032 C 
HETATM   37  C35 UNL     1      18.121  23.269  16.434  1.00  0.00     0.032 C 
HETATM   38  C33 UNL     1      17.483  25.533  15.883  1.00  0.00     0.002 C 
HETATM   39  C34 UNL     1      18.098  24.273  15.334  1.00  0.00     0.002 C 
BRANCH  35  40
HETATM   40  C24 UNL     1      15.573  22.867  18.033  1.00  0.00     0.225 C 
HETATM   41  O6  UNL     1      14.531  23.511  18.247  1.00  0.00    -0.273 OA
HETATM   42  N4  UNL     1      15.461  21.711  17.184  1.00  0.00    -0.346 N 
ATOM     43  H4  UNL     1      16.297  21.162  16.983  1.00  0.00     0.163 HD
BRANCH  42  44
HETATM   44  C25 UNL     1      14.220  21.309  16.614  1.00  0.00     0.187 C 
BRANCH  44  45
HETATM   45  C26 UNL     1      13.918  19.867  16.796  1.00  0.00     0.281 C 
HETATM   46  O7  UNL     1      12.974  19.302  16.221  1.00  0.00    -0.263 OA
BRANCH  45  47
HETATM   47  O8  UNL     1      14.729  19.100  17.656  1.00  0.00    -0.325 OA
HETATM   48  C27 UNL     1      14.363  17.804  18.020  1.00  0.00     0.213 C 
ENDBRANCH  45  47
ENDBRANCH  44  45
BRANCH  44  49
HETATM   49  C28 UNL     1      14.111  21.630  15.137  1.00  0.00     0.010 C 
HETATM   50  C29 UNL     1      15.396  21.483  14.394  1.00  0.00     0.012 C 
HETATM   51  C30 UNL     1      13.499  23.005  14.941  1.00  0.00     0.012 C 
ENDBRANCH  44  49
ENDBRANCH  42  44
ENDBRANCH  35  40
ENDBRANCH   1  29
TORSDOF 20
ENDMDL
MODEL 2
REMARK VINA RESULT: -8.419536633      2.058      5.155
REMARK  20 active torsions:
REMARK  status: ('A' for Active; 'I' for Inactive)
REMARK    1  A    between atoms: C2_2  and  C3_3 
REMARK    2  A    between atoms: C3_3  and  C4_4 
REMARK    3  A    between atoms: C4_4  and  C5_5 
REMARK    4  A    between atoms: C5_5  and  N1_6 
REMARK    5  A    between atoms: C5_5  and  C20_29 
REMARK    6  A    between atoms: N1_6  and  C6_8 
REMARK    7  A    between atoms: C6_8  and  C7_9 
REMARK    8  A    between atoms: C6_8  and  C15_22 
REMARK    9  A    between atoms: C7_9  and  O1_10 
REMARK   10  A    between atoms: C7_9  and  N2_12 
REMARK       I    between atoms: N2_12  and  C8_14 
REMARK   11  A    between atoms: C8_14  and  C9_16 
REMARK   12  A    between atoms: C9_16  and  C10_17 
REMARK   13  A    between atoms: C9_16  and  C12_19 
REMARK   14  A    between atoms: C15_22  and  O4_24 
REMARK   15  A    between atoms: O4_24  and  C16_25 
REMARK       I    between atoms: C20_29  and  N3_31 
REMARK   16  A    between atoms: C23_34  and  C24_35 
REMARK       I    between atoms: C24_35  and  N4_37 
REMARK   17  A    between atoms: N4_37  and  C25_39 
REMARK   18  A    between atoms: C25_39  and  C26_40 
REMARK   19  A    between atoms: C25_39  and  C28_44 
REMARK   20  A    between atoms: C26_40  and  O8_42 
ROOT
HETATM    1  C5  UNL     1      18.269  24.388  18.373  1.00  0.00     0.170 C 
ENDROOT
BRANCH   1   2
HETATM    2  C4  UNL     1      17.669  24.703  19.761  1.00  0.00     0.034 C 
BRANCH   2   3
HETATM    3  C3  UNL     1      18.659  24.422  20.837  1.00  0.00     0.002 C 
BRANCH   3   4
HETATM    4  C2  UNL     1      19.512  23.197  20.511  1.00  0.00    -0.004 C 
HETATM    5  C1  UNL     1      18.798  21.985  21.123  1.00  0.00     0.005 C 
ENDBRANCH   3   4
ENDBRANCH   2   3
ENDBRANCH   1   2
BRANCH   1   6
HETATM    6  N1  UNL     1      18.811  25.573  17.826  1.00  0.00    -0.390 N 
ATOM      7  H1  UNL     1      18.266  26.426  17.948  1.00  0.00     0.155 HD
BRANCH   6   8
HETATM    8  C6  UNL     1      20.013  25.691  17.138  1.00  0.00     0.254 C 
BRANCH   8   9
HETATM    9  C7  UNL     1      21.022  26.247  18.119  1.00  0.00     0.151 C 
BRANCH   9  10
HETATM   10  O1  UNL     1      20.508  27.099  18.956  1.00  0.00    -0.347 OA
ATOM     11  H1  UNL     1      20.871  27.031  19.832  1.00  0.00     0.219 HD
ENDBRANCH   9  10
BRANCH   9  12
HETATM   12  N2  UNL     1      22.360  26.001  18.256  1.00  0.00    -0.309 N 
HETATM   13  C8  UNL     1      23.356  26.746  18.875  1.00  0.00     0.228 C 
HETATM   14  O2  UNL     1      23.140  27.854  19.389  1.00  0.00    -0.273 OA
ATOM     15  H2  UNL     1      22.679  25.128  17.836  1.00  0.00     0.170 HD
BRANCH  13  16
HETATM   16  C9  UNL     1      24.778  26.255  18.969  1.00  0.00     0.081 C 
BRANCH  16  17
HETATM   17  C10 UNL     1      25.338  26.033  17.590  1.00  0.00     0.010 C 
HETATM   18  C11 UNL     1      25.979  27.230  16.962  1.00  0.00     0.006 C 
ENDBRANCH  16  17
BRANCH  16  19
HETATM   19  C12 UNL     1      24.798  24.957  19.715  1.00  0.00    -0.010 C 
HETATM   20  C13 UNL     1      25.753  23.963  19.061  1.00  0.00     0.010 C 
HETATM   21  C14 UNL     1      25.346  25.182  21.121  1.00  0.00     0.010 C 
ENDBRANCH  16  19
ENDBRANCH  13  16
ENDBRANCH   9  12
ENDBRANCH   8   9
BRANCH   8  22
HETATM   22  C15 UNL     1      19.932  26.849  16.126  1.00  0.00     0.290 C 
HETATM   23  O3  UNL     1      19.079  26.800  15.220  1.00  0.00    -0.262 OA
BRANCH  22  24
HETATM   24  O4  UNL     1      20.767  27.912  16.196  1.00  0.00    -0.309 OA
BRANCH  24  25
HETATM   25  C16 UNL     1      21.854  28.151  15.322  1.00  0.00     0.060 C 
HETATM   26  C17 UNL     1      22.520  26.886  14.855  1.00  0.00     0.045 C 
HETATM   27  C18 UNL     1      22.886  29.062  15.989  1.00  0.00     0.045 C 
HETATM   28  C19 UNL     1      21.342  28.895  14.109  1.00  0.00     0.045 C 
ENDBRANCH  24  25
ENDBRANCH  22  24
ENDBRANCH   8  22
ENDBRANCH   6   8
ENDBRANCH   1   6
BRANCH   1  29
HETATM   29  C20 UNL     1      17.154  23.831  17.525  1.00  0.00     0.243 C 
HETATM   30  O5  UNL     1      16.544  24.659  16.812  1.00  0.00    -0.271 OA
HETATM   31  N3  UNL     1      16.736  22.491  17.452  1.00  0.00    -0.340 N 
HETATM   32  C21 UNL     1      17.400  21.325  17.994  1.00  0.00     0.127 C 
HETATM   33  C31 UNL     1      15.505  21.979  16.822  1.00  0.00     0.047 C 
HETATM   34  C22 UNL     1      16.459  20.148  17.879  1.00  0.00     0.036 C 
HETATM   35  C23 UNL     1      15.119  20.866  17.754  1.00  0.00     0.107 C 
HETATM   36  C32 UNL     1      14.415  23.014  16.725  1.00  0.00     0.032 C 
HETATM   37  C35 UNL     1      15.844  21.557  15.436  1.00  0.00     0.032 C 
HETATM   38  C33 UNL     1      14.204  23.325  15.278  1.00  0.00     0.002 C 
HETATM   39  C34 UNL     1      15.191  22.505  14.490  1.00  0.00     0.002 C 
BRANCH  35  40
HETATM   40  C24 UNL     1      14.057  19.972  17.307  1.00  0.00     0.225 C 
HETATM   41  O6  UNL     1      14.178  19.284  16.278  1.00  0.00    -0.273 OA
HETATM   42  N4  UNL     1      12.822  19.846  18.033  1.00  0.00    -0.346 N 
ATOM     43  H4  UNL     1      12.691  20.393  18.884  1.00  0.00     0.163 HD
BRANCH  42  44
HETATM   44  C25 UNL     1      11.776  18.981  17.603  1.00  0.00     0.187 C 
BRANCH  44  45
HETATM   45  C26 UNL     1      10.687  19.678  16.873  1.00  0.00     0.281 C 
HETATM   46  O7  UNL     1       9.715  20.191  17.452  1.00  0.00    -0.263 OA
BRANCH  45  47
HETATM   47  O8  UNL     1      10.749  19.764  15.469  1.00  0.00    -0.325 OA
HETATM   48  C27 UNL     1      11.346  20.860  14.844  1.00  0.00     0.213 C 
ENDBRANCH  45  47
ENDBRANCH  44  45
BRANCH  44  49
HETATM   49  C28 UNL     1      11.154  18.190  18.736  1.00  0.00     0.010 C 
HETATM   50  C29 UNL     1      11.802  18.422  20.059  1.00  0.00     0.012 C 
HETATM   51  C30 UNL     1      11.104  16.715  18.382  1.00  0.00     0.012 C 
ENDBRANCH  44  49
ENDBRANCH  42  44
ENDBRANCH  35  40
ENDBRANCH   1  29
TORSDOF 20
ENDMDL
MODEL 3
REMARK VINA RESULT: -8.371791836      0.895      1.290
REMARK  20 active torsions:
REMARK  status: ('A' for Active; 'I' for Inactive)
REMARK    1  A    between atoms: C2_2  and  C3_3 
REMARK    2  A    between atoms: C3_3  and  C4_4 
REMARK    3  A    between atoms: C4_4  and  C5_5 
REMARK    4  A    between atoms: C5_5  and  N1_6 
REMARK    5  A    between atoms: C5_5  and  C20_29 
REMARK    6  A    between atoms: N1_6  and  C6_8 
REMARK    7  A    between atoms: C6_8  and  C7_9 
REMARK    8  A    between atoms: C6_8  and  C15_22 
REMARK    9  A    between atoms: C7_9  and  O1_10 
REMARK   10  A    between atoms: C7_9  and  N2_12 
REMARK       I    between atoms: N2_12  and  C8_14 
REMARK   11  A    between atoms: C8_14  and  C9_16 
REMARK   12  A    between atoms: C9_16  and  C10_17 
REMARK   13  A    between atoms: C9_16  and  C12_19 
REMARK   14  A    between atoms: C15_22  and  O4_24 
REMARK   15  A    between atoms: O4_24  and  C16_25 
REMARK       I    between atoms: C20_29  and  N3_31 
REMARK   16  A    between atoms: C23_34  and  C24_35 
REMARK       I    between atoms: C24_35  and  N4_37 
REMARK   17  A    between atoms: N4_37  and  C25_39 
REMARK   18  A    between atoms: C25_39  and  C26_40 
REMARK   19  A    between atoms: C25_39  and  C28_44 
REMARK   20  A    between atoms: C26_40  and  O8_42 
ROOT
HETATM    1  C5  UNL     1      21.271  25.068  19.563  1.00  0.00     0.170 C 
ENDROOT
BRANCH   1   2
HETATM    2  C4  UNL     1      21.030  26.335  20.412  1.00  0.00     0.034 C 
BRANCH   2   3
HETATM    3  C3  UNL     1      21.320  26.068  21.848  1.00  0.00     0.002 C 
BRANCH   3   4
HETATM    4  C2  UNL     1      22.299  27.090  22.423  1.00  0.00    -0.004 C 
HETATM    5  C1  UNL     1      21.770  27.480  23.810  1.00  0.00     0.005 C 
ENDBRANCH   3   4
ENDBRANCH   2   3
ENDBRANCH   1   2
BRANCH   1   6
HETATM    6  N1  UNL     1      22.525  25.176  18.920  1.00  0.00    -0.390 N 
ATOM      7  H1  UNL     1      22.660  24.616  18.079  1.00  0.00     0.155 HD
BRANCH   6   8
HETATM    8  C6  UNL     1      23.593  25.969  19.322  1.00  0.00     0.254 C 
BRANCH   8   9
HETATM    9  C7  UNL     1      23.610  27.173  18.404  1.00  0.00     0.151 C 
BRANCH   9  10
HETATM   10  O1  UNL     1      24.340  28.150  18.853  1.00  0.00    -0.347 OA
ATOM     11  H1  UNL     1      24.355  28.203  19.801  1.00  0.00     0.219 HD
ENDBRANCH   9  10
BRANCH   9  12
HETATM   12  N2  UNL     1      22.988  27.387  17.205  1.00  0.00    -0.309 N 
HETATM   13  C8  UNL     1      23.410  27.117  15.909  1.00  0.00     0.228 C 
HETATM   14  O2  UNL     1      24.528  26.645  15.655  1.00  0.00    -0.273 OA
ATOM     15  H2  UNL     1      22.065  27.814  17.273  1.00  0.00     0.170 HD
BRANCH  13  16
HETATM   16  C9  UNL     1      22.531  27.378  14.713  1.00  0.00     0.081 C 
BRANCH  16  17
HETATM   17  C10 UNL     1      22.184  28.841  14.638  1.00  0.00     0.010 C 
HETATM   18  C11 UNL     1      23.328  29.749  14.316  1.00  0.00     0.006 C 
ENDBRANCH  16  17
BRANCH  16  19
HETATM   19  C12 UNL     1      21.266  26.587  14.855  1.00  0.00    -0.010 C 
HETATM   20  C13 UNL     1      20.172  27.135  13.944  1.00  0.00     0.010 C 
HETATM   21  C14 UNL     1      21.503  25.154  14.390  1.00  0.00     0.010 C 
ENDBRANCH  16  19
ENDBRANCH  13  16
ENDBRANCH   9  12
ENDBRANCH   8   9
BRANCH   8  22
HETATM   22  C15 UNL     1      24.925  25.299  18.935  1.00  0.00     0.290 C 
HETATM   23  O3  UNL     1      25.133  24.123  19.288  1.00  0.00    -0.262 OA
BRANCH  22  24
HETATM   24  O4  UNL     1      25.872  25.957  18.227  1.00  0.00    -0.309 OA
BRANCH  24  25
HETATM   25  C16 UNL     1      27.198  26.188  18.662  1.00  0.00     0.060 C 
HETATM   26  C17 UNL     1      28.126  25.047  18.345  1.00  0.00     0.045 C 
HETATM   27  C18 UNL     1      27.227  26.477  20.163  1.00  0.00     0.045 C 
HETATM   28  C19 UNL     1      27.720  27.431  17.974  1.00  0.00     0.045 C 
ENDBRANCH  24  25
ENDBRANCH  22  24
ENDBRANCH   8  22
ENDBRANCH   6   8
ENDBRANCH   1   6
BRANCH   1  29
HETATM   29  C20 UNL     1      20.135  24.974  18.576  1.00  0.00     0.243 C 
HETATM   30  O5  UNL     1      20.052  25.909  17.749  1.00  0.00    -0.271 OA
HETATM   31  N3  UNL     1      19.173  23.953  18.489  1.00  0.00    -0.340 N 
HETATM   32  C21 UNL     1      19.174  22.674  19.168  1.00  0.00     0.127 C 
HETATM   33  C31 UNL     1      17.929  23.972  17.699  1.00  0.00     0.047 C 
HETATM   34  C22 UNL     1      17.827  22.025  18.954  1.00  0.00     0.036 C 
HETATM   35  C23 UNL     1      16.976  23.241  18.601  1.00  0.00     0.107 C 
HETATM   36  C32 UNL     1      17.438  25.365  17.399  1.00  0.00     0.032 C 
HETATM   37  C35 UNL     1      18.206  23.308  16.396  1.00  0.00     0.032 C 
HETATM   38  C33 UNL     1      17.564  25.589  15.927  1.00  0.00     0.002 C 
HETATM   39  C34 UNL     1      18.165  24.346  15.328  1.00  0.00     0.002 C 
BRANCH  35  40
HETATM   40  C24 UNL     1      15.688  22.863  18.030  1.00  0.00     0.225 C 
HETATM   41  O6  UNL     1      14.650  23.492  18.299  1.00  0.00    -0.273 OA
HETATM   42  N4  UNL     1      15.560  21.747  17.132  1.00  0.00    -0.346 N 
ATOM     43  H4  UNL     1      16.392  21.212  16.887  1.00  0.00     0.163 HD
BRANCH  42  44
HETATM   44  C25 UNL     1      14.307  21.366  16.574  1.00  0.00     0.187 C 
BRANCH  44  45
HETATM   45  C26 UNL     1      14.002  19.920  16.722  1.00  0.00     0.281 C 
HETATM   46  O7  UNL     1      13.096  19.358  16.085  1.00  0.00    -0.263 OA
BRANCH  45  47
HETATM   47  O8  UNL     1      14.764  19.148  17.619  1.00  0.00    -0.325 OA
HETATM   48  C27 UNL     1      14.334  17.882  18.020  1.00  0.00     0.213 C 
ENDBRANCH  45  47
ENDBRANCH  44  45
BRANCH  44  49
HETATM   49  C28 UNL     1      14.173  21.728  15.109  1.00  0.00     0.010 C 
HETATM   50  C29 UNL     1      15.445  21.607  14.341  1.00  0.00     0.012 C 
HETATM   51  C30 UNL     1      13.554  23.106  14.962  1.00  0.00     0.012 C 
ENDBRANCH  44  49
ENDBRANCH  42  44
ENDBRANCH  35  40
ENDBRANCH   1  29
TORSDOF 20
ENDMDL
MODEL 4
REMARK VINA RESULT: -8.299852707      4.188     12.916
REMARK  20 active torsions:
REMARK  status: ('A' for Active; 'I' for Inactive)
REMARK    1  A    between atoms: C2_2  and  C3_3 
REMARK    2  A    between atoms: C3_3  and  C4_4 
REMARK    3  A    between atoms: C4_4  and  C5_5 
REMARK    4  A    between atoms: C5_5  and  N1_6 
REMARK    5  A    between atoms: C5_5  and  C20_29 
REMARK    6  A    between atoms: N1_6  and  C6_8 
REMARK    7  A    between atoms: C6_8  and  C7_9 
REMARK    8  A    between atoms: C6_8  and  C15_22 
REMARK    9  A    between atoms: C7_9  and  O1_10 
REMARK   10  A    between atoms: C7_9  and  N2_12 
REMARK       I    between atoms: N2_12  and  C8_14 
REMARK   11  A    between atoms: C8_14  and  C9_16 
REMARK   12  A    between atoms: C9_16  and  C10_17 
REMARK   13  A    between atoms: C9_16  and  C12_19 
REMARK   14  A    between atoms: C15_22  and  O4_24 
REMARK   15  A    between atoms: O4_24  and  C16_25 
REMARK       I    between atoms: C20_29  and  N3_31 
REMARK   16  A    between atoms: C23_34  and  C24_35 
REMARK       I    between atoms: C24_35  and  N4_37 
REMARK   17  A    between atoms: N4_37  and  C25_39 
REMARK   18  A    between atoms: C25_39  and  C26_40 
REMARK   19  A    between atoms: C25_39  and  C28_44 
REMARK   20  A    between atoms: C26_40  and  O8_42 
ROOT
HETATM    1  C5  UNL     1      12.160  18.968  17.351  1.00  0.00     0.170 C 
ENDROOT
BRANCH   1   2
HETATM    2  C4  UNL     1      13.013  17.782  17.853  1.00  0.00     0.034 C 
BRANCH   2   3
HETATM    3  C3  UNL     1      12.334  17.085  18.980  1.00  0.00     0.002 C 
BRANCH   3   4
HETATM    4  C2  UNL     1      11.667  18.076  19.933  1.00  0.00    -0.004 C 
HETATM    5  C1  UNL     1      12.675  18.356  21.056  1.00  0.00     0.005 C 
ENDBRANCH   3   4
ENDBRANCH   2   3
ENDBRANCH   1   2
BRANCH   1   6
HETATM    6  N1  UNL     1      11.229  18.495  16.399  1.00  0.00    -0.390 N 
ATOM      7  H1  UNL     1      11.610  18.113  15.534  1.00  0.00     0.155 HD
BRANCH   6   8
HETATM    8  C6  UNL     1       9.845  18.498  16.525  1.00  0.00     0.254 C 
BRANCH   8   9
HETATM    9  C7  UNL     1       9.343  17.250  15.831  1.00  0.00     0.151 C 
BRANCH   9  10
HETATM   10  O1  UNL     1       8.228  16.800  16.326  1.00  0.00    -0.347 OA
ATOM     11  H1  UNL     1       7.535  16.723  15.681  1.00  0.00     0.219 HD
ENDBRANCH   9  10
BRANCH   9  12
HETATM   12  N2  UNL     1       9.869  16.538  14.788  1.00  0.00    -0.309 N 
HETATM   13  C8  UNL     1      10.922  15.633  14.755  1.00  0.00     0.228 C 
HETATM   14  O2  UNL     1      11.609  15.369  15.754  1.00  0.00    -0.273 OA
ATOM     15  H2  UNL     1       9.414  16.697  13.889  1.00  0.00     0.170 HD
BRANCH  13  16
HETATM   16  C9  UNL     1      11.306  14.901  13.495  1.00  0.00     0.081 C 
BRANCH  16  17
HETATM   17  C10 UNL     1      11.391  15.867  12.344  1.00  0.00     0.010 C 
HETATM   18  C11 UNL     1      12.755  16.036  11.754  1.00  0.00     0.006 C 
ENDBRANCH  16  17
BRANCH  16  19
HETATM   19  C12 UNL     1      10.259  13.874  13.189  1.00  0.00    -0.010 C 
HETATM   20  C13 UNL     1      10.418  13.333  11.772  1.00  0.00     0.010 C 
HETATM   21  C14 UNL     1      10.440  12.669  14.107  1.00  0.00     0.010 C 
ENDBRANCH  16  19
ENDBRANCH  13  16
ENDBRANCH   9  12
ENDBRANCH   8   9
BRANCH   8  22
HETATM   22  C15 UNL     1       9.234  19.589  15.626  1.00  0.00     0.290 C 
HETATM   23  O3  UNL     1       9.260  20.773  16.012  1.00  0.00    -0.262 OA
BRANCH  22  24
HETATM   24  O4  UNL     1       8.669  19.291  14.433  1.00  0.00    -0.309 OA
BRANCH  24  25
HETATM   25  C16 UNL     1       9.154  19.718  13.174  1.00  0.00     0.060 C 
HETATM   26  C17 UNL     1      10.655  19.764  13.109  1.00  0.00     0.045 C 
HETATM   27  C18 UNL     1       8.579  21.090  12.818  1.00  0.00     0.045 C 
HETATM   28  C19 UNL     1       8.660  18.756  12.116  1.00  0.00     0.045 C 
ENDBRANCH  24  25
ENDBRANCH  22  24
ENDBRANCH   8  22
ENDBRANCH   6   8
ENDBRANCH   1   6
BRANCH   1  29
HETATM   29  C20 UNL     1      13.110  19.978  16.761  1.00  0.00     0.243 C 
HETATM   30  O5  UNL     1      12.877  20.322  15.581  1.00  0.00    -0.271 OA
HETATM   31  N3  UNL     1      14.217  20.569  17.395  1.00  0.00    -0.340 N 
HETATM   32  C21 UNL     1      14.568  20.513  18.799  1.00  0.00     0.127 C 
HETATM   33  C31 UNL     1      15.284  21.362  16.759  1.00  0.00     0.047 C 
HETATM   34  C22 UNL     1      15.957  21.086  18.961  1.00  0.00     0.036 C 
HETATM   35  C23 UNL     1      16.495  20.939  17.541  1.00  0.00     0.107 C 
HETATM   36  C32 UNL     1      15.449  21.064  15.291  1.00  0.00     0.032 C 
HETATM   37  C35 UNL     1      14.919  22.800  16.883  1.00  0.00     0.032 C 
HETATM   38  C33 UNL     1      15.037  22.280  14.527  1.00  0.00     0.002 C 
HETATM   39  C34 UNL     1      14.585  23.313  15.525  1.00  0.00     0.002 C 
BRANCH  35  40
HETATM   40  C24 UNL     1      17.715  21.709  17.333  1.00  0.00     0.225 C 
HETATM   41  O6  UNL     1      18.598  21.327  16.546  1.00  0.00    -0.273 OA
HETATM   42  N4  UNL     1      17.954  22.945  18.029  1.00  0.00    -0.346 N 
ATOM     43  H4  UNL     1      17.249  23.290  18.680  1.00  0.00     0.163 HD
BRANCH  42  44
HETATM   44  C25 UNL     1      19.144  23.702  17.839  1.00  0.00     0.187 C 
BRANCH  44  45
HETATM   45  C26 UNL     1      19.782  24.143  19.106  1.00  0.00     0.281 C 
HETATM   46  O7  UNL     1      19.150  24.259  20.168  1.00  0.00    -0.263 OA
BRANCH  45  47
HETATM   47  O8  UNL     1      21.157  24.444  19.112  1.00  0.00    -0.325 OA
HETATM   48  C27 UNL     1      21.752  25.053  20.218  1.00  0.00     0.213 C 
ENDBRANCH  45  47
ENDBRANCH  44  45
BRANCH  44  49
HETATM   49  C28 UNL     1      18.939  24.924  16.966  1.00  0.00     0.010 C 
HETATM   50  C29 UNL     1      17.568  25.503  17.055  1.00  0.00     0.012 C 
HETATM   51  C30 UNL     1      19.331  24.617  15.532  1.00  0.00     0.012 C 
ENDBRANCH  44  49
ENDBRANCH  42  44
ENDBRANCH  35  40
ENDBRANCH   1  29
TORSDOF 20
ENDMDL
MODEL 5
REMARK VINA RESULT: -8.282596484      2.104      5.129
REMARK  20 active torsions:
REMARK  status: ('A' for Active; 'I' for Inactive)
REMARK    1  A    between atoms: C2_2  and  C3_3 
REMARK    2  A    between atoms: C3_3  and  C4_4 
REMARK    3  A    between atoms: C4_4  and  C5_5 
REMARK    4  A    between atoms: C5_5  and  N1_6 
REMARK    5  A    between atoms: C5_5  and  C20_29 
REMARK    6  A    between atoms: N1_6  and  C6_8 
REMARK    7  A    between atoms: C6_8  and  C7_9 
REMARK    8  A    between atoms: C6_8  and  C15_22 
REMARK    9  A    between atoms: C7_9  and  O1_10 
REMARK   10  A    between atoms: C7_9  and  N2_12 
REMARK       I    between atoms: N2_12  and  C8_14 
REMARK   11  A    between atoms: C8_14  and  C9_16 
REMARK   12  A    between atoms: C9_16  and  C10_17 
REMARK   13  A    between atoms: C9_16  and  C12_19 
REMARK   14  A    between atoms: C15_22  and  O4_24 
REMARK   15  A    between atoms: O4_24  and  C16_25 
REMARK       I    between atoms: C20_29  and  N3_31 
REMARK   16  A    between atoms: C23_34  and  C24_35 
REMARK       I    between atoms: C24_35  and  N4_37 
REMARK   17  A    between atoms: N4_37  and  C25_39 
REMARK   18  A    between atoms: C25_39  and  C26_40 
REMARK   19  A    between atoms: C25_39  and  C28_44 
REMARK   20  A    between atoms: C26_40  and  O8_42 
ROOT
HETATM    1  C5  UNL     1      18.266  24.428  18.388  1.00  0.00     0.170 C 
ENDROOT
BRANCH   1   2
HETATM    2  C4  UNL     1      17.667  24.766  19.770  1.00  0.00     0.034 C 
BRANCH   2   3
HETATM    3  C3  UNL     1      18.633  24.443  20.856  1.00  0.00     0.002 C 
BRANCH   3   4
HETATM    4  C2  UNL     1      19.515  23.251  20.487  1.00  0.00    -0.004 C 
HETATM    5  C1  UNL     1      18.877  22.012  21.130  1.00  0.00     0.005 C 
ENDBRANCH   3   4
ENDBRANCH   2   3
ENDBRANCH   1   2
BRANCH   1   6
HETATM    6  N1  UNL     1      18.814  25.603  17.824  1.00  0.00    -0.390 N 
ATOM      7  H1  UNL     1      18.287  26.466  17.959  1.00  0.00     0.155 HD
BRANCH   6   8
HETATM    8  C6  UNL     1      19.998  25.699  17.103  1.00  0.00     0.254 C 
BRANCH   8   9
HETATM    9  C7  UNL     1      21.038  26.259  18.049  1.00  0.00     0.151 C 
BRANCH   9  10
HETATM   10  O1  UNL     1      20.569  27.173  18.846  1.00  0.00    -0.347 OA
ATOM     11  H1  UNL     1      21.123  27.333  19.601  1.00  0.00     0.219 HD
ENDBRANCH   9  10
BRANCH   9  12
HETATM   12  N2  UNL     1      22.366  25.961  18.190  1.00  0.00    -0.309 N 
HETATM   13  C8  UNL     1      23.390  26.674  18.799  1.00  0.00     0.228 C 
HETATM   14  O2  UNL     1      23.219  27.797  19.298  1.00  0.00    -0.273 OA
ATOM     15  H2  UNL     1      22.649  25.070  17.782  1.00  0.00     0.170 HD
BRANCH  13  16
HETATM   16  C9  UNL     1      24.791  26.128  18.901  1.00  0.00     0.081 C 
BRANCH  16  17
HETATM   17  C10 UNL     1      25.683  27.124  19.592  1.00  0.00     0.010 C 
HETATM   18  C11 UNL     1      26.250  26.671  20.900  1.00  0.00     0.006 C 
ENDBRANCH  16  17
BRANCH  16  19
HETATM   19  C12 UNL     1      25.320  25.880  17.521  1.00  0.00    -0.010 C 
HETATM   20  C13 UNL     1      25.905  27.154  16.921  1.00  0.00     0.010 C 
HETATM   21  C14 UNL     1      26.479  24.892  17.587  1.00  0.00     0.010 C 
ENDBRANCH  16  19
ENDBRANCH  13  16
ENDBRANCH   9  12
ENDBRANCH   8   9
BRANCH   8  22
HETATM   22  C15 UNL     1      19.902  26.844  16.077  1.00  0.00     0.290 C 
HETATM   23  O3  UNL     1      19.049  26.773  15.172  1.00  0.00    -0.262 OA
BRANCH  22  24
HETATM   24  O4  UNL     1      20.722  27.919  16.134  1.00  0.00    -0.309 OA
BRANCH  24  25
HETATM   25  C16 UNL     1      21.823  28.148  15.275  1.00  0.00     0.060 C 
HETATM   26  C17 UNL     1      22.474  26.876  14.805  1.00  0.00     0.045 C 
HETATM   27  C18 UNL     1      22.861  29.037  15.961  1.00  0.00     0.045 C 
HETATM   28  C19 UNL     1      21.336  28.910  14.062  1.00  0.00     0.045 C 
ENDBRANCH  24  25
ENDBRANCH  22  24
ENDBRANCH   8  22
ENDBRANCH   6   8
ENDBRANCH   1   6
BRANCH   1  29
HETATM   29  C20 UNL     1      17.150  23.864  17.547  1.00  0.00     0.243 C 
HETATM   30  O5  UNL     1      16.529  24.687  16.840  1.00  0.00    -0.271 OA
HETATM   31  N3  UNL     1      16.742  22.520  17.476  1.00  0.00    -0.340 N 
HETATM   32  C21 UNL     1      17.420  21.359  18.013  1.00  0.00     0.127 C 
HETATM   33  C31 UNL     1      15.511  21.999  16.855  1.00  0.00     0.047 C 
HETATM   34  C22 UNL     1      16.487  20.175  17.903  1.00  0.00     0.036 C 
HETATM   35  C23 UNL     1      15.140  20.882  17.788  1.00  0.00     0.107 C 
HETATM   36  C32 UNL     1      14.412  23.026  16.766  1.00  0.00     0.032 C 
HETATM   37  C35 UNL     1      15.844  21.581  15.465  1.00  0.00     0.032 C 
HETATM   38  C33 UNL     1      14.189  23.335  15.321  1.00  0.00     0.002 C 
HETATM   39  C34 UNL     1      15.176  22.524  14.525  1.00  0.00     0.002 C 
BRANCH  35  40
HETATM   40  C24 UNL     1      14.082  19.980  17.348  1.00  0.00     0.225 C 
HETATM   41  O6  UNL     1      14.241  19.217  16.379  1.00  0.00    -0.273 OA
HETATM   42  N4  UNL     1      12.808  19.932  18.012  1.00  0.00    -0.346 N 
ATOM     43  H4  UNL     1      12.645  20.542  18.813  1.00  0.00     0.163 HD
BRANCH  42  44
HETATM   44  C25 UNL     1      11.766  19.060  17.587  1.00  0.00     0.187 C 
BRANCH  44  45
HETATM   45  C26 UNL     1      10.683  19.744  16.837  1.00  0.00     0.281 C 
HETATM   46  O7  UNL     1       9.703  20.262  17.398  1.00  0.00    -0.263 OA
BRANCH  45  47
HETATM   47  O8  UNL     1      10.760  19.813  15.432  1.00  0.00    -0.325 OA
HETATM   48  C27 UNL     1      11.472  20.835  14.803  1.00  0.00     0.213 C 
ENDBRANCH  45  47
ENDBRANCH  44  45
BRANCH  44  49
HETATM   49  C28 UNL     1      11.133  18.288  18.728  1.00  0.00     0.010 C 
HETATM   50  C29 UNL     1      11.856  18.431  20.024  1.00  0.00     0.012 C 
HETATM   51  C30 UNL     1      10.951  16.832  18.340  1.00  0.00     0.012 C 
ENDBRANCH  44  49
ENDBRANCH  42  44
ENDBRANCH  35  40
ENDBRANCH   1  29
TORSDOF 20
ENDMDL
