MODEL 1
REMARK VINA RESULT: -9.077739514      0.000      0.000
REMARK  18 active torsions:
REMARK  status: ('A' for Active; 'I' for Inactive)
REMARK    1  A    between atoms: N1_1  and  C1_5 
REMARK    2  A    between atoms: C1_5  and  C2_6 
REMARK    3  A    between atoms: C1_5  and  C3_8 
REMARK    4  A    between atoms: C3_8  and  C4_9 
REMARK    5  A    between atoms: C3_8  and  C34_49 
REMARK    6  A    between atoms: C4_9  and  N2_10 
REMARK    7  A    between atoms: C8_14  and  C9_15 
REMARK       I    between atoms: C9_15  and  N3_17 
REMARK    8  A    between atoms: N3_17  and  C10_19 
REMARK    9  A    between atoms: C10_19  and  C11_20 
REMARK   10  A    between atoms: C10_19  and  C18_27 
REMARK   11  A    between atoms: C11_20  and  C12_21 
REMARK       I    between atoms: C18_27  and  N4_29 
REMARK   12  A    between atoms: N4_29  and  C19_31 
REMARK   13  A    between atoms: C19_31  and  C20_32 
REMARK   14  A    between atoms: C19_31  and  C27_39 
REMARK   15  A    between atoms: C20_32  and  C21_33 
REMARK   16  A    between atoms: C27_39  and  O4_40 
REMARK   17  A    between atoms: C27_39  and  N5_42 
REMARK   18  A    between atoms: C34_49  and  N6_50 
ROOT
HETATM    1  C10 UNL     1      13.365  20.970  15.714  1.00  0.00     0.177 C 
ENDROOT
BRANCH   1   2
HETATM    2  N3  UNL     1      12.827  20.549  16.958  1.00  0.00    -0.346 N 
HETATM    3  C9  UNL     1      12.385  19.182  17.033  1.00  0.00     0.241 C 
HETATM    4  O2  UNL     1      12.508  18.476  16.019  1.00  0.00    -0.271 OA
ATOM      5  H3  UNL     1      12.758  21.181  17.756  1.00  0.00     0.163 HD
BRANCH   3   6
HETATM    6  C8  UNL     1      11.796  18.592  18.247  1.00  0.00     0.175 C 
HETATM    7  N2  UNL     1      12.003  17.178  18.291  1.00  0.00    -0.380 N 
HETATM    8  C5  UNL     1      13.336  16.899  18.526  1.00  0.00     0.123 C 
HETATM    9  C6  UNL     1      13.916  18.177  19.145  1.00  0.00     0.022 C 
HETATM   10  C7  UNL     1      12.671  19.031  19.425  1.00  0.00     0.037 C 
BRANCH   7  11
HETATM   11  C4  UNL     1      10.943  16.325  18.421  1.00  0.00     0.068 C 
BRANCH  11  12
HETATM   12  C3  UNL     1      10.474  15.496  17.244  1.00  0.00     0.081 C 
BRANCH  12  13
HETATM   13  C1  UNL     1       9.823  14.217  17.794  1.00  0.00     0.254 C 
BRANCH  13  14
HETATM   14  N1  UNL     1      10.089  13.057  17.016  1.00  0.00    -0.068 N 
ATOM     15  H13 UNL     1       9.730  12.209  17.453  1.00  0.00     0.275 HD
ATOM     16  H12 UNL     1       9.530  13.030  16.162  1.00  0.00     0.275 HD
ATOM     17  H11 UNL     1      11.089  12.998  16.823  1.00  0.00     0.275 HD
ENDBRANCH  13  14
BRANCH  13  18
HETATM   18  C2  UNL     1       8.361  14.501  17.780  1.00  0.00     0.264 C 
HETATM   19  O1  UNL     1       7.631  13.959  18.544  1.00  0.00    -0.305 OA
ENDBRANCH  13  18
ENDBRANCH  12  13
BRANCH  12  20
HETATM   20  C34 UNL     1       9.608  16.221  16.276  1.00  0.00     0.162 C 
BRANCH  20  21
HETATM   21  N6  UNL     1      10.114  16.120  14.908  1.00  0.00    -0.286 N 
HETATM   22  C35 UNL     1       9.337  15.973  13.829  1.00  0.00     0.201 A 
HETATM   23  N7  UNL     1      10.124  15.916  12.737  1.00  0.00    -0.346 N 
HETATM   24  C36 UNL     1      11.396  16.030  13.159  1.00  0.00     0.198 A 
ATOM     25  H7  UNL     1       9.814  15.807  11.771  1.00  0.00     0.167 HD
HETATM   26  N8  UNL     1      11.355  16.154  14.489  1.00  0.00    -0.293 N 
ATOM     27  H8  UNL     1      12.172  16.259  15.091  1.00  0.00     0.188 HD
ENDBRANCH  20  21
ENDBRANCH  12  20
ENDBRANCH  11  12
ENDBRANCH   7  11
ENDBRANCH   3   6
ENDBRANCH   1   2
BRANCH   1  28
HETATM   28  C11 UNL     1      12.503  21.877  14.888  1.00  0.00     0.039 C 
BRANCH  28  29
HETATM   29  C12 UNL     1      11.361  21.322  14.169  1.00  0.00    -0.012 C 
HETATM   30  C13 UNL     1      10.088  21.121  14.940  1.00  0.00     0.005 C 
HETATM   31  C14 UNL     1       8.963  21.410  13.930  1.00  0.00     0.000 C 
HETATM   32  C15 UNL     1       9.306  20.697  12.635  1.00  0.00     0.000 C 
HETATM   33  C16 UNL     1      10.299  19.582  12.831  1.00  0.00     0.000 C 
HETATM   34  C17 UNL     1      11.607  20.038  13.405  1.00  0.00     0.005 C 
ENDBRANCH  28  29
ENDBRANCH   1  28
BRANCH   1  35
HETATM   35  C18 UNL     1      14.652  21.737  15.883  1.00  0.00     0.244 C 
HETATM   36  O3  UNL     1      15.727  21.105  15.713  1.00  0.00    -0.271 OA
HETATM   37  N4  UNL     1      14.610  23.067  16.214  1.00  0.00    -0.325 N 
ATOM     38  H4  UNL     1      13.670  23.460  16.271  1.00  0.00     0.169 HD
BRANCH  37  39
HETATM   39  C19 UNL     1      15.685  24.019  16.501  1.00  0.00     0.063 C 
BRANCH  39  40
HETATM   40  C20 UNL     1      16.783  23.883  15.534  1.00  0.00     0.066 C 
BRANCH  40  41
HETATM   41  C21 UNL     1      17.936  24.802  15.625  1.00  0.00    -0.009 C 
HETATM   42  C22 UNL     1      19.183  23.924  15.832  1.00  0.00     0.005 C 
HETATM   43  C23 UNL     1      20.269  24.817  16.427  1.00  0.00     0.000 C 
HETATM   44  C24 UNL     1      20.618  25.843  15.398  1.00  0.00     0.000 C 
HETATM   45  C25 UNL     1      19.399  26.609  14.999  1.00  0.00     0.000 C 
HETATM   46  C26 UNL     1      18.268  25.692  14.484  1.00  0.00     0.005 C 
ENDBRANCH  40  41
ENDBRANCH  39  40
BRANCH  39  47
HETATM   47  C27 UNL     1      15.915  24.257  17.916  1.00  0.00     0.161 C 
BRANCH  47  48
HETATM   48  O4  UNL     1      15.349  25.335  18.426  1.00  0.00    -0.345 OA
ATOM     49  H4  UNL     1      15.730  25.670  19.229  1.00  0.00     0.219 HD
ENDBRANCH  47  48
BRANCH  47  50
HETATM   50  N5  UNL     1      16.650  23.547  18.831  1.00  0.00    -0.360 N 
HETATM   51  C28 UNL     1      17.476  24.483  19.710  1.00  0.00     0.125 C 
HETATM   52  C29 UNL     1      18.894  23.900  19.704  1.00  0.00     0.020 C 
HETATM   53  C30 UNL     1      18.992  22.678  20.601  1.00  0.00     0.002 C 
HETATM   54  C31 UNL     1      18.950  21.386  19.803  1.00  0.00     0.002 C 
HETATM   55  C32 UNL     1      17.934  21.429  18.675  1.00  0.00     0.020 C 
HETATM   56  C33 UNL     1      16.689  22.163  19.106  1.00  0.00     0.125 C 
ENDBRANCH  47  50
ENDBRANCH  39  47
ENDBRANCH  37  39
ENDBRANCH   1  35
TORSDOF 18
ENDMDL
MODEL 2
REMARK VINA RESULT: -9.069408602      1.909      5.086
REMARK  18 active torsions:
REMARK  status: ('A' for Active; 'I' for Inactive)
REMARK    1  A    between atoms: N1_1  and  C1_5 
REMARK    2  A    between atoms: C1_5  and  C2_6 
REMARK    3  A    between atoms: C1_5  and  C3_8 
REMARK    4  A    between atoms: C3_8  and  C4_9 
REMARK    5  A    between atoms: C3_8  and  C34_49 
REMARK    6  A    between atoms: C4_9  and  N2_10 
REMARK    7  A    between atoms: C8_14  and  C9_15 
REMARK       I    between atoms: C9_15  and  N3_17 
REMARK    8  A    between atoms: N3_17  and  C10_19 
REMARK    9  A    between atoms: C10_19  and  C11_20 
REMARK   10  A    between atoms: C10_19  and  C18_27 
REMARK   11  A    between atoms: C11_20  and  C12_21 
REMARK       I    between atoms: C18_27  and  N4_29 
REMARK   12  A    between atoms: N4_29  and  C19_31 
REMARK   13  A    between atoms: C19_31  and  C20_32 
REMARK   14  A    between atoms: C19_31  and  C27_39 
REMARK   15  A    between atoms: C20_32  and  C21_33 
REMARK   16  A    between atoms: C27_39  and  O4_40 
REMARK   17  A    between atoms: C27_39  and  N5_42 
REMARK   18  A    between atoms: C34_49  and  N6_50 
ROOT
HETATM    1  C10 UNL     1      14.135  21.610  16.477  1.00  0.00     0.177 C 
ENDROOT
BRANCH   1   2
HETATM    2  N3  UNL     1      13.445  20.677  15.659  1.00  0.00    -0.346 N 
HETATM    3  C9  UNL     1      12.434  21.216  14.789  1.00  0.00     0.241 C 
HETATM    4  O2  UNL     1      12.243  22.442  14.811  1.00  0.00    -0.271 OA
ATOM      5  H3  UNL     1      13.655  19.679  15.687  1.00  0.00     0.163 HD
BRANCH   3   6
HETATM    6  C8  UNL     1      11.623  20.382  13.886  1.00  0.00     0.175 C 
HETATM    7  N2  UNL     1      11.182  19.188  14.538  1.00  0.00    -0.380 N 
HETATM    8  C5  UNL     1      10.225  19.490  15.489  1.00  0.00     0.123 C 
HETATM    9  C6  UNL     1       9.676  20.866  15.090  1.00  0.00     0.022 C 
HETATM   10  C7  UNL     1      10.283  21.100  13.699  1.00  0.00     0.037 C 
BRANCH   7  11
HETATM   11  C4  UNL     1      11.456  17.961  14.001  1.00  0.00     0.068 C 
BRANCH  11  12
HETATM   12  C3  UNL     1      10.360  16.931  13.837  1.00  0.00     0.081 C 
BRANCH  12  13
HETATM   13  C1  UNL     1      10.100  16.749  12.332  1.00  0.00     0.254 C 
BRANCH  13  14
HETATM   14  N1  UNL     1      11.200  17.118  11.511  1.00  0.00    -0.068 N 
ATOM     15  H13 UNL     1      10.901  17.578  10.651  1.00  0.00     0.275 HD
ATOM     16  H12 UNL     1      11.737  17.889  11.910  1.00  0.00     0.275 HD
ATOM     17  H11 UNL     1      11.778  16.299  11.328  1.00  0.00     0.275 HD
ENDBRANCH  13  14
BRANCH  13  18
HETATM   18  C2  UNL     1       8.940  17.636  12.039  1.00  0.00     0.264 C 
HETATM   19  O1  UNL     1       8.175  17.937  12.896  1.00  0.00    -0.305 OA
ENDBRANCH  13  18
ENDBRANCH  12  13
BRANCH  12  20
HETATM   20  C34 UNL     1      10.600  15.645  14.546  1.00  0.00     0.162 C 
BRANCH  20  21
HETATM   21  N6  UNL     1      10.125  15.687  15.928  1.00  0.00    -0.286 N 
HETATM   22  C35 UNL     1      10.802  15.189  16.969  1.00  0.00     0.201 A 
HETATM   23  N7  UNL     1      10.083  15.396  18.089  1.00  0.00    -0.346 N 
HETATM   24  C36 UNL     1       8.954  16.029  17.722  1.00  0.00     0.198 A 
ATOM     25  H7  UNL     1      10.345  15.125  19.037  1.00  0.00     0.167 HD
HETATM   26  N8  UNL     1       9.011  16.192  16.397  1.00  0.00    -0.293 N 
ATOM     27  H8  UNL     1       8.292  16.645  15.833  1.00  0.00     0.188 HD
ENDBRANCH  20  21
ENDBRANCH  12  20
ENDBRANCH  11  12
ENDBRANCH   7  11
ENDBRANCH   3   6
ENDBRANCH   1   2
BRANCH   1  28
HETATM   28  C11 UNL     1      14.411  21.184  17.888  1.00  0.00     0.039 C 
BRANCH  28  29
HETATM   29  C12 UNL     1      14.143  19.806  18.285  1.00  0.00    -0.012 C 
HETATM   30  C13 UNL     1      13.931  19.536  19.747  1.00  0.00     0.005 C 
HETATM   31  C14 UNL     1      12.881  18.411  19.795  1.00  0.00     0.000 C 
HETATM   32  C15 UNL     1      13.278  17.360  18.775  1.00  0.00     0.000 C 
HETATM   33  C16 UNL     1      14.733  17.443  18.392  1.00  0.00     0.000 C 
HETATM   34  C17 UNL     1      15.122  18.761  17.794  1.00  0.00     0.005 C 
ENDBRANCH  28  29
ENDBRANCH   1  28
BRANCH   1  35
HETATM   35  C18 UNL     1      15.494  21.953  15.923  1.00  0.00     0.244 C 
HETATM   36  O3  UNL     1      16.008  21.141  15.109  1.00  0.00    -0.271 OA
HETATM   37  N4  UNL     1      16.116  23.110  16.318  1.00  0.00    -0.325 N 
ATOM     38  H4  UNL     1      15.563  23.696  16.943  1.00  0.00     0.169 HD
BRANCH  37  39
HETATM   39  C19 UNL     1      17.441  23.645  15.997  1.00  0.00     0.063 C 
BRANCH  39  40
HETATM   40  C20 UNL     1      18.496  22.906  16.703  1.00  0.00     0.066 C 
BRANCH  40  41
HETATM   41  C21 UNL     1      18.476  22.862  18.179  1.00  0.00    -0.009 C 
HETATM   42  C22 UNL     1      18.105  21.420  18.572  1.00  0.00     0.005 C 
HETATM   43  C23 UNL     1      17.585  21.464  20.006  1.00  0.00     0.000 C 
HETATM   44  C24 UNL     1      18.723  21.881  20.881  1.00  0.00     0.000 C 
HETATM   45  C25 UNL     1      19.268  23.196  20.428  1.00  0.00     0.000 C 
HETATM   46  C26 UNL     1      19.707  23.174  18.948  1.00  0.00     0.005 C 
ENDBRANCH  40  41
ENDBRANCH  39  40
BRANCH  39  47
HETATM   47  C27 UNL     1      17.479  25.087  15.823  1.00  0.00     0.161 C 
BRANCH  47  48
HETATM   48  O4  UNL     1      16.312  25.691  15.690  1.00  0.00    -0.345 OA
ATOM     49  H4  UNL     1      15.705  25.596  16.414  1.00  0.00     0.219 HD
ENDBRANCH  47  48
BRANCH  47  50
HETATM   50  N5  UNL     1      18.544  25.949  15.756  1.00  0.00    -0.360 N 
HETATM   51  C28 UNL     1      18.692  26.524  14.349  1.00  0.00     0.125 C 
HETATM   52  C29 UNL     1      20.173  26.349  13.993  1.00  0.00     0.020 C 
HETATM   53  C30 UNL     1      21.037  27.379  14.699  1.00  0.00     0.002 C 
HETATM   54  C31 UNL     1      21.733  26.794  15.916  1.00  0.00     0.002 C 
HETATM   55  C32 UNL     1      20.832  25.870  16.717  1.00  0.00     0.020 C 
HETATM   56  C33 UNL     1      19.423  26.407  16.762  1.00  0.00     0.125 C 
ENDBRANCH  47  50
ENDBRANCH  39  47
ENDBRANCH  37  39
ENDBRANCH   1  35
TORSDOF 18
ENDMDL
MODEL 3
REMARK VINA RESULT: -9.068659288      1.994      4.601
REMARK  18 active torsions:
REMARK  status: ('A' for Active; 'I' for Inactive)
REMARK    1  A    between atoms: N1_1  and  C1_5 
REMARK    2  A    between atoms: C1_5  and  C2_6 
REMARK    3  A    between atoms: C1_5  and  C3_8 
REMARK    4  A    between atoms: C3_8  and  C4_9 
REMARK    5  A    between atoms: C3_8  and  C34_49 
REMARK    6  A    between atoms: C4_9  and  N2_10 
REMARK    7  A    between atoms: C8_14  and  C9_15 
REMARK       I    between atoms: C9_15  and  N3_17 
REMARK    8  A    between atoms: N3_17  and  C10_19 
REMARK    9  A    between atoms: C10_19  and  C11_20 
REMARK   10  A    between atoms: C10_19  and  C18_27 
REMARK   11  A    between atoms: C11_20  and  C12_21 
REMARK       I    between atoms: C18_27  and  N4_29 
REMARK   12  A    between atoms: N4_29  and  C19_31 
REMARK   13  A    between atoms: C19_31  and  C20_32 
REMARK   14  A    between atoms: C19_31  and  C27_39 
REMARK   15  A    between atoms: C20_32  and  C21_33 
REMARK   16  A    between atoms: C27_39  and  O4_40 
REMARK   17  A    between atoms: C27_39  and  N5_42 
REMARK   18  A    between atoms: C34_49  and  N6_50 
ROOT
HETATM    1  C10 UNL     1      14.684  21.408  18.813  1.00  0.00     0.177 C 
ENDROOT
BRANCH   1   2
HETATM    2  N3  UNL     1      14.004  21.494  17.570  1.00  0.00    -0.346 N 
HETATM    3  C9  UNL     1      14.687  20.944  16.429  1.00  0.00     0.241 C 
HETATM    4  O2  UNL     1      15.805  20.435  16.612  1.00  0.00    -0.271 OA
ATOM      5  H3  UNL     1      13.082  21.923  17.490  1.00  0.00     0.163 HD
BRANCH   3   6
HETATM    6  C8  UNL     1      14.123  20.961  15.069  1.00  0.00     0.175 C 
HETATM    7  N2  UNL     1      13.093  21.945  14.947  1.00  0.00    -0.380 N 
HETATM    8  C5  UNL     1      13.640  23.215  14.982  1.00  0.00     0.123 C 
HETATM    9  C6  UNL     1      15.118  23.030  14.619  1.00  0.00     0.022 C 
HETATM   10  C7  UNL     1      15.189  21.569  14.152  1.00  0.00     0.037 C 
BRANCH   7  11
HETATM   11  C4  UNL     1      11.844  21.594  14.515  1.00  0.00     0.068 C 
BRANCH  11  12
HETATM   12  C3  UNL     1      11.272  20.232  14.844  1.00  0.00     0.081 C 
BRANCH  12  13
HETATM   13  C1  UNL     1       9.841  20.432  15.369  1.00  0.00     0.254 C 
BRANCH  13  14
HETATM   14  N1  UNL     1       9.417  21.788  15.380  1.00  0.00    -0.068 N 
ATOM     15  H13 UNL     1       8.435  21.883  15.638  1.00  0.00     0.275 HD
ATOM     16  H12 UNL     1       9.823  22.312  16.156  1.00  0.00     0.275 HD
ATOM     17  H11 UNL     1       9.621  22.216  14.477  1.00  0.00     0.275 HD
ENDBRANCH  13  14
BRANCH  13  18
HETATM   18  C2  UNL     1       9.874  19.909  16.764  1.00  0.00     0.264 C 
HETATM   19  O1  UNL     1       9.568  18.786  16.997  1.00  0.00    -0.305 OA
ENDBRANCH  13  18
ENDBRANCH  12  13
BRANCH  12  20
HETATM   20  C34 UNL     1      11.354  19.238  13.740  1.00  0.00     0.162 C 
BRANCH  20  21
HETATM   21  N6  UNL     1      11.059  17.882  14.203  1.00  0.00    -0.286 N 
HETATM   22  C35 UNL     1      10.150  17.079  13.642  1.00  0.00     0.201 A 
HETATM   23  N7  UNL     1      10.137  15.910  14.311  1.00  0.00    -0.346 N 
HETATM   24  C36 UNL     1      11.051  16.006  15.293  1.00  0.00     0.198 A 
ATOM     25  H7  UNL     1       9.545  15.103  14.111  1.00  0.00     0.167 HD
HETATM   26  N8  UNL     1      11.597  17.222  15.199  1.00  0.00    -0.293 N 
ATOM     27  H8  UNL     1      12.327  17.584  15.813  1.00  0.00     0.188 HD
ENDBRANCH  20  21
ENDBRANCH  12  20
ENDBRANCH  11  12
ENDBRANCH   7  11
ENDBRANCH   3   6
ENDBRANCH   1   2
BRANCH   1  28
HETATM   28  C11 UNL     1      14.968  20.026  19.323  1.00  0.00     0.039 C 
BRANCH  28  29
HETATM   29  C12 UNL     1      13.902  19.030  19.323  1.00  0.00    -0.012 C 
HETATM   30  C13 UNL     1      13.517  18.426  20.643  1.00  0.00     0.005 C 
HETATM   31  C14 UNL     1      11.999  18.194  20.546  1.00  0.00     0.000 C 
HETATM   32  C15 UNL     1      11.709  17.565  19.196  1.00  0.00     0.000 C 
HETATM   33  C16 UNL     1      12.926  16.922  18.582  1.00  0.00     0.000 C 
HETATM   34  C17 UNL     1      14.058  17.877  18.354  1.00  0.00     0.005 C 
ENDBRANCH  28  29
ENDBRANCH   1  28
BRANCH   1  35
HETATM   35  C18 UNL     1      16.038  22.069  18.767  1.00  0.00     0.244 C 
HETATM   36  O3  UNL     1      16.994  21.466  19.320  1.00  0.00    -0.271 OA
HETATM   37  N4  UNL     1      16.180  23.281  18.141  1.00  0.00    -0.325 N 
ATOM     38  H4  UNL     1      15.332  23.628  17.693  1.00  0.00     0.169 HD
BRANCH  37  39
HETATM   39  C19 UNL     1      17.342  24.161  18.007  1.00  0.00     0.063 C 
BRANCH  39  40
HETATM   40  C20 UNL     1      18.117  23.836  16.802  1.00  0.00     0.066 C 
BRANCH  40  41
HETATM   41  C21 UNL     1      18.724  24.933  16.022  1.00  0.00    -0.009 C 
HETATM   42  C22 UNL     1      19.995  24.359  15.370  1.00  0.00     0.005 C 
HETATM   43  C23 UNL     1      20.887  25.542  15.004  1.00  0.00     0.000 C 
HETATM   44  C24 UNL     1      20.173  26.333  13.956  1.00  0.00     0.000 C 
HETATM   45  C25 UNL     1      18.831  26.758  14.455  1.00  0.00     0.000 C 
HETATM   46  C26 UNL     1      17.965  25.564  14.913  1.00  0.00     0.005 C 
ENDBRANCH  40  41
ENDBRANCH  39  40
BRANCH  39  47
HETATM   47  C27 UNL     1      17.971  24.521  19.267  1.00  0.00     0.161 C 
BRANCH  47  48
HETATM   48  O4  UNL     1      17.179  25.040  20.188  1.00  0.00    -0.345 OA
ATOM     49  H4  UNL     1      16.868  24.443  20.859  1.00  0.00     0.219 HD
ENDBRANCH  47  48
BRANCH  47  50
HETATM   50  N5  UNL     1      19.279  24.427  19.669  1.00  0.00    -0.360 N 
HETATM   51  C28 UNL     1      19.428  24.830  21.134  1.00  0.00     0.125 C 
HETATM   52  C29 UNL     1      20.598  25.821  21.165  1.00  0.00     0.020 C 
HETATM   53  C30 UNL     1      21.932  25.105  21.039  1.00  0.00     0.002 C 
HETATM   54  C31 UNL     1      22.491  25.194  19.630  1.00  0.00     0.002 C 
HETATM   55  C32 UNL     1      21.422  25.018  18.565  1.00  0.00     0.020 C 
HETATM   56  C33 UNL     1      20.423  23.968  18.981  1.00  0.00     0.125 C 
ENDBRANCH  47  50
ENDBRANCH  39  47
ENDBRANCH  37  39
ENDBRANCH   1  35
TORSDOF 18
ENDMDL
MODEL 4
REMARK VINA RESULT: -9.005748898      3.330     11.323
REMARK  18 active torsions:
REMARK  status: ('A' for Active; 'I' for Inactive)
REMARK    1  A    between atoms: N1_1  and  C1_5 
REMARK    2  A    between atoms: C1_5  and  C2_6 
REMARK    3  A    between atoms: C1_5  and  C3_8 
REMARK    4  A    between atoms: C3_8  and  C4_9 
REMARK    5  A    between atoms: C3_8  and  C34_49 
REMARK    6  A    between atoms: C4_9  and  N2_10 
REMARK    7  A    between atoms: C8_14  and  C9_15 
REMARK       I    between atoms: C9_15  and  N3_17 
REMARK    8  A    between atoms: N3_17  and  C10_19 
REMARK    9  A    between atoms: C10_19  and  C11_20 
REMARK   10  A    between atoms: C10_19  and  C18_27 
REMARK   11  A    between atoms: C11_20  and  C12_21 
REMARK       I    between atoms: C18_27  and  N4_29 
REMARK   12  A    between atoms: N4_29  and  C19_31 
REMARK   13  A    between atoms: C19_31  and  C20_32 
REMARK   14  A    between atoms: C19_31  and  C27_39 
REMARK   15  A    between atoms: C20_32  and  C21_33 
REMARK   16  A    between atoms: C27_39  and  O4_40 
REMARK   17  A    between atoms: C27_39  and  N5_42 
REMARK   18  A    between atoms: C34_49  and  N6_50 
ROOT
HETATM    1  C10 UNL     1      17.415  24.108  16.420  1.00  0.00     0.177 C 
ENDROOT
BRANCH   1   2
HETATM    2  N3  UNL     1      18.300  23.436  17.304  1.00  0.00    -0.346 N 
HETATM    3  C9  UNL     1      19.051  24.266  18.207  1.00  0.00     0.241 C 
HETATM    4  O2  UNL     1      18.872  25.493  18.154  1.00  0.00    -0.271 OA
ATOM      5  H3  UNL     1      18.398  22.421  17.299  1.00  0.00     0.163 HD
BRANCH   3   6
HETATM    6  C8  UNL     1      20.017  23.726  19.180  1.00  0.00     0.175 C 
HETATM    7  N2  UNL     1      20.035  24.504  20.380  1.00  0.00    -0.380 N 
HETATM    8  C5  UNL     1      18.864  24.312  21.090  1.00  0.00     0.123 C 
HETATM    9  C6  UNL     1      18.289  22.987  20.574  1.00  0.00     0.022 C 
HETATM   10  C7  UNL     1      19.427  22.418  19.715  1.00  0.00     0.037 C 
BRANCH   7  11
HETATM   11  C4  UNL     1      21.203  25.043  20.841  1.00  0.00     0.068 C 
BRANCH  11  12
HETATM   12  C3  UNL     1      22.077  25.877  19.929  1.00  0.00     0.081 C 
BRANCH  12  13
HETATM   13  C1  UNL     1      22.054  27.326  20.443  1.00  0.00     0.254 C 
BRANCH  13  14
HETATM   14  N1  UNL     1      21.673  27.445  21.807  1.00  0.00    -0.068 N 
ATOM     15  H13 UNL     1      21.244  28.349  22.010  1.00  0.00     0.275 HD
ATOM     16  H12 UNL     1      20.877  26.850  22.039  1.00  0.00     0.275 HD
ATOM     17  H11 UNL     1      22.479  27.260  22.403  1.00  0.00     0.275 HD
ENDBRANCH  13  14
BRANCH  13  18
HETATM   18  C2  UNL     1      21.051  28.015  19.585  1.00  0.00     0.264 C 
HETATM   19  O1  UNL     1      21.278  28.227  18.438  1.00  0.00    -0.305 OA
ENDBRANCH  13  18
ENDBRANCH  12  13
BRANCH  12  20
HETATM   20  C34 UNL     1      23.455  25.352  19.733  1.00  0.00     0.162 C 
BRANCH  20  21
HETATM   21  N6  UNL     1      24.088  25.911  18.539  1.00  0.00    -0.286 N 
HETATM   22  C35 UNL     1      25.409  26.056  18.389  1.00  0.00     0.201 A 
HETATM   23  N7  UNL     1      25.647  26.596  17.178  1.00  0.00    -0.346 N 
HETATM   24  C36 UNL     1      24.453  26.782  16.585  1.00  0.00     0.198 A 
ATOM     25  H7  UNL     1      26.560  26.823  16.783  1.00  0.00     0.167 HD
HETATM   26  N8  UNL     1      23.522  26.352  17.442  1.00  0.00    -0.293 N 
ATOM     27  H8  UNL     1      22.517  26.366  17.268  1.00  0.00     0.188 HD
ENDBRANCH  20  21
ENDBRANCH  12  20
ENDBRANCH  11  12
ENDBRANCH   7  11
ENDBRANCH   3   6
ENDBRANCH   1   2
BRANCH   1  28
HETATM   28  C11 UNL     1      17.954  24.436  15.059  1.00  0.00     0.039 C 
BRANCH  28  29
HETATM   29  C12 UNL     1      19.032  25.411  14.932  1.00  0.00    -0.012 C 
HETATM   30  C13 UNL     1      18.894  26.460  13.866  1.00  0.00     0.005 C 
HETATM   31  C14 UNL     1      19.540  27.723  14.466  1.00  0.00     0.000 C 
HETATM   32  C15 UNL     1      20.853  27.314  15.106  1.00  0.00     0.000 C 
HETATM   33  C16 UNL     1      21.372  26.001  14.581  1.00  0.00     0.000 C 
HETATM   34  C17 UNL     1      20.433  24.853  14.805  1.00  0.00     0.005 C 
ENDBRANCH  28  29
ENDBRANCH   1  28
BRANCH   1  35
HETATM   35  C18 UNL     1      16.173  23.301  16.140  1.00  0.00     0.244 C 
HETATM   36  O3  UNL     1      15.178  23.916  15.674  1.00  0.00    -0.271 OA
HETATM   37  N4  UNL     1      16.165  21.955  16.401  1.00  0.00    -0.325 N 
ATOM     38  H4  UNL     1      17.056  21.582  16.729  1.00  0.00     0.169 HD
BRANCH  37  39
HETATM   39  C19 UNL     1      15.095  20.962  16.289  1.00  0.00     0.063 C 
BRANCH  39  40
HETATM   40  C20 UNL     1      14.734  20.729  14.884  1.00  0.00     0.066 C 
BRANCH  40  41
HETATM   41  C21 UNL     1      13.356  20.312  14.557  1.00  0.00    -0.009 C 
HETATM   42  C22 UNL     1      12.507  21.596  14.502  1.00  0.00     0.005 C 
HETATM   43  C23 UNL     1      11.049  21.181  14.678  1.00  0.00     0.000 C 
HETATM   44  C24 UNL     1      10.674  20.352  13.492  1.00  0.00     0.000 C 
HETATM   45  C25 UNL     1      11.593  19.182  13.368  1.00  0.00     0.000 C 
HETATM   46  C26 UNL     1      13.077  19.602  13.284  1.00  0.00     0.005 C 
ENDBRANCH  40  41
ENDBRANCH  39  40
BRANCH  39  47
HETATM   47  C27 UNL     1      14.104  21.026  17.350  1.00  0.00     0.161 C 
BRANCH  47  48
HETATM   48  O4  UNL     1      13.802  22.231  17.796  1.00  0.00    -0.345 OA
ATOM     49  H4  UNL     1      13.050  22.651  17.395  1.00  0.00     0.219 HD
ENDBRANCH  47  48
BRANCH  47  50
HETATM   50  N5  UNL     1      13.423  20.025  17.995  1.00  0.00    -0.360 N 
HETATM   51  C28 UNL     1      14.281  19.404  19.095  1.00  0.00     0.125 C 
HETATM   52  C29 UNL     1      14.178  17.889  18.883  1.00  0.00     0.020 C 
HETATM   53  C30 UNL     1      12.843  17.352  19.371  1.00  0.00     0.002 C 
HETATM   54  C31 UNL     1      11.875  17.116  18.225  1.00  0.00     0.002 C 
HETATM   55  C32 UNL     1      11.923  18.221  17.184  1.00  0.00     0.020 C 
HETATM   56  C33 UNL     1      12.096  19.567  17.842  1.00  0.00     0.125 C 
ENDBRANCH  47  50
ENDBRANCH  39  47
ENDBRANCH  37  39
ENDBRANCH   1  35
TORSDOF 18
ENDMDL
MODEL 5
REMARK VINA RESULT: -8.973209199      4.386      9.928
REMARK  18 active torsions:
REMARK  status: ('A' for Active; 'I' for Inactive)
REMARK    1  A    between atoms: N1_1  and  C1_5 
REMARK    2  A    between atoms: C1_5  and  C2_6 
REMARK    3  A    between atoms: C1_5  and  C3_8 
REMARK    4  A    between atoms: C3_8  and  C4_9 
REMARK    5  A    between atoms: C3_8  and  C34_49 
REMARK    6  A    between atoms: C4_9  and  N2_10 
REMARK    7  A    between atoms: C8_14  and  C9_15 
REMARK       I    between atoms: C9_15  and  N3_17 
REMARK    8  A    between atoms: N3_17  and  C10_19 
REMARK    9  A    between atoms: C10_19  and  C11_20 
REMARK   10  A    between atoms: C10_19  and  C18_27 
REMARK   11  A    between atoms: C11_20  and  C12_21 
REMARK       I    between atoms: C18_27  and  N4_29 
REMARK   12  A    between atoms: N4_29  and  C19_31 
REMARK   13  A    between atoms: C19_31  and  C20_32 
REMARK   14  A    between atoms: C19_31  and  C27_39 
REMARK   15  A    between atoms: C20_32  and  C21_33 
REMARK   16  A    between atoms: C27_39  and  O4_40 
REMARK   17  A    between atoms: C27_39  and  N5_42 
REMARK   18  A    between atoms: C34_49  and  N6_50 
ROOT
HETATM    1  C10 UNL     1      21.163  26.083  19.339  1.00  0.00     0.177 C 
ENDROOT
BRANCH   1   2
HETATM    2  N3  UNL     1      19.975  25.457  18.879  1.00  0.00    -0.346 N 
HETATM    3  C9  UNL     1      19.171  24.801  19.876  1.00  0.00     0.241 C 
HETATM    4  O2  UNL     1      19.565  24.833  21.053  1.00  0.00    -0.271 OA
ATOM      5  H3  UNL     1      19.705  25.471  17.895  1.00  0.00     0.163 HD
BRANCH   3   6
HETATM    6  C8  UNL     1      17.915  24.099  19.562  1.00  0.00     0.175 C 
HETATM    7  N2  UNL     1      17.922  23.596  18.223  1.00  0.00    -0.380 N 
HETATM    8  C5  UNL     1      18.806  22.539  18.116  1.00  0.00     0.123 C 
HETATM    9  C6  UNL     1      19.006  22.030  19.549  1.00  0.00     0.022 C 
HETATM   10  C7  UNL     1      17.932  22.783  20.346  1.00  0.00     0.037 C 
BRANCH   7  11
HETATM   11  C4  UNL     1      16.927  23.935  17.349  1.00  0.00     0.068 C 
BRANCH  11  12
HETATM   12  C3  UNL     1      15.870  22.926  16.958  1.00  0.00     0.081 C 
BRANCH  12  13
HETATM   13  C1  UNL     1      14.577  23.275  17.712  1.00  0.00     0.254 C 
BRANCH  13  14
HETATM   14  N1  UNL     1      14.584  24.571  18.295  1.00  0.00    -0.068 N 
ATOM     15  H13 UNL     1      13.642  24.907  18.499  1.00  0.00     0.275 HD
ATOM     16  H12 UNL     1      14.946  24.563  19.249  1.00  0.00     0.275 HD
ATOM     17  H11 UNL     1      15.100  25.213  17.692  1.00  0.00     0.275 HD
ENDBRANCH  13  14
BRANCH  13  18
HETATM   18  C2  UNL     1      14.477  22.248  18.786  1.00  0.00     0.264 C 
HETATM   19  O1  UNL     1      14.818  21.128  18.587  1.00  0.00    -0.305 OA
ENDBRANCH  13  18
ENDBRANCH  12  13
BRANCH  12  20
HETATM   20  C34 UNL     1      15.665  22.772  15.492  1.00  0.00     0.162 C 
BRANCH  20  21
HETATM   21  N6  UNL     1      14.608  21.809  15.186  1.00  0.00    -0.286 N 
HETATM   22  C35 UNL     1      13.462  22.123  14.573  1.00  0.00     0.201 A 
HETATM   23  N7  UNL     1      12.721  21.005  14.448  1.00  0.00    -0.346 N 
HETATM   24  C36 UNL     1      13.428  19.999  14.993  1.00  0.00     0.198 A 
ATOM     25  H7  UNL     1      11.797  20.935  14.020  1.00  0.00     0.167 HD
HETATM   26  N8  UNL     1      14.576  20.523  15.433  1.00  0.00    -0.293 N 
ATOM     27  H8  UNL     1      15.318  19.998  15.895  1.00  0.00     0.188 HD
ENDBRANCH  20  21
ENDBRANCH  12  20
ENDBRANCH  11  12
ENDBRANCH   7  11
ENDBRANCH   3   6
ENDBRANCH   1   2
BRANCH   1  28
HETATM   28  C11 UNL     1      22.242  25.173  19.847  1.00  0.00     0.039 C 
BRANCH  28  29
HETATM   29  C12 UNL     1      23.028  25.572  21.010  1.00  0.00    -0.012 C 
HETATM   30  C13 UNL     1      22.713  26.901  21.634  1.00  0.00     0.005 C 
HETATM   31  C14 UNL     1      22.941  26.695  23.143  1.00  0.00     0.000 C 
HETATM   32  C15 UNL     1      24.252  25.950  23.317  1.00  0.00     0.000 C 
HETATM   33  C16 UNL     1      25.148  26.060  22.111  1.00  0.00     0.000 C 
HETATM   34  C17 UNL     1      24.533  25.516  20.856  1.00  0.00     0.005 C 
ENDBRANCH  28  29
ENDBRANCH   1  28
BRANCH   1  35
HETATM   35  C18 UNL     1      21.837  26.885  18.257  1.00  0.00     0.244 C 
HETATM   36  O3  UNL     1      21.385  28.037  18.025  1.00  0.00    -0.271 OA
HETATM   37  N4  UNL     1      22.894  26.345  17.570  1.00  0.00    -0.325 N 
ATOM     38  H4  UNL     1      23.185  25.424  17.897  1.00  0.00     0.169 HD
BRANCH  37  39
HETATM   39  C19 UNL     1      23.676  26.866  16.447  1.00  0.00     0.063 C 
BRANCH  39  40
HETATM   40  C20 UNL     1      24.879  27.564  16.919  1.00  0.00     0.066 C 
BRANCH  40  41
HETATM   41  C21 UNL     1      25.831  26.845  17.788  1.00  0.00    -0.009 C 
HETATM   42  C22 UNL     1      26.296  25.605  17.003  1.00  0.00     0.005 C 
HETATM   43  C23 UNL     1      26.847  24.608  18.019  1.00  0.00     0.000 C 
HETATM   44  C24 UNL     1      28.063  25.221  18.634  1.00  0.00     0.000 C 
HETATM   45  C25 UNL     1      27.721  26.539  19.249  1.00  0.00     0.000 C 
HETATM   46  C26 UNL     1      27.078  27.514  18.239  1.00  0.00     0.005 C 
ENDBRANCH  40  41
ENDBRANCH  39  40
BRANCH  39  47
HETATM   47  C27 UNL     1      22.877  27.350  15.333  1.00  0.00     0.161 C 
BRANCH  47  48
HETATM   48  O4  UNL     1      23.293  28.464  14.758  1.00  0.00    -0.345 OA
ATOM     49  H4  UNL     1      23.372  28.444  13.812  1.00  0.00     0.219 HD
ENDBRANCH  47  48
BRANCH  47  50
HETATM   50  N5  UNL     1      21.731  26.847  14.773  1.00  0.00    -0.360 N 
HETATM   51  C28 UNL     1      20.836  27.973  14.260  1.00  0.00     0.125 C 
HETATM   52  C29 UNL     1      19.439  27.663  14.810  1.00  0.00     0.020 C 
HETATM   53  C30 UNL     1      18.776  26.539  14.033  1.00  0.00     0.002 C 
HETATM   54  C31 UNL     1      18.860  25.214  14.772  1.00  0.00     0.002 C 
HETATM   55  C32 UNL     1      20.211  24.998  15.431  1.00  0.00     0.020 C 
HETATM   56  C33 UNL     1      21.322  25.514  14.552  1.00  0.00     0.125 C 
ENDBRANCH  47  50
ENDBRANCH  39  47
ENDBRANCH  37  39
ENDBRANCH   1  35
TORSDOF 18
ENDMDL
