MODEL 1
REMARK VINA RESULT: -7.910541985      0.000      0.000
REMARK  7 active torsions:
REMARK  status: ('A' for Active; 'I' for Inactive)
REMARK    1  A    between atoms: C2_2  and  N1_4 
REMARK    2  A    between atoms: N1_4  and  C4_5 
REMARK    3  A    between atoms: N1_4  and  C12_18 
REMARK    4  A    between atoms: C4_5  and  C5_6 
REMARK    5  A    between atoms: C5_6  and  N2_7 
REMARK    6  A    between atoms: C10_12  and  N3_13 
REMARK    7  A    between atoms: C12_18  and  C15_21 
ROOT
HETATM    1  N1  UNL     1      81.644   9.492  20.660  1.00  0.00    -0.399 N 
ENDROOT
BRANCH   1   2
HETATM    2  C2  UNL     1      81.087   8.285  21.046  1.00  0.00     0.071 C 
HETATM    3  C1  UNL     1      79.603   8.380  21.455  1.00  0.00     0.031 C 
HETATM    4  C3  UNL     1      81.193   7.051  20.218  1.00  0.00     0.031 C 
ENDBRANCH   1   2
BRANCH   1   5
HETATM    5  C4  UNL     1      80.665  10.322  20.044  1.00  0.00     0.148 C 
BRANCH   5   6
HETATM    6  C5  UNL     1      80.755  10.452  18.543  1.00  0.00     0.291 C 
BRANCH   6   7
HETATM    7  N2  UNL     1      81.856  11.343  18.186  1.00  0.00     0.092 N 
HETATM    8  C6  UNL     1      82.759  10.730  17.252  1.00  0.00     0.272 C 
HETATM    9  C7  UNL     1      84.162  11.055  17.679  1.00  0.00     0.030 C 
HETATM   10  C8  UNL     1      84.645  12.362  17.136  1.00  0.00     0.004 C 
HETATM   11  C9  UNL     1      83.744  13.521  17.534  1.00  0.00     0.034 C 
HETATM   12  C10 UNL     1      82.391  13.372  16.906  1.00  0.00     0.211 C 
HETATM   13  C11 UNL     1      81.468  12.666  17.864  1.00  0.00     0.305 C 
BRANCH  12  14
HETATM   14  N3  UNL     1      81.854  14.727  16.718  1.00  0.00    -0.073 N 
ATOM     15  H33 UNL     1      81.827  15.271  17.580  1.00  0.00     0.274 HD
ATOM     16  H32 UNL     1      82.482  15.339  16.198  1.00  0.00     0.274 HD
ATOM     17  H31 UNL     1      80.938  14.627  16.279  1.00  0.00     0.274 HD
ENDBRANCH  12  14
ENDBRANCH   6   7
ENDBRANCH   5   6
ENDBRANCH   1   5
BRANCH   1  18
HETATM   18  C12 UNL     1      82.667  10.116  21.408  1.00  0.00     0.024 C 
HETATM   19  C13 UNL     1      82.602   9.761  22.886  1.00  0.00     0.038 C 
HETATM   20  C14 UNL     1      82.507  11.619  21.365  1.00  0.00     0.038 C 
BRANCH  18  21
HETATM   21  C15 UNL     1      84.037   9.738  20.915  1.00  0.00     0.013 C 
HETATM   22  C16 UNL     1      85.085  10.813  21.096  1.00  0.00     0.007 C 
HETATM   23  C17 UNL     1      86.326  10.242  20.369  1.00  0.00     0.000 C 
HETATM   24  C18 UNL     1      86.988   9.320  21.380  1.00  0.00     0.000 C 
HETATM   25  C19 UNL     1      85.919   8.804  22.330  1.00  0.00     0.000 C 
HETATM   26  C20 UNL     1      84.626   8.523  21.588  1.00  0.00     0.007 C 
ENDBRANCH  18  21
ENDBRANCH   1  18
TORSDOF 7
ENDMDL
MODEL 2
REMARK VINA RESULT: -7.852502760      1.826      4.820
REMARK  7 active torsions:
REMARK  status: ('A' for Active; 'I' for Inactive)
REMARK    1  A    between atoms: C2_2  and  N1_4 
REMARK    2  A    between atoms: N1_4  and  C4_5 
REMARK    3  A    between atoms: N1_4  and  C12_18 
REMARK    4  A    between atoms: C4_5  and  C5_6 
REMARK    5  A    between atoms: C5_6  and  N2_7 
REMARK    6  A    between atoms: C10_12  and  N3_13 
REMARK    7  A    between atoms: C12_18  and  C15_21 
ROOT
HETATM    1  N1  UNL     1      81.751  11.497  19.084  1.00  0.00    -0.399 N 
ENDROOT
BRANCH   1   2
HETATM    2  C2  UNL     1      81.100  12.549  18.462  1.00  0.00     0.071 C 
HETATM    3  C1  UNL     1      80.326  13.469  19.427  1.00  0.00     0.031 C 
HETATM    4  C3  UNL     1      81.783  13.462  17.504  1.00  0.00     0.031 C 
ENDBRANCH   1   2
BRANCH   1   5
HETATM    5  C4  UNL     1      82.100  11.845  20.420  1.00  0.00     0.148 C 
BRANCH   5   6
HETATM    6  C5  UNL     1      83.461  12.466  20.610  1.00  0.00     0.291 C 
BRANCH   6   7
HETATM    7  N2  UNL     1      84.435  11.809  19.742  1.00  0.00     0.092 N 
HETATM    8  C6  UNL     1      85.224  12.759  19.008  1.00  0.00     0.272 C 
HETATM    9  C7  UNL     1      85.357  12.261  17.597  1.00  0.00     0.030 C 
HETATM   10  C8  UNL     1      86.506  11.320  17.421  1.00  0.00     0.004 C 
HETATM   11  C9  UNL     1      86.413  10.116  18.345  1.00  0.00     0.034 C 
HETATM   12  C10 UNL     1      86.541  10.543  19.777  1.00  0.00     0.211 C 
HETATM   13  C11 UNL     1      85.170  10.767  20.358  1.00  0.00     0.305 C 
BRANCH  12  14
HETATM   14  N3  UNL     1      87.135   9.415  20.509  1.00  0.00    -0.073 N 
ATOM     15  H33 UNL     1      86.439   8.809  20.943  1.00  0.00     0.274 HD
ATOM     16  H32 UNL     1      87.553   8.715  19.897  1.00  0.00     0.274 HD
ATOM     17  H31 UNL     1      87.795   9.810  21.179  1.00  0.00     0.274 HD
ENDBRANCH  12  14
ENDBRANCH   6   7
ENDBRANCH   5   6
ENDBRANCH   1   5
BRANCH   1  18
HETATM   18  C12 UNL     1      81.426  10.151  18.811  1.00  0.00     0.024 C 
HETATM   19  C13 UNL     1      82.476   9.465  17.950  1.00  0.00     0.038 C 
HETATM   20  C14 UNL     1      80.151  10.072  18.002  1.00  0.00     0.038 C 
BRANCH  18  21
HETATM   21  C15 UNL     1      81.278   9.340  20.070  1.00  0.00     0.013 C 
HETATM   22  C16 UNL     1      79.865   8.888  20.360  1.00  0.00     0.007 C 
HETATM   23  C17 UNL     1      79.968   8.239  21.761  1.00  0.00     0.000 C 
HETATM   24  C18 UNL     1      80.449   6.820  21.506  1.00  0.00     0.000 C 
HETATM   25  C19 UNL     1      81.250   6.811  20.213  1.00  0.00     0.000 C 
HETATM   26  C20 UNL     1      82.090   8.068  20.088  1.00  0.00     0.007 C 
ENDBRANCH  18  21
ENDBRANCH   1  18
TORSDOF 7
ENDMDL
MODEL 3
REMARK VINA RESULT: -7.754515807      1.973      4.929
REMARK  7 active torsions:
REMARK  status: ('A' for Active; 'I' for Inactive)
REMARK    1  A    between atoms: C2_2  and  N1_4 
REMARK    2  A    between atoms: N1_4  and  C4_5 
REMARK    3  A    between atoms: N1_4  and  C12_18 
REMARK    4  A    between atoms: C4_5  and  C5_6 
REMARK    5  A    between atoms: C5_6  and  N2_7 
REMARK    6  A    between atoms: C10_12  and  N3_13 
REMARK    7  A    between atoms: C12_18  and  C15_21 
ROOT
HETATM    1  N1  UNL     1      82.053  11.734  18.858  1.00  0.00    -0.399 N 
ENDROOT
BRANCH   1   2
HETATM    2  C2  UNL     1      82.157  11.782  17.478  1.00  0.00     0.071 C 
HETATM    3  C1  UNL     1      82.708  13.115  16.934  1.00  0.00     0.031 C 
HETATM    4  C3  UNL     1      82.836  10.718  16.687  1.00  0.00     0.031 C 
ENDBRANCH   1   2
BRANCH   1   5
HETATM    5  C4  UNL     1      82.818  12.776  19.453  1.00  0.00     0.148 C 
BRANCH   5   6
HETATM    6  C5  UNL     1      83.921  12.340  20.385  1.00  0.00     0.291 C 
BRANCH   6   7
HETATM    7  N2  UNL     1      84.914  11.558  19.651  1.00  0.00     0.092 N 
HETATM    8  C6  UNL     1      85.921  12.394  19.058  1.00  0.00     0.272 C 
HETATM    9  C7  UNL     1      86.189  11.885  17.670  1.00  0.00     0.030 C 
HETATM   10  C8  UNL     1      87.214  10.797  17.640  1.00  0.00     0.004 C 
HETATM   11  C9  UNL     1      86.827   9.615  18.515  1.00  0.00     0.034 C 
HETATM   12  C10 UNL     1      86.803  10.017  19.959  1.00  0.00     0.211 C 
HETATM   13  C11 UNL     1      85.405  10.425  20.343  1.00  0.00     0.305 C 
BRANCH  12  14
HETATM   14  N3  UNL     1      87.127   8.818  20.744  1.00  0.00    -0.073 N 
ATOM     15  H33 UNL     1      87.432   8.033  20.169  1.00  0.00     0.274 HD
ATOM     16  H32 UNL     1      87.981   8.916  21.293  1.00  0.00     0.274 HD
ATOM     17  H31 UNL     1      86.308   8.604  21.313  1.00  0.00     0.274 HD
ENDBRANCH  12  14
ENDBRANCH   6   7
ENDBRANCH   5   6
ENDBRANCH   1   5
BRANCH   1  18
HETATM   18  C12 UNL     1      80.864  11.331  19.504  1.00  0.00     0.024 C 
HETATM   19  C13 UNL     1      79.748  11.016  18.520  1.00  0.00     0.038 C 
HETATM   20  C14 UNL     1      80.321  12.456  20.356  1.00  0.00     0.038 C 
BRANCH  18  21
HETATM   21  C15 UNL     1      81.071  10.107  20.354  1.00  0.00     0.013 C 
HETATM   22  C16 UNL     1      79.857   9.213  20.471  1.00  0.00     0.007 C 
HETATM   23  C17 UNL     1      80.283   8.149  21.510  1.00  0.00     0.000 C 
HETATM   24  C18 UNL     1      81.064   7.112  20.719  1.00  0.00     0.000 C 
HETATM   25  C19 UNL     1      81.681   7.798  19.510  1.00  0.00     0.000 C 
HETATM   26  C20 UNL     1      82.166   9.190  19.866  1.00  0.00     0.007 C 
ENDBRANCH  18  21
ENDBRANCH   1  18
TORSDOF 7
ENDMDL
MODEL 4
REMARK VINA RESULT: -7.730733489      1.450      2.802
REMARK  7 active torsions:
REMARK  status: ('A' for Active; 'I' for Inactive)
REMARK    1  A    between atoms: C2_2  and  N1_4 
REMARK    2  A    between atoms: N1_4  and  C4_5 
REMARK    3  A    between atoms: N1_4  and  C12_18 
REMARK    4  A    between atoms: C4_5  and  C5_6 
REMARK    5  A    between atoms: C5_6  and  N2_7 
REMARK    6  A    between atoms: C10_12  and  N3_13 
REMARK    7  A    between atoms: C12_18  and  C15_21 
ROOT
HETATM    1  N1  UNL     1      83.459  10.733  21.107  1.00  0.00    -0.399 N 
ENDROOT
BRANCH   1   2
HETATM    2  C2  UNL     1      83.102   9.511  21.651  1.00  0.00     0.071 C 
HETATM    3  C1  UNL     1      82.170   9.616  22.875  1.00  0.00     0.031 C 
HETATM    4  C3  UNL     1      82.554   8.396  20.829  1.00  0.00     0.031 C 
ENDBRANCH   1   2
BRANCH   1   5
HETATM    5  C4  UNL     1      82.612  11.766  21.597  1.00  0.00     0.148 C 
BRANCH   5   6
HETATM    6  C5  UNL     1      81.457  12.155  20.708  1.00  0.00     0.291 C 
BRANCH   6   7
HETATM    7  N2  UNL     1      81.826  11.979  19.305  1.00  0.00     0.092 N 
HETATM    8  C6  UNL     1      81.002  10.998  18.654  1.00  0.00     0.272 C 
HETATM    9  C7  UNL     1      81.888  10.141  17.796  1.00  0.00     0.030 C 
HETATM   10  C8  UNL     1      82.108  10.717  16.434  1.00  0.00     0.004 C 
HETATM   11  C9  UNL     1      82.703  12.116  16.487  1.00  0.00     0.034 C 
HETATM   12  C10 UNL     1      81.732  13.075  17.108  1.00  0.00     0.211 C 
HETATM   13  C11 UNL     1      82.009  13.184  18.584  1.00  0.00     0.305 C 
BRANCH  12  14
HETATM   14  N3  UNL     1      82.004  14.398  16.526  1.00  0.00    -0.073 N 
ATOM     15  H33 UNL     1      82.748  14.902  17.007  1.00  0.00     0.274 HD
ATOM     16  H32 UNL     1      82.452  14.348  15.611  1.00  0.00     0.274 HD
ATOM     17  H31 UNL     1      81.119  14.904  16.513  1.00  0.00     0.274 HD
ENDBRANCH  12  14
ENDBRANCH   6   7
ENDBRANCH   5   6
ENDBRANCH   1   5
BRANCH   1  18
HETATM   18  C12 UNL     1      84.802  11.057  20.817  1.00  0.00     0.024 C 
HETATM   19  C13 UNL     1      85.776  10.008  21.334  1.00  0.00     0.038 C 
HETATM   20  C14 UNL     1      85.199  12.333  21.525  1.00  0.00     0.038 C 
BRANCH  18  21
HETATM   21  C15 UNL     1      85.042  11.203  19.339  1.00  0.00     0.013 C 
HETATM   22  C16 UNL     1      85.893  12.393  18.957  1.00  0.00     0.007 C 
HETATM   23  C17 UNL     1      85.840  12.401  17.411  1.00  0.00     0.000 C 
HETATM   24  C18 UNL     1      86.902  11.405  16.972  1.00  0.00     0.000 C 
HETATM   25  C19 UNL     1      87.074  10.372  18.075  1.00  0.00     0.000 C 
HETATM   26  C20 UNL     1      85.738  10.024  18.704  1.00  0.00     0.007 C 
ENDBRANCH  18  21
ENDBRANCH   1  18
TORSDOF 7
ENDMDL
MODEL 5
REMARK VINA RESULT: -7.651753599      1.953      4.712
REMARK  7 active torsions:
REMARK  status: ('A' for Active; 'I' for Inactive)
REMARK    1  A    between atoms: C2_2  and  N1_4 
REMARK    2  A    between atoms: N1_4  and  C4_5 
REMARK    3  A    between atoms: N1_4  and  C12_18 
REMARK    4  A    between atoms: C4_5  and  C5_6 
REMARK    5  A    between atoms: C5_6  and  N2_7 
REMARK    6  A    between atoms: C10_12  and  N3_13 
REMARK    7  A    between atoms: C12_18  and  C15_21 
ROOT
HETATM    1  N1  UNL     1      81.604   9.836  19.997  1.00  0.00    -0.399 N 
ENDROOT
BRANCH   1   2
HETATM    2  C2  UNL     1      80.572   9.976  20.909  1.00  0.00     0.071 C 
HETATM    3  C1  UNL     1      80.152   8.659  21.592  1.00  0.00     0.031 C 
HETATM    4  C3  UNL     1      80.592  10.997  21.993  1.00  0.00     0.031 C 
ENDBRANCH   1   2
BRANCH   1   5
HETATM    5  C4  UNL     1      82.434   8.733  20.346  1.00  0.00     0.148 C 
BRANCH   5   6
HETATM    6  C5  UNL     1      83.736   9.073  21.028  1.00  0.00     0.291 C 
BRANCH   6   7
HETATM    7  N2  UNL     1      84.264  10.327  20.497  1.00  0.00     0.092 N 
HETATM    8  C6  UNL     1      84.509  11.287  21.538  1.00  0.00     0.272 C 
HETATM    9  C7  UNL     1      84.028  12.627  21.058  1.00  0.00     0.030 C 
HETATM   10  C8  UNL     1      85.062  13.365  20.269  1.00  0.00     0.004 C 
HETATM   11  C9  UNL     1      85.546  12.571  19.065  1.00  0.00     0.034 C 
HETATM   12  C10 UNL     1      86.274  11.338  19.508  1.00  0.00     0.211 C 
HETATM   13  C11 UNL     1      85.313  10.179  19.559  1.00  0.00     0.305 C 
BRANCH  12  14
HETATM   14  N3  UNL     1      87.263  11.026  18.466  1.00  0.00    -0.073 N 
ATOM     15  H33 UNL     1      88.008  10.412  18.793  1.00  0.00     0.274 HD
ATOM     16  H32 UNL     1      86.898  10.412  17.739  1.00  0.00     0.274 HD
ATOM     17  H31 UNL     1      87.606  11.916  18.106  1.00  0.00     0.274 HD
ENDBRANCH  12  14
ENDBRANCH   6   7
ENDBRANCH   5   6
ENDBRANCH   1   5
BRANCH   1  18
HETATM   18  C12 UNL     1      81.435  10.131  18.626  1.00  0.00     0.024 C 
HETATM   19  C13 UNL     1      79.970  10.256  18.237  1.00  0.00     0.038 C 
HETATM   20  C14 UNL     1      81.966   9.000  17.776  1.00  0.00     0.038 C 
BRANCH  18  21
HETATM   21  C15 UNL     1      82.114  11.417  18.239  1.00  0.00     0.013 C 
HETATM   22  C16 UNL     1      82.373  11.566  16.757  1.00  0.00     0.007 C 
HETATM   23  C17 UNL     1      83.210  12.864  16.659  1.00  0.00     0.000 C 
HETATM   24  C18 UNL     1      82.193  13.994  16.671  1.00  0.00     0.000 C 
HETATM   25  C19 UNL     1      80.958  13.518  17.422  1.00  0.00     0.000 C 
HETATM   26  C20 UNL     1      81.345  12.661  18.612  1.00  0.00     0.007 C 
ENDBRANCH  18  21
ENDBRANCH   1  18
TORSDOF 7
ENDMDL
