MODEL 1
REMARK VINA RESULT: -8.623861061      0.000      0.000
REMARK  6 active torsions:
REMARK  status: ('A' for Active; 'I' for Inactive)
REMARK    1  A    between atoms: O1_2  and  C2_3 
REMARK    2  A    between atoms: C2_3  and  C3_4 
REMARK    3  A    between atoms: C3_4  and  O2_5 
REMARK    4  A    between atoms: O2_5  and  C4_6 
REMARK    5  A    between atoms: C20_22  and  C21_23 
REMARK    6  A    between atoms: C21_23  and  O3_24 
ROOT
HETATM    1  C4  UNL     1      81.396  11.943  18.160  1.00  0.00     0.132 C 
HETATM    2  C5  UNL     1      81.516  10.701  17.279  1.00  0.00     0.023 C 
HETATM    3  C6  UNL     1      80.444   9.721  17.688  1.00  0.00     0.013 C 
HETATM    4  C7  UNL     1      81.414   9.318  18.808  1.00  0.00    -0.000 C 
HETATM    5  C8  UNL     1      82.506   9.778  17.829  1.00  0.00     0.019 C 
HETATM    6  C9  UNL     1      83.711  10.120  18.548  1.00  0.00    -0.017 C 
HETATM    7  C10 UNL     1      83.826  10.350  19.840  1.00  0.00    -0.067 C 
HETATM    8  C11 UNL     1      85.140  10.677  20.455  1.00  0.00    -0.024 C 
HETATM    9  C12 UNL     1      85.349  12.039  20.955  1.00  0.00     0.019 C 
HETATM   10  C13 UNL     1      86.274  10.402  19.445  1.00  0.00     0.019 C 
HETATM   11  C14 UNL     1      85.320   9.624  21.552  1.00  0.00     0.013 C 
HETATM   12  C15 UNL     1      84.324   8.518  21.505  1.00  0.00     0.002 C 
HETATM   13  C16 UNL     1      82.876   8.870  21.457  1.00  0.00     0.014 C 
HETATM   14  C17 UNL     1      82.656  10.238  20.753  1.00  0.00    -0.016 C 
HETATM   15  C18 UNL     1      82.639  11.176  21.928  1.00  0.00     0.020 C 
HETATM   16  C19 UNL     1      81.401  10.233  19.979  1.00  0.00     0.011 C 
HETATM   17  C20 UNL     1      80.870  11.538  19.498  1.00  0.00     0.044 C 
ENDROOT
BRANCH   1  18
HETATM   18  O2  UNL     1      80.819  12.976  17.533  1.00  0.00    -0.383 OA
BRANCH  18  19
HETATM   19  C3  UNL     1      81.502  14.020  17.052  1.00  0.00     0.194 C 
BRANCH  19  20
HETATM   20  C2  UNL     1      82.757  13.785  16.267  1.00  0.00     0.193 C 
BRANCH  20  21
HETATM   21  O1  UNL     1      83.918  14.210  16.888  1.00  0.00    -0.394 OA
HETATM   22  C1  UNL     1      84.742  13.216  17.348  1.00  0.00     0.201 C 
ENDBRANCH  20  21
ENDBRANCH  19  20
ENDBRANCH  18  19
ENDBRANCH   1  18
BRANCH  17  23
HETATM   23  C21 UNL     1      80.712  12.701  20.362  1.00  0.00     0.171 C 
BRANCH  23  24
HETATM   24  O3  UNL     1      81.906  13.493  20.186  1.00  0.00    -0.400 OA
ATOM     25  H3  UNL     1      82.538  13.155  20.810  1.00  0.00     0.209 HD
ENDBRANCH  23  24
ENDBRANCH  17  23
TORSDOF 6
ENDMDL
MODEL 2
REMARK VINA RESULT: -8.609059846      1.883      3.621
REMARK  6 active torsions:
REMARK  status: ('A' for Active; 'I' for Inactive)
REMARK    1  A    between atoms: O1_2  and  C2_3 
REMARK    2  A    between atoms: C2_3  and  C3_4 
REMARK    3  A    between atoms: C3_4  and  O2_5 
REMARK    4  A    between atoms: O2_5  and  C4_6 
REMARK    5  A    between atoms: C20_22  and  C21_23 
REMARK    6  A    between atoms: C21_23  and  O3_24 
ROOT
HETATM    1  C4  UNL     1      84.022  12.030  17.914  1.00  0.00     0.132 C 
HETATM    2  C5  UNL     1      82.831  11.828  16.979  1.00  0.00     0.023 C 
HETATM    3  C6  UNL     1      81.936  13.039  17.078  1.00  0.00     0.013 C 
HETATM    4  C7  UNL     1      81.372  12.365  18.337  1.00  0.00    -0.000 C 
HETATM    5  C8  UNL     1      81.784  11.056  17.645  1.00  0.00     0.019 C 
HETATM    6  C9  UNL     1      81.962  10.008  18.622  1.00  0.00    -0.017 C 
HETATM    7  C10 UNL     1      82.099  10.152  19.925  1.00  0.00    -0.067 C 
HETATM    8  C11 UNL     1      82.258   8.977  20.822  1.00  0.00    -0.024 C 
HETATM    9  C12 UNL     1      83.560   8.768  21.463  1.00  0.00     0.019 C 
HETATM   10  C13 UNL     1      81.938   7.680  20.048  1.00  0.00     0.019 C 
HETATM   11  C14 UNL     1      81.127   9.121  21.844  1.00  0.00     0.013 C 
HETATM   12  C15 UNL     1      80.128  10.171  21.503  1.00  0.00     0.002 C 
HETATM   13  C16 UNL     1      80.621  11.543  21.186  1.00  0.00     0.014 C 
HETATM   14  C17 UNL     1      82.046  11.495  20.565  1.00  0.00    -0.016 C 
HETATM   15  C18 UNL     1      82.906  11.684  21.783  1.00  0.00     0.020 C 
HETATM   16  C19 UNL     1      82.210  12.553  19.551  1.00  0.00     0.011 C 
HETATM   17  C20 UNL     1      83.588  12.860  19.078  1.00  0.00     0.044 C 
ENDROOT
BRANCH   1  18
HETATM   18  O2  UNL     1      85.143  12.373  17.267  1.00  0.00    -0.383 OA
BRANCH  18  19
HETATM   19  C3  UNL     1      86.216  11.581  17.181  1.00  0.00     0.194 C 
BRANCH  19  20
HETATM   20  C2  UNL     1      86.325  10.384  18.078  1.00  0.00     0.193 C 
BRANCH  20  21
HETATM   21  O1  UNL     1      87.029  10.598  19.249  1.00  0.00    -0.394 OA
HETATM   22  C1  UNL     1      86.789   9.700  20.257  1.00  0.00     0.201 C 
ENDBRANCH  20  21
ENDBRANCH  19  20
ENDBRANCH  18  19
ENDBRANCH   1  18
BRANCH  17  23
HETATM   23  C21 UNL     1      84.706  13.102  19.981  1.00  0.00     0.171 C 
BRANCH  23  24
HETATM   24  O3  UNL     1      84.608  14.488  20.372  1.00  0.00    -0.400 OA
ATOM     25  H3  UNL     1      84.528  14.982  19.565  1.00  0.00     0.209 HD
ENDBRANCH  23  24
ENDBRANCH  17  23
TORSDOF 6
ENDMDL
MODEL 3
REMARK VINA RESULT: -8.416940223      2.436      4.937
REMARK  6 active torsions:
REMARK  status: ('A' for Active; 'I' for Inactive)
REMARK    1  A    between atoms: O1_2  and  C2_3 
REMARK    2  A    between atoms: C2_3  and  C3_4 
REMARK    3  A    between atoms: C3_4  and  O2_5 
REMARK    4  A    between atoms: O2_5  and  C4_6 
REMARK    5  A    between atoms: C20_22  and  C21_23 
REMARK    6  A    between atoms: C21_23  and  O3_24 
ROOT
HETATM    1  C4  UNL     1      81.753   9.761  21.833  1.00  0.00     0.132 C 
HETATM    2  C5  UNL     1      80.400   9.276  21.315  1.00  0.00     0.023 C 
HETATM    3  C6  UNL     1      80.559   7.858  20.824  1.00  0.00     0.013 C 
HETATM    4  C7  UNL     1      81.096   8.496  19.535  1.00  0.00    -0.000 C 
HETATM    5  C8  UNL     1      80.208   9.688  19.926  1.00  0.00     0.019 C 
HETATM    6  C9  UNL     1      80.688  10.897  19.301  1.00  0.00    -0.017 C 
HETATM    7  C10 UNL     1      81.871  11.092  18.754  1.00  0.00    -0.067 C 
HETATM    8  C11 UNL     1      82.230  12.391  18.126  1.00  0.00    -0.024 C 
HETATM    9  C12 UNL     1      83.233  13.227  18.792  1.00  0.00     0.019 C 
HETATM   10  C13 UNL     1      80.966  13.264  17.969  1.00  0.00     0.019 C 
HETATM   11  C14 UNL     1      82.641  12.024  16.697  1.00  0.00     0.013 C 
HETATM   12  C15 UNL     1      82.332  10.618  16.317  1.00  0.00     0.002 C 
HETATM   13  C16 UNL     1      82.802   9.522  17.213  1.00  0.00     0.014 C 
HETATM   14  C17 UNL     1      82.883  10.002  18.689  1.00  0.00    -0.016 C 
HETATM   15  C18 UNL     1      84.322  10.426  18.784  1.00  0.00     0.020 C 
HETATM   16  C19 UNL     1      82.521   8.912  19.614  1.00  0.00     0.011 C 
HETATM   17  C20 UNL     1      82.838   9.087  21.058  1.00  0.00     0.044 C 
ENDROOT
BRANCH   1  18
HETATM   18  O2  UNL     1      81.830   9.766  23.170  1.00  0.00    -0.383 OA
BRANCH  18  19
HETATM   19  C3  UNL     1      81.703  10.871  23.912  1.00  0.00     0.194 C 
BRANCH  19  20
HETATM   20  C2  UNL     1      82.075  12.201  23.327  1.00  0.00     0.193 C 
BRANCH  20  21
HETATM   21  O1  UNL     1      81.043  13.120  23.272  1.00  0.00    -0.394 OA
HETATM   22  C1  UNL     1      79.883  12.674  22.691  1.00  0.00     0.201 C 
ENDBRANCH  20  21
ENDBRANCH  19  20
ENDBRANCH  18  19
ENDBRANCH   1  18
BRANCH  17  23
HETATM   23  C21 UNL     1      84.149   9.501  21.543  1.00  0.00     0.171 C 
BRANCH  23  24
HETATM   24  O3  UNL     1      84.887   8.284  21.781  1.00  0.00    -0.400 OA
ATOM     25  H3  UNL     1      84.833   8.124  22.716  1.00  0.00     0.209 HD
ENDBRANCH  23  24
ENDBRANCH  17  23
TORSDOF 6
ENDMDL
MODEL 4
REMARK VINA RESULT: -8.361408089      1.435      3.782
REMARK  6 active torsions:
REMARK  status: ('A' for Active; 'I' for Inactive)
REMARK    1  A    between atoms: O1_2  and  C2_3 
REMARK    2  A    between atoms: C2_3  and  C3_4 
REMARK    3  A    between atoms: C3_4  and  O2_5 
REMARK    4  A    between atoms: O2_5  and  C4_6 
REMARK    5  A    between atoms: C20_22  and  C21_23 
REMARK    6  A    between atoms: C21_23  and  O3_24 
ROOT
HETATM    1  C4  UNL     1      84.291  12.022  18.559  1.00  0.00     0.132 C 
HETATM    2  C5  UNL     1      85.502  12.121  19.485  1.00  0.00     0.023 C 
HETATM    3  C6  UNL     1      86.204  10.784  19.497  1.00  0.00     0.013 C 
HETATM    4  C7  UNL     1      85.143  10.378  20.530  1.00  0.00    -0.000 C 
HETATM    5  C8  UNL     1      85.108  11.876  20.870  1.00  0.00     0.019 C 
HETATM    6  C9  UNL     1      83.851  12.219  21.492  1.00  0.00    -0.017 C 
HETATM    7  C10 UNL     1      82.745  11.503  21.493  1.00  0.00    -0.067 C 
HETATM    8  C11 UNL     1      81.519  11.972  22.193  1.00  0.00    -0.024 C 
HETATM    9  C12 UNL     1      80.369  12.374  21.378  1.00  0.00     0.019 C 
HETATM   10  C13 UNL     1      81.860  13.177  23.095  1.00  0.00     0.019 C 
HETATM   11  C14 UNL     1      81.173  10.835  23.159  1.00  0.00     0.013 C 
HETATM   12  C15 UNL     1      82.234   9.798  23.283  1.00  0.00     0.002 C 
HETATM   13  C16 UNL     1      82.768   9.177  22.037  1.00  0.00     0.014 C 
HETATM   14  C17 UNL     1      82.687  10.167  20.840  1.00  0.00    -0.016 C 
HETATM   15  C18 UNL     1      81.369   9.783  20.228  1.00  0.00     0.020 C 
HETATM   16  C19 UNL     1      83.837   9.988  19.935  1.00  0.00     0.011 C 
HETATM   17  C20 UNL     1      83.773  10.621  18.590  1.00  0.00     0.044 C 
ENDROOT
BRANCH   1  18
HETATM   18  O2  UNL     1      84.492  12.603  17.370  1.00  0.00    -0.383 OA
BRANCH  18  19
HETATM   19  C3  UNL     1      83.985  13.795  17.037  1.00  0.00     0.194 C 
BRANCH  19  20
HETATM   20  C2  UNL     1      82.743  13.863  16.200  1.00  0.00     0.193 C 
BRANCH  20  21
HETATM   21  O1  UNL     1      81.621  14.329  16.861  1.00  0.00    -0.394 OA
HETATM   22  C1  UNL     1      81.136  13.514  17.851  1.00  0.00     0.201 C 
ENDBRANCH  20  21
ENDBRANCH  19  20
ENDBRANCH  18  19
ENDBRANCH   1  18
BRANCH  17  23
HETATM   23  C21 UNL     1      82.632  10.476  17.694  1.00  0.00     0.171 C 
BRANCH  23  24
HETATM   24  O3  UNL     1      83.184  10.257  16.379  1.00  0.00    -0.400 OA
ATOM     25  H3  UNL     1      82.443  10.091  15.808  1.00  0.00     0.209 HD
ENDBRANCH  23  24
ENDBRANCH  17  23
TORSDOF 6
ENDMDL
MODEL 5
REMARK VINA RESULT: -8.311901695      2.527      4.698
REMARK  6 active torsions:
REMARK  status: ('A' for Active; 'I' for Inactive)
REMARK    1  A    between atoms: O1_2  and  C2_3 
REMARK    2  A    between atoms: C2_3  and  C3_4 
REMARK    3  A    between atoms: C3_4  and  O2_5 
REMARK    4  A    between atoms: O2_5  and  C4_6 
REMARK    5  A    between atoms: C20_22  and  C21_23 
REMARK    6  A    between atoms: C21_23  and  O3_24 
ROOT
HETATM    1  C4  UNL     1      85.528  11.206  19.358  1.00  0.00     0.132 C 
HETATM    2  C5  UNL     1      84.973  12.609  19.120  1.00  0.00     0.023 C 
HETATM    3  C6  UNL     1      85.158  13.415  20.382  1.00  0.00     0.013 C 
HETATM    4  C7  UNL     1      83.873  12.725  20.862  1.00  0.00    -0.000 C 
HETATM    5  C8  UNL     1      83.533  12.637  19.366  1.00  0.00     0.019 C 
HETATM    6  C9  UNL     1      82.588  11.572  19.129  1.00  0.00    -0.017 C 
HETATM    7  C10 UNL     1      82.283  10.585  19.947  1.00  0.00    -0.067 C 
HETATM    8  C11 UNL     1      81.270   9.559  19.580  1.00  0.00    -0.024 C 
HETATM    9  C12 UNL     1      81.735   8.196  19.311  1.00  0.00     0.019 C 
HETATM   10  C13 UNL     1      80.495  10.014  18.325  1.00  0.00     0.019 C 
HETATM   11  C14 UNL     1      80.248   9.607  20.719  1.00  0.00     0.013 C 
HETATM   12  C15 UNL     1      80.424  10.758  21.647  1.00  0.00     0.002 C 
HETATM   13  C16 UNL     1      81.771  10.987  22.246  1.00  0.00     0.014 C 
HETATM   14  C17 UNL     1      82.896  10.483  21.299  1.00  0.00    -0.016 C 
HETATM   15  C18 UNL     1      83.121   9.092  21.822  1.00  0.00     0.020 C 
HETATM   16  C19 UNL     1      84.084  11.352  21.390  1.00  0.00     0.011 C 
HETATM   17  C20 UNL     1      85.359  10.857  20.801  1.00  0.00     0.044 C 
ENDROOT
BRANCH   1  18
HETATM   18  O2  UNL     1      86.725  11.013  18.790  1.00  0.00    -0.383 OA
BRANCH  18  19
HETATM   19  C3  UNL     1      87.367  11.951  18.086  1.00  0.00     0.194 C 
BRANCH  19  20
HETATM   20  C2  UNL     1      87.349  11.891  16.588  1.00  0.00     0.193 C 
BRANCH  20  21
HETATM   21  O1  UNL     1      87.080  10.642  16.059  1.00  0.00    -0.394 OA
HETATM   22  C1  UNL     1      88.165   9.819  15.901  1.00  0.00     0.201 C 
ENDBRANCH  20  21
ENDBRANCH  19  20
ENDBRANCH  18  19
ENDBRANCH   1  18
BRANCH  17  23
HETATM   23  C21 UNL     1      85.904   9.534  21.077  1.00  0.00     0.171 C 
BRANCH  23  24
HETATM   24  O3  UNL     1      87.339   9.686  21.070  1.00  0.00    -0.400 OA
ATOM     25  H3  UNL     1      87.636   9.410  21.929  1.00  0.00     0.209 HD
ENDBRANCH  23  24
ENDBRANCH  17  23
TORSDOF 6
ENDMDL
