MODEL 1
REMARK VINA RESULT: -7.895291274      0.000      0.000
REMARK  5 active torsions:
REMARK  status: ('A' for Active; 'I' for Inactive)
REMARK    1  A    between atoms: C1_2  and  C2_3 
REMARK       I    between atoms: C1_2  and  N2_16 
REMARK    2  A    between atoms: C2_3  and  C3_4 
REMARK    3  A    between atoms: C3_4  and  C4_5 
REMARK    4  A    between atoms: C4_5  and  C5_6 
REMARK    5  A    between atoms: C5_6  and  N1_7 
ROOT
HETATM    1  C2  UNL     1      82.793  13.429  18.154  1.00  0.00     0.103 C 
ENDROOT
BRANCH   1   2
HETATM    2  C1  UNL     1      84.026  13.342  17.361  1.00  0.00     0.223 C 
HETATM    3  O1  UNL     1      84.399  14.354  16.671  1.00  0.00    -0.273 OA
HETATM    4  N2  UNL     1      84.834  12.174  17.328  1.00  0.00    -0.308 N 
HETATM    5  C14 UNL     1      85.475  11.803  18.354  1.00  0.00     0.142 C 
ATOM      6  H2  UNL     1      84.898  11.629  16.468  1.00  0.00     0.171 HD
HETATM    7  N3  UNL     1      85.426  12.518  19.574  1.00  0.00    -0.371 N 
HETATM    8  S1  UNL     1      86.514  10.318  18.337  1.00  0.00    -0.094 SA
HETATM    9  C15 UNL     1      85.469  11.904  20.888  1.00  0.00     0.122 C 
ATOM     10  H3  UNL     1      85.355  13.534  19.526  1.00  0.00     0.161 HD
HETATM   11  C16 UNL     1      85.579  10.416  20.841  1.00  0.00     0.030 C 
HETATM   12  C17 UNL     1      86.838   9.959  20.108  1.00  0.00     0.084 C 
ENDBRANCH   1   2
BRANCH   1  13
HETATM   13  C3  UNL     1      81.540  13.071  17.431  1.00  0.00     0.011 C 
BRANCH  13  14
HETATM   14  C4  UNL     1      81.286  11.580  17.344  1.00  0.00     0.031 C 
BRANCH  14  15
HETATM   15  C5  UNL     1      80.165  11.259  18.306  1.00  0.00     0.272 C 
BRANCH  15  16
HETATM   16  N1  UNL     1      80.574  10.465  19.441  1.00  0.00     0.088 N 
HETATM   17  C6  UNL     1      80.148   9.149  19.283  1.00  0.00     0.272 C 
HETATM   18  C7  UNL     1      80.322   8.220  20.454  1.00  0.00     0.030 C 
HETATM   19  C8  UNL     1      81.740   7.769  20.638  1.00  0.00     0.002 C 
HETATM   20  C9  UNL     1      82.663   8.791  21.216  1.00  0.00     0.000 C 
HETATM   21  C10 UNL     1      82.210   9.427  22.471  1.00  0.00     0.000 C 
HETATM   22  C11 UNL     1      82.141  10.900  22.491  1.00  0.00     0.002 C 
HETATM   23  C12 UNL     1      81.760  11.578  21.218  1.00  0.00     0.030 C 
HETATM   24  C13 UNL     1      80.405  11.113  20.687  1.00  0.00     0.272 C 
ENDBRANCH  15  16
ENDBRANCH  14  15
ENDBRANCH  13  14
ENDBRANCH   1  13
TORSDOF 5
ENDMDL
MODEL 2
REMARK VINA RESULT: -7.643603468      1.934      4.252
REMARK  5 active torsions:
REMARK  status: ('A' for Active; 'I' for Inactive)
REMARK    1  A    between atoms: C1_2  and  C2_3 
REMARK       I    between atoms: C1_2  and  N2_16 
REMARK    2  A    between atoms: C2_3  and  C3_4 
REMARK    3  A    between atoms: C3_4  and  C4_5 
REMARK    4  A    between atoms: C4_5  and  C5_6 
REMARK    5  A    between atoms: C5_6  and  N1_7 
ROOT
HETATM    1  C2  UNL     1      86.084  10.071  18.432  1.00  0.00     0.103 C 
ENDROOT
BRANCH   1   2
HETATM    2  C1  UNL     1      86.239  11.054  17.351  1.00  0.00     0.223 C 
HETATM    3  O1  UNL     1      87.018  10.787  16.371  1.00  0.00    -0.273 OA
HETATM    4  N2  UNL     1      85.552  12.298  17.343  1.00  0.00    -0.308 N 
HETATM    5  C14 UNL     1      84.296  12.341  17.194  1.00  0.00     0.142 C 
ATOM      6  H2  UNL     1      86.078  13.164  17.459  1.00  0.00     0.171 HD
HETATM    7  N3  UNL     1      83.515  11.174  17.029  1.00  0.00    -0.371 N 
HETATM    8  S1  UNL     1      83.398  13.915  17.179  1.00  0.00    -0.094 SA
HETATM    9  C15 UNL     1      82.171  11.005  17.549  1.00  0.00     0.122 C 
ATOM     10  H3  UNL     1      83.925  10.397  16.510  1.00  0.00     0.161 HD
HETATM   11  C16 UNL     1      81.668  12.202  18.285  1.00  0.00     0.030 C 
HETATM   12  C17 UNL     1      81.637  13.445  17.399  1.00  0.00     0.084 C 
ENDBRANCH   1   2
BRANCH   1  13
HETATM   13  C3  UNL     1      86.761  10.417  19.714  1.00  0.00     0.011 C 
BRANCH  13  14
HETATM   14  C4  UNL     1      85.861  10.320  20.929  1.00  0.00     0.031 C 
BRANCH  14  15
HETATM   15  C5  UNL     1      84.717  11.285  20.718  1.00  0.00     0.272 C 
BRANCH  15  16
HETATM   16  N1  UNL     1      83.432  10.773  21.132  1.00  0.00     0.088 N 
HETATM   17  C6  UNL     1      82.808  11.677  21.987  1.00  0.00     0.272 C 
HETATM   18  C7  UNL     1      81.544  11.228  22.667  1.00  0.00     0.030 C 
HETATM   19  C8  UNL     1      80.355  11.229  21.753  1.00  0.00     0.002 C 
HETATM   20  C9  UNL     1      80.310  10.109  20.765  1.00  0.00     0.000 C 
HETATM   21  C10 UNL     1      80.464   8.752  21.329  1.00  0.00     0.000 C 
HETATM   22  C11 UNL     1      81.534   7.907  20.766  1.00  0.00     0.002 C 
HETATM   23  C12 UNL     1      82.782   8.597  20.327  1.00  0.00     0.030 C 
HETATM   24  C13 UNL     1      83.439   9.395  21.452  1.00  0.00     0.272 C 
ENDBRANCH  15  16
ENDBRANCH  14  15
ENDBRANCH  13  14
ENDBRANCH   1  13
TORSDOF 5
ENDMDL
MODEL 3
REMARK VINA RESULT: -7.422338383      1.349      2.304
REMARK  5 active torsions:
REMARK  status: ('A' for Active; 'I' for Inactive)
REMARK    1  A    between atoms: C1_2  and  C2_3 
REMARK       I    between atoms: C1_2  and  N2_16 
REMARK    2  A    between atoms: C2_3  and  C3_4 
REMARK    3  A    between atoms: C3_4  and  C4_5 
REMARK    4  A    between atoms: C4_5  and  C5_6 
REMARK    5  A    between atoms: C5_6  and  N1_7 
ROOT
HETATM    1  C2  UNL     1      81.626  13.820  17.805  1.00  0.00     0.103 C 
ENDROOT
BRANCH   1   2
HETATM    2  C1  UNL     1      82.685  13.495  16.840  1.00  0.00     0.223 C 
HETATM    3  O1  UNL     1      82.838  14.235  15.806  1.00  0.00    -0.273 OA
HETATM    4  N2  UNL     1      83.558  12.387  17.007  1.00  0.00    -0.308 N 
HETATM    5  C14 UNL     1      84.413  12.373  17.941  1.00  0.00     0.142 C 
ATOM      6  H2  UNL     1      83.495  11.595  16.368  1.00  0.00     0.171 HD
HETATM    7  N3  UNL     1      84.546  13.442  18.857  1.00  0.00    -0.371 N 
HETATM    8  S1  UNL     1      85.539  10.972  18.173  1.00  0.00    -0.094 SA
HETATM    9  C15 UNL     1      84.890  13.284  20.258  1.00  0.00     0.122 C 
ATOM     10  H3  UNL     1      84.390  14.388  18.510  1.00  0.00     0.161 HD
HETATM   11  C16 UNL     1      85.103  11.862  20.657  1.00  0.00     0.030 C 
HETATM   12  C17 UNL     1      86.227  11.206  19.859  1.00  0.00     0.084 C 
ENDBRANCH   1   2
BRANCH   1  13
HETATM   13  C3  UNL     1      80.675  12.714  18.110  1.00  0.00     0.011 C 
BRANCH  13  14
HETATM   14  C4  UNL     1      80.192  12.698  19.545  1.00  0.00     0.031 C 
BRANCH  14  15
HETATM   15  C5  UNL     1      81.373  12.324  20.412  1.00  0.00     0.272 C 
BRANCH  15  16
HETATM   16  N1  UNL     1      81.415  10.927  20.776  1.00  0.00     0.088 N 
HETATM   17  C6  UNL     1      81.373  10.791  22.160  1.00  0.00     0.272 C 
HETATM   18  C7  UNL     1      81.597   9.415  22.727  1.00  0.00     0.030 C 
HETATM   19  C8  UNL     1      80.405   8.517  22.574  1.00  0.00     0.002 C 
HETATM   20  C9  UNL     1      80.177   7.993  21.194  1.00  0.00     0.000 C 
HETATM   21  C10 UNL     1      81.338   7.338  20.558  1.00  0.00     0.000 C 
HETATM   22  C11 UNL     1      81.760   7.850  19.240  1.00  0.00     0.002 C 
HETATM   23  C12 UNL     1      81.596   9.312  18.996  1.00  0.00     0.030 C 
HETATM   24  C13 UNL     1      82.340  10.166  20.023  1.00  0.00     0.272 C 
ENDBRANCH  15  16
ENDBRANCH  14  15
ENDBRANCH  13  14
ENDBRANCH   1  13
TORSDOF 5
ENDMDL
MODEL 4
REMARK VINA RESULT: -7.403659807      0.924      1.952
REMARK  5 active torsions:
REMARK  status: ('A' for Active; 'I' for Inactive)
REMARK    1  A    between atoms: C1_2  and  C2_3 
REMARK       I    between atoms: C1_2  and  N2_16 
REMARK    2  A    between atoms: C2_3  and  C3_4 
REMARK    3  A    between atoms: C3_4  and  C4_5 
REMARK    4  A    between atoms: C4_5  and  C5_6 
REMARK    5  A    between atoms: C5_6  and  N1_7 
ROOT
HETATM    1  C2  UNL     1      82.691  13.460  18.144  1.00  0.00     0.103 C 
ENDROOT
BRANCH   1   2
HETATM    2  C1  UNL     1      83.934  13.366  17.368  1.00  0.00     0.223 C 
HETATM    3  O1  UNL     1      84.318  14.373  16.678  1.00  0.00    -0.273 OA
HETATM    4  N2  UNL     1      84.739  12.196  17.352  1.00  0.00    -0.308 N 
HETATM    5  C14 UNL     1      85.366  11.829  18.388  1.00  0.00     0.142 C 
ATOM      6  H2  UNL     1      84.813  11.646  16.496  1.00  0.00     0.171 HD
HETATM    7  N3  UNL     1      85.303  12.550  19.603  1.00  0.00    -0.371 N 
HETATM    8  S1  UNL     1      86.402  10.341  18.392  1.00  0.00    -0.094 SA
HETATM    9  C15 UNL     1      85.327  11.943  20.921  1.00  0.00     0.122 C 
ATOM     10  H3  UNL     1      85.235  13.566  19.549  1.00  0.00     0.161 HD
HETATM   11  C16 UNL     1      85.434  10.455  20.884  1.00  0.00     0.030 C 
HETATM   12  C17 UNL     1      86.702   9.991  20.170  1.00  0.00     0.084 C 
ENDBRANCH   1   2
BRANCH   1  13
HETATM   13  C3  UNL     1      81.453  13.045  17.425  1.00  0.00     0.011 C 
BRANCH  13  14
HETATM   14  C4  UNL     1      80.467  12.285  18.288  1.00  0.00     0.031 C 
BRANCH  14  15
HETATM   15  C5  UNL     1      80.985  12.330  19.708  1.00  0.00     0.272 C 
BRANCH  15  16
HETATM   16  N1  UNL     1      81.210  11.029  20.292  1.00  0.00     0.088 N 
HETATM   17  C6  UNL     1      81.283  11.133  21.679  1.00  0.00     0.272 C 
HETATM   18  C7  UNL     1      81.700   9.907  22.444  1.00  0.00     0.030 C 
HETATM   19  C8  UNL     1      80.609   8.883  22.550  1.00  0.00     0.002 C 
HETATM   20  C9  UNL     1      80.342   8.106  21.303  1.00  0.00     0.000 C 
HETATM   21  C10 UNL     1      81.521   7.468  20.681  1.00  0.00     0.000 C 
HETATM   22  C11 UNL     1      81.786   7.780  19.264  1.00  0.00     0.002 C 
HETATM   23  C12 UNL     1      81.441   9.154  18.797  1.00  0.00     0.030 C 
HETATM   24  C13 UNL     1      82.157  10.243  19.596  1.00  0.00     0.272 C 
ENDBRANCH  15  16
ENDBRANCH  14  15
ENDBRANCH  13  14
ENDBRANCH   1  13
TORSDOF 5
ENDMDL
MODEL 5
REMARK VINA RESULT: -7.395838523      2.294      5.065
REMARK  5 active torsions:
REMARK  status: ('A' for Active; 'I' for Inactive)
REMARK    1  A    between atoms: C1_2  and  C2_3 
REMARK       I    between atoms: C1_2  and  N2_16 
REMARK    2  A    between atoms: C2_3  and  C3_4 
REMARK    3  A    between atoms: C3_4  and  C4_5 
REMARK    4  A    between atoms: C4_5  and  C5_6 
REMARK    5  A    between atoms: C5_6  and  N1_7 
ROOT
HETATM    1  C2  UNL     1      81.536  10.655  18.029  1.00  0.00     0.103 C 
ENDROOT
BRANCH   1   2
HETATM    2  C1  UNL     1      80.572  11.557  18.673  1.00  0.00     0.223 C 
HETATM    3  O1  UNL     1      79.469  11.821  18.079  1.00  0.00    -0.273 OA
HETATM    4  N2  UNL     1      80.811  12.153  19.941  1.00  0.00    -0.308 N 
HETATM    5  C14 UNL     1      80.842  11.446  20.990  1.00  0.00     0.142 C 
ATOM      6  H2  UNL     1      80.958  13.160  20.005  1.00  0.00     0.171 HD
HETATM    7  N3  UNL     1      80.645  10.046  20.964  1.00  0.00    -0.371 N 
HETATM    8  S1  UNL     1      81.142  12.183  22.619  1.00  0.00    -0.094 SA
HETATM    9  C15 UNL     1      81.319   9.105  21.838  1.00  0.00     0.122 C 
ATOM     10  H3  UNL     1      79.983   9.672  20.283  1.00  0.00     0.161 HD
HETATM   11  C16 UNL     1      82.258   9.758  22.797  1.00  0.00     0.030 C 
HETATM   12  C17 UNL     1      81.544  10.757  23.704  1.00  0.00     0.084 C 
ENDBRANCH   1   2
BRANCH   1  13
HETATM   13  C3  UNL     1      82.338  11.257  16.927  1.00  0.00     0.011 C 
BRANCH  13  14
HETATM   14  C4  UNL     1      82.280  12.770  16.879  1.00  0.00     0.031 C 
BRANCH  14  15
HETATM   15  C5  UNL     1      83.698  13.278  17.009  1.00  0.00     0.272 C 
BRANCH  15  16
HETATM   16  N1  UNL     1      84.434  12.693  18.104  1.00  0.00     0.088 N 
HETATM   17  C6  UNL     1      84.197  13.407  19.276  1.00  0.00     0.272 C 
HETATM   18  C7  UNL     1      85.027  13.054  20.480  1.00  0.00     0.030 C 
HETATM   19  C8  UNL     1      84.593  11.777  21.137  1.00  0.00     0.002 C 
HETATM   20  C9  UNL     1      84.976  10.528  20.414  1.00  0.00     0.000 C 
HETATM   21  C10 UNL     1      86.405  10.406  20.058  1.00  0.00     0.000 C 
HETATM   22  C11 UNL     1      86.726  10.162  18.639  1.00  0.00     0.002 C 
HETATM   23  C12 UNL     1      85.832  10.790  17.624  1.00  0.00     0.030 C 
HETATM   24  C13 UNL     1      85.753  12.310  17.770  1.00  0.00     0.272 C 
ENDBRANCH  15  16
ENDBRANCH  14  15
ENDBRANCH  13  14
ENDBRANCH   1  13
TORSDOF 5
ENDMDL
