MODEL 1
REMARK VINA RESULT: -8.241624393      0.000      0.000
REMARK  6 active torsions:
REMARK  status: ('A' for Active; 'I' for Inactive)
REMARK    1  A    between atoms: C2_2  and  C3_3 
REMARK    2  A    between atoms: C3_3  and  S1_4 
REMARK    3  A    between atoms: S1_4  and  C4_5 
REMARK    4  A    between atoms: C4_5  and  C5_6 
REMARK    5  A    between atoms: C8_9  and  C9_10 
REMARK    6  A    between atoms: C13_15  and  O2_16 
ROOT
HETATM    1  C5  UNL     1      84.437  12.409  19.495  1.00  0.00    -0.023 A 
HETATM    2  C6  UNL     1      85.014  13.086  20.691  1.00  0.00     0.017 C 
HETATM    3  C7  UNL     1      83.106  12.826  19.095  1.00  0.00     0.036 A 
HETATM    4  C8  UNL     1      82.290  12.514  17.954  1.00  0.00    -0.018 C 
HETATM    5  C10 UNL     1      81.311  11.630  17.925  1.00  0.00    -0.011 C 
HETATM    6  C11 UNL     1      80.733  10.710  18.961  1.00  0.00     0.015 C 
HETATM    7  C12 UNL     1      81.066   9.340  18.644  1.00  0.00     0.040 C 
HETATM    8  C13 UNL     1      81.473   8.384  19.688  1.00  0.00     0.119 C 
HETATM    9  C14 UNL     1      82.404   8.840  20.737  1.00  0.00     0.037 C 
HETATM   10  C15 UNL     1      82.090  10.046  21.494  1.00  0.00    -0.007 C 
HETATM   11  C16 UNL     1      80.645  10.478  21.479  1.00  0.00     0.011 C 
HETATM   12  C17 UNL     1      80.973  11.297  20.288  1.00  0.00    -0.002 C 
HETATM   13  C18 UNL     1      82.386  11.345  20.803  1.00  0.00    -0.000 C 
HETATM   14  C19 UNL     1      83.379  11.426  19.756  1.00  0.00     0.009 A 
ENDROOT
BRANCH   1  15
HETATM   15  C4  UNL     1      85.414  12.111  18.389  1.00  0.00     0.084 C 
BRANCH  15  16
HETATM   16  S1  UNL     1      86.593  10.883  18.609  1.00  0.00    -0.168 SA
BRANCH  16  17
HETATM   17  C3  UNL     1      86.641   9.610  19.748  1.00  0.00     0.073 C 
BRANCH  17  18
HETATM   18  C2  UNL     1      86.564   9.817  21.217  1.00  0.00     0.006 C 
HETATM   19  C1  UNL     1      85.805   8.610  21.807  1.00  0.00     0.006 C 
ENDBRANCH  17  18
ENDBRANCH  16  17
ENDBRANCH  15  16
ENDBRANCH   1  15
BRANCH   4  20
HETATM   20  C9  UNL     1      82.539  13.241  16.726  1.00  0.00     0.265 C 
HETATM   21  O1  UNL     1      83.309  14.223  16.627  1.00  0.00    -0.302 OA
ENDBRANCH   4  20
BRANCH   8  22
HETATM   22  O2  UNL     1      80.371   7.658  20.219  1.00  0.00    -0.396 OA
ATOM     23  H2  UNL     1      79.942   7.121  19.564  1.00  0.00     0.210 HD
ENDBRANCH   8  22
TORSDOF 6
ENDMDL
MODEL 2
REMARK VINA RESULT: -8.000014259      2.356      4.707
REMARK  6 active torsions:
REMARK  status: ('A' for Active; 'I' for Inactive)
REMARK    1  A    between atoms: C2_2  and  C3_3 
REMARK    2  A    between atoms: C3_3  and  S1_4 
REMARK    3  A    between atoms: S1_4  and  C4_5 
REMARK    4  A    between atoms: C4_5  and  C5_6 
REMARK    5  A    between atoms: C8_9  and  C9_10 
REMARK    6  A    between atoms: C13_15  and  O2_16 
ROOT
HETATM    1  C5  UNL     1      81.129  10.526  19.414  1.00  0.00    -0.023 A 
HETATM    2  C6  UNL     1      80.194  10.345  18.267  1.00  0.00     0.017 C 
HETATM    3  C7  UNL     1      81.341  11.888  19.868  1.00  0.00     0.036 A 
HETATM    4  C8  UNL     1      82.043  12.441  20.993  1.00  0.00    -0.018 C 
HETATM    5  C10 UNL     1      83.258  12.956  20.966  1.00  0.00    -0.011 C 
HETATM    6  C11 UNL     1      84.264  13.144  19.869  1.00  0.00     0.015 C 
HETATM    7  C12 UNL     1      85.384  12.252  20.068  1.00  0.00     0.040 C 
HETATM    8  C13 UNL     1      86.007  11.532  18.944  1.00  0.00     0.119 C 
HETATM    9  C14 UNL     1      85.131  10.931  17.920  1.00  0.00     0.037 C 
HETATM   10  C15 UNL     1      84.123  11.759  17.268  1.00  0.00    -0.007 C 
HETATM   11  C16 UNL     1      84.344  13.249  17.342  1.00  0.00     0.011 C 
HETATM   12  C17 UNL     1      83.544  13.238  18.589  1.00  0.00    -0.002 C 
HETATM   13  C18 UNL     1      82.870  12.002  18.058  1.00  0.00    -0.000 C 
HETATM   14  C19 UNL     1      82.447  11.085  19.092  1.00  0.00     0.009 A 
ENDROOT
BRANCH   1  15
HETATM   15  C4  UNL     1      81.060   9.461  20.476  1.00  0.00     0.084 C 
BRANCH  15  16
HETATM   16  S1  UNL     1      82.483   8.608  20.913  1.00  0.00    -0.168 SA
BRANCH  16  17
HETATM   17  C3  UNL     1      83.962   9.200  21.530  1.00  0.00     0.073 C 
BRANCH  17  18
HETATM   18  C2  UNL     1      85.095   8.326  21.931  1.00  0.00     0.006 C 
HETATM   19  C1  UNL     1      86.396   9.064  21.550  1.00  0.00     0.006 C 
ENDBRANCH  17  18
ENDBRANCH  16  17
ENDBRANCH  15  16
ENDBRANCH   1  15
BRANCH   4  20
HETATM   20  C9  UNL     1      81.362  12.460  22.272  1.00  0.00     0.265 C 
HETATM   21  O1  UNL     1      81.415  13.407  23.089  1.00  0.00    -0.302 OA
ENDBRANCH   4  20
BRANCH   8  22
HETATM   22  O2  UNL     1      87.092  12.253  18.374  1.00  0.00    -0.396 OA
ATOM     23  H2  UNL     1      86.807  12.886  17.726  1.00  0.00     0.210 HD
ENDBRANCH   8  22
TORSDOF 6
ENDMDL
MODEL 3
REMARK VINA RESULT: -7.873325864      1.982      4.442
REMARK  6 active torsions:
REMARK  status: ('A' for Active; 'I' for Inactive)
REMARK    1  A    between atoms: C2_2  and  C3_3 
REMARK    2  A    between atoms: C3_3  and  S1_4 
REMARK    3  A    between atoms: S1_4  and  C4_5 
REMARK    4  A    between atoms: C4_5  and  C5_6 
REMARK    5  A    between atoms: C8_9  and  C9_10 
REMARK    6  A    between atoms: C13_15  and  O2_16 
ROOT
HETATM    1  C5  UNL     1      82.369   8.878  20.785  1.00  0.00    -0.023 A 
HETATM    2  C6  UNL     1      81.945   7.488  20.455  1.00  0.00     0.017 C 
HETATM    3  C7  UNL     1      81.332   9.776  21.256  1.00  0.00     0.036 A 
HETATM    4  C8  UNL     1      81.368  11.113  21.784  1.00  0.00    -0.018 C 
HETATM    5  C10 UNL     1      81.103  12.215  21.109  1.00  0.00    -0.011 C 
HETATM    6  C11 UNL     1      80.704  12.471  19.685  1.00  0.00     0.015 C 
HETATM    7  C12 UNL     1      81.790  13.109  18.976  1.00  0.00     0.040 C 
HETATM    8  C13 UNL     1      82.141  12.727  17.597  1.00  0.00     0.119 C 
HETATM    9  C14 UNL     1      82.156  11.295  17.245  1.00  0.00     0.037 C 
HETATM   10  C15 UNL     1      80.982  10.478  17.528  1.00  0.00    -0.007 C 
HETATM   11  C16 UNL     1      79.689  11.228  17.728  1.00  0.00     0.011 C 
HETATM   12  C17 UNL     1      80.018  11.274  19.173  1.00  0.00    -0.002 C 
HETATM   13  C18 UNL     1      80.830  10.027  18.951  1.00  0.00    -0.000 C 
HETATM   14  C19 UNL     1      81.974   9.919  19.828  1.00  0.00     0.009 A 
ENDROOT
BRANCH   1  15
HETATM   15  C4  UNL     1      83.721   9.002  21.436  1.00  0.00     0.084 C 
BRANCH  15  16
HETATM   16  S1  UNL     1      84.875  10.096  20.790  1.00  0.00    -0.168 SA
BRANCH  16  17
HETATM   17  C3  UNL     1      85.065  11.770  21.070  1.00  0.00     0.073 C 
BRANCH  17  18
HETATM   18  C2  UNL     1      85.187  12.777  19.985  1.00  0.00     0.006 C 
HETATM   19  C1  UNL     1      85.672  12.030  18.724  1.00  0.00     0.006 C 
ENDBRANCH  17  18
ENDBRANCH  16  17
ENDBRANCH  15  16
ENDBRANCH   1  15
BRANCH   4  20
HETATM   20  C9  UNL     1      81.702  11.278  23.184  1.00  0.00     0.265 C 
HETATM   21  O1  UNL     1      81.976  12.374  23.723  1.00  0.00    -0.302 OA
ENDBRANCH   4  20
BRANCH   8  22
HETATM   22  O2  UNL     1      81.466  13.517  16.627  1.00  0.00    -0.396 OA
ATOM     23  H2  UNL     1      80.538  13.601  16.810  1.00  0.00     0.210 HD
ENDBRANCH   8  22
TORSDOF 6
ENDMDL
MODEL 4
REMARK VINA RESULT: -7.672160110      2.517      4.809
REMARK  6 active torsions:
REMARK  status: ('A' for Active; 'I' for Inactive)
REMARK    1  A    between atoms: C2_2  and  C3_3 
REMARK    2  A    between atoms: C3_3  and  S1_4 
REMARK    3  A    between atoms: S1_4  and  C4_5 
REMARK    4  A    between atoms: C4_5  and  C5_6 
REMARK    5  A    between atoms: C8_9  and  C9_10 
REMARK    6  A    between atoms: C13_15  and  O2_16 
ROOT
HETATM    1  C5  UNL     1      81.321  12.379  18.474  1.00  0.00    -0.023 A 
HETATM    2  C6  UNL     1      81.210  13.445  17.439  1.00  0.00     0.017 C 
HETATM    3  C7  UNL     1      81.692  12.809  19.810  1.00  0.00     0.036 A 
HETATM    4  C8  UNL     1      81.771  12.120  21.068  1.00  0.00    -0.018 C 
HETATM    5  C10 UNL     1      82.872  11.651  21.623  1.00  0.00    -0.011 C 
HETATM    6  C11 UNL     1      84.312  11.656  21.200  1.00  0.00     0.015 C 
HETATM    7  C12 UNL     1      84.728  10.317  20.852  1.00  0.00     0.040 C 
HETATM    8  C13 UNL     1      85.584  10.054  19.682  1.00  0.00     0.119 C 
HETATM    9  C14 UNL     1      85.302  10.777  18.427  1.00  0.00     0.037 C 
HETATM   10  C15 UNL     1      85.203  12.231  18.448  1.00  0.00    -0.007 C 
HETATM   11  C16 UNL     1      85.840  12.919  19.629  1.00  0.00     0.011 C 
HETATM   12  C17 UNL     1      84.531  12.810  20.314  1.00  0.00    -0.002 C 
HETATM   13  C18 UNL     1      83.902  12.789  18.947  1.00  0.00    -0.000 C 
HETATM   14  C19 UNL     1      82.683  12.015  18.884  1.00  0.00     0.009 A 
ENDROOT
BRANCH   1  15
HETATM   15  C4  UNL     1      80.300  11.277  18.377  1.00  0.00     0.084 C 
BRANCH  15  16
HETATM   16  S1  UNL     1      80.823   9.646  18.273  1.00  0.00    -0.168 SA
BRANCH  16  17
HETATM   17  C3  UNL     1      81.718   8.714  19.390  1.00  0.00     0.073 C 
BRANCH  17  18
HETATM   18  C2  UNL     1      81.127   7.634  20.221  1.00  0.00     0.006 C 
HETATM   19  C1  UNL     1      80.229   8.312  21.277  1.00  0.00     0.006 C 
ENDBRANCH  17  18
ENDBRANCH  16  17
ENDBRANCH  15  16
ENDBRANCH   1  15
BRANCH   4  20
HETATM   20  C9  UNL     1      80.543  11.936  21.815  1.00  0.00     0.265 C 
HETATM   21  O1  UNL     1      80.175  12.663  22.765  1.00  0.00    -0.302 OA
ENDBRANCH   4  20
BRANCH   8  22
HETATM   22  O2  UNL     1      86.967  10.056  20.010  1.00  0.00    -0.396 OA
ATOM     23  H2  UNL     1      87.269  10.909  20.300  1.00  0.00     0.210 HD
ENDBRANCH   8  22
TORSDOF 6
ENDMDL
MODEL 5
REMARK VINA RESULT: -7.656727913      1.945      3.327
REMARK  6 active torsions:
REMARK  status: ('A' for Active; 'I' for Inactive)
REMARK    1  A    between atoms: C2_2  and  C3_3 
REMARK    2  A    between atoms: C3_3  and  S1_4 
REMARK    3  A    between atoms: S1_4  and  C4_5 
REMARK    4  A    between atoms: C4_5  and  C5_6 
REMARK    5  A    between atoms: C8_9  and  C9_10 
REMARK    6  A    between atoms: C13_15  and  O2_16 
ROOT
HETATM    1  C5  UNL     1      84.779  11.630  20.480  1.00  0.00    -0.023 A 
HETATM    2  C6  UNL     1      84.964  12.722  21.477  1.00  0.00     0.017 C 
HETATM    3  C7  UNL     1      84.834  12.015  19.082  1.00  0.00     0.036 A 
HETATM    4  C8  UNL     1      84.832  11.255  17.862  1.00  0.00    -0.018 C 
HETATM    5  C10 UNL     1      83.786  11.045  17.086  1.00  0.00    -0.011 C 
HETATM    6  C11 UNL     1      82.350  11.474  17.168  1.00  0.00     0.015 C 
HETATM    7  C12 UNL     1      81.511  10.333  17.455  1.00  0.00     0.040 C 
HETATM    8  C13 UNL     1      80.389  10.421  18.407  1.00  0.00     0.119 C 
HETATM    9  C14 UNL     1      80.591  11.158  19.668  1.00  0.00     0.037 C 
HETATM   10  C15 UNL     1      81.097  12.525  19.622  1.00  0.00    -0.007 C 
HETATM   11  C16 UNL     1      80.943  13.242  18.305  1.00  0.00     0.011 C 
HETATM   12  C17 UNL     1      82.282  12.723  17.942  1.00  0.00    -0.002 C 
HETATM   13  C18 UNL     1      82.577  12.666  19.416  1.00  0.00    -0.000 C 
HETATM   14  C19 UNL     1      83.487  11.605  19.782  1.00  0.00     0.009 A 
ENDROOT
BRANCH   1  15
HETATM   15  C4  UNL     1      85.405  10.311  20.845  1.00  0.00     0.084 C 
BRANCH  15  16
HETATM   16  S1  UNL     1      84.417   9.043  21.447  1.00  0.00    -0.168 SA
BRANCH  16  17
HETATM   17  C3  UNL     1      82.731   8.809  21.297  1.00  0.00     0.073 C 
BRANCH  17  18
HETATM   18  C2  UNL     1      82.114   7.869  20.327  1.00  0.00     0.006 C 
HETATM   19  C1  UNL     1      80.673   7.600  20.808  1.00  0.00     0.006 C 
ENDBRANCH  17  18
ENDBRANCH  16  17
ENDBRANCH  15  16
ENDBRANCH   1  15
BRANCH   4  20
HETATM   20  C9  UNL     1      86.087  10.680  17.422  1.00  0.00     0.265 C 
HETATM   21  O1  UNL     1      86.728  11.060  16.416  1.00  0.00    -0.302 OA
ENDBRANCH   4  20
BRANCH   8  22
HETATM   22  O2  UNL     1      79.164  10.760  17.770  1.00  0.00    -0.396 OA
ATOM     23  H2  UNL     1      78.641  11.360  18.288  1.00  0.00     0.210 HD
ENDBRANCH   8  22
TORSDOF 6
ENDMDL
