MODEL 1
REMARK VINA RESULT: -7.127857011      0.000      0.000
REMARK  6 active torsions:
REMARK  status: ('A' for Active; 'I' for Inactive)
REMARK    1  A    between atoms: C2_2  and  C4_4 
REMARK    2  A    between atoms: C4_4  and  C5_5 
REMARK    3  A    between atoms: C5_5  and  C6_6 
REMARK    4  A    between atoms: C6_6  and  N1_8 
REMARK    5  A    between atoms: N1_8  and  C8_10 
REMARK    6  A    between atoms: C9_13  and  N3_14 
ROOT
HETATM    1  C8  UNL     1      82.091  11.763  19.060  1.00  0.00     0.125 A 
HETATM    2  N2  UNL     1      83.340  11.459  18.709  1.00  0.00    -0.176 N 
ATOM      3  H2  UNL     1      83.493  11.014  17.803  1.00  0.00     0.186 HD
HETATM    4  C9  UNL     1      84.418  11.711  19.490  1.00  0.00     0.682 A 
HETATM    5  N4  UNL     1      84.213  12.302  20.691  1.00  0.00    -0.195 N 
ATOM      6  H4  UNL     1      85.008  12.503  21.296  1.00  0.00     0.184 HD
HETATM    7  C14 UNL     1      82.969  12.628  21.094  1.00  0.00     0.036 A 
HETATM    8  C15 UNL     1      81.909  12.373  20.308  1.00  0.00     0.009 A 
HETATM    9  C16 UNL     1      80.471  12.648  20.570  1.00  0.00     0.044 C 
HETATM   10  C17 UNL     1      80.134  11.907  21.847  1.00  0.00     0.005 C 
HETATM   11  C18 UNL     1      80.649  12.664  23.053  1.00  0.00     0.001 C 
HETATM   12  C19 UNL     1      82.084  12.389  23.333  1.00  0.00     0.006 C 
HETATM   13  C20 UNL     1      82.984  13.266  22.463  1.00  0.00     0.058 C 
ENDROOT
BRANCH   1  14
HETATM   14  N1  UNL     1      81.070  11.556  18.336  1.00  0.00    -0.371 N 
ATOM     15  H1  UNL     1      80.592  12.398  18.019  1.00  0.00     0.161 HD
BRANCH  14  16
HETATM   16  C6  UNL     1      80.480  10.324  17.893  1.00  0.00     0.079 C 
HETATM   17  C7  UNL     1      81.347   9.812  16.787  1.00  0.00     0.032 C 
BRANCH  16  18
HETATM   18  C5  UNL     1      80.156   9.383  18.990  1.00  0.00     0.025 C 
BRANCH  18  19
HETATM   19  C4  UNL     1      81.141   8.399  19.431  1.00  0.00     0.006 C 
BRANCH  19  20
HETATM   20  C2  UNL     1      81.311   8.037  20.840  1.00  0.00    -0.023 C 
HETATM   21  C1  UNL     1      82.387   8.953  21.484  1.00  0.00     0.009 C 
HETATM   22  C3  UNL     1      80.094   8.217  21.712  1.00  0.00     0.009 C 
ENDBRANCH  19  20
ENDBRANCH  18  19
ENDBRANCH  16  18
ENDBRANCH  14  16
ENDBRANCH   1  14
BRANCH   4  23
HETATM   23  N3  UNL     1      85.749  11.380  19.116  1.00  0.00    -0.218 N 
HETATM   24  C10 UNL     1      86.601  12.281  18.360  1.00  0.00     0.141 C 
HETATM   25  C11 UNL     1      87.172  11.319  17.325  1.00  0.00     0.022 C 
HETATM   26  C12 UNL     1      87.193   9.955  18.024  1.00  0.00     0.022 C 
HETATM   27  C13 UNL     1      86.537  10.195  19.372  1.00  0.00     0.141 C 
ENDBRANCH   4  23
TORSDOF 6
ENDMDL
MODEL 2
REMARK VINA RESULT: -7.089543069      0.991      1.356
REMARK  6 active torsions:
REMARK  status: ('A' for Active; 'I' for Inactive)
REMARK    1  A    between atoms: C2_2  and  C4_4 
REMARK    2  A    between atoms: C4_4  and  C5_5 
REMARK    3  A    between atoms: C5_5  and  C6_6 
REMARK    4  A    between atoms: C6_6  and  N1_8 
REMARK    5  A    between atoms: N1_8  and  C8_10 
REMARK    6  A    between atoms: C9_13  and  N3_14 
ROOT
HETATM    1  C8  UNL     1      82.397  11.930  19.287  1.00  0.00     0.125 A 
HETATM    2  N2  UNL     1      83.623  11.408  19.289  1.00  0.00    -0.176 N 
ATOM      3  H2  UNL     1      83.979  11.007  18.420  1.00  0.00     0.186 HD
HETATM    4  C9  UNL     1      84.422  11.380  20.383  1.00  0.00     0.682 A 
HETATM    5  N4  UNL     1      83.948  11.912  21.534  1.00  0.00    -0.195 N 
ATOM      6  H4  UNL     1      84.530  11.904  22.371  1.00  0.00     0.184 HD
HETATM    7  C14 UNL     1      82.714  12.451  21.586  1.00  0.00     0.036 A 
HETATM    8  C15 UNL     1      81.932  12.472  20.493  1.00  0.00     0.009 A 
HETATM    9  C16 UNL     1      80.554  13.011  20.346  1.00  0.00     0.044 C 
HETATM   10  C17 UNL     1      79.707  12.262  21.354  1.00  0.00     0.005 C 
HETATM   11  C18 UNL     1      79.931  12.810  22.747  1.00  0.00     0.001 C 
HETATM   12  C19 UNL     1      81.134  12.233  23.405  1.00  0.00     0.006 C 
HETATM   13  C20 UNL     1      82.398  12.972  22.969  1.00  0.00     0.058 C 
ENDROOT
BRANCH   1  14
HETATM   14  N1  UNL     1      81.641  11.985  18.271  1.00  0.00    -0.371 N 
ATOM     15  H1  UNL     1      81.429  12.928  17.944  1.00  0.00     0.161 HD
BRANCH  14  16
HETATM   16  C6  UNL     1      81.034  10.933  17.505  1.00  0.00     0.079 C 
HETATM   17  C7  UNL     1      82.082  10.433  16.563  1.00  0.00     0.032 C 
BRANCH  16  18
HETATM   18  C5  UNL     1      80.326   9.923  18.327  1.00  0.00     0.025 C 
BRANCH  18  19
HETATM   19  C4  UNL     1      81.076   8.869  19.005  1.00  0.00     0.006 C 
BRANCH  19  20
HETATM   20  C2  UNL     1      80.675   8.336  20.309  1.00  0.00    -0.023 C 
HETATM   21  C1  UNL     1      81.072   6.837  20.401  1.00  0.00     0.009 C 
HETATM   22  C3  UNL     1      81.335   8.973  21.506  1.00  0.00     0.009 C 
ENDBRANCH  19  20
ENDBRANCH  18  19
ENDBRANCH  16  18
ENDBRANCH  14  16
ENDBRANCH   1  14
BRANCH   4  23
HETATM   23  N3  UNL     1      85.727  10.815  20.384  1.00  0.00    -0.218 N 
HETATM   24  C10 UNL     1      86.591  10.829  19.216  1.00  0.00     0.141 C 
HETATM   25  C11 UNL     1      87.091   9.389  19.225  1.00  0.00     0.022 C 
HETATM   26  C12 UNL     1      87.079   8.978  20.702  1.00  0.00     0.022 C 
HETATM   27  C13 UNL     1      86.474  10.161  21.435  1.00  0.00     0.141 C 
ENDBRANCH   4  23
TORSDOF 6
ENDMDL
MODEL 3
REMARK VINA RESULT: -7.034212833      1.981      4.005
REMARK  6 active torsions:
REMARK  status: ('A' for Active; 'I' for Inactive)
REMARK    1  A    between atoms: C2_2  and  C4_4 
REMARK    2  A    between atoms: C4_4  and  C5_5 
REMARK    3  A    between atoms: C5_5  and  C6_6 
REMARK    4  A    between atoms: C6_6  and  N1_8 
REMARK    5  A    between atoms: N1_8  and  C8_10 
REMARK    6  A    between atoms: C9_13  and  N3_14 
ROOT
HETATM    1  C8  UNL     1      82.265  10.192  19.168  1.00  0.00     0.125 A 
HETATM    2  N2  UNL     1      83.214   9.619  19.908  1.00  0.00    -0.176 N 
ATOM      3  H2  UNL     1      82.936   8.908  20.585  1.00  0.00     0.186 HD
HETATM    4  C9  UNL     1      84.528   9.932  19.810  1.00  0.00     0.682 A 
HETATM    5  N4  UNL     1      84.895  10.877  18.912  1.00  0.00    -0.195 N 
ATOM      6  H4  UNL     1      85.879  11.129  18.818  1.00  0.00     0.184 HD
HETATM    7  C14 UNL     1      83.974  11.488  18.140  1.00  0.00     0.036 A 
HETATM    8  C15 UNL     1      82.673  11.167  18.248  1.00  0.00     0.009 A 
HETATM    9  C16 UNL     1      81.514  11.723  17.501  1.00  0.00     0.044 C 
HETATM   10  C17 UNL     1      81.521  13.213  17.774  1.00  0.00     0.005 C 
HETATM   11  C18 UNL     1      82.578  13.902  16.938  1.00  0.00     0.001 C 
HETATM   12  C19 UNL     1      83.931  13.835  17.554  1.00  0.00     0.006 C 
HETATM   13  C20 UNL     1      84.611  12.506  17.224  1.00  0.00     0.058 C 
ENDROOT
BRANCH   1  14
HETATM   14  N1  UNL     1      81.032   9.901  19.229  1.00  0.00    -0.371 N 
ATOM     15  H1  UNL     1      80.547   9.901  18.333  1.00  0.00     0.161 HD
BRANCH  14  16
HETATM   16  C6  UNL     1      80.209   9.570  20.359  1.00  0.00     0.079 C 
HETATM   17  C7  UNL     1      80.228   8.079  20.476  1.00  0.00     0.032 C 
BRANCH  16  18
HETATM   18  C5  UNL     1      80.523  10.348  21.580  1.00  0.00     0.025 C 
BRANCH  18  19
HETATM   19  C4  UNL     1      80.326  11.795  21.602  1.00  0.00     0.006 C 
BRANCH  19  20
HETATM   20  C2  UNL     1      81.300  12.710  22.202  1.00  0.00    -0.023 C 
HETATM   21  C1  UNL     1      81.807  12.119  23.546  1.00  0.00     0.009 C 
HETATM   22  C3  UNL     1      82.554  12.947  21.398  1.00  0.00     0.009 C 
ENDBRANCH  19  20
ENDBRANCH  18  19
ENDBRANCH  16  18
ENDBRANCH  14  16
ENDBRANCH   1  14
BRANCH   4  23
HETATM   23  N3  UNL     1      85.539   9.325  20.605  1.00  0.00    -0.218 N 
HETATM   24  C10 UNL     1      85.237   8.468  21.739  1.00  0.00     0.141 C 
HETATM   25  C11 UNL     1      86.209   9.025  22.773  1.00  0.00     0.022 C 
HETATM   26  C12 UNL     1      87.390   9.559  21.955  1.00  0.00     0.022 C 
HETATM   27  C13 UNL     1      86.980   9.376  20.505  1.00  0.00     0.141 C 
ENDBRANCH   4  23
TORSDOF 6
ENDMDL
MODEL 4
REMARK VINA RESULT: -6.910256449      2.187      5.333
REMARK  6 active torsions:
REMARK  status: ('A' for Active; 'I' for Inactive)
REMARK    1  A    between atoms: C2_2  and  C4_4 
REMARK    2  A    between atoms: C4_4  and  C5_5 
REMARK    3  A    between atoms: C5_5  and  C6_6 
REMARK    4  A    between atoms: C6_6  and  N1_8 
REMARK    5  A    between atoms: N1_8  and  C8_10 
REMARK    6  A    between atoms: C9_13  and  N3_14 
ROOT
HETATM    1  C8  UNL     1      84.176  11.054  18.261  1.00  0.00     0.125 A 
HETATM    2  N2  UNL     1      83.706  10.079  19.039  1.00  0.00    -0.176 N 
ATOM      3  H2  UNL     1      84.260   9.226  19.133  1.00  0.00     0.186 HD
HETATM    4  C9  UNL     1      82.533  10.159  19.711  1.00  0.00     0.682 A 
HETATM    5  N4  UNL     1      81.800  11.290  19.584  1.00  0.00    -0.195 N 
ATOM      6  H4  UNL     1      80.913  11.376  20.081  1.00  0.00     0.184 HD
HETATM    7  C14 UNL     1      82.229  12.305  18.808  1.00  0.00     0.036 A 
HETATM    8  C15 UNL     1      83.395  12.212  18.147  1.00  0.00     0.009 A 
HETATM    9  C16 UNL     1      84.036  13.208  17.246  1.00  0.00     0.044 C 
HETATM   10  C17 UNL     1      83.037  13.465  16.138  1.00  0.00     0.005 C 
HETATM   11  C18 UNL     1      81.936  14.387  16.617  1.00  0.00     0.001 C 
HETATM   12  C19 UNL     1      80.861  13.666  17.349  1.00  0.00     0.006 C 
HETATM   13  C20 UNL     1      81.248  13.454  18.812  1.00  0.00     0.058 C 
ENDROOT
BRANCH   1  14
HETATM   14  N1  UNL     1      85.280  11.008  17.639  1.00  0.00    -0.371 N 
ATOM     15  H1  UNL     1      85.324  11.586  16.800  1.00  0.00     0.161 HD
BRANCH  14  16
HETATM   16  C6  UNL     1      86.480  10.273  17.927  1.00  0.00     0.079 C 
HETATM   17  C7  UNL     1      87.426  10.546  16.800  1.00  0.00     0.032 C 
BRANCH  16  18
HETATM   18  C5  UNL     1      86.992  10.472  19.303  1.00  0.00     0.025 C 
BRANCH  18  19
HETATM   19  C4  UNL     1      87.000   9.363  20.253  1.00  0.00     0.006 C 
BRANCH  19  20
HETATM   20  C2  UNL     1      86.412   9.473  21.590  1.00  0.00    -0.023 C 
HETATM   21  C1  UNL     1      85.675  10.834  21.723  1.00  0.00     0.009 C 
HETATM   22  C3  UNL     1      85.363   8.443  21.929  1.00  0.00     0.009 C 
ENDBRANCH  19  20
ENDBRANCH  18  19
ENDBRANCH  16  18
ENDBRANCH  14  16
ENDBRANCH   1  14
BRANCH   4  23
HETATM   23  N3  UNL     1      82.030   9.115  20.535  1.00  0.00    -0.218 N 
HETATM   24  C10 UNL     1      82.080   7.715  20.148  1.00  0.00     0.141 C 
HETATM   25  C11 UNL     1      80.665   7.278  20.509  1.00  0.00     0.022 C 
HETATM   26  C12 UNL     1      80.259   8.185  21.677  1.00  0.00     0.022 C 
HETATM   27  C13 UNL     1      81.416   9.154  21.843  1.00  0.00     0.141 C 
ENDBRANCH   4  23
TORSDOF 6
ENDMDL
MODEL 5
REMARK VINA RESULT: -6.872667506      1.319      2.623
REMARK  6 active torsions:
REMARK  status: ('A' for Active; 'I' for Inactive)
REMARK    1  A    between atoms: C2_2  and  C4_4 
REMARK    2  A    between atoms: C4_4  and  C5_5 
REMARK    3  A    between atoms: C5_5  and  C6_6 
REMARK    4  A    between atoms: C6_6  and  N1_8 
REMARK    5  A    between atoms: N1_8  and  C8_10 
REMARK    6  A    between atoms: C9_13  and  N3_14 
ROOT
HETATM    1  C8  UNL     1      83.080   9.630  20.837  1.00  0.00     0.125 A 
HETATM    2  N2  UNL     1      84.209   9.765  20.140  1.00  0.00    -0.176 N 
ATOM      3  H2  UNL     1      84.682   8.920  19.818  1.00  0.00     0.186 HD
HETATM    4  C9  UNL     1      84.760  10.965  19.835  1.00  0.00     0.682 A 
HETATM    5  N4  UNL     1      84.130  12.084  20.263  1.00  0.00    -0.195 N 
ATOM      6  H4  UNL     1      84.524  12.999  20.046  1.00  0.00     0.184 HD
HETATM    7  C14 UNL     1      82.987  12.003  20.973  1.00  0.00     0.036 A 
HETATM    8  C15 UNL     1      82.451  10.806  21.267  1.00  0.00     0.009 A 
HETATM    9  C16 UNL     1      81.214  10.505  22.035  1.00  0.00     0.044 C 
HETATM   10  C17 UNL     1      81.409  11.135  23.399  1.00  0.00     0.005 C 
HETATM   11  C18 UNL     1      81.181  12.630  23.332  1.00  0.00     0.001 C 
HETATM   12  C19 UNL     1      82.384  13.374  22.872  1.00  0.00     0.006 C 
HETATM   13  C20 UNL     1      82.472  13.373  21.346  1.00  0.00     0.058 C 
ENDROOT
BRANCH   1  14
HETATM   14  N1  UNL     1      82.536   8.519  21.115  1.00  0.00    -0.371 N 
ATOM     15  H1  UNL     1      82.702   8.187  22.065  1.00  0.00     0.161 HD
BRANCH  14  16
HETATM   16  C6  UNL     1      81.724   7.653  20.308  1.00  0.00     0.079 C 
HETATM   17  C7  UNL     1      80.534   7.291  21.139  1.00  0.00     0.032 C 
BRANCH  16  18
HETATM   18  C5  UNL     1      81.466   8.169  18.944  1.00  0.00     0.025 C 
BRANCH  18  19
HETATM   19  C4  UNL     1      80.416   9.159  18.718  1.00  0.00     0.006 C 
BRANCH  19  20
HETATM   20  C2  UNL     1      80.582  10.281  17.790  1.00  0.00    -0.023 C 
HETATM   21  C1  UNL     1      80.190  11.605  18.502  1.00  0.00     0.009 C 
HETATM   22  C3  UNL     1      81.987  10.519  17.299  1.00  0.00     0.009 C 
ENDBRANCH  19  20
ENDBRANCH  18  19
ENDBRANCH  16  18
ENDBRANCH  14  16
ENDBRANCH   1  14
BRANCH   4  23
HETATM   23  N3  UNL     1      85.967  11.106  19.098  1.00  0.00    -0.218 N 
HETATM   24  C10 UNL     1      86.414  12.379  18.558  1.00  0.00     0.141 C 
HETATM   25  C11 UNL     1      86.817  11.956  17.150  1.00  0.00     0.022 C 
HETATM   26  C12 UNL     1      87.255  10.493  17.289  1.00  0.00     0.022 C 
HETATM   27  C13 UNL     1      86.975  10.135  18.738  1.00  0.00     0.141 C 
ENDBRANCH   4  23
TORSDOF 6
ENDMDL
