MODEL 1
REMARK VINA RESULT: -8.371615808      0.000      0.000
REMARK  7 active torsions:
REMARK  status: ('A' for Active; 'I' for Inactive)
REMARK    1  A    between atoms: C2_2  and  O2_4 
REMARK    2  A    between atoms: O2_4  and  C3_5 
REMARK    3  A    between atoms: C3_5  and  C4_6 
REMARK    4  A    between atoms: C4_6  and  C5_7 
REMARK    5  A    between atoms: C5_7  and  C6_8 
REMARK    6  A    between atoms: C6_8  and  C7_9 
REMARK    7  A    between atoms: C6_8  and  C8_12 
ROOT
HETATM    1  C8  UNL     1      81.660  10.825  21.547  1.00  0.00     0.004 C 
HETATM    2  C9  UNL     1      81.695   9.587  22.345  1.00  0.00     0.007 C 
HETATM    3  C10 UNL     1      80.703   8.530  21.900  1.00  0.00     0.010 C 
HETATM    4  C11 UNL     1      80.902   8.036  20.509  1.00  0.00    -0.043 C 
HETATM    5  C12 UNL     1      80.677   6.513  20.542  1.00  0.00     0.015 C 
HETATM    6  C13 UNL     1      79.957   8.580  19.500  1.00  0.00     0.013 C 
HETATM    7  C14 UNL     1      80.467   9.604  18.572  1.00  0.00    -0.013 C 
HETATM    8  C15 UNL     1      81.912   9.432  18.156  1.00  0.00     0.010 C 
HETATM    9  C16 UNL     1      82.569   9.549  19.548  1.00  0.00    -0.009 C 
HETATM   10  C17 UNL     1      82.354   8.225  20.155  1.00  0.00     0.014 C 
HETATM   11  C18 UNL     1      81.891  10.722  20.092  1.00  0.00    -0.005 C 
HETATM   12  C19 UNL     1      80.578  10.923  19.340  1.00  0.00     0.010 C 
ENDROOT
BRANCH   1  13
HETATM   13  C6  UNL     1      82.549  11.864  22.180  1.00  0.00     0.091 C 
BRANCH  13  14
HETATM   14  C5  UNL     1      83.363  12.623  21.124  1.00  0.00     0.018 C 
BRANCH  14  15
HETATM   15  C4  UNL     1      84.800  12.351  21.302  1.00  0.00     0.028 C 
BRANCH  15  16
HETATM   16  C3  UNL     1      85.576  11.732  20.199  1.00  0.00     0.178 C 
BRANCH  16  17
HETATM   17  O2  UNL     1      85.785  10.396  20.136  1.00  0.00    -0.322 OA
BRANCH  17  18
HETATM   18  C2  UNL     1      86.336   9.520  21.018  1.00  0.00     0.254 C 
HETATM   19  C1  UNL     1      85.469   8.621  21.881  1.00  0.00     0.126 C 
HETATM   20  O1  UNL     1      87.578   9.456  21.116  1.00  0.00    -0.266 OA
ENDBRANCH  17  18
ENDBRANCH  16  17
ENDBRANCH  15  16
ENDBRANCH  14  15
ENDBRANCH  13  14
BRANCH  13  21
HETATM   21  C7  UNL     1      81.897  12.764  23.125  1.00  0.00     0.177 C 
HETATM   22  O3  UNL     1      80.821  13.348  22.839  1.00  0.00    -0.648 OA
HETATM   23  O4  UNL     1      82.447  13.001  24.367  1.00  0.00    -0.648 OA
ENDBRANCH  13  21
ENDBRANCH   1  13
TORSDOF 7
ENDMDL
MODEL 2
REMARK VINA RESULT: -8.357597845      2.111      4.435
REMARK  7 active torsions:
REMARK  status: ('A' for Active; 'I' for Inactive)
REMARK    1  A    between atoms: C2_2  and  O2_4 
REMARK    2  A    between atoms: O2_4  and  C3_5 
REMARK    3  A    between atoms: C3_5  and  C4_6 
REMARK    4  A    between atoms: C4_6  and  C5_7 
REMARK    5  A    between atoms: C5_7  and  C6_8 
REMARK    6  A    between atoms: C6_8  and  C7_9 
REMARK    7  A    between atoms: C6_8  and  C8_12 
ROOT
HETATM    1  C8  UNL     1      83.763   9.868  20.203  1.00  0.00     0.004 C 
HETATM    2  C9  UNL     1      83.370  10.056  18.795  1.00  0.00     0.007 C 
HETATM    3  C10 UNL     1      82.035   9.438  18.433  1.00  0.00     0.010 C 
HETATM    4  C11 UNL     1      80.870   9.988  19.180  1.00  0.00    -0.043 C 
HETATM    5  C12 UNL     1      79.719  10.130  18.168  1.00  0.00     0.015 C 
HETATM    6  C13 UNL     1      80.360   9.133  20.283  1.00  0.00     0.013 C 
HETATM    7  C14 UNL     1      80.677   9.540  21.662  1.00  0.00    -0.013 C 
HETATM    8  C15 UNL     1      80.719  11.033  21.899  1.00  0.00     0.010 C 
HETATM    9  C16 UNL     1      81.862  11.389  20.925  1.00  0.00    -0.009 C 
HETATM   10  C17 UNL     1      81.215  11.393  19.603  1.00  0.00     0.014 C 
HETATM   11  C18 UNL     1      82.853  10.368  21.252  1.00  0.00    -0.005 C 
HETATM   12  C19 UNL     1      82.144   9.197  21.929  1.00  0.00     0.010 C 
ENDROOT
BRANCH   1  13
HETATM   13  C6  UNL     1      85.172  10.360  20.408  1.00  0.00     0.091 C 
BRANCH  13  14
HETATM   14  C5  UNL     1      85.193  11.742  21.073  1.00  0.00     0.018 C 
BRANCH  14  15
HETATM   15  C4  UNL     1      85.500  12.780  20.075  1.00  0.00     0.028 C 
BRANCH  15  16
HETATM   16  C3  UNL     1      84.427  13.684  19.593  1.00  0.00     0.178 C 
BRANCH  16  17
HETATM   17  O2  UNL     1      83.558  13.307  18.626  1.00  0.00    -0.322 OA
BRANCH  17  18
HETATM   18  C2  UNL     1      83.344  13.771  17.366  1.00  0.00     0.254 C 
HETATM   19  C1  UNL     1      81.951  13.803  16.764  1.00  0.00     0.126 C 
HETATM   20  O1  UNL     1      84.313  14.179  16.695  1.00  0.00    -0.266 OA
ENDBRANCH  17  18
ENDBRANCH  16  17
ENDBRANCH  15  16
ENDBRANCH  14  15
ENDBRANCH  13  14
BRANCH  13  21
HETATM   21  C7  UNL     1      86.082   9.422  21.058  1.00  0.00     0.177 C 
HETATM   22  O3  UNL     1      87.327   9.502  20.903  1.00  0.00    -0.648 OA
HETATM   23  O4  UNL     1      85.597   8.415  21.866  1.00  0.00    -0.648 OA
ENDBRANCH  13  21
ENDBRANCH   1  13
TORSDOF 7
ENDMDL
MODEL 3
REMARK VINA RESULT: -8.264505088      1.796      2.746
REMARK  7 active torsions:
REMARK  status: ('A' for Active; 'I' for Inactive)
REMARK    1  A    between atoms: C2_2  and  O2_4 
REMARK    2  A    between atoms: O2_4  and  C3_5 
REMARK    3  A    between atoms: C3_5  and  C4_6 
REMARK    4  A    between atoms: C4_6  and  C5_7 
REMARK    5  A    between atoms: C5_7  and  C6_8 
REMARK    6  A    between atoms: C6_8  and  C7_9 
REMARK    7  A    between atoms: C6_8  and  C8_12 
ROOT
HETATM    1  C8  UNL     1      81.507  10.901  21.481  1.00  0.00     0.004 C 
HETATM    2  C9  UNL     1      81.635   9.687  22.306  1.00  0.00     0.007 C 
HETATM    3  C10 UNL     1      80.739   8.543  21.876  1.00  0.00     0.010 C 
HETATM    4  C11 UNL     1      80.992   8.037  20.498  1.00  0.00    -0.043 C 
HETATM    5  C12 UNL     1      80.894   6.502  20.563  1.00  0.00     0.015 C 
HETATM    6  C13 UNL     1      80.016   8.480  19.469  1.00  0.00     0.013 C 
HETATM    7  C14 UNL     1      80.450   9.522  18.523  1.00  0.00    -0.013 C 
HETATM    8  C15 UNL     1      81.908   9.462  18.123  1.00  0.00     0.010 C 
HETATM    9  C16 UNL     1      82.538   9.662  19.519  1.00  0.00    -0.009 C 
HETATM   10  C17 UNL     1      82.427   8.339  20.153  1.00  0.00     0.014 C 
HETATM   11  C18 UNL     1      81.760  10.786  20.031  1.00  0.00    -0.005 C 
HETATM   12  C19 UNL     1      80.443  10.862  19.263  1.00  0.00     0.010 C 
ENDROOT
BRANCH   1  13
HETATM   13  C6  UNL     1      82.300  12.022  22.098  1.00  0.00     0.091 C 
BRANCH  13  14
HETATM   14  C5  UNL     1      82.794  13.012  21.035  1.00  0.00     0.018 C 
BRANCH  14  15
HETATM   15  C4  UNL     1      84.244  12.855  20.833  1.00  0.00     0.028 C 
BRANCH  15  16
HETATM   16  C3  UNL     1      84.814  12.947  19.466  1.00  0.00     0.178 C 
BRANCH  16  17
HETATM   17  O2  UNL     1      84.072  12.685  18.364  1.00  0.00    -0.322 OA
BRANCH  17  18
HETATM   18  C2  UNL     1      83.468  13.502  17.461  1.00  0.00     0.254 C 
HETATM   19  C1  UNL     1      81.957  13.534  17.315  1.00  0.00     0.126 C 
HETATM   20  O1  UNL     1      84.171  14.237  16.740  1.00  0.00    -0.266 OA
ENDBRANCH  17  18
ENDBRANCH  16  17
ENDBRANCH  15  16
ENDBRANCH  14  15
ENDBRANCH  13  14
BRANCH  13  21
HETATM   21  C7  UNL     1      81.669  12.698  23.228  1.00  0.00     0.177 C 
HETATM   22  O3  UNL     1      82.320  12.994  24.262  1.00  0.00    -0.648 OA
HETATM   23  O4  UNL     1      80.331  13.032  23.191  1.00  0.00    -0.648 OA
ENDBRANCH  13  21
ENDBRANCH   1  13
TORSDOF 7
ENDMDL
MODEL 4
REMARK VINA RESULT: -8.252412063      2.211      3.230
REMARK  7 active torsions:
REMARK  status: ('A' for Active; 'I' for Inactive)
REMARK    1  A    between atoms: C2_2  and  O2_4 
REMARK    2  A    between atoms: O2_4  and  C3_5 
REMARK    3  A    between atoms: C3_5  and  C4_6 
REMARK    4  A    between atoms: C4_6  and  C5_7 
REMARK    5  A    between atoms: C5_7  and  C6_8 
REMARK    6  A    between atoms: C6_8  and  C7_9 
REMARK    7  A    between atoms: C6_8  and  C8_12 
ROOT
HETATM    1  C8  UNL     1      82.395  11.829  19.410  1.00  0.00     0.004 C 
HETATM    2  C9  UNL     1      82.858  12.114  20.780  1.00  0.00     0.007 C 
HETATM    3  C10 UNL     1      81.919  11.631  21.868  1.00  0.00     0.010 C 
HETATM    4  C11 UNL     1      81.697  10.158  21.891  1.00  0.00    -0.043 C 
HETATM    5  C12 UNL     1      81.696   9.732  23.370  1.00  0.00     0.015 C 
HETATM    6  C13 UNL     1      80.404   9.702  21.319  1.00  0.00     0.013 C 
HETATM    7  C14 UNL     1      80.433   9.075  19.986  1.00  0.00    -0.013 C 
HETATM    8  C15 UNL     1      81.660   8.240  19.694  1.00  0.00     0.010 C 
HETATM    9  C16 UNL     1      82.729   9.347  19.825  1.00  0.00    -0.009 C 
HETATM   10  C17 UNL     1      82.906   9.500  21.278  1.00  0.00     0.014 C 
HETATM   11  C18 UNL     1      82.130  10.425  19.043  1.00  0.00    -0.005 C 
HETATM   12  C19 UNL     1      80.625  10.184  18.948  1.00  0.00     0.010 C 
ENDROOT
BRANCH   1  13
HETATM   13  C6  UNL     1      83.303  12.503  18.415  1.00  0.00     0.091 C 
BRANCH  13  14
HETATM   14  C5  UNL     1      84.250  11.497  17.749  1.00  0.00     0.018 C 
BRANCH  14  15
HETATM   15  C4  UNL     1      85.610  11.645  18.293  1.00  0.00     0.028 C 
BRANCH  15  16
HETATM   16  C3  UNL     1      86.266  10.496  18.964  1.00  0.00     0.178 C 
BRANCH  16  17
HETATM   17  O2  UNL     1      86.320  10.393  20.313  1.00  0.00    -0.322 OA
BRANCH  17  18
HETATM   18  C2  UNL     1      86.844   9.442  21.131  1.00  0.00     0.254 C 
HETATM   19  C1  UNL     1      85.950   8.502  21.920  1.00  0.00     0.126 C 
HETATM   20  O1  UNL     1      88.083   9.341  21.232  1.00  0.00    -0.266 OA
ENDBRANCH  17  18
ENDBRANCH  16  17
ENDBRANCH  15  16
ENDBRANCH  14  15
ENDBRANCH  13  14
BRANCH  13  21
HETATM   21  C7  UNL     1      82.645  13.369  17.441  1.00  0.00     0.177 C 
HETATM   22  O3  UNL     1      81.392  13.446  17.374  1.00  0.00    -0.648 OA
HETATM   23  O4  UNL     1      83.385  14.131  16.562  1.00  0.00    -0.648 OA
ENDBRANCH  13  21
ENDBRANCH   1  13
TORSDOF 7
ENDMDL
MODEL 5
REMARK VINA RESULT: -8.098261066      2.356      3.928
REMARK  7 active torsions:
REMARK  status: ('A' for Active; 'I' for Inactive)
REMARK    1  A    between atoms: C2_2  and  O2_4 
REMARK    2  A    between atoms: O2_4  and  C3_5 
REMARK    3  A    between atoms: C3_5  and  C4_6 
REMARK    4  A    between atoms: C4_6  and  C5_7 
REMARK    5  A    between atoms: C5_7  and  C6_8 
REMARK    6  A    between atoms: C6_8  and  C7_9 
REMARK    7  A    between atoms: C6_8  and  C8_12 
ROOT
HETATM    1  C8  UNL     1      83.772   9.958  20.314  1.00  0.00     0.004 C 
HETATM    2  C9  UNL     1      83.427  10.100  18.889  1.00  0.00     0.007 C 
HETATM    3  C10 UNL     1      82.103   9.471  18.503  1.00  0.00     0.010 C 
HETATM    4  C11 UNL     1      80.915  10.047  19.192  1.00  0.00    -0.043 C 
HETATM    5  C12 UNL     1      79.799  10.157  18.138  1.00  0.00     0.015 C 
HETATM    6  C13 UNL     1      80.367   9.228  20.304  1.00  0.00     0.013 C 
HETATM    7  C14 UNL     1      80.638   9.680  21.680  1.00  0.00    -0.013 C 
HETATM    8  C15 UNL     1      80.675  11.180  21.869  1.00  0.00     0.010 C 
HETATM    9  C16 UNL     1      81.852  11.503  20.923  1.00  0.00    -0.009 C 
HETATM   10  C17 UNL     1      81.249  11.464  19.580  1.00  0.00     0.014 C 
HETATM   11  C18 UNL     1      82.828  10.492  21.316  1.00  0.00    -0.005 C 
HETATM   12  C19 UNL     1      82.095   9.344  22.007  1.00  0.00     0.010 C 
ENDROOT
BRANCH   1  13
HETATM   13  C6  UNL     1      85.175  10.454  20.551  1.00  0.00     0.091 C 
BRANCH  13  14
HETATM   14  C5  UNL     1      85.180  11.753  21.367  1.00  0.00     0.018 C 
BRANCH  14  15
HETATM   15  C4  UNL     1      85.250  12.917  20.467  1.00  0.00     0.028 C 
BRANCH  15  16
HETATM   16  C3  UNL     1      85.584  12.724  19.035  1.00  0.00     0.178 C 
BRANCH  16  17
HETATM   17  O2  UNL     1      86.785  12.239  18.641  1.00  0.00    -0.322 OA
BRANCH  17  18
HETATM   18  C2  UNL     1      87.192  11.648  17.487  1.00  0.00     0.254 C 
HETATM   19  C1  UNL     1      87.318  10.140  17.376  1.00  0.00     0.126 C 
HETATM   20  O1  UNL     1      87.466  12.362  16.501  1.00  0.00    -0.266 OA
ENDBRANCH  17  18
ENDBRANCH  16  17
ENDBRANCH  15  16
ENDBRANCH  14  15
ENDBRANCH  13  14
BRANCH  13  21
HETATM   21  C7  UNL     1      86.115   9.470  21.076  1.00  0.00     0.177 C 
HETATM   22  O3  UNL     1      87.350   9.559  20.856  1.00  0.00    -0.648 OA
HETATM   23  O4  UNL     1      85.672   8.406  21.834  1.00  0.00    -0.648 OA
ENDBRANCH  13  21
ENDBRANCH   1  13
TORSDOF 7
ENDMDL
