MODEL 1
REMARK VINA RESULT: -7.250055141      0.000      0.000
REMARK  6 active torsions:
REMARK  status: ('A' for Active; 'I' for Inactive)
REMARK    1  A    between atoms: C1_2  and  C2_3 
REMARK    2  A    between atoms: C1_2  and  O4_20 
REMARK    3  A    between atoms: C2_3  and  N1_4 
REMARK    4  A    between atoms: N2_6  and  C3_8 
REMARK    5  A    between atoms: C4_9  and  O2_10 
REMARK    6  A    between atoms: O4_20  and  C7_21 
ROOT
HETATM    1  N1  UNL     1     -26.007  11.053  77.313  1.00  0.00    -0.326 N 
ATOM      2  H1  UNL     1     -26.866  10.873  76.792  1.00  0.00     0.180 HD
HETATM    3  N2  UNL     1     -25.099  10.166  77.326  1.00  0.00    -0.296 N 
ATOM      4  H2  UNL     1     -25.218   9.285  76.827  1.00  0.00     0.187 HD
ENDROOT
BRANCH   3   5
HETATM    5  C3  UNL     1     -23.913  10.439  78.057  1.00  0.00     0.167 A 
HETATM    6  C4  UNL     1     -22.850  11.064  77.438  1.00  0.00     0.176 A 
HETATM    7  N3  UNL     1     -21.760  11.292  78.187  1.00  0.00    -0.312 N 
HETATM    8  C5  UNL     1     -21.654  10.950  79.482  1.00  0.00     0.180 A 
ATOM      9  H3  UNL     1     -20.964  11.753  77.746  1.00  0.00     0.170 HD
HETATM   10  S1  UNL     1     -20.319  11.238  80.371  1.00  0.00    -0.040 SA
HETATM   11  N4  UNL     1     -22.686  10.337  80.106  1.00  0.00    -0.298 N 
HETATM   12  C6  UNL     1     -23.797  10.093  79.379  1.00  0.00     0.280 A 
ATOM     13  H4  UNL     1     -22.628  10.069  81.088  1.00  0.00     0.171 HD
HETATM   14  O3  UNL     1     -24.805   9.517  79.909  1.00  0.00    -0.265 OA
BRANCH   6  15
HETATM   15  O2  UNL     1     -22.958  11.418  76.102  1.00  0.00    -0.344 OA
ATOM     16  H2  UNL     1     -22.177  11.679  75.627  1.00  0.00     0.219 HD
ENDBRANCH   6  15
ENDBRANCH   3   5
BRANCH   1  17
HETATM   17  C2  UNL     1     -25.863  12.312  78.012  1.00  0.00     0.250 C 
BRANCH  17  18
HETATM   18  C1  UNL     1     -25.987  13.466  77.084  1.00  0.00     0.278 C 
HETATM   19  O1  UNL     1     -25.205  13.494  76.098  1.00  0.00    -0.263 OA
BRANCH  18  20
HETATM   20  O4  UNL     1     -26.915  14.478  77.279  1.00  0.00    -0.315 OA
BRANCH  20  21
HETATM   21  C7  UNL     1     -28.174  14.350  76.691  1.00  0.00     0.132 C 
HETATM   22  C8  UNL     1     -29.196  14.147  77.790  1.00  0.00     0.032 C 
HETATM   23  C9  UNL     1     -30.443  14.784  77.277  1.00  0.00     0.002 C 
HETATM   24  C10 UNL     1     -30.144  15.357  75.912  1.00  0.00     0.002 C 
HETATM   25  C11 UNL     1     -28.648  15.601  75.993  1.00  0.00     0.032 C 
ENDBRANCH  20  21
ENDBRANCH  18  20
ENDBRANCH  17  18
ENDBRANCH   1  17
TORSDOF 6
ENDMDL
MODEL 2
REMARK VINA RESULT: -7.212294399      1.402      1.572
REMARK  6 active torsions:
REMARK  status: ('A' for Active; 'I' for Inactive)
REMARK    1  A    between atoms: C1_2  and  C2_3 
REMARK    2  A    between atoms: C1_2  and  O4_20 
REMARK    3  A    between atoms: C2_3  and  N1_4 
REMARK    4  A    between atoms: N2_6  and  C3_8 
REMARK    5  A    between atoms: C4_9  and  O2_10 
REMARK    6  A    between atoms: O4_20  and  C7_21 
ROOT
HETATM    1  N1  UNL     1     -27.700  11.813  77.756  1.00  0.00    -0.326 N 
ATOM      2  H1  UNL     1     -28.686  11.863  77.496  1.00  0.00     0.180 HD
HETATM    3  N2  UNL     1     -27.134  10.679  77.804  1.00  0.00    -0.296 N 
ATOM      4  H2  UNL     1     -27.648   9.825  77.586  1.00  0.00     0.187 HD
ENDROOT
BRANCH   3   5
HETATM    5  C3  UNL     1     -25.762  10.634  78.168  1.00  0.00     0.167 A 
HETATM    6  C4  UNL     1     -24.787  10.796  77.206  1.00  0.00     0.176 A 
HETATM    7  N3  UNL     1     -23.512  10.744  77.619  1.00  0.00    -0.312 N 
HETATM    8  C5  UNL     1     -23.144  10.545  78.897  1.00  0.00     0.180 A 
ATOM      9  H3  UNL     1     -22.777  10.862  76.922  1.00  0.00     0.170 HD
HETATM   10  S1  UNL     1     -21.587  10.486  79.375  1.00  0.00    -0.040 SA
HETATM   11  N4  UNL     1     -24.086  10.385  79.854  1.00  0.00    -0.298 N 
HETATM   12  C6  UNL     1     -25.379  10.432  79.470  1.00  0.00     0.280 A 
ATOM     13  H4  UNL     1     -23.830  10.234  80.829  1.00  0.00     0.171 HD
HETATM   14  O3  UNL     1     -26.315  10.287  80.325  1.00  0.00    -0.265 OA
BRANCH   6  15
HETATM   15  O2  UNL     1     -25.165  11.002  75.889  1.00  0.00    -0.344 OA
ATOM     16  H2  UNL     1     -24.883  11.792  75.443  1.00  0.00     0.219 HD
ENDBRANCH   6  15
ENDBRANCH   3   5
BRANCH   1  17
HETATM   17  C2  UNL     1     -26.994  13.039  78.059  1.00  0.00     0.250 C 
BRANCH  17  18
HETATM   18  C1  UNL     1     -26.959  13.951  76.887  1.00  0.00     0.278 C 
HETATM   19  O1  UNL     1     -26.177  13.647  75.949  1.00  0.00    -0.263 OA
BRANCH  18  20
HETATM   20  O4  UNL     1     -27.746  15.090  76.810  1.00  0.00    -0.315 OA
BRANCH  20  21
HETATM   21  C7  UNL     1     -29.053  14.968  76.338  1.00  0.00     0.132 C 
HETATM   22  C8  UNL     1     -29.975  14.789  77.526  1.00  0.00     0.032 C 
HETATM   23  C9  UNL     1     -31.257  15.432  77.118  1.00  0.00     0.002 C 
HETATM   24  C10 UNL     1     -31.075  15.985  75.724  1.00  0.00     0.002 C 
HETATM   25  C11 UNL     1     -29.576  16.215  75.669  1.00  0.00     0.032 C 
ENDBRANCH  20  21
ENDBRANCH  18  20
ENDBRANCH  17  18
ENDBRANCH   1  17
TORSDOF 6
ENDMDL
MODEL 3
REMARK VINA RESULT: -7.052410986      3.125      4.125
REMARK  6 active torsions:
REMARK  status: ('A' for Active; 'I' for Inactive)
REMARK    1  A    between atoms: C1_2  and  C2_3 
REMARK    2  A    between atoms: C1_2  and  O4_20 
REMARK    3  A    between atoms: C2_3  and  N1_4 
REMARK    4  A    between atoms: N2_6  and  C3_8 
REMARK    5  A    between atoms: C4_9  and  O2_10 
REMARK    6  A    between atoms: O4_20  and  C7_21 
ROOT
HETATM    1  N1  UNL     1     -30.533  11.056  79.368  1.00  0.00    -0.326 N 
ATOM      2  H1  UNL     1     -31.540  10.902  79.428  1.00  0.00     0.180 HD
HETATM    3  N2  UNL     1     -29.757  10.051  79.365  1.00  0.00    -0.296 N 
ATOM      4  H2  UNL     1     -30.126   9.102  79.421  1.00  0.00     0.187 HD
ENDROOT
BRANCH   3   5
HETATM    5  C3  UNL     1     -28.360  10.290  79.279  1.00  0.00     0.167 A 
HETATM    6  C4  UNL     1     -27.752  10.391  78.045  1.00  0.00     0.176 A 
HETATM    7  N3  UNL     1     -26.429  10.617  78.037  1.00  0.00    -0.312 N 
HETATM    8  C5  UNL     1     -25.683  10.747  79.147  1.00  0.00     0.180 A 
ATOM      9  H3  UNL     1     -25.962  10.695  77.133  1.00  0.00     0.170 HD
HETATM   10  S1  UNL     1     -24.078  11.022  79.112  1.00  0.00    -0.040 SA
HETATM   11  N4  UNL     1     -26.263  10.652  80.366  1.00  0.00    -0.298 N 
HETATM   12  C6  UNL     1     -27.592  10.424  80.408  1.00  0.00     0.280 A 
ATOM     13  H4  UNL     1     -25.716  10.749  81.221  1.00  0.00     0.171 HD
HETATM   14  O3  UNL     1     -28.198  10.323  81.527  1.00  0.00    -0.265 OA
BRANCH   6  15
HETATM   15  O2  UNL     1     -28.520  10.257  76.900  1.00  0.00    -0.344 OA
ATOM     16  H2  UNL     1     -28.126  10.435  76.053  1.00  0.00     0.219 HD
ENDBRANCH   6  15
ENDBRANCH   3   5
BRANCH   1  17
HETATM   17  C2  UNL     1     -30.036  12.412  79.288  1.00  0.00     0.250 C 
BRANCH  17  18
HETATM   18  C1  UNL     1     -30.472  13.079  78.034  1.00  0.00     0.278 C 
HETATM   19  O1  UNL     1     -30.721  12.337  77.049  1.00  0.00    -0.263 OA
BRANCH  18  20
HETATM   20  O4  UNL     1     -30.605  14.456  77.934  1.00  0.00    -0.315 OA
BRANCH  20  21
HETATM   21  C7  UNL     1     -30.346  15.064  76.706  1.00  0.00     0.132 C 
HETATM   22  C8  UNL     1     -30.879  16.480  76.753  1.00  0.00     0.032 C 
HETATM   23  C9  UNL     1     -29.962  17.266  75.878  1.00  0.00     0.002 C 
HETATM   24  C10 UNL     1     -28.908  16.323  75.346  1.00  0.00     0.002 C 
HETATM   25  C11 UNL     1     -28.876  15.248  76.418  1.00  0.00     0.032 C 
ENDBRANCH  20  21
ENDBRANCH  18  20
ENDBRANCH  17  18
ENDBRANCH   1  17
TORSDOF 6
ENDMDL
MODEL 4
REMARK VINA RESULT: -7.043681457      3.566      5.027
REMARK  6 active torsions:
REMARK  status: ('A' for Active; 'I' for Inactive)
REMARK    1  A    between atoms: C1_2  and  C2_3 
REMARK    2  A    between atoms: C1_2  and  O4_20 
REMARK    3  A    between atoms: C2_3  and  N1_4 
REMARK    4  A    between atoms: N2_6  and  C3_8 
REMARK    5  A    between atoms: C4_9  and  O2_10 
REMARK    6  A    between atoms: O4_20  and  C7_21 
ROOT
HETATM    1  N1  UNL     1     -21.148   9.981  77.888  1.00  0.00    -0.326 N 
ATOM      2  H1  UNL     1     -20.784  10.742  77.314  1.00  0.00     0.180 HD
HETATM    3  N2  UNL     1     -21.404   8.866  77.338  1.00  0.00    -0.296 N 
ATOM      4  H2  UNL     1     -21.251   8.724  76.340  1.00  0.00     0.187 HD
ENDROOT
BRANCH   3   5
HETATM    5  C3  UNL     1     -21.909   7.821  78.155  1.00  0.00     0.167 A 
HETATM    6  C4  UNL     1     -23.271   7.633  78.272  1.00  0.00     0.176 A 
HETATM    7  N3  UNL     1     -23.680   6.627  79.059  1.00  0.00    -0.312 N 
HETATM    8  C5  UNL     1     -22.848   5.810  79.727  1.00  0.00     0.180 A 
ATOM      9  H3  UNL     1     -24.684   6.473  79.158  1.00  0.00     0.170 HD
HETATM   10  S1  UNL     1     -23.369   4.594  80.678  1.00  0.00    -0.040 SA
HETATM   11  N4  UNL     1     -21.509   5.978  79.624  1.00  0.00    -0.298 N 
HETATM   12  C6  UNL     1     -21.066   6.982  78.839  1.00  0.00     0.280 A 
ATOM     13  H4  UNL     1     -20.859   5.369  80.121  1.00  0.00     0.171 HD
HETATM   14  O3  UNL     1     -19.815   7.194  78.702  1.00  0.00    -0.265 OA
BRANCH   6  15
HETATM   15  O2  UNL     1     -24.131   8.474  77.584  1.00  0.00    -0.344 OA
ATOM     16  H2  UNL     1     -24.616   9.135  78.064  1.00  0.00     0.219 HD
ENDBRANCH   6  15
ENDBRANCH   3   5
BRANCH   1  17
HETATM   17  C2  UNL     1     -21.356  10.207  79.302  1.00  0.00     0.250 C 
BRANCH  17  18
HETATM   18  C1  UNL     1     -22.580  11.012  79.550  1.00  0.00     0.278 C 
HETATM   19  O1  UNL     1     -22.671  11.585  80.666  1.00  0.00    -0.263 OA
BRANCH  18  20
HETATM   20  O4  UNL     1     -23.588  11.138  78.605  1.00  0.00    -0.315 OA
BRANCH  20  21
HETATM   21  C7  UNL     1     -24.829  11.623  79.016  1.00  0.00     0.132 C 
HETATM   22  C8  UNL     1     -25.553  12.170  77.802  1.00  0.00     0.032 C 
HETATM   23  C9  UNL     1     -26.999  11.928  78.075  1.00  0.00     0.002 C 
HETATM   24  C10 UNL     1     -27.109  11.241  79.417  1.00  0.00     0.002 C 
HETATM   25  C11 UNL     1     -25.760  10.554  79.531  1.00  0.00     0.032 C 
ENDBRANCH  20  21
ENDBRANCH  18  20
ENDBRANCH  17  18
ENDBRANCH   1  17
TORSDOF 6
ENDMDL
MODEL 5
REMARK VINA RESULT: -6.998044084      4.587      5.297
REMARK  6 active torsions:
REMARK  status: ('A' for Active; 'I' for Inactive)
REMARK    1  A    between atoms: C1_2  and  C2_3 
REMARK    2  A    between atoms: C1_2  and  O4_20 
REMARK    3  A    between atoms: C2_3  and  N1_4 
REMARK    4  A    between atoms: N2_6  and  C3_8 
REMARK    5  A    between atoms: C4_9  and  O2_10 
REMARK    6  A    between atoms: O4_20  and  C7_21 
ROOT
HETATM    1  N1  UNL     1     -27.610  12.689  78.881  1.00  0.00    -0.326 N 
ATOM      2  H1  UNL     1     -26.902  13.388  78.654  1.00  0.00     0.180 HD
HETATM    3  N2  UNL     1     -27.236  11.523  79.213  1.00  0.00    -0.296 N 
ATOM      4  H2  UNL     1     -26.247  11.279  79.255  1.00  0.00     0.187 HD
ENDROOT
BRANCH   3   5
HETATM    5  C3  UNL     1     -28.239  10.567  79.525  1.00  0.00     0.167 A 
HETATM    6  C4  UNL     1     -28.773   9.776  78.528  1.00  0.00     0.176 A 
HETATM    7  N3  UNL     1     -29.715   8.894  78.893  1.00  0.00    -0.312 N 
HETATM    8  C5  UNL     1     -30.156   8.744  80.153  1.00  0.00     0.180 A 
ATOM      9  H3  UNL     1     -30.122   8.301  78.169  1.00  0.00     0.170 HD
HETATM   10  S1  UNL     1     -31.302   7.663  80.572  1.00  0.00    -0.040 SA
HETATM   11  N4  UNL     1     -29.643   9.509  81.144  1.00  0.00    -0.298 N 
HETATM   12  C6  UNL     1     -28.693  10.407  80.809  1.00  0.00     0.280 A 
ATOM     13  H4  UNL     1     -29.962   9.411  82.108  1.00  0.00     0.171 HD
HETATM   14  O3  UNL     1     -28.171  11.159  81.698  1.00  0.00    -0.265 OA
BRANCH   6  15
HETATM   15  O2  UNL     1     -28.319   9.930  77.228  1.00  0.00    -0.344 OA
ATOM     16  H2  UNL     1     -28.053  10.791  76.928  1.00  0.00     0.219 HD
ENDBRANCH   6  15
ENDBRANCH   3   5
BRANCH   1  17
HETATM   17  C2  UNL     1     -29.006  13.061  78.814  1.00  0.00     0.250 C 
BRANCH  17  18
HETATM   18  C1  UNL     1     -29.460  13.224  77.409  1.00  0.00     0.278 C 
HETATM   19  O1  UNL     1     -28.864  12.545  76.533  1.00  0.00    -0.263 OA
BRANCH  18  20
HETATM   20  O4  UNL     1     -30.491  14.083  77.058  1.00  0.00    -0.315 OA
BRANCH  20  21
HETATM   21  C7  UNL     1     -30.240  15.075  76.111  1.00  0.00     0.132 C 
HETATM   22  C8  UNL     1     -30.980  16.330  76.527  1.00  0.00     0.032 C 
HETATM   23  C9  UNL     1     -30.131  17.456  76.042  1.00  0.00     0.002 C 
HETATM   24  C10 UNL     1     -28.914  16.863  75.371  1.00  0.00     0.002 C 
HETATM   25  C11 UNL     1     -28.797  15.515  76.060  1.00  0.00     0.032 C 
ENDBRANCH  20  21
ENDBRANCH  18  20
ENDBRANCH  17  18
ENDBRANCH   1  17
TORSDOF 6
ENDMDL
