MODEL 1
REMARK VINA RESULT: -7.793866052      0.000      0.000
REMARK  8 active torsions:
REMARK  status: ('A' for Active; 'I' for Inactive)
REMARK    1  A    between atoms: O1_2  and  C2_3 
REMARK    2  A    between atoms: C2_3  and  C3_5 
REMARK    3  A    between atoms: C4_6  and  O3_7 
REMARK    4  A    between atoms: C5_9  and  O4_10 
REMARK       I    between atoms: N1_12  and  C6_13 
REMARK    5  A    between atoms: C8_16  and  C9_17 
REMARK    6  A    between atoms: C10_18  and  C11_19 
REMARK    7  A    between atoms: C11_19  and  C12_24 
REMARK    8  A    between atoms: N2_20  and  O6_22 
ROOT
HETATM    1  C3  UNL     1     -28.361  11.025  79.476  1.00  0.00     0.104 A 
HETATM    2  C4  UNL     1     -29.014  10.109  80.261  1.00  0.00     0.136 A 
HETATM    3  C5  UNL     1     -30.336  10.172  80.009  1.00  0.00     0.185 A 
HETATM    4  N1  UNL     1     -30.533  11.139  79.050  1.00  0.00    -0.259 N 
HETATM    5  C6  UNL     1     -31.842  11.364  78.554  1.00  0.00     0.226 C 
HETATM    6  C7  UNL     1     -33.032  10.653  79.146  1.00  0.00     0.118 C 
HETATM    7  O5  UNL     1     -32.090  12.137  77.631  1.00  0.00    -0.273 OA
HETATM    8  C8  UNL     1     -29.355  11.686  78.701  1.00  0.00     0.064 A 
ENDROOT
BRANCH   8   9
HETATM    9  C9  UNL     1     -28.993  12.670  77.715  1.00  0.00     0.033 C 
HETATM   10  C10 UNL     1     -28.915  13.960  77.787  1.00  0.00     0.029 C 
BRANCH  10  11
HETATM   11  C11 UNL     1     -28.533  14.780  76.649  1.00  0.00     0.035 C 
HETATM   12  N2  UNL     1     -27.287  14.964  76.371  1.00  0.00    -0.273 N 
ATOM     13  H2  UNL     1     -27.056  15.546  75.566  1.00  0.00     0.193 HD
BRANCH  12  14
HETATM   14  O6  UNL     1     -26.264  14.430  77.087  1.00  0.00    -0.290 OA
ATOM     15  H6  UNL     1     -26.105  13.497  77.170  1.00  0.00     0.244 HD
ENDBRANCH  12  14
BRANCH  11  16
HETATM   16  C12 UNL     1     -29.574  15.432  75.832  1.00  0.00     0.029 C 
HETATM   17  C13 UNL     1     -29.008  16.757  75.330  1.00  0.00     0.016 C 
HETATM   18  C14 UNL     1     -30.780  15.818  76.685  1.00  0.00     0.016 C 
ENDBRANCH  11  16
ENDBRANCH  10  11
ENDBRANCH   8   9
BRANCH   1  19
HETATM   19  C2  UNL     1     -26.918  11.255  79.479  1.00  0.00     0.298 C 
HETATM   20  O2  UNL     1     -26.350  12.198  78.902  1.00  0.00    -0.259 OA
BRANCH  19  21
HETATM   21  O1  UNL     1     -26.065  10.378  80.168  1.00  0.00    -0.322 OA
HETATM   22  C1  UNL     1     -24.721  10.191  79.762  1.00  0.00     0.213 C 
ENDBRANCH  19  21
ENDBRANCH   1  19
BRANCH   2  23
HETATM   23  O3  UNL     1     -28.376   9.247  81.179  1.00  0.00    -0.356 OA
ATOM     24  H3  UNL     1     -28.221   9.457  82.092  1.00  0.00     0.218 HD
ENDBRANCH   2  23
BRANCH   3  25
HETATM   25  O4  UNL     1     -31.288   9.386  80.629  1.00  0.00    -0.344 OA
ATOM     26  H4  UNL     1     -32.182   9.285  80.325  1.00  0.00     0.219 HD
ENDBRANCH   3  25
TORSDOF 8
ENDMDL
MODEL 2
REMARK VINA RESULT: -7.733086798      2.043      5.333
REMARK  8 active torsions:
REMARK  status: ('A' for Active; 'I' for Inactive)
REMARK    1  A    between atoms: O1_2  and  C2_3 
REMARK    2  A    between atoms: C2_3  and  C3_5 
REMARK    3  A    between atoms: C4_6  and  O3_7 
REMARK    4  A    between atoms: C5_9  and  O4_10 
REMARK       I    between atoms: N1_12  and  C6_13 
REMARK    5  A    between atoms: C8_16  and  C9_17 
REMARK    6  A    between atoms: C10_18  and  C11_19 
REMARK    7  A    between atoms: C11_19  and  C12_24 
REMARK    8  A    between atoms: N2_20  and  O6_22 
ROOT
HETATM    1  C3  UNL     1     -28.929  12.005  79.344  1.00  0.00     0.104 A 
HETATM    2  C4  UNL     1     -30.103  12.649  79.047  1.00  0.00     0.136 A 
HETATM    3  C5  UNL     1     -29.868  13.594  78.117  1.00  0.00     0.185 A 
HETATM    4  N1  UNL     1     -28.526  13.555  77.812  1.00  0.00    -0.259 N 
HETATM    5  C6  UNL     1     -28.022  14.415  76.804  1.00  0.00     0.226 C 
HETATM    6  C7  UNL     1     -28.902  15.451  76.152  1.00  0.00     0.118 C 
HETATM    7  O5  UNL     1     -26.861  14.375  76.403  1.00  0.00    -0.273 OA
HETATM    8  C8  UNL     1     -27.917  12.603  78.541  1.00  0.00     0.064 A 
ENDROOT
BRANCH   8   9
HETATM    9  C9  UNL     1     -26.565  12.109  78.562  1.00  0.00     0.033 C 
HETATM   10  C10 UNL     1     -25.978  11.206  77.845  1.00  0.00     0.029 C 
BRANCH  10  11
HETATM   11  C11 UNL     1     -24.583  10.845  78.041  1.00  0.00     0.035 C 
HETATM   12  N2  UNL     1     -23.707  11.124  77.135  1.00  0.00    -0.273 N 
ATOM     13  H2  UNL     1     -22.738  10.855  77.306  1.00  0.00     0.193 HD
BRANCH  12  14
HETATM   14  O6  UNL     1     -23.999  11.753  75.968  1.00  0.00    -0.290 OA
ATOM     15  H6  UNL     1     -23.579  11.555  75.139  1.00  0.00     0.244 HD
ENDBRANCH  12  14
BRANCH  11  16
HETATM   16  C12 UNL     1     -24.175  10.127  79.263  1.00  0.00     0.029 C 
HETATM   17  C13 UNL     1     -23.050  10.923  79.916  1.00  0.00     0.016 C 
HETATM   18  C14 UNL     1     -23.553   8.774  78.923  1.00  0.00     0.016 C 
ENDBRANCH  11  16
ENDBRANCH  10  11
ENDBRANCH   8   9
BRANCH   1  19
HETATM   19  C2  UNL     1     -28.787  10.925  80.317  1.00  0.00     0.298 C 
HETATM   20  O2  UNL     1     -28.136  11.005  81.374  1.00  0.00    -0.259 OA
BRANCH  19  21
HETATM   21  O1  UNL     1     -29.409   9.686  80.093  1.00  0.00    -0.322 OA
HETATM   22  C1  UNL     1     -29.714   8.813  81.165  1.00  0.00     0.213 C 
ENDBRANCH  19  21
ENDBRANCH   1  19
BRANCH   2  23
HETATM   23  O3  UNL     1     -31.349  12.346  79.639  1.00  0.00    -0.356 OA
ATOM     24  H3  UNL     1     -32.171  12.305  79.165  1.00  0.00     0.218 HD
ENDBRANCH   2  23
BRANCH   3  25
HETATM   25  O4  UNL     1     -30.833  14.431  77.593  1.00  0.00    -0.344 OA
ATOM     26  H4  UNL     1     -30.684  15.338  77.352  1.00  0.00     0.219 HD
ENDBRANCH   3  25
TORSDOF 8
ENDMDL
MODEL 3
REMARK VINA RESULT: -7.650690106      2.081      4.990
REMARK  8 active torsions:
REMARK  status: ('A' for Active; 'I' for Inactive)
REMARK    1  A    between atoms: O1_2  and  C2_3 
REMARK    2  A    between atoms: C2_3  and  C3_5 
REMARK    3  A    between atoms: C4_6  and  O3_7 
REMARK    4  A    between atoms: C5_9  and  O4_10 
REMARK       I    between atoms: N1_12  and  C6_13 
REMARK    5  A    between atoms: C8_16  and  C9_17 
REMARK    6  A    between atoms: C10_18  and  C11_19 
REMARK    7  A    between atoms: C11_19  and  C12_24 
REMARK    8  A    between atoms: N2_20  and  O6_22 
ROOT
HETATM    1  C3  UNL     1     -29.545  12.508  79.072  1.00  0.00     0.104 A 
HETATM    2  C4  UNL     1     -30.778  13.082  78.897  1.00  0.00     0.136 A 
HETATM    3  C5  UNL     1     -30.682  14.070  77.986  1.00  0.00     0.185 A 
HETATM    4  N1  UNL     1     -29.371  14.129  77.570  1.00  0.00    -0.259 N 
HETATM    5  C6  UNL     1     -29.009  15.051  76.556  1.00  0.00     0.226 C 
HETATM    6  C7  UNL     1     -30.004  16.047  76.018  1.00  0.00     0.118 C 
HETATM    7  O5  UNL     1     -27.885  15.100  76.060  1.00  0.00    -0.273 OA
HETATM    8  C8  UNL     1     -28.644  13.196  78.211  1.00  0.00     0.064 A 
ENDROOT
BRANCH   8   9
HETATM    9  C9  UNL     1     -27.267  12.791  78.102  1.00  0.00     0.033 C 
HETATM   10  C10 UNL     1     -26.730  11.722  77.607  1.00  0.00     0.029 C 
BRANCH  10  11
HETATM   11  C11 UNL     1     -25.293  11.504  77.608  1.00  0.00     0.035 C 
HETATM   12  N2  UNL     1     -24.651  11.409  76.493  1.00  0.00    -0.273 N 
ATOM     13  H2  UNL     1     -23.643  11.255  76.531  1.00  0.00     0.193 HD
BRANCH  12  14
HETATM   14  O6  UNL     1     -25.236  11.502  75.271  1.00  0.00    -0.290 OA
ATOM     15  H6  UNL     1     -24.866  11.137  74.476  1.00  0.00     0.244 HD
ENDBRANCH  12  14
BRANCH  11  16
HETATM   16  C12 UNL     1     -24.573  11.354  78.887  1.00  0.00     0.029 C 
HETATM   17  C13 UNL     1     -23.196  10.776  78.580  1.00  0.00     0.016 C 
HETATM   18  C14 UNL     1     -25.248  10.313  79.777  1.00  0.00     0.016 C 
ENDBRANCH  11  16
ENDBRANCH  10  11
ENDBRANCH   8   9
BRANCH   1  19
HETATM   19  C2  UNL     1     -29.253  11.409  79.990  1.00  0.00     0.298 C 
HETATM   20  O2  UNL     1     -28.474  11.482  80.956  1.00  0.00    -0.259 OA
BRANCH  19  21
HETATM   21  O1  UNL     1     -29.870  10.160  79.815  1.00  0.00    -0.322 OA
HETATM   22  C1  UNL     1     -29.739   9.134  80.780  1.00  0.00     0.213 C 
ENDBRANCH  19  21
ENDBRANCH   1  19
BRANCH   2  23
HETATM   23  O3  UNL     1     -31.948  12.680  79.577  1.00  0.00    -0.356 OA
ATOM     24  H3  UNL     1     -32.272  11.788  79.603  1.00  0.00     0.218 HD
ENDBRANCH   2  23
BRANCH   3  25
HETATM   25  O4  UNL     1     -31.739  14.858  77.574  1.00  0.00    -0.344 OA
ATOM     26  H4  UNL     1     -31.965  15.697  77.959  1.00  0.00     0.219 HD
ENDBRANCH   3  25
TORSDOF 8
ENDMDL
MODEL 4
REMARK VINA RESULT: -7.644462038      2.385      6.211
REMARK  8 active torsions:
REMARK  status: ('A' for Active; 'I' for Inactive)
REMARK    1  A    between atoms: O1_2  and  C2_3 
REMARK    2  A    between atoms: C2_3  and  C3_5 
REMARK    3  A    between atoms: C4_6  and  O3_7 
REMARK    4  A    between atoms: C5_9  and  O4_10 
REMARK       I    between atoms: N1_12  and  C6_13 
REMARK    5  A    between atoms: C8_16  and  C9_17 
REMARK    6  A    between atoms: C10_18  and  C11_19 
REMARK    7  A    between atoms: C11_19  and  C12_24 
REMARK    8  A    between atoms: N2_20  and  O6_22 
ROOT
HETATM    1  C3  UNL     1     -31.740  14.083  77.681  1.00  0.00     0.104 A 
HETATM    2  C4  UNL     1     -32.180  15.316  77.274  1.00  0.00     0.136 A 
HETATM    3  C5  UNL     1     -31.170  15.970  76.668  1.00  0.00     0.185 A 
HETATM    4  N1  UNL     1     -30.069  15.145  76.685  1.00  0.00    -0.259 N 
HETATM    5  C6  UNL     1     -28.877  15.572  76.048  1.00  0.00     0.226 C 
HETATM    6  C7  UNL     1     -28.758  16.957  75.465  1.00  0.00     0.118 C 
HETATM    7  O5  UNL     1     -27.882  14.859  75.932  1.00  0.00    -0.273 OA
HETATM    8  C8  UNL     1     -30.373  13.986  77.297  1.00  0.00     0.064 A 
ENDROOT
BRANCH   8   9
HETATM    9  C9  UNL     1     -29.623  12.778  77.519  1.00  0.00     0.033 C 
HETATM   10  C10 UNL     1     -28.597  12.538  78.270  1.00  0.00     0.029 C 
BRANCH  10  11
HETATM   11  C11 UNL     1     -27.976  11.225  78.341  1.00  0.00     0.035 C 
HETATM   12  N2  UNL     1     -27.255  10.795  77.361  1.00  0.00    -0.273 N 
ATOM     13  H2  UNL     1     -26.836   9.869  77.445  1.00  0.00     0.193 HD
BRANCH  12  14
HETATM   14  O6  UNL     1     -27.022  11.502  76.225  1.00  0.00    -0.290 OA
ATOM     15  H6  UNL     1     -27.282  12.407  76.101  1.00  0.00     0.244 HD
ENDBRANCH  12  14
BRANCH  11  16
HETATM   16  C12 UNL     1     -28.202  10.368  79.521  1.00  0.00     0.029 C 
HETATM   17  C13 UNL     1     -29.498   9.597  79.294  1.00  0.00     0.016 C 
HETATM   18  C14 UNL     1     -28.458  11.211  80.769  1.00  0.00     0.016 C 
ENDBRANCH  11  16
ENDBRANCH  10  11
ENDBRANCH   8   9
BRANCH   1  19
HETATM   19  C2  UNL     1     -32.551  13.092  78.385  1.00  0.00     0.298 C 
HETATM   20  O2  UNL     1     -33.140  13.295  79.461  1.00  0.00    -0.259 OA
BRANCH  19  21
HETATM   21  O1  UNL     1     -32.710  11.803  77.853  1.00  0.00    -0.322 OA
HETATM   22  C1  UNL     1     -33.116  10.717  78.666  1.00  0.00     0.213 C 
ENDBRANCH  19  21
ENDBRANCH   1  19
BRANCH   2  23
HETATM   23  O3  UNL     1     -33.493  15.798  77.472  1.00  0.00    -0.356 OA
ATOM     24  H3  UNL     1     -33.702  16.673  77.776  1.00  0.00     0.218 HD
ENDBRANCH   2  23
BRANCH   3  25
HETATM   25  O4  UNL     1     -31.270  17.243  76.140  1.00  0.00    -0.344 OA
ATOM     26  H4  UNL     1     -31.157  17.452  75.220  1.00  0.00     0.219 HD
ENDBRANCH   3  25
TORSDOF 8
ENDMDL
MODEL 5
REMARK VINA RESULT: -7.635993806      2.137      5.622
REMARK  8 active torsions:
REMARK  status: ('A' for Active; 'I' for Inactive)
REMARK    1  A    between atoms: O1_2  and  C2_3 
REMARK    2  A    between atoms: C2_3  and  C3_5 
REMARK    3  A    between atoms: C4_6  and  O3_7 
REMARK    4  A    between atoms: C5_9  and  O4_10 
REMARK       I    between atoms: N1_12  and  C6_13 
REMARK    5  A    between atoms: C8_16  and  C9_17 
REMARK    6  A    between atoms: C10_18  and  C11_19 
REMARK    7  A    between atoms: C11_19  and  C12_24 
REMARK    8  A    between atoms: N2_20  and  O6_22 
ROOT
HETATM    1  C3  UNL     1     -28.635  14.450  76.987  1.00  0.00     0.104 A 
HETATM    2  C4  UNL     1     -29.050  15.555  76.289  1.00  0.00     0.136 A 
HETATM    3  C5  UNL     1     -30.358  15.767  76.531  1.00  0.00     0.185 A 
HETATM    4  N1  UNL     1     -30.787  14.787  77.397  1.00  0.00    -0.259 N 
HETATM    5  C6  UNL     1     -32.124  14.818  77.868  1.00  0.00     0.226 C 
HETATM    6  C7  UNL     1     -33.112  15.827  77.341  1.00  0.00     0.118 C 
HETATM    7  O5  UNL     1     -32.558  14.041  78.715  1.00  0.00    -0.273 OA
HETATM    8  C8  UNL     1     -29.768  13.961  77.697  1.00  0.00     0.064 A 
ENDROOT
BRANCH   8   9
HETATM    9  C9  UNL     1     -29.657  12.837  78.589  1.00  0.00     0.033 C 
HETATM   10  C10 UNL     1     -29.706  11.563  78.364  1.00  0.00     0.029 C 
BRANCH  10  11
HETATM   11  C11 UNL     1     -29.580  10.582  79.429  1.00  0.00     0.035 C 
HETATM   12  N2  UNL     1     -30.634  10.089  79.986  1.00  0.00    -0.273 N 
ATOM     13  H2  UNL     1     -30.508   9.403  80.730  1.00  0.00     0.193 HD
BRANCH  12  14
HETATM   14  O6  UNL     1     -31.903  10.430  79.640  1.00  0.00    -0.290 OA
ATOM     15  H6  UNL     1     -32.509  10.874  80.220  1.00  0.00     0.244 HD
ENDBRANCH  12  14
BRANCH  11  16
HETATM   16  C12 UNL     1     -28.241  10.175  79.898  1.00  0.00     0.029 C 
HETATM   17  C13 UNL     1     -27.963  10.912  81.203  1.00  0.00     0.016 C 
HETATM   18  C14 UNL     1     -27.155  10.652  78.936  1.00  0.00     0.016 C 
ENDBRANCH  11  16
ENDBRANCH  10  11
ENDBRANCH   8   9
BRANCH   1  19
HETATM   19  C2  UNL     1     -27.280  13.904  76.966  1.00  0.00     0.298 C 
HETATM   20  O2  UNL     1     -26.322  14.360  77.615  1.00  0.00    -0.259 OA
BRANCH  19  21
HETATM   21  O1  UNL     1     -26.982  12.784  76.173  1.00  0.00    -0.322 OA
HETATM   22  C1  UNL     1     -25.655  12.310  76.039  1.00  0.00     0.213 C 
ENDBRANCH  19  21
ENDBRANCH   1  19
BRANCH   2  23
HETATM   23  O3  UNL     1     -28.215  16.330  75.455  1.00  0.00    -0.356 OA
ATOM     24  H3  UNL     1     -28.520  16.833  74.710  1.00  0.00     0.218 HD
ENDBRANCH   2  23
BRANCH   3  25
HETATM   25  O4  UNL     1     -31.096  16.798  75.984  1.00  0.00    -0.344 OA
ATOM     26  H4  UNL     1     -30.997  17.117  75.095  1.00  0.00     0.219 HD
ENDBRANCH   3  25
TORSDOF 8
ENDMDL
