MODEL 1
REMARK VINA RESULT: -6.601983143      0.000      0.000
REMARK  6 active torsions:
REMARK  status: ('A' for Active; 'I' for Inactive)
REMARK    1  A    between atoms: O1_2  and  C2_3 
REMARK    2  A    between atoms: C2_3  and  C3_4 
REMARK    3  A    between atoms: C3_4  and  O3_6 
REMARK    4  A    between atoms: O3_6  and  C4_7 
REMARK    5  A    between atoms: C5_8  and  N1_9 
REMARK    6  A    between atoms: C8_18  and  N3_19 
ROOT
HETATM    1  C4  UNL     1     -30.082  12.780  77.347  1.00  0.00     0.148 A 
HETATM    2  C5  UNL     1     -30.759  11.941  78.185  1.00  0.00     0.180 A 
HETATM    3  S1  UNL     1     -29.507  11.132  79.012  1.00  0.00    -0.058 SA
HETATM    4  C6  UNL     1     -28.161  11.876  78.276  1.00  0.00     0.076 A 
HETATM    5  C7  UNL     1     -26.774  11.738  78.430  1.00  0.00     0.136 A 
HETATM    6  S2  UNL     1     -26.228  10.670  79.510  1.00  0.00    -0.058 SA
HETATM    7  N2  UNL     1     -25.930  12.485  77.686  1.00  0.00    -0.180 N 
ATOM      8  H2  UNL     1     -24.917  12.414  77.769  1.00  0.00     0.185 HD
HETATM    9  C8  UNL     1     -26.528  13.331  76.828  1.00  0.00     0.677 A 
HETATM   10  N4  UNL     1     -27.827  13.485  76.660  1.00  0.00    -0.188 N 
ATOM     11  H4  UNL     1     -28.168  14.161  75.977  1.00  0.00     0.184 HD
HETATM   12  C9  UNL     1     -28.733  12.747  77.393  1.00  0.00     0.106 A 
ENDROOT
BRANCH   1  13
HETATM   13  O3  UNL     1     -30.834  13.630  76.483  1.00  0.00    -0.272 OA
BRANCH  13  14
HETATM   14  C3  UNL     1     -31.044  14.967  76.859  1.00  0.00     0.288 C 
HETATM   15  O2  UNL     1     -31.517  15.152  78.009  1.00  0.00    -0.262 OA
BRANCH  14  16
HETATM   16  C2  UNL     1     -30.720  16.086  75.934  1.00  0.00     0.278 C 
BRANCH  16  17
HETATM   17  O1  UNL     1     -29.510  15.781  75.322  1.00  0.00    -0.386 OA
HETATM   18  C1  UNL     1     -28.679  16.901  75.243  1.00  0.00     0.202 C 
ENDBRANCH  16  17
ENDBRANCH  14  16
ENDBRANCH  13  14
ENDBRANCH   1  13
BRANCH   2  19
HETATM   19  N1  UNL     1     -32.157  11.762  78.351  1.00  0.00    -0.105 N 
HETATM   20  O4  UNL     1     -32.757  10.997  77.590  1.00  0.00    -0.531 OA
HETATM   21  O5  UNL     1     -32.821  12.427  79.337  1.00  0.00    -0.531 OA
ENDBRANCH   2  19
BRANCH   9  22
HETATM   22  N3  UNL     1     -25.706  14.052  76.110  1.00  0.00    -0.234 N 
ATOM     23  H32 UNL     1     -24.950  14.552  76.578  1.00  0.00     0.174 HD
ATOM     24  H31 UNL     1     -25.902  14.051  75.109  1.00  0.00     0.174 HD
ENDBRANCH   9  22
TORSDOF 6
ENDMDL
MODEL 2
REMARK VINA RESULT: -6.599061530      2.169      2.840
REMARK  6 active torsions:
REMARK  status: ('A' for Active; 'I' for Inactive)
REMARK    1  A    between atoms: O1_2  and  C2_3 
REMARK    2  A    between atoms: C2_3  and  C3_4 
REMARK    3  A    between atoms: C3_4  and  O3_6 
REMARK    4  A    between atoms: O3_6  and  C4_7 
REMARK    5  A    between atoms: C5_8  and  N1_9 
REMARK    6  A    between atoms: C8_18  and  N3_19 
ROOT
HETATM    1  C4  UNL     1     -29.417  11.976  78.575  1.00  0.00     0.148 A 
HETATM    2  C5  UNL     1     -29.047  10.698  78.878  1.00  0.00     0.180 A 
HETATM    3  S1  UNL     1     -27.560  10.524  78.065  1.00  0.00    -0.058 SA
HETATM    4  C6  UNL     1     -27.445  12.074  77.361  1.00  0.00     0.076 A 
HETATM    5  C7  UNL     1     -26.493  12.696  76.541  1.00  0.00     0.136 A 
HETATM    6  S2  UNL     1     -25.187  11.852  76.110  1.00  0.00    -0.058 SA
HETATM    7  N2  UNL     1     -26.679  13.969  76.131  1.00  0.00    -0.180 N 
ATOM      8  H2  UNL     1     -26.011  14.456  75.534  1.00  0.00     0.185 HD
HETATM    9  C8  UNL     1     -27.812  14.546  76.568  1.00  0.00     0.677 A 
HETATM   10  N4  UNL     1     -28.726  13.989  77.340  1.00  0.00    -0.188 N 
ATOM     11  H4  UNL     1     -29.550  14.526  77.610  1.00  0.00     0.184 HD
HETATM   12  C9  UNL     1     -28.586  12.692  77.787  1.00  0.00     0.106 A 
ENDROOT
BRANCH   1  13
HETATM   13  O3  UNL     1     -30.646  12.473  79.101  1.00  0.00    -0.272 OA
BRANCH  13  14
HETATM   14  C3  UNL     1     -31.728  12.676  78.229  1.00  0.00     0.288 C 
HETATM   15  O2  UNL     1     -32.112  11.671  77.579  1.00  0.00    -0.262 OA
BRANCH  14  16
HETATM   16  C2  UNL     1     -32.369  14.011  78.096  1.00  0.00     0.278 C 
BRANCH  16  17
HETATM   17  O1  UNL     1     -31.353  14.943  77.920  1.00  0.00    -0.386 OA
HETATM   18  C1  UNL     1     -31.767  16.008  77.116  1.00  0.00     0.202 C 
ENDBRANCH  16  17
ENDBRANCH  14  16
ENDBRANCH  13  14
ENDBRANCH   1  13
BRANCH   2  19
HETATM   19  N1  UNL     1     -29.713   9.728  79.672  1.00  0.00    -0.105 N 
HETATM   20  O4  UNL     1     -30.600   9.040  79.158  1.00  0.00    -0.531 OA
HETATM   21  O5  UNL     1     -29.374   9.562  80.980  1.00  0.00    -0.531 OA
ENDBRANCH   2  19
BRANCH   9  22
HETATM   22  N3  UNL     1     -27.988  15.779  76.168  1.00  0.00    -0.234 N 
ATOM     23  H32 UNL     1     -28.889  16.046  75.771  1.00  0.00     0.174 HD
ATOM     24  H31 UNL     1     -27.178  16.387  76.293  1.00  0.00     0.174 HD
ENDBRANCH   9  22
TORSDOF 6
ENDMDL
MODEL 3
REMARK VINA RESULT: -6.574789398      3.382      5.063
REMARK  6 active torsions:
REMARK  status: ('A' for Active; 'I' for Inactive)
REMARK    1  A    between atoms: O1_2  and  C2_3 
REMARK    2  A    between atoms: C2_3  and  C3_4 
REMARK    3  A    between atoms: C3_4  and  O3_6 
REMARK    4  A    between atoms: O3_6  and  C4_7 
REMARK    5  A    between atoms: C5_8  and  N1_9 
REMARK    6  A    between atoms: C8_18  and  N3_19 
ROOT
HETATM    1  C4  UNL     1     -28.491  12.974  77.254  1.00  0.00     0.148 A 
HETATM    2  C5  UNL     1     -29.289  12.149  77.993  1.00  0.00     0.180 A 
HETATM    3  S1  UNL     1     -30.744  13.028  78.112  1.00  0.00    -0.058 SA
HETATM    4  C6  UNL     1     -30.305  14.416  77.224  1.00  0.00     0.076 A 
HETATM    5  C7  UNL     1     -30.977  15.597  76.879  1.00  0.00     0.136 A 
HETATM    6  S2  UNL     1     -32.499  15.785  77.381  1.00  0.00    -0.058 SA
HETATM    7  N2  UNL     1     -30.352  16.544  76.146  1.00  0.00    -0.180 N 
ATOM      8  H2  UNL     1     -30.807  17.416  75.875  1.00  0.00     0.185 HD
HETATM    9  C8  UNL     1     -29.087  16.251  75.800  1.00  0.00     0.677 A 
HETATM   10  N4  UNL     1     -28.428  15.150  76.107  1.00  0.00    -0.188 N 
ATOM     11  H4  UNL     1     -27.466  15.036  75.787  1.00  0.00     0.184 HD
HETATM   12  C9  UNL     1     -29.017  14.152  76.854  1.00  0.00     0.106 A 
ENDROOT
BRANCH   1  13
HETATM   13  O3  UNL     1     -27.164  12.547  76.953  1.00  0.00    -0.272 OA
BRANCH  13  14
HETATM   14  C3  UNL     1     -26.113  12.940  77.799  1.00  0.00     0.288 C 
HETATM   15  O2  UNL     1     -25.821  14.162  77.789  1.00  0.00    -0.262 OA
BRANCH  14  16
HETATM   16  C2  UNL     1     -25.401  11.951  78.651  1.00  0.00     0.278 C 
BRANCH  16  17
HETATM   17  O1  UNL     1     -24.288  11.518  77.940  1.00  0.00    -0.386 OA
HETATM   18  C1  UNL     1     -23.425  10.768  78.745  1.00  0.00     0.202 C 
ENDBRANCH  16  17
ENDBRANCH  14  16
ENDBRANCH  13  14
ENDBRANCH   1  13
BRANCH   2  19
HETATM   19  N1  UNL     1     -29.007  10.871  78.541  1.00  0.00    -0.105 N 
HETATM   20  O4  UNL     1     -28.724   9.942  77.779  1.00  0.00    -0.531 OA
HETATM   21  O5  UNL     1     -29.050  10.678  79.888  1.00  0.00    -0.531 OA
ENDBRANCH   2  19
BRANCH   9  22
HETATM   22  N3  UNL     1     -28.487  17.171  75.089  1.00  0.00    -0.234 N 
ATOM     23  H32 UNL     1     -28.253  16.970  74.117  1.00  0.00     0.174 HD
ATOM     24  H31 UNL     1     -28.301  18.041  75.589  1.00  0.00     0.174 HD
ENDBRANCH   9  22
TORSDOF 6
ENDMDL
MODEL 4
REMARK VINA RESULT: -6.473958459      2.646      4.277
REMARK  6 active torsions:
REMARK  status: ('A' for Active; 'I' for Inactive)
REMARK    1  A    between atoms: O1_2  and  C2_3 
REMARK    2  A    between atoms: C2_3  and  C3_4 
REMARK    3  A    between atoms: C3_4  and  O3_6 
REMARK    4  A    between atoms: O3_6  and  C4_7 
REMARK    5  A    between atoms: C5_8  and  N1_9 
REMARK    6  A    between atoms: C8_18  and  N3_19 
ROOT
HETATM    1  C4  UNL     1     -29.993  12.241  77.704  1.00  0.00     0.148 A 
HETATM    2  C5  UNL     1     -31.301  12.624  77.788  1.00  0.00     0.180 A 
HETATM    3  S1  UNL     1     -31.283  14.199  77.139  1.00  0.00    -0.058 SA
HETATM    4  C6  UNL     1     -29.622  14.333  76.777  1.00  0.00     0.076 A 
HETATM    5  C7  UNL     1     -28.832  15.346  76.215  1.00  0.00     0.136 A 
HETATM    6  S2  UNL     1     -29.551  16.724  75.782  1.00  0.00    -0.058 SA
HETATM    7  N2  UNL     1     -27.505  15.157  76.047  1.00  0.00    -0.180 N 
ATOM      8  H2  UNL     1     -26.897  15.869  75.642  1.00  0.00     0.185 HD
HETATM    9  C8  UNL     1     -27.046  13.961  76.453  1.00  0.00     0.677 A 
HETATM   10  N4  UNL     1     -27.762  12.988  76.984  1.00  0.00    -0.188 N 
ATOM     11  H4  UNL     1     -27.304  12.118  77.256  1.00  0.00     0.184 HD
HETATM   12  C9  UNL     1     -29.120  13.128  77.178  1.00  0.00     0.106 A 
ENDROOT
BRANCH   1  13
HETATM   13  O3  UNL     1     -29.633  10.942  78.170  1.00  0.00    -0.272 OA
BRANCH  13  14
HETATM   14  C3  UNL     1     -29.522  10.723  79.553  1.00  0.00     0.288 C 
HETATM   15  O2  UNL     1     -30.238   9.805  80.028  1.00  0.00    -0.262 OA
BRANCH  14  16
HETATM   16  C2  UNL     1     -28.603  11.539  80.391  1.00  0.00     0.278 C 
BRANCH  16  17
HETATM   17  O1  UNL     1     -27.370  11.564  79.750  1.00  0.00    -0.386 OA
HETATM   18  C1  UNL     1     -26.566  10.491  80.142  1.00  0.00     0.202 C 
ENDBRANCH  16  17
ENDBRANCH  14  16
ENDBRANCH  13  14
ENDBRANCH   1  13
BRANCH   2  19
HETATM   19  N1  UNL     1     -32.422  11.911  78.288  1.00  0.00    -0.105 N 
HETATM   20  O4  UNL     1     -32.913  12.249  79.368  1.00  0.00    -0.531 OA
HETATM   21  O5  UNL     1     -32.943  10.870  77.581  1.00  0.00    -0.531 OA
ENDBRANCH   2  19
BRANCH   9  22
HETATM   22  N3  UNL     1     -25.761  13.784  76.288  1.00  0.00    -0.234 N 
ATOM     23  H32 UNL     1     -25.337  14.043  75.397  1.00  0.00     0.174 HD
ATOM     24  H31 UNL     1     -25.278  13.388  77.095  1.00  0.00     0.174 HD
ENDBRANCH   9  22
TORSDOF 6
ENDMDL
MODEL 5
REMARK VINA RESULT: -6.435766221      3.974      6.418
REMARK  6 active torsions:
REMARK  status: ('A' for Active; 'I' for Inactive)
REMARK    1  A    between atoms: O1_2  and  C2_3 
REMARK    2  A    between atoms: C2_3  and  C3_4 
REMARK    3  A    between atoms: C3_4  and  O3_6 
REMARK    4  A    between atoms: O3_6  and  C4_7 
REMARK    5  A    between atoms: C5_8  and  N1_9 
REMARK    6  A    between atoms: C8_18  and  N3_19 
ROOT
HETATM    1  C4  UNL     1     -27.121  11.132  77.840  1.00  0.00     0.148 A 
HETATM    2  C5  UNL     1     -26.990  12.136  76.925  1.00  0.00     0.180 A 
HETATM    3  S1  UNL     1     -28.537  12.853  76.916  1.00  0.00    -0.058 SA
HETATM    4  C6  UNL     1     -29.309  11.862  78.070  1.00  0.00     0.076 A 
HETATM    5  C7  UNL     1     -30.604  11.831  78.607  1.00  0.00     0.136 A 
HETATM    6  S2  UNL     1     -31.673  12.922  78.088  1.00  0.00    -0.058 SA
HETATM    7  N2  UNL     1     -30.932  10.903  79.533  1.00  0.00    -0.180 N 
ATOM      8  H2  UNL     1     -31.862  10.848  79.947  1.00  0.00     0.185 HD
HETATM    9  C8  UNL     1     -29.940  10.060  79.868  1.00  0.00     0.677 A 
HETATM   10  N4  UNL     1     -28.713  10.065  79.383  1.00  0.00    -0.188 N 
ATOM     11  H4  UNL     1     -28.040   9.374  79.714  1.00  0.00     0.184 HD
HETATM   12  C9  UNL     1     -28.325  10.988  78.436  1.00  0.00     0.106 A 
ENDROOT
BRANCH   1  13
HETATM   13  O3  UNL     1     -25.991  10.304  78.108  1.00  0.00    -0.272 OA
BRANCH  13  14
HETATM   14  C3  UNL     1     -25.221  10.554  79.256  1.00  0.00     0.288 C 
HETATM   15  O2  UNL     1     -25.660  10.076  80.333  1.00  0.00    -0.262 OA
BRANCH  14  16
HETATM   16  C2  UNL     1     -23.962  11.341  79.182  1.00  0.00     0.278 C 
BRANCH  16  17
HETATM   17  O1  UNL     1     -23.377  11.071  77.950  1.00  0.00    -0.386 OA
HETATM   18  C1  UNL     1     -22.206  10.321  78.092  1.00  0.00     0.202 C 
ENDBRANCH  16  17
ENDBRANCH  14  16
ENDBRANCH  13  14
ENDBRANCH   1  13
BRANCH   2  19
HETATM   19  N1  UNL     1     -25.861  12.517  76.154  1.00  0.00    -0.105 N 
HETATM   20  O4  UNL     1     -25.305  13.592  76.398  1.00  0.00    -0.531 OA
HETATM   21  O5  UNL     1     -25.401  11.704  75.164  1.00  0.00    -0.531 OA
ENDBRANCH   2  19
BRANCH   9  22
HETATM   22  N3  UNL     1     -30.263   9.165  80.765  1.00  0.00    -0.234 N 
ATOM     23  H32 UNL     1     -30.524   8.228  80.457  1.00  0.00     0.174 HD
ATOM     24  H31 UNL     1     -30.223   9.495  81.730  1.00  0.00     0.174 HD
ENDBRANCH   9  22
TORSDOF 6
ENDMDL
