MODEL 1
REMARK VINA RESULT: -7.993903334      0.000      0.000
REMARK  5 active torsions:
REMARK  status: ('A' for Active; 'I' for Inactive)
REMARK    1  A    between atoms: C2_2  and  O1_3 
REMARK    2  A    between atoms: O1_3  and  C3_4 
REMARK    3  A    between atoms: C3_4  and  C4_6 
REMARK    4  A    between atoms: C9_16  and  C10_17 
REMARK       I    between atoms: N3_18  and  C11_20 
REMARK    5  A    between atoms: C11_20  and  O4_22 
ROOT
HETATM    1  C4  UNL     1     -28.658  12.668  78.056  1.00  0.00     0.081 A 
HETATM    2  C5  UNL     1     -29.463  12.561  79.172  1.00  0.00     0.106 A 
HETATM    3  N1  UNL     1     -30.770  13.134  79.390  1.00  0.00    -0.093 NA
HETATM    4  S1  UNL     1     -28.533  11.590  80.225  1.00  0.00    -0.056 SA
HETATM    5  C6  UNL     1     -27.172  11.348  79.242  1.00  0.00     0.082 A 
HETATM    6  C7  UNL     1     -27.472  12.038  78.095  1.00  0.00     0.020 A 
HETATM    7  C8  UNL     1     -26.340  11.919  77.095  1.00  0.00     0.277 C 
HETATM    8  N2  UNL     1     -25.867  10.556  76.979  1.00  0.00    -0.046 N 
ATOM      9  H21 UNL     1     -25.260  10.442  76.167  1.00  0.00     0.280 HD
ATOM     10  H22 UNL     1     -26.620   9.924  76.706  1.00  0.00     0.280 HD
HETATM   11  C9  UNL     1     -25.213  10.104  78.197  1.00  0.00     0.324 C 
HETATM   12  N4  UNL     1     -25.909  10.653  79.343  1.00  0.00    -0.352 N 
ATOM     13  H4  UNL     1     -25.488  10.543  80.265  1.00  0.00     0.162 HD
ENDROOT
BRANCH  11  14
HETATM   14  C10 UNL     1     -23.781  10.428  78.203  1.00  0.00     0.120 C 
HETATM   15  N3  UNL     1     -23.190  10.688  79.315  1.00  0.00    -0.313 N 
HETATM   16  C11 UNL     1     -21.808  11.013  79.404  1.00  0.00     0.363 C 
ATOM     17  H3  UNL     1     -23.739  10.662  80.175  1.00  0.00     0.170 HD
HETATM   18  O3  UNL     1     -21.250  11.529  78.402  1.00  0.00    -0.238 OA
BRANCH  16  19
HETATM   19  O4  UNL     1     -21.060  10.782  80.544  1.00  0.00    -0.309 OA
HETATM   20  C12 UNL     1     -20.054   9.768  80.614  1.00  0.00     0.215 C 
ENDBRANCH  16  19
ENDBRANCH  11  14
BRANCH   1  21
HETATM   21  C3  UNL     1     -29.149  13.464  76.905  1.00  0.00     0.296 C 
HETATM   22  O2  UNL     1     -29.997  13.007  76.121  1.00  0.00    -0.259 OA
BRANCH  21  23
HETATM   23  O1  UNL     1     -28.687  14.750  76.650  1.00  0.00    -0.318 OA
BRANCH  23  24
HETATM   24  C2  UNL     1     -29.583  15.751  76.205  1.00  0.00     0.174 C 
HETATM   25  C1  UNL     1     -28.789  16.674  75.297  1.00  0.00     0.034 C 
ENDBRANCH  23  24
ENDBRANCH  21  23
ENDBRANCH   1  21
TORSDOF 5
ENDMDL
MODEL 2
REMARK VINA RESULT: -7.796500232      0.752      1.059
REMARK  5 active torsions:
REMARK  status: ('A' for Active; 'I' for Inactive)
REMARK    1  A    between atoms: C2_2  and  O1_3 
REMARK    2  A    between atoms: O1_3  and  C3_4 
REMARK    3  A    between atoms: C3_4  and  C4_6 
REMARK    4  A    between atoms: C9_16  and  C10_17 
REMARK       I    between atoms: N3_18  and  C11_20 
REMARK    5  A    between atoms: C11_20  and  O4_22 
ROOT
HETATM    1  C4  UNL     1     -28.378  13.242  77.862  1.00  0.00     0.081 A 
HETATM    2  C5  UNL     1     -29.276  13.048  78.892  1.00  0.00     0.106 A 
HETATM    3  N1  UNL     1     -30.553  13.690  79.098  1.00  0.00    -0.093 NA
HETATM    4  S1  UNL     1     -28.506  11.868  79.857  1.00  0.00    -0.056 SA
HETATM    5  C6  UNL     1     -27.090  11.653  78.947  1.00  0.00     0.082 A 
HETATM    6  C7  UNL     1     -27.247  12.517  77.893  1.00  0.00     0.020 A 
HETATM    7  C8  UNL     1     -26.049  12.446  76.967  1.00  0.00     0.277 C 
HETATM    8  N2  UNL     1     -25.667  11.078  76.690  1.00  0.00    -0.046 N 
ATOM      9  H21 UNL     1     -25.005  11.028  75.914  1.00  0.00     0.280 HD
ATOM     10  H22 UNL     1     -26.438  10.554  76.276  1.00  0.00     0.280 HD
HETATM   11  C9  UNL     1     -25.147  10.410  77.873  1.00  0.00     0.324 C 
HETATM   12  N4  UNL     1     -25.893  10.850  79.034  1.00  0.00    -0.352 N 
ATOM     13  H4  UNL     1     -25.556  10.580  79.958  1.00  0.00     0.162 HD
ENDROOT
BRANCH  11  14
HETATM   14  C10 UNL     1     -23.700  10.612  78.025  1.00  0.00     0.120 C 
HETATM   15  N3  UNL     1     -23.196  10.748  79.199  1.00  0.00    -0.313 N 
HETATM   16  C11 UNL     1     -21.806  10.949  79.430  1.00  0.00     0.363 C 
ATOM     17  H3  UNL     1     -23.821  10.711  80.005  1.00  0.00     0.170 HD
HETATM   18  O3  UNL     1     -21.121  11.482  78.520  1.00  0.00    -0.238 OA
BRANCH  16  19
HETATM   19  O4  UNL     1     -21.186  10.582  80.610  1.00  0.00    -0.309 OA
HETATM   20  C12 UNL     1     -20.046   9.719  80.646  1.00  0.00     0.215 C 
ENDBRANCH  16  19
ENDBRANCH  11  14
BRANCH   1  21
HETATM   21  C3  UNL     1     -28.717  14.227  76.806  1.00  0.00     0.296 C 
HETATM   22  O2  UNL     1     -27.892  15.077  76.432  1.00  0.00    -0.259 OA
BRANCH  21  23
HETATM   23  O1  UNL     1     -29.962  14.247  76.190  1.00  0.00    -0.318 OA
BRANCH  23  24
HETATM   24  C2  UNL     1     -30.407  15.416  75.528  1.00  0.00     0.174 C 
HETATM   25  C1  UNL     1     -31.146  16.247  76.563  1.00  0.00     0.034 C 
ENDBRANCH  23  24
ENDBRANCH  21  23
ENDBRANCH   1  21
TORSDOF 5
ENDMDL
MODEL 3
REMARK VINA RESULT: -7.398891068      1.266      1.392
REMARK  5 active torsions:
REMARK  status: ('A' for Active; 'I' for Inactive)
REMARK    1  A    between atoms: C2_2  and  O1_3 
REMARK    2  A    between atoms: O1_3  and  C3_4 
REMARK    3  A    between atoms: C3_4  and  C4_6 
REMARK    4  A    between atoms: C9_16  and  C10_17 
REMARK       I    between atoms: N3_18  and  C11_20 
REMARK    5  A    between atoms: C11_20  and  O4_22 
ROOT
HETATM    1  C4  UNL     1     -28.993  12.346  78.146  1.00  0.00     0.081 A 
HETATM    2  C5  UNL     1     -29.938  11.371  78.388  1.00  0.00     0.106 A 
HETATM    3  N1  UNL     1     -31.376  11.501  78.391  1.00  0.00    -0.093 NA
HETATM    4  S1  UNL     1     -28.991   9.981  78.681  1.00  0.00    -0.056 SA
HETATM    5  C6  UNL     1     -27.447  10.659  78.493  1.00  0.00     0.082 A 
HETATM    6  C7  UNL     1     -27.702  11.974  78.201  1.00  0.00     0.020 A 
HETATM    7  C8  UNL     1     -26.406  12.733  77.999  1.00  0.00     0.277 C 
HETATM    8  N2  UNL     1     -25.484  12.004  77.155  1.00  0.00    -0.046 N 
ATOM      9  H21 UNL     1     -24.711  12.596  76.852  1.00  0.00     0.280 HD
ATOM     10  H22 UNL     1     -25.896  11.800  76.244  1.00  0.00     0.280 HD
HETATM   11  C9  UNL     1     -25.002  10.792  77.800  1.00  0.00     0.324 C 
HETATM   12  N4  UNL     1     -26.079  10.201  78.568  1.00  0.00    -0.352 N 
ATOM     13  H4  UNL     1     -25.860   9.424  79.192  1.00  0.00     0.162 HD
ENDROOT
BRANCH  11  14
HETATM   14  C10 UNL     1     -23.805  11.043  78.613  1.00  0.00     0.120 C 
HETATM   15  N3  UNL     1     -23.283  10.086  79.294  1.00  0.00    -0.313 N 
HETATM   16  C11 UNL     1     -22.127  10.249  80.106  1.00  0.00     0.363 C 
ATOM     17  H3  UNL     1     -23.719   9.165  79.250  1.00  0.00     0.170 HD
HETATM   18  O3  UNL     1     -21.879  11.392  80.569  1.00  0.00    -0.238 OA
BRANCH  16  19
HETATM   19  O4  UNL     1     -21.271   9.205  80.403  1.00  0.00    -0.309 OA
HETATM   20  C12 UNL     1     -19.857   9.379  80.533  1.00  0.00     0.215 C 
ENDBRANCH  16  19
ENDBRANCH  11  14
BRANCH   1  21
HETATM   21  C3  UNL     1     -29.458  13.724  77.851  1.00  0.00     0.296 C 
HETATM   22  O2  UNL     1     -29.918  14.453  78.745  1.00  0.00    -0.259 OA
BRANCH  21  23
HETATM   23  O1  UNL     1     -29.401  14.260  76.570  1.00  0.00    -0.318 OA
BRANCH  23  24
HETATM   24  C2  UNL     1     -28.456  15.268  76.264  1.00  0.00     0.174 C 
HETATM   25  C1  UNL     1     -29.205  16.350  75.504  1.00  0.00     0.034 C 
ENDBRANCH  23  24
ENDBRANCH  21  23
ENDBRANCH   1  21
TORSDOF 5
ENDMDL
MODEL 4
REMARK VINA RESULT: -7.353001330      3.548      8.319
REMARK  5 active torsions:
REMARK  status: ('A' for Active; 'I' for Inactive)
REMARK    1  A    between atoms: C2_2  and  O1_3 
REMARK    2  A    between atoms: O1_3  and  C3_4 
REMARK    3  A    between atoms: C3_4  and  C4_6 
REMARK    4  A    between atoms: C9_16  and  C10_17 
REMARK       I    between atoms: N3_18  and  C11_20 
REMARK    5  A    between atoms: C11_20  and  O4_22 
ROOT
HETATM    1  C4  UNL     1     -21.811   8.639  79.522  1.00  0.00     0.081 A 
HETATM    2  C5  UNL     1     -20.783   9.348  80.111  1.00  0.00     0.106 A 
HETATM    3  N1  UNL     1     -19.508   8.854  80.575  1.00  0.00    -0.093 NA
HETATM    4  S1  UNL     1     -21.392  10.942  80.155  1.00  0.00    -0.056 SA
HETATM    5  C6  UNL     1     -22.906  10.677  79.437  1.00  0.00     0.082 A 
HETATM    6  C7  UNL     1     -22.909   9.330  79.174  1.00  0.00     0.020 A 
HETATM    7  C8  UNL     1     -24.214   8.922  78.519  1.00  0.00     0.277 C 
HETATM    8  N2  UNL     1     -24.592   9.835  77.462  1.00  0.00    -0.046 N 
ATOM      9  H21 UNL     1     -25.346   9.451  76.892  1.00  0.00     0.280 HD
ATOM     10  H22 UNL     1     -23.867   9.897  76.748  1.00  0.00     0.280 HD
HETATM   11  C9  UNL     1     -24.938  11.151  77.980  1.00  0.00     0.324 C 
HETATM   12  N4  UNL     1     -24.061  11.471  79.087  1.00  0.00    -0.352 N 
ATOM     13  H4  UNL     1     -24.269  12.298  79.647  1.00  0.00     0.162 HD
ENDROOT
BRANCH  11  14
HETATM   14  C10 UNL     1     -26.357  11.240  78.344  1.00  0.00     0.120 C 
HETATM   15  N3  UNL     1     -27.167  10.307  77.990  1.00  0.00    -0.313 N 
HETATM   16  C11 UNL     1     -28.554  10.321  78.302  1.00  0.00     0.363 C 
ATOM     17  H3  UNL     1     -26.797   9.518  77.459  1.00  0.00     0.170 HD
HETATM   18  O3  UNL     1     -29.114  11.432  78.486  1.00  0.00    -0.238 OA
BRANCH  16  19
HETATM   19  O4  UNL     1     -29.306   9.165  78.410  1.00  0.00    -0.309 OA
HETATM   20  C12 UNL     1     -30.057   8.840  79.583  1.00  0.00     0.215 C 
ENDBRANCH  16  19
ENDBRANCH  11  14
BRANCH   1  21
HETATM   21  C3  UNL     1     -21.637   7.180  79.320  1.00  0.00     0.296 C 
HETATM   22  O2  UNL     1     -21.069   6.734  78.309  1.00  0.00    -0.259 OA
BRANCH  21  23
HETATM   23  O1  UNL     1     -22.098   6.249  80.243  1.00  0.00    -0.318 OA
BRANCH  23  24
HETATM   24  C2  UNL     1     -23.179   5.397  79.913  1.00  0.00     0.174 C 
HETATM   25  C1  UNL     1     -23.606   4.716  81.202  1.00  0.00     0.034 C 
ENDBRANCH  23  24
ENDBRANCH  21  23
ENDBRANCH   1  21
TORSDOF 5
ENDMDL
MODEL 5
REMARK VINA RESULT: -7.284482333      1.609      1.784
REMARK  5 active torsions:
REMARK  status: ('A' for Active; 'I' for Inactive)
REMARK    1  A    between atoms: C2_2  and  O1_3 
REMARK    2  A    between atoms: O1_3  and  C3_4 
REMARK    3  A    between atoms: C3_4  and  C4_6 
REMARK    4  A    between atoms: C9_16  and  C10_17 
REMARK       I    between atoms: N3_18  and  C11_20 
REMARK    5  A    between atoms: C11_20  and  O4_22 
ROOT
HETATM    1  C4  UNL     1     -29.874  12.630  77.963  1.00  0.00     0.081 A 
HETATM    2  C5  UNL     1     -30.783  11.820  78.613  1.00  0.00     0.106 A 
HETATM    3  N1  UNL     1     -32.189  12.059  78.841  1.00  0.00    -0.093 NA
HETATM    4  S1  UNL     1     -29.839  10.477  79.078  1.00  0.00    -0.056 SA
HETATM    5  C6  UNL     1     -28.341  10.965  78.448  1.00  0.00     0.082 A 
HETATM    6  C7  UNL     1     -28.609  12.184  77.879  1.00  0.00     0.020 A 
HETATM    7  C8  UNL     1     -27.355  12.766  77.259  1.00  0.00     0.277 C 
HETATM    8  N2  UNL     1     -26.635  11.782  76.480  1.00  0.00    -0.046 N 
ATOM      9  H21 UNL     1     -25.918  12.219  75.901  1.00  0.00     0.280 HD
ATOM     10  H22 UNL     1     -27.221  11.392  75.741  1.00  0.00     0.280 HD
HETATM   11  C9  UNL     1     -26.073  10.733  77.317  1.00  0.00     0.324 C 
HETATM   12  N4  UNL     1     -26.998  10.435  78.391  1.00  0.00    -0.352 N 
ATOM     13  H4  UNL     1     -26.686   9.822  79.144  1.00  0.00     0.162 HD
ENDROOT
BRANCH  11  14
HETATM   14  C10 UNL     1     -24.735  11.084  77.809  1.00  0.00     0.120 C 
HETATM   15  N3  UNL     1     -23.799  10.204  77.793  1.00  0.00    -0.313 N 
HETATM   16  C11 UNL     1     -22.478  10.465  78.254  1.00  0.00     0.363 C 
ATOM     17  H3  UNL     1     -24.012   9.273  77.434  1.00  0.00     0.170 HD
HETATM   18  O3  UNL     1     -22.314  11.362  79.119  1.00  0.00    -0.238 OA
BRANCH  16  19
HETATM   19  O4  UNL     1     -21.376   9.772  77.787  1.00  0.00    -0.309 OA
HETATM   20  C12 UNL     1     -21.295   8.344  77.813  1.00  0.00     0.215 C 
ENDBRANCH  16  19
ENDBRANCH  11  14
BRANCH   1  21
HETATM   21  C3  UNL     1     -30.347  13.924  77.412  1.00  0.00     0.296 C 
HETATM   22  O2  UNL     1     -30.802  14.810  78.153  1.00  0.00    -0.259 OA
BRANCH  21  23
HETATM   23  O1  UNL     1     -30.304  14.203  76.051  1.00  0.00    -0.318 OA
BRANCH  23  24
HETATM   24  C2  UNL     1     -30.560  15.516  75.589  1.00  0.00     0.174 C 
HETATM   25  C1  UNL     1     -29.209  16.186  75.412  1.00  0.00     0.034 C 
ENDBRANCH  23  24
ENDBRANCH  21  23
ENDBRANCH   1  21
TORSDOF 5
ENDMDL
