MODEL 1
REMARK VINA RESULT: -7.631663601      0.000      0.000
REMARK  5 active torsions:
REMARK  status: ('A' for Active; 'I' for Inactive)
REMARK    1  A    between atoms: C2_2  and  C4_4 
REMARK    2  A    between atoms: C5_7  and  S1_8 
REMARK    3  A    between atoms: S1_8  and  C6_9 
REMARK    4  A    between atoms: C9_20  and  S2_21 
REMARK    5  A    between atoms: S2_21  and  N5_22 
ROOT
HETATM    1  C6  UNL     1       9.373  -6.357  52.550  1.00  0.00     0.122 A 
HETATM    2  N2  UNL     1       9.124  -7.114  53.613  1.00  0.00    -0.184 N 
ATOM      3  H2  UNL     1       9.599  -6.869  54.481  1.00  0.00     0.185 HD
HETATM    4  C7  UNL     1       8.286  -8.191  53.641  1.00  0.00     0.679 A 
HETATM    5  N3  UNL     1       8.109  -8.875  54.621  1.00  0.00    -0.234 N 
ATOM      6  H31 UNL     1       7.482  -9.680  54.642  1.00  0.00     0.174 HD
ATOM      7  H32 UNL     1       8.581  -8.648  55.497  1.00  0.00     0.174 HD
HETATM    8  N4  UNL     1       7.645  -8.500  52.454  1.00  0.00    -0.155 N 
ATOM      9  H4  UNL     1       7.006  -9.294  52.425  1.00  0.00     0.187 HD
HETATM   10  C8  UNL     1       7.841  -7.789  51.352  1.00  0.00     0.285 A 
HETATM   11  O1  UNL     1       7.225  -8.105  50.267  1.00  0.00    -0.266 OA
HETATM   12  C9  UNL     1       8.701  -6.709  51.372  1.00  0.00     0.181 A 
ENDROOT
BRANCH   1  13
HETATM   13  S1  UNL     1      10.359  -4.911  52.455  1.00  0.00    -0.034 SA
BRANCH  13  14
HETATM   14  C5  UNL     1       9.524  -3.364  52.662  1.00  0.00     0.155 A 
HETATM   15  N1  UNL     1       8.492  -3.202  53.506  1.00  0.00    -0.326 N 
HETATM   16  C4  UNL     1       7.858  -2.051  53.705  1.00  0.00     0.090 A 
ATOM     17  H1  UNL     1       8.173  -4.017  54.029  1.00  0.00     0.169 HD
HETATM   18  N7  UNL     1       8.258  -0.938  53.034  1.00  0.00    -0.297 N 
HETATM   19  C10 UNL     1       9.302  -1.064  52.176  1.00  0.00     0.327 A 
ATOM     20  H7  UNL     1       7.791  -0.042  53.170  1.00  0.00     0.172 HD
HETATM   21  N6  UNL     1       9.924  -2.245  51.985  1.00  0.00    -0.288 N 
HETATM   22  O4  UNL     1       9.733  -0.059  51.515  1.00  0.00    -0.247 OA
ATOM     23  H6  UNL     1      10.703  -2.305  51.328  1.00  0.00     0.172 HD
BRANCH  16  24
HETATM   24  C2  UNL     1       6.642  -1.973  54.542  1.00  0.00     0.045 C 
HETATM   25  C1  UNL     1       5.790  -0.772  54.164  1.00  0.00     0.017 C 
HETATM   26  C3  UNL     1       5.828  -3.229  54.581  1.00  0.00     0.017 C 
ENDBRANCH  16  24
ENDBRANCH  13  14
ENDBRANCH   1  13
BRANCH  12  27
HETATM   27  S2  UNL     1       9.027  -5.833  49.915  1.00  0.00     0.265 S 
HETATM   28  O2  UNL     1       8.451  -4.451  49.930  1.00  0.00    -0.200 OA
HETATM   29  O3  UNL     1      10.536  -5.646  49.741  1.00  0.00    -0.200 OA
BRANCH  27  30
HETATM   30  N5  UNL     1       8.526  -6.705  48.507  1.00  0.00    -0.324 N 
ATOM     31  H52 UNL     1       8.130  -6.253  47.682  1.00  0.00     0.169 HD
ATOM     32  H51 UNL     1       8.674  -7.710  48.606  1.00  0.00     0.169 HD
ENDBRANCH  27  30
ENDBRANCH  12  27
TORSDOF 5
ENDMDL
MODEL 2
REMARK VINA RESULT: -7.299953806      2.454      3.497
REMARK  5 active torsions:
REMARK  status: ('A' for Active; 'I' for Inactive)
REMARK    1  A    between atoms: C2_2  and  C4_4 
REMARK    2  A    between atoms: C5_7  and  S1_8 
REMARK    3  A    between atoms: S1_8  and  C6_9 
REMARK    4  A    between atoms: C9_20  and  S2_21 
REMARK    5  A    between atoms: S2_21  and  N5_22 
ROOT
HETATM    1  C6  UNL     1       8.814  -5.213  52.390  1.00  0.00     0.122 A 
HETATM    2  N2  UNL     1       7.874  -5.841  51.691  1.00  0.00    -0.184 N 
ATOM      3  H2  UNL     1       6.946  -5.902  52.108  1.00  0.00     0.185 HD
HETATM    4  C7  UNL     1       8.047  -6.411  50.463  1.00  0.00     0.679 A 
HETATM    5  N3  UNL     1       7.174  -7.001  49.871  1.00  0.00    -0.234 N 
ATOM      6  H31 UNL     1       7.303  -7.427  48.953  1.00  0.00     0.174 HD
ATOM      7  H32 UNL     1       6.241  -7.077  50.277  1.00  0.00     0.174 HD
HETATM    8  N4  UNL     1       9.313  -6.308  49.912  1.00  0.00    -0.155 N 
ATOM      9  H4  UNL     1       9.490  -6.715  48.994  1.00  0.00     0.187 HD
HETATM   10  C8  UNL     1      10.300  -5.695  50.548  1.00  0.00     0.285 A 
HETATM   11  O1  UNL     1      11.463  -5.617  50.004  1.00  0.00    -0.266 OA
HETATM   12  C9  UNL     1      10.078  -5.135  51.791  1.00  0.00     0.181 A 
ENDROOT
BRANCH   1  13
HETATM   13  S1  UNL     1       8.651  -4.380  53.924  1.00  0.00    -0.034 SA
BRANCH  13  14
HETATM   14  C5  UNL     1       8.428  -2.626  53.855  1.00  0.00     0.155 A 
HETATM   15  N1  UNL     1       8.425  -1.850  54.952  1.00  0.00    -0.326 N 
HETATM   16  C4  UNL     1       8.287  -0.529  54.936  1.00  0.00     0.090 A 
ATOM     17  H1  UNL     1       8.537  -2.306  55.857  1.00  0.00     0.169 HD
HETATM   18  N7  UNL     1       8.145   0.119  53.749  1.00  0.00    -0.297 N 
HETATM   19  C10 UNL     1       8.148  -0.633  52.620  1.00  0.00     0.327 A 
ATOM     20  H7  UNL     1       8.039   1.133  53.709  1.00  0.00     0.172 HD
HETATM   21  N6  UNL     1       8.283  -1.975  52.661  1.00  0.00    -0.288 N 
HETATM   22  O4  UNL     1       8.023  -0.091  51.469  1.00  0.00    -0.247 OA
ATOM     23  H6  UNL     1       8.276  -2.510  51.793  1.00  0.00     0.172 HD
BRANCH  16  24
HETATM   24  C2  UNL     1       8.152   0.249  56.186  1.00  0.00     0.045 C 
HETATM   25  C1  UNL     1       9.186  -0.179  57.215  1.00  0.00     0.017 C 
HETATM   26  C3  UNL     1       8.150   1.735  56.001  1.00  0.00     0.017 C 
ENDBRANCH  16  24
ENDBRANCH  13  14
ENDBRANCH   1  13
BRANCH  12  27
HETATM   27  S2  UNL     1      11.386  -4.411  52.663  1.00  0.00     0.265 S 
HETATM   28  O2  UNL     1      11.365  -2.915  52.600  1.00  0.00    -0.200 OA
HETATM   29  O3  UNL     1      11.285  -4.761  54.149  1.00  0.00    -0.200 OA
BRANCH  27  30
HETATM   30  N5  UNL     1      12.922  -5.037  52.167  1.00  0.00    -0.324 N 
ATOM     31  H52 UNL     1      13.537  -4.553  51.513  1.00  0.00     0.169 HD
ATOM     32  H51 UNL     1      13.129  -5.934  52.606  1.00  0.00     0.169 HD
ENDBRANCH  27  30
ENDBRANCH  12  27
TORSDOF 5
ENDMDL
MODEL 3
REMARK VINA RESULT: -7.288787425      2.929      5.973
REMARK  5 active torsions:
REMARK  status: ('A' for Active; 'I' for Inactive)
REMARK    1  A    between atoms: C2_2  and  C4_4 
REMARK    2  A    between atoms: C5_7  and  S1_8 
REMARK    3  A    between atoms: S1_8  and  C6_9 
REMARK    4  A    between atoms: C9_20  and  S2_21 
REMARK    5  A    between atoms: S2_21  and  N5_22 
ROOT
HETATM    1  C6  UNL     1       8.307  -6.313  51.906  1.00  0.00     0.122 A 
HETATM    2  N2  UNL     1       7.944  -7.315  51.113  1.00  0.00    -0.184 N 
ATOM      3  H2  UNL     1       7.557  -8.146  51.560  1.00  0.00     0.185 HD
HETATM    4  C7  UNL     1       8.046  -7.327  49.752  1.00  0.00     0.679 A 
HETATM    5  N3  UNL     1       7.733  -8.271  49.066  1.00  0.00    -0.234 N 
ATOM      6  H31 UNL     1       7.809  -8.279  48.049  1.00  0.00     0.174 HD
ATOM      7  H32 UNL     1       7.349  -9.112  49.497  1.00  0.00     0.174 HD
HETATM    8  N4  UNL     1       8.566  -6.185  49.167  1.00  0.00    -0.155 N 
ATOM      9  H4  UNL     1       8.658  -6.144  48.152  1.00  0.00     0.187 HD
HETATM   10  C8  UNL     1       8.948  -5.143  49.892  1.00  0.00     0.285 A 
HETATM   11  O1  UNL     1       9.425  -4.098  49.313  1.00  0.00    -0.266 OA
HETATM   12  C9  UNL     1       8.828  -5.180  51.267  1.00  0.00     0.181 A 
ENDROOT
BRANCH   1  13
HETATM   13  S1  UNL     1       8.126  -6.185  53.645  1.00  0.00    -0.034 SA
BRANCH  13  14
HETATM   14  C5  UNL     1       9.114  -7.274  54.630  1.00  0.00     0.155 A 
HETATM   15  N1  UNL     1       8.595  -8.303  55.320  1.00  0.00    -0.326 N 
HETATM   16  C4  UNL     1       9.309  -9.154  56.049  1.00  0.00     0.090 A 
ATOM     17  H1  UNL     1       7.585  -8.439  55.283  1.00  0.00     0.169 HD
HETATM   18  N7  UNL     1      10.660  -9.013  56.117  1.00  0.00    -0.297 N 
HETATM   19  C10 UNL     1      11.220  -7.988  55.426  1.00  0.00     0.327 A 
ATOM     20  H7  UNL     1      11.232  -9.655  56.666  1.00  0.00     0.172 HD
HETATM   21  N6  UNL     1      10.473  -7.131  54.700  1.00  0.00    -0.288 N 
HETATM   22  O4  UNL     1      12.483  -7.797  55.442  1.00  0.00    -0.247 OA
ATOM     23  H6  UNL     1      10.925  -6.367  54.197  1.00  0.00     0.172 HD
BRANCH  16  24
HETATM   24  C2  UNL     1       8.662 -10.178  56.896  1.00  0.00     0.045 C 
HETATM   25  C1  UNL     1       9.575 -11.376  57.106  1.00  0.00     0.017 C 
HETATM   26  C3  UNL     1       8.126  -9.666  58.197  1.00  0.00     0.017 C 
ENDBRANCH  16  24
ENDBRANCH  13  14
ENDBRANCH   1  13
BRANCH  12  27
HETATM   27  S2  UNL     1       9.407  -3.858  52.224  1.00  0.00     0.265 S 
HETATM   28  O2  UNL     1      10.372  -4.290  53.284  1.00  0.00    -0.200 OA
HETATM   29  O3  UNL     1      10.178  -2.871  51.345  1.00  0.00    -0.200 OA
BRANCH  27  30
HETATM   30  N5  UNL     1       8.111  -2.928  52.898  1.00  0.00    -0.324 N 
ATOM     31  H52 UNL     1       7.484  -2.355  52.333  1.00  0.00     0.169 HD
ATOM     32  H51 UNL     1       8.057  -3.026  53.912  1.00  0.00     0.169 HD
ENDBRANCH  27  30
ENDBRANCH  12  27
TORSDOF 5
ENDMDL
MODEL 4
REMARK VINA RESULT: -7.257456000      1.690      2.373
REMARK  5 active torsions:
REMARK  status: ('A' for Active; 'I' for Inactive)
REMARK    1  A    between atoms: C2_2  and  C4_4 
REMARK    2  A    between atoms: C5_7  and  S1_8 
REMARK    3  A    between atoms: S1_8  and  C6_9 
REMARK    4  A    between atoms: C9_20  and  S2_21 
REMARK    5  A    between atoms: S2_21  and  N5_22 
ROOT
HETATM    1  C6  UNL     1       8.901  -6.253  52.526  1.00  0.00     0.122 A 
HETATM    2  N2  UNL     1       8.699  -7.041  53.575  1.00  0.00    -0.184 N 
ATOM      3  H2  UNL     1       8.944  -6.669  54.492  1.00  0.00     0.185 HD
HETATM    4  C7  UNL     1       8.191  -8.308  53.531  1.00  0.00     0.679 A 
HETATM    5  N3  UNL     1       8.051  -9.007  54.506  1.00  0.00    -0.234 N 
ATOM      6  H31 UNL     1       7.672  -9.953  54.473  1.00  0.00     0.174 HD
ATOM      7  H32 UNL     1       8.297  -8.651  55.431  1.00  0.00     0.174 HD
HETATM    8  N4  UNL     1       7.857  -8.790  52.277  1.00  0.00    -0.155 N 
ATOM      9  H4  UNL     1       7.471  -9.730  52.192  1.00  0.00     0.187 HD
HETATM   10  C8  UNL     1       8.027  -8.061  51.183  1.00  0.00     0.285 A 
HETATM   11  O1  UNL     1       7.703  -8.542  50.035  1.00  0.00    -0.266 OA
HETATM   12  C9  UNL     1       8.547  -6.785  51.279  1.00  0.00     0.181 A 
ENDROOT
BRANCH   1  13
HETATM   13  S1  UNL     1       9.459  -4.591  52.508  1.00  0.00    -0.034 SA
BRANCH  13  14
HETATM   14  C5  UNL     1       8.339  -3.369  53.129  1.00  0.00     0.155 A 
HETATM   15  N1  UNL     1       8.545  -2.051  52.978  1.00  0.00    -0.326 N 
HETATM   16  C4  UNL     1       7.714  -1.107  53.409  1.00  0.00     0.090 A 
ATOM     17  H1  UNL     1       9.396  -1.754  52.502  1.00  0.00     0.169 HD
HETATM   18  N7  UNL     1       6.563  -1.461  54.040  1.00  0.00    -0.297 N 
HETATM   19  C10 UNL     1       6.320  -2.786  54.205  1.00  0.00     0.327 A 
ATOM     20  H7  UNL     1       5.907  -0.757  54.377  1.00  0.00     0.172 HD
HETATM   21  N6  UNL     1       7.183  -3.726  53.767  1.00  0.00    -0.288 N 
HETATM   22  O4  UNL     1       5.256  -3.190  54.787  1.00  0.00    -0.247 OA
ATOM     23  H6  UNL     1       6.971  -4.713  53.912  1.00  0.00     0.172 HD
BRANCH  16  24
HETATM   24  C2  UNL     1       8.068   0.326  53.335  1.00  0.00     0.045 C 
HETATM   25  C1  UNL     1       8.301   0.908  54.721  1.00  0.00     0.017 C 
HETATM   26  C3  UNL     1       9.204   0.643  52.413  1.00  0.00     0.017 C 
ENDBRANCH  16  24
ENDBRANCH  13  14
ENDBRANCH   1  13
BRANCH  12  27
HETATM   27  S2  UNL     1       8.853  -5.863  49.846  1.00  0.00     0.265 S 
HETATM   28  O2  UNL     1       8.207  -4.513  49.877  1.00  0.00    -0.200 OA
HETATM   29  O3  UNL     1      10.354  -5.597  49.702  1.00  0.00    -0.200 OA
BRANCH  27  30
HETATM   30  N5  UNL     1       8.421  -6.731  48.411  1.00  0.00    -0.324 N 
ATOM     31  H52 UNL     1       7.511  -6.644  47.960  1.00  0.00     0.169 HD
ATOM     32  H51 UNL     1       9.180  -7.328  48.082  1.00  0.00     0.169 HD
ENDBRANCH  27  30
ENDBRANCH  12  27
TORSDOF 5
ENDMDL
MODEL 5
REMARK VINA RESULT: -7.195118790      1.375      1.679
REMARK  5 active torsions:
REMARK  status: ('A' for Active; 'I' for Inactive)
REMARK    1  A    between atoms: C2_2  and  C4_4 
REMARK    2  A    between atoms: C5_7  and  S1_8 
REMARK    3  A    between atoms: S1_8  and  C6_9 
REMARK    4  A    between atoms: C9_20  and  S2_21 
REMARK    5  A    between atoms: S2_21  and  N5_22 
ROOT
HETATM    1  C6  UNL     1       9.480  -6.094  52.631  1.00  0.00     0.122 A 
HETATM    2  N2  UNL     1       9.275  -6.840  53.710  1.00  0.00    -0.184 N 
ATOM      3  H2  UNL     1       9.769  -6.575  54.561  1.00  0.00     0.185 HD
HETATM    4  C7  UNL     1       8.458  -7.932  53.775  1.00  0.00     0.679 A 
HETATM    5  N3  UNL     1       8.321  -8.606  54.769  1.00  0.00    -0.234 N 
ATOM      6  H31 UNL     1       7.710  -9.422  54.818  1.00  0.00     0.174 HD
ATOM      7  H32 UNL     1       8.812  -8.358  55.628  1.00  0.00     0.174 HD
HETATM    8  N4  UNL     1       7.790  -8.269  52.610  1.00  0.00    -0.155 N 
ATOM      9  H4  UNL     1       7.166  -9.075  52.610  1.00  0.00     0.187 HD
HETATM   10  C8  UNL     1       7.943  -7.570  51.494  1.00  0.00     0.285 A 
HETATM   11  O1  UNL     1       7.304  -7.912  50.431  1.00  0.00    -0.266 OA
HETATM   12  C9  UNL     1       8.782  -6.474  51.476  1.00  0.00     0.181 A 
ENDROOT
BRANCH   1  13
HETATM   13  S1  UNL     1      10.436  -4.631  52.489  1.00  0.00    -0.034 SA
BRANCH  13  14
HETATM   14  C5  UNL     1       9.668  -3.126  53.017  1.00  0.00     0.155 A 
HETATM   15  N1  UNL     1       9.536  -2.791  54.311  1.00  0.00    -0.326 N 
HETATM   16  C4  UNL     1       8.989  -1.659  54.741  1.00  0.00     0.090 A 
ATOM     17  H1  UNL     1       9.880  -3.449  55.009  1.00  0.00     0.169 HD
HETATM   18  N7  UNL     1       8.528  -0.750  53.842  1.00  0.00    -0.297 N 
HETATM   19  C10 UNL     1       8.649  -1.053  52.525  1.00  0.00     0.327 A 
ATOM     20  H7  UNL     1       8.106   0.128  54.146  1.00  0.00     0.172 HD
HETATM   21  N6  UNL     1       9.201  -2.212  52.112  1.00  0.00    -0.288 N 
HETATM   22  O4  UNL     1       8.240  -0.243  51.625  1.00  0.00    -0.247 OA
ATOM     23  H6  UNL     1       9.272  -2.410  51.113  1.00  0.00     0.172 HD
BRANCH  16  24
HETATM   24  C2  UNL     1       8.749  -1.416  56.180  1.00  0.00     0.045 C 
HETATM   25  C1  UNL     1       9.880  -1.973  57.029  1.00  0.00     0.017 C 
HETATM   26  C3  UNL     1       8.452   0.009  56.531  1.00  0.00     0.017 C 
ENDBRANCH  16  24
ENDBRANCH  13  14
ENDBRANCH   1  13
BRANCH  12  27
HETATM   27  S2  UNL     1       9.052  -5.612  50.000  1.00  0.00     0.265 S 
HETATM   28  O2  UNL     1       8.381  -4.273  49.980  1.00  0.00    -0.200 OA
HETATM   29  O3  UNL     1      10.545  -5.325  49.824  1.00  0.00    -0.200 OA
BRANCH  27  30
HETATM   30  N5  UNL     1       8.618  -6.550  48.611  1.00  0.00    -0.324 N 
ATOM     31  H52 UNL     1       8.119  -7.438  48.672  1.00  0.00     0.169 HD
ATOM     32  H51 UNL     1       8.918  -6.109  47.742  1.00  0.00     0.169 HD
ENDBRANCH  27  30
ENDBRANCH  12  27
TORSDOF 5
ENDMDL
