MODEL 1
REMARK VINA RESULT: -7.195778785      0.000      0.000
REMARK  6 active torsions:
REMARK  status: ('A' for Active; 'I' for Inactive)
REMARK    1  A    between atoms: N1_1  and  C1_5 
REMARK    2  A    between atoms: C1_5  and  C2_6 
REMARK    3  A    between atoms: C4_9  and  N2_10 
REMARK    4  A    between atoms: C7_15  and  N4_16 
REMARK    5  A    between atoms: N4_16  and  C8_17 
REMARK    6  A    between atoms: C13_24  and  N6_25 
REMARK       I    between atoms: N6_25  and  C14_27 
REMARK       I    between atoms: C14_27  and  N7_28 
REMARK       I    between atoms: C14_27  and  N8_32 
ROOT
HETATM    1  N2  UNL     1      10.395  -6.998  54.791  1.00  0.00    -0.299 N 
HETATM    2  C5  UNL     1      10.580  -5.834  55.441  1.00  0.00     0.188 A 
HETATM    3  N3  UNL     1      10.072  -4.797  54.755  1.00  0.00    -0.345 N 
ATOM      4  H3  UNL     1      10.088  -3.817  55.038  1.00  0.00     0.167 HD
HETATM    5  C6  UNL     1       9.542  -5.293  53.630  1.00  0.00     0.137 A 
HETATM    6  C7  UNL     1       8.882  -4.700  52.544  1.00  0.00     0.218 A 
HETATM    7  N5  UNL     1       8.471  -5.545  51.550  1.00  0.00    -0.162 N 
ATOM      8  H5  UNL     1       7.989  -5.143  50.747  1.00  0.00     0.187 HD
HETATM    9  C13 UNL     1       8.664  -6.857  51.571  1.00  0.00     0.685 A 
HETATM   10  N9  UNL     1       9.305  -7.411  52.632  1.00  0.00    -0.174 N 
ATOM     11  H9  UNL     1       9.455  -8.419  52.652  1.00  0.00     0.186 HD
HETATM   12  C15 UNL     1       9.747  -6.657  53.662  1.00  0.00     0.158 A 
ENDROOT
BRANCH   9  13
HETATM   13  N6  UNL     1       8.297  -7.674  50.662  1.00  0.00    -0.173 N 
HETATM   14  C14 UNL     1       7.647  -7.371  49.429  1.00  0.00     0.494 C 
HETATM   15  N7  UNL     1       8.502  -6.579  48.599  1.00  0.00    -0.032 N 
HETATM   16  N8  UNL     1       6.334  -6.778  49.610  1.00  0.00    -0.032 N 
ATOM     17  H73 UNL     1       8.823  -5.737  49.077  1.00  0.00     0.278 HD
ATOM     18  H72 UNL     1       9.408  -7.023  48.453  1.00  0.00     0.278 HD
ATOM     19  H71 UNL     1       8.037  -6.363  47.718  1.00  0.00     0.278 HD
ATOM     20  H83 UNL     1       5.745  -7.370  50.198  1.00  0.00     0.278 HD
ATOM     21  H82 UNL     1       6.387  -5.952  50.206  1.00  0.00     0.278 HD
ATOM     22  H81 UNL     1       5.868  -6.563  48.729  1.00  0.00     0.278 HD
ATOM     23  H6  UNL     1       8.492  -8.659  50.837  1.00  0.00     0.181 HD
ENDBRANCH   9  13
BRANCH   6  24
HETATM   24  N4  UNL     1       8.697  -3.537  52.495  1.00  0.00    -0.422 NA
BRANCH  24  25
HETATM   25  C8  UNL     1       8.475  -2.221  52.463  1.00  0.00     0.165 C 
HETATM   26  C9  UNL     1       7.968  -1.551  53.737  1.00  0.00     0.039 C 
HETATM   27  C10 UNL     1       7.939  -0.076  53.306  1.00  0.00     0.003 C 
HETATM   28  C11 UNL     1       8.962   0.054  52.209  1.00  0.00     0.003 C 
HETATM   29  C12 UNL     1       9.661  -1.306  52.171  1.00  0.00     0.039 C 
ENDBRANCH  24  25
ENDBRANCH   6  24
BRANCH   1  30
HETATM   30  C4  UNL     1      10.824  -8.293  55.267  1.00  0.00     0.230 C 
HETATM   31  O1  UNL     1      12.185  -8.447  55.338  1.00  0.00    -0.366 OA
HETATM   32  C3  UNL     1      12.359  -9.624  56.059  1.00  0.00     0.176 C 
HETATM   33  C2  UNL     1      11.261  -9.714  57.067  1.00  0.00     0.039 C 
HETATM   34  C16 UNL     1      10.330  -8.610  56.649  1.00  0.00     0.062 C 
BRANCH  33  35
HETATM   35  C1  UNL     1      10.596 -11.072  57.090  1.00  0.00     0.236 C 
BRANCH  35  36
HETATM   36  N1  UNL     1       9.178 -11.002  56.869  1.00  0.00    -0.079 N 
ATOM     37  H13 UNL     1       8.693 -10.692  57.711  1.00  0.00     0.274 HD
ATOM     38  H12 UNL     1       8.943 -10.229  56.247  1.00  0.00     0.274 HD
ATOM     39  H11 UNL     1       8.787 -11.879  56.525  1.00  0.00     0.274 HD
ENDBRANCH  35  36
ENDBRANCH  33  35
ENDBRANCH   1  30
TORSDOF 6
ENDMDL
MODEL 2
REMARK VINA RESULT: -7.002240525      3.853      6.315
REMARK  6 active torsions:
REMARK  status: ('A' for Active; 'I' for Inactive)
REMARK    1  A    between atoms: N1_1  and  C1_5 
REMARK    2  A    between atoms: C1_5  and  C2_6 
REMARK    3  A    between atoms: C4_9  and  N2_10 
REMARK    4  A    between atoms: C7_15  and  N4_16 
REMARK    5  A    between atoms: N4_16  and  C8_17 
REMARK    6  A    between atoms: C13_24  and  N6_25 
REMARK       I    between atoms: N6_25  and  C14_27 
REMARK       I    between atoms: C14_27  and  N7_28 
REMARK       I    between atoms: C14_27  and  N8_32 
ROOT
HETATM    1  N2  UNL     1      12.660  -4.056  53.080  1.00  0.00    -0.299 N 
HETATM    2  C5  UNL     1      12.736  -5.221  52.409  1.00  0.00     0.188 A 
HETATM    3  N3  UNL     1      11.566  -5.539  51.833  1.00  0.00    -0.345 N 
ATOM      4  H3  UNL     1      11.371  -6.369  51.274  1.00  0.00     0.167 HD
HETATM    5  C6  UNL     1      10.703  -4.559  52.132  1.00  0.00     0.137 A 
HETATM    6  C7  UNL     1       9.353  -4.346  51.813  1.00  0.00     0.218 A 
HETATM    7  N5  UNL     1       8.788  -3.205  52.310  1.00  0.00    -0.162 N 
ATOM      8  H5  UNL     1       7.807  -3.023  52.096  1.00  0.00     0.187 HD
HETATM    9  C13 UNL     1       9.439  -2.321  53.054  1.00  0.00     0.685 A 
HETATM   10  N9  UNL     1      10.745  -2.546  53.349  1.00  0.00    -0.174 N 
ATOM     11  H9  UNL     1      11.250  -1.869  53.921  1.00  0.00     0.186 HD
HETATM   12  C15 UNL     1      11.391  -3.646  52.904  1.00  0.00     0.158 A 
ENDROOT
BRANCH   9  13
HETATM   13  N6  UNL     1       8.943  -1.248  53.534  1.00  0.00    -0.173 N 
HETATM   14  C14 UNL     1       8.456  -0.115  52.817  1.00  0.00     0.494 C 
HETATM   15  N7  UNL     1       7.319  -0.480  52.028  1.00  0.00    -0.032 N 
HETATM   16  N8  UNL     1       9.487   0.553  52.042  1.00  0.00    -0.032 N 
ATOM     17  H73 UNL     1       7.522  -1.265  51.409  1.00  0.00     0.278 HD
ATOM     18  H72 UNL     1       6.590  -0.917  52.590  1.00  0.00     0.278 HD
ATOM     19  H71 UNL     1       6.971   0.330  51.516  1.00  0.00     0.278 HD
ATOM     20  H83 UNL     1      10.278   0.808  52.633  1.00  0.00     0.278 HD
ATOM     21  H82 UNL     1       9.952  -0.103  51.414  1.00  0.00     0.278 HD
ATOM     22  H81 UNL     1       9.139   1.363  51.530  1.00  0.00     0.278 HD
ATOM     23  H6  UNL     1       8.888  -1.194  54.551  1.00  0.00     0.181 HD
ENDBRANCH   9  13
BRANCH   6  24
HETATM   24  N4  UNL     1       8.746  -5.114  51.157  1.00  0.00    -0.422 NA
BRANCH  24  25
HETATM   25  C8  UNL     1       8.069  -6.003  50.428  1.00  0.00     0.165 C 
HETATM   26  C9  UNL     1       8.412  -6.123  48.946  1.00  0.00     0.039 C 
HETATM   27  C10 UNL     1       7.499  -7.283  48.522  1.00  0.00     0.003 C 
HETATM   28  C11 UNL     1       7.258  -8.097  49.765  1.00  0.00     0.003 C 
HETATM   29  C12 UNL     1       8.179  -7.475  50.816  1.00  0.00     0.039 C 
ENDBRANCH  24  25
ENDBRANCH   6  24
BRANCH   1  30
HETATM   30  C4  UNL     1      13.749  -3.441  53.802  1.00  0.00     0.230 C 
HETATM   31  O1  UNL     1      13.671  -2.074  53.887  1.00  0.00    -0.366 OA
HETATM   32  C3  UNL     1      14.637  -1.734  54.828  1.00  0.00     0.176 C 
HETATM   33  C2  UNL     1      14.695  -2.825  55.846  1.00  0.00     0.039 C 
HETATM   34  C16 UNL     1      13.856  -3.908  55.224  1.00  0.00     0.062 C 
BRANCH  33  35
HETATM   35  C1  UNL     1      16.107  -3.272  56.149  1.00  0.00     0.236 C 
BRANCH  35  36
HETATM   36  N1  UNL     1      16.235  -4.700  56.234  1.00  0.00    -0.079 N 
ATOM     37  H13 UNL     1      15.776  -5.059  57.071  1.00  0.00     0.274 HD
ATOM     38  H12 UNL     1      15.666  -5.160  55.523  1.00  0.00     0.274 HD
ATOM     39  H11 UNL     1      17.204  -5.015  56.186  1.00  0.00     0.274 HD
ENDBRANCH  35  36
ENDBRANCH  33  35
ENDBRANCH   1  30
TORSDOF 6
ENDMDL
MODEL 3
REMARK VINA RESULT: -6.962587470      2.313      7.097
REMARK  6 active torsions:
REMARK  status: ('A' for Active; 'I' for Inactive)
REMARK    1  A    between atoms: N1_1  and  C1_5 
REMARK    2  A    between atoms: C1_5  and  C2_6 
REMARK    3  A    between atoms: C4_9  and  N2_10 
REMARK    4  A    between atoms: C7_15  and  N4_16 
REMARK    5  A    between atoms: N4_16  and  C8_17 
REMARK    6  A    between atoms: C13_24  and  N6_25 
REMARK       I    between atoms: N6_25  and  C14_27 
REMARK       I    between atoms: C14_27  and  N7_28 
REMARK       I    between atoms: C14_27  and  N8_32 
ROOT
HETATM    1  N2  UNL     1       7.789  -4.175  54.293  1.00  0.00    -0.299 N 
HETATM    2  C5  UNL     1       7.736  -4.594  55.572  1.00  0.00     0.188 A 
HETATM    3  N3  UNL     1       8.170  -5.858  55.698  1.00  0.00    -0.345 N 
ATOM      4  H3  UNL     1       8.225  -6.396  56.562  1.00  0.00     0.167 HD
HETATM    5  C6  UNL     1       8.518  -6.277  54.475  1.00  0.00     0.137 A 
HETATM    6  C7  UNL     1       9.032  -7.490  53.992  1.00  0.00     0.218 A 
HETATM    7  N5  UNL     1       9.269  -7.554  52.647  1.00  0.00    -0.162 N 
ATOM      8  H5  UNL     1       9.642  -8.423  52.266  1.00  0.00     0.187 HD
HETATM    9  C13 UNL     1       9.041  -6.551  51.809  1.00  0.00     0.685 A 
HETATM   10  N9  UNL     1       8.544  -5.386  52.297  1.00  0.00    -0.174 N 
ATOM     11  H9  UNL     1       8.367  -4.613  51.656  1.00  0.00     0.186 HD
HETATM   12  C15 UNL     1       8.278  -5.227  53.612  1.00  0.00     0.158 A 
ENDROOT
BRANCH   9  13
HETATM   13  N6  UNL     1       9.248  -6.576  50.550  1.00  0.00    -0.173 N 
HETATM   14  C14 UNL     1       8.295  -6.806  49.514  1.00  0.00     0.494 C 
HETATM   15  N7  UNL     1       7.321  -5.757  49.497  1.00  0.00    -0.032 N 
HETATM   16  N8  UNL     1       7.697  -8.127  49.575  1.00  0.00    -0.032 N 
ATOM     17  H73 UNL     1       6.874  -5.637  50.406  1.00  0.00     0.278 HD
ATOM     18  H72 UNL     1       7.753  -4.837  49.420  1.00  0.00     0.278 HD
ATOM     19  H71 UNL     1       6.640  -5.921  48.756  1.00  0.00     0.278 HD
ATOM     20  H83 UNL     1       8.415  -8.852  49.577  1.00  0.00     0.278 HD
ATOM     21  H82 UNL     1       7.285  -8.298  50.493  1.00  0.00     0.278 HD
ATOM     22  H81 UNL     1       7.015  -8.292  48.834  1.00  0.00     0.278 HD
ATOM     23  H6  UNL     1      10.209  -6.414  50.249  1.00  0.00     0.181 HD
ENDBRANCH   9  13
BRANCH   6  24
HETATM   24  N4  UNL     1       9.243  -8.400  54.711  1.00  0.00    -0.422 NA
BRANCH  24  25
HETATM   25  C8  UNL     1       9.507  -9.427  55.520  1.00  0.00     0.165 C 
HETATM   26  C9  UNL     1      10.707  -9.309  56.456  1.00  0.00     0.039 C 
HETATM   27  C10 UNL     1      10.596 -10.622  57.248  1.00  0.00     0.003 C 
HETATM   28  C11 UNL     1       9.142 -11.010  57.206  1.00  0.00     0.003 C 
HETATM   29  C12 UNL     1       8.446  -9.820  56.544  1.00  0.00     0.039 C 
ENDBRANCH  24  25
ENDBRANCH   6  24
BRANCH   1  30
HETATM   30  C4  UNL     1       7.395  -2.864  53.831  1.00  0.00     0.230 C 
HETATM   31  O1  UNL     1       6.454  -2.248  54.615  1.00  0.00    -0.366 OA
HETATM   32  C3  UNL     1       6.431  -0.935  54.156  1.00  0.00     0.176 C 
HETATM   33  C2  UNL     1       7.816  -0.570  53.733  1.00  0.00     0.039 C 
HETATM   34  C16 UNL     1       8.535  -1.891  53.763  1.00  0.00     0.062 C 
BRANCH  33  35
HETATM   35  C1  UNL     1       7.860   0.096  52.377  1.00  0.00     0.236 C 
BRANCH  35  36
HETATM   36  N1  UNL     1       9.196   0.416  51.956  1.00  0.00    -0.079 N 
ATOM     37  H13 UNL     1       9.335   1.426  51.918  1.00  0.00     0.274 HD
ATOM     38  H12 UNL     1       9.873   0.182  52.681  1.00  0.00     0.274 HD
ATOM     39  H11 UNL     1       9.447  -0.020  51.068  1.00  0.00     0.274 HD
ENDBRANCH  35  36
ENDBRANCH  33  35
ENDBRANCH   1  30
TORSDOF 6
ENDMDL
MODEL 4
REMARK VINA RESULT: -6.945858837      2.951      7.325
REMARK  6 active torsions:
REMARK  status: ('A' for Active; 'I' for Inactive)
REMARK    1  A    between atoms: N1_1  and  C1_5 
REMARK    2  A    between atoms: C1_5  and  C2_6 
REMARK    3  A    between atoms: C4_9  and  N2_10 
REMARK    4  A    between atoms: C7_15  and  N4_16 
REMARK    5  A    between atoms: N4_16  and  C8_17 
REMARK    6  A    between atoms: C13_24  and  N6_25 
REMARK       I    between atoms: N6_25  and  C14_27 
REMARK       I    between atoms: C14_27  and  N7_28 
REMARK       I    between atoms: C14_27  and  N8_32 
ROOT
HETATM    1  N2  UNL     1       8.145  -2.006  54.397  1.00  0.00    -0.299 N 
HETATM    2  C5  UNL     1       7.884  -1.783  53.095  1.00  0.00     0.188 A 
HETATM    3  N3  UNL     1       8.024  -2.899  52.362  1.00  0.00    -0.345 N 
ATOM      4  H3  UNL     1       7.883  -2.986  51.356  1.00  0.00     0.167 HD
HETATM    5  C6  UNL     1       8.384  -3.877  53.203  1.00  0.00     0.137 A 
HETATM    6  C7  UNL     1       8.668  -5.238  53.018  1.00  0.00     0.218 A 
HETATM    7  N5  UNL     1       9.012  -5.943  54.138  1.00  0.00    -0.162 N 
ATOM      8  H5  UNL     1       9.226  -6.935  54.035  1.00  0.00     0.187 HD
HETATM    9  C13 UNL     1       9.085  -5.411  55.351  1.00  0.00     0.685 A 
HETATM   10  N9  UNL     1       8.806  -4.091  55.508  1.00  0.00    -0.174 N 
ATOM     11  H9  UNL     1       8.861  -3.678  56.439  1.00  0.00     0.186 HD
HETATM   12  C15 UNL     1       8.456  -3.313  54.460  1.00  0.00     0.158 A 
ENDROOT
BRANCH   9  13
HETATM   13  N6  UNL     1       9.405  -6.036  56.416  1.00  0.00    -0.173 N 
HETATM   14  C14 UNL     1       8.645  -7.028  57.106  1.00  0.00     0.494 C 
HETATM   15  N7  UNL     1       8.479  -8.186  56.281  1.00  0.00    -0.032 N 
HETATM   16  N8  UNL     1       7.387  -6.521  57.623  1.00  0.00    -0.032 N 
ATOM     17  H73 UNL     1       8.070  -7.953  55.376  1.00  0.00     0.278 HD
ATOM     18  H72 UNL     1       9.373  -8.551  55.953  1.00  0.00     0.278 HD
ATOM     19  H71 UNL     1       7.937  -8.894  56.775  1.00  0.00     0.278 HD
ATOM     20  H83 UNL     1       7.539  -5.703  58.213  1.00  0.00     0.278 HD
ATOM     21  H82 UNL     1       6.835  -6.091  56.881  1.00  0.00     0.278 HD
ATOM     22  H81 UNL     1       6.844  -7.230  58.117  1.00  0.00     0.278 HD
ATOM     23  H6  UNL     1      10.309  -5.799  56.823  1.00  0.00     0.181 HD
ENDBRANCH   9  13
BRANCH   6  24
HETATM   24  N4  UNL     1       8.615  -5.740  51.952  1.00  0.00    -0.422 NA
BRANCH  24  25
HETATM   25  C8  UNL     1       8.528  -6.303  50.746  1.00  0.00     0.165 C 
HETATM   26  C9  UNL     1       7.432  -7.340  50.518  1.00  0.00     0.039 C 
HETATM   27  C10 UNL     1       7.622  -7.651  49.025  1.00  0.00     0.003 C 
HETATM   28  C11 UNL     1       8.254  -6.424  48.424  1.00  0.00     0.003 C 
HETATM   29  C12 UNL     1       8.244  -5.393  49.554  1.00  0.00     0.039 C 
ENDBRANCH  24  25
ENDBRANCH   6  24
BRANCH   1  30
HETATM   30  C4  UNL     1       8.079  -1.009  55.440  1.00  0.00     0.230 C 
HETATM   31  O1  UNL     1       9.151  -1.015  56.295  1.00  0.00    -0.366 OA
HETATM   32  C3  UNL     1       9.016   0.164  57.022  1.00  0.00     0.176 C 
HETATM   33  C2  UNL     1       8.426   1.197  56.119  1.00  0.00     0.039 C 
HETATM   34  C16 UNL     1       8.014   0.395  54.915  1.00  0.00     0.062 C 
BRANCH  33  35
HETATM   35  C1  UNL     1       7.276   1.944  56.754  1.00  0.00     0.236 C 
BRANCH  35  36
HETATM   36  N1  UNL     1       6.098   1.957  55.931  1.00  0.00    -0.079 N 
ATOM     37  H13 UNL     1       6.284   1.540  55.020  1.00  0.00     0.274 HD
ATOM     38  H12 UNL     1       5.403   1.296  56.277  1.00  0.00     0.274 HD
ATOM     39  H11 UNL     1       5.695   2.890  55.831  1.00  0.00     0.274 HD
ENDBRANCH  35  36
ENDBRANCH  33  35
ENDBRANCH   1  30
TORSDOF 6
ENDMDL
MODEL 5
REMARK VINA RESULT: -6.912290764      1.687      1.858
REMARK  6 active torsions:
REMARK  status: ('A' for Active; 'I' for Inactive)
REMARK    1  A    between atoms: N1_1  and  C1_5 
REMARK    2  A    between atoms: C1_5  and  C2_6 
REMARK    3  A    between atoms: C4_9  and  N2_10 
REMARK    4  A    between atoms: C7_15  and  N4_16 
REMARK    5  A    between atoms: N4_16  and  C8_17 
REMARK    6  A    between atoms: C13_24  and  N6_25 
REMARK       I    between atoms: N6_25  and  C14_27 
REMARK       I    between atoms: C14_27  and  N7_28 
REMARK       I    between atoms: C14_27  and  N8_32 
ROOT
HETATM    1  N2  UNL     1       8.842  -7.284  56.291  1.00  0.00    -0.299 N 
HETATM    2  C5  UNL     1       8.925  -6.121  56.966  1.00  0.00     0.188 A 
HETATM    3  N3  UNL     1       8.695  -5.067  56.167  1.00  0.00    -0.345 N 
ATOM      4  H3  UNL     1       8.703  -4.085  56.442  1.00  0.00     0.167 HD
HETATM    5  C6  UNL     1       8.452  -5.549  54.941  1.00  0.00     0.137 A 
HETATM    6  C7  UNL     1       8.151  -4.935  53.717  1.00  0.00     0.218 A 
HETATM    7  N5  UNL     1       7.965  -5.771  52.650  1.00  0.00    -0.162 N 
ATOM      8  H5  UNL     1       7.746  -5.353  51.746  1.00  0.00     0.187 HD
HETATM    9  C13 UNL     1       8.053  -7.092  52.724  1.00  0.00     0.685 A 
HETATM   10  N9  UNL     1       8.345  -7.666  53.919  1.00  0.00    -0.174 N 
ATOM     11  H9  UNL     1       8.414  -8.681  53.980  1.00  0.00     0.186 HD
HETATM   12  C15 UNL     1       8.546  -6.923  55.030  1.00  0.00     0.158 A 
ENDROOT
BRANCH   9  13
HETATM   13  N6  UNL     1       7.888  -7.901  51.751  1.00  0.00    -0.173 N 
HETATM   14  C14 UNL     1       7.676  -7.580  50.377  1.00  0.00     0.494 C 
HETATM   15  N7  UNL     1       8.824  -6.915  49.842  1.00  0.00    -0.032 N 
HETATM   16  N8  UNL     1       6.444  -6.846  50.149  1.00  0.00    -0.032 N 
ATOM     17  H73 UNL     1       9.078  -6.093  50.390  1.00  0.00     0.278 HD
ATOM     18  H72 UNL     1       9.677  -7.456  49.979  1.00  0.00     0.278 HD
ATOM     19  H71 UNL     1       8.672  -6.686  48.859  1.00  0.00     0.278 HD
ATOM     20  H83 UNL     1       5.644  -7.350  50.534  1.00  0.00     0.278 HD
ATOM     21  H82 UNL     1       6.407  -6.007  50.728  1.00  0.00     0.278 HD
ATOM     22  H81 UNL     1       6.292  -6.618  49.167  1.00  0.00     0.278 HD
ATOM     23  H6  UNL     1       7.909  -8.894  51.982  1.00  0.00     0.181 HD
ENDBRANCH   9  13
BRANCH   6  24
HETATM   24  N4  UNL     1       8.068  -3.763  53.618  1.00  0.00    -0.422 NA
BRANCH  24  25
HETATM   25  C8  UNL     1       7.980  -2.439  53.481  1.00  0.00     0.165 C 
HETATM   26  C9  UNL     1       8.409  -1.569  54.659  1.00  0.00     0.039 C 
HETATM   27  C10 UNL     1       8.243  -0.161  54.064  1.00  0.00     0.003 C 
HETATM   28  C11 UNL     1       8.394  -0.321  52.575  1.00  0.00     0.003 C 
HETATM   29  C12 UNL     1       8.813  -1.779  52.385  1.00  0.00     0.039 C 
ENDBRANCH  24  25
ENDBRANCH   6  24
BRANCH   1  30
HETATM   30  C4  UNL     1       9.035  -8.594  56.868  1.00  0.00     0.230 C 
HETATM   31  O1  UNL     1       8.390  -9.605  56.202  1.00  0.00    -0.366 OA
HETATM   32  C3  UNL     1       8.924 -10.768  56.747  1.00  0.00     0.176 C 
HETATM   33  C2  UNL     1      10.355 -10.507  57.082  1.00  0.00     0.039 C 
HETATM   34  C16 UNL     1      10.474  -9.018  56.908  1.00  0.00     0.062 C 
BRANCH  33  35
HETATM   35  C1  UNL     1      10.729 -10.972  58.471  1.00  0.00     0.236 C 
BRANCH  35  36
HETATM   36  N1  UNL     1      12.049 -11.535  58.535  1.00  0.00    -0.079 N 
ATOM     37  H13 UNL     1      12.023 -12.544  58.393  1.00  0.00     0.274 HD
ATOM     38  H12 UNL     1      12.600 -11.267  57.719  1.00  0.00     0.274 HD
ATOM     39  H11 UNL     1      12.539 -11.300  59.399  1.00  0.00     0.274 HD
ENDBRANCH  35  36
ENDBRANCH  33  35
ENDBRANCH   1  30
TORSDOF 6
ENDMDL
