MODEL 1
REMARK VINA RESULT: -7.157605728      0.000      0.000
REMARK  5 active torsions:
REMARK  status: ('A' for Active; 'I' for Inactive)
REMARK    1  A    between atoms: C2_2  and  C4_4 
REMARK    2  A    between atoms: C4_4  and  N1_5 
REMARK    3  A    between atoms: C7_10  and  N3_11 
REMARK    4  A    between atoms: N3_11  and  C8_12 
REMARK    5  A    between atoms: C8_12  and  C9_13 
ROOT
HETATM    1  N1  UNL     1       8.952  -8.284  55.959  1.00  0.00    -0.327 N 
HETATM    2  C5  UNL     1       9.485  -7.261  56.650  1.00  0.00     0.185 A 
HETATM    3  N2  UNL     1       9.452  -6.129  55.927  1.00  0.00    -0.345 N 
ATOM      4  H2  UNL     1       9.791  -5.210  56.212  1.00  0.00     0.167 HD
HETATM    5  C6  UNL     1       8.882  -6.450  54.747  1.00  0.00     0.137 A 
HETATM    6  C7  UNL     1       8.597  -5.656  53.614  1.00  0.00     0.211 A 
HETATM    7  N7  UNL     1       7.999  -6.275  52.536  1.00  0.00    -0.303 N 
ATOM      8  H7  UNL     1       7.779  -5.736  51.699  1.00  0.00     0.171 HD
HETATM    9  C13 UNL     1       7.710  -7.572  52.583  1.00  0.00     0.196 A 
HETATM   10  N8  UNL     1       7.084  -8.169  51.422  1.00  0.00    -0.063 NA
HETATM   11  N9  UNL     1       7.985  -8.318  53.667  1.00  0.00    -0.314 N 
ATOM     12  H9  UNL     1       7.747  -9.310  53.663  1.00  0.00     0.170 HD
HETATM   13  C14 UNL     1       8.571  -7.781  54.764  1.00  0.00     0.143 A 
ENDROOT
BRANCH   6  14
HETATM   14  N3  UNL     1       8.887  -4.483  53.639  1.00  0.00    -0.396 NA
BRANCH  14  15
HETATM   15  C8  UNL     1       9.220  -3.201  53.678  1.00  0.00     0.205 C 
BRANCH  15  16
HETATM   16  C9  UNL     1       8.188  -2.137  53.482  1.00  0.00     0.102 A 
HETATM   17  C10 UNL     1       8.410  -1.149  52.545  1.00  0.00     0.138 A 
HETATM   18  N4  UNL     1       9.618  -1.136  51.766  1.00  0.00    -0.081 NA
HETATM   19  N5  UNL     1       7.497  -0.182  52.350  1.00  0.00    -0.296 N 
HETATM   20  C11 UNL     1       6.343  -0.171  53.076  1.00  0.00     0.328 A 
ATOM     21  H5  UNL     1       7.668   0.546  51.657  1.00  0.00     0.171 HD
HETATM   22  O1  UNL     1       5.502   0.755  52.867  1.00  0.00    -0.247 OA
HETATM   23  N6  UNL     1       6.111  -1.127  53.992  1.00  0.00    -0.275 N 
HETATM   24  C12 UNL     1       7.037  -2.123  54.202  1.00  0.00     0.265 A 
ATOM     25  H6  UNL     1       5.247  -1.114  54.533  1.00  0.00     0.173 HD
HETATM   26  O2  UNL     1       6.716  -2.954  55.075  1.00  0.00    -0.267 OA
ENDBRANCH  15  16
ENDBRANCH  14  15
ENDBRANCH   6  14
BRANCH   1  27
HETATM   27  C4  UNL     1       8.784  -9.659  56.348  1.00  0.00     0.135 C 
BRANCH  27  28
HETATM   28  C2  UNL     1       9.690 -10.128  57.434  1.00  0.00    -0.004 C 
HETATM   29  C1  UNL     1       9.121  -9.962  58.811  1.00  0.00     0.011 C 
HETATM   30  C3  UNL     1      10.254 -11.512  57.204  1.00  0.00     0.011 C 
ENDBRANCH  27  28
ENDBRANCH   1  27
TORSDOF 5
ENDMDL
MODEL 2
REMARK VINA RESULT: -6.889233369      3.953      7.353
REMARK  5 active torsions:
REMARK  status: ('A' for Active; 'I' for Inactive)
REMARK    1  A    between atoms: C2_2  and  C4_4 
REMARK    2  A    between atoms: C4_4  and  N1_5 
REMARK    3  A    between atoms: C7_10  and  N3_11 
REMARK    4  A    between atoms: N3_11  and  C8_12 
REMARK    5  A    between atoms: C8_12  and  C9_13 
ROOT
HETATM    1  N1  UNL     1       8.401  -0.591  53.859  1.00  0.00    -0.327 N 
HETATM    2  C5  UNL     1       8.860  -0.817  52.615  1.00  0.00     0.185 A 
HETATM    3  N2  UNL     1       9.287  -2.086  52.488  1.00  0.00    -0.345 N 
ATOM      4  H2  UNL     1       9.681  -2.518  51.652  1.00  0.00     0.167 HD
HETATM    5  C6  UNL     1       9.089  -2.673  53.686  1.00  0.00     0.137 A 
HETATM    6  C7  UNL     1       9.354  -3.991  54.122  1.00  0.00     0.211 A 
HETATM    7  N7  UNL     1       9.040  -4.304  55.428  1.00  0.00    -0.303 N 
ATOM      8  H7  UNL     1       9.216  -5.245  55.781  1.00  0.00     0.171 HD
HETATM    9  C13 UNL     1       8.509  -3.386  56.230  1.00  0.00     0.196 A 
HETATM   10  N8  UNL     1       8.200  -3.772  57.591  1.00  0.00    -0.063 NA
HETATM   11  N9  UNL     1       8.261  -2.136  55.804  1.00  0.00    -0.314 N 
ATOM     12  H9  UNL     1       7.853  -1.460  56.451  1.00  0.00     0.170 HD
HETATM   13  C14 UNL     1       8.541  -1.753  54.536  1.00  0.00     0.143 A 
ENDROOT
BRANCH   6  14
HETATM   14  N3  UNL     1       9.838  -4.775  53.341  1.00  0.00    -0.396 NA
BRANCH  14  15
HETATM   15  C8  UNL     1      10.357  -5.628  52.469  1.00  0.00     0.205 C 
BRANCH  15  16
HETATM   16  C9  UNL     1       9.507  -6.246  51.406  1.00  0.00     0.102 A 
HETATM   17  C10 UNL     1       9.362  -5.595  50.198  1.00  0.00     0.138 A 
HETATM   18  N4  UNL     1      10.017  -4.337  49.961  1.00  0.00    -0.081 NA
HETATM   19  N5  UNL     1       8.603  -6.131  49.227  1.00  0.00    -0.296 N 
HETATM   20  C11 UNL     1       7.972  -7.322  49.427  1.00  0.00     0.328 A 
ATOM     21  H5  UNL     1       8.499  -5.644  48.337  1.00  0.00     0.171 HD
HETATM   22  O1  UNL     1       7.264  -7.801  48.490  1.00  0.00    -0.247 OA
HETATM   23  N6  UNL     1       8.104  -7.969  50.598  1.00  0.00    -0.275 N 
HETATM   24  C12 UNL     1       8.877  -7.432  51.601  1.00  0.00     0.265 A 
ATOM     25  H6  UNL     1       7.628  -8.860  50.743  1.00  0.00     0.173 HD
HETATM   26  O2  UNL     1       8.926  -8.118  52.642  1.00  0.00    -0.267 OA
ENDBRANCH  15  16
ENDBRANCH  14  15
ENDBRANCH   6  14
BRANCH   1  27
HETATM   27  C4  UNL     1       7.854   0.614  54.425  1.00  0.00     0.135 C 
BRANCH  27  28
HETATM   28  C2  UNL     1       6.383   0.597  54.658  1.00  0.00    -0.004 C 
HETATM   29  C1  UNL     1       5.878   1.783  55.423  1.00  0.00     0.011 C 
HETATM   30  C3  UNL     1       5.570   0.320  53.414  1.00  0.00     0.011 C 
ENDBRANCH  27  28
ENDBRANCH   1  27
TORSDOF 5
ENDMDL
MODEL 3
REMARK VINA RESULT: -6.863758353      4.368      7.097
REMARK  5 active torsions:
REMARK  status: ('A' for Active; 'I' for Inactive)
REMARK    1  A    between atoms: C2_2  and  C4_4 
REMARK    2  A    between atoms: C4_4  and  N1_5 
REMARK    3  A    between atoms: C7_10  and  N3_11 
REMARK    4  A    between atoms: N3_11  and  C8_12 
REMARK    5  A    between atoms: C8_12  and  C9_13 
ROOT
HETATM    1  N1  UNL     1       9.148  -5.393  51.192  1.00  0.00    -0.327 N 
HETATM    2  C5  UNL     1      10.208  -6.059  51.686  1.00  0.00     0.185 A 
HETATM    3  N2  UNL     1      10.954  -5.257  52.465  1.00  0.00    -0.345 N 
ATOM      4  H2  UNL     1      11.810  -5.508  52.960  1.00  0.00     0.167 HD
HETATM    5  C6  UNL     1      10.345  -4.053  52.461  1.00  0.00     0.137 A 
HETATM    6  C7  UNL     1      10.688  -2.844  53.106  1.00  0.00     0.211 A 
HETATM    7  N7  UNL     1       9.858  -1.760  52.910  1.00  0.00    -0.303 N 
ATOM      8  H7  UNL     1      10.072  -0.869  53.358  1.00  0.00     0.171 HD
HETATM    9  C13 UNL     1       8.779  -1.871  52.140  1.00  0.00     0.196 A 
HETATM   10  N8  UNL     1       7.945  -0.700  51.970  1.00  0.00    -0.063 NA
HETATM   11  N9  UNL     1       8.462  -3.027  51.532  1.00  0.00    -0.314 N 
ATOM     12  H9  UNL     1       7.626  -3.070  50.949  1.00  0.00     0.170 HD
HETATM   13  C14 UNL     1       9.228  -4.134  51.677  1.00  0.00     0.143 A 
ENDROOT
BRANCH   6  14
HETATM   14  N3  UNL     1      11.682  -2.813  53.792  1.00  0.00    -0.396 NA
BRANCH  14  15
HETATM   15  C8  UNL     1      12.765  -2.765  54.555  1.00  0.00     0.205 C 
BRANCH  15  16
HETATM   16  C9  UNL     1      13.709  -3.923  54.614  1.00  0.00     0.102 A 
HETATM   17  C10 UNL     1      15.006  -3.757  54.174  1.00  0.00     0.138 A 
HETATM   18  N4  UNL     1      15.449  -2.488  53.663  1.00  0.00    -0.081 NA
HETATM   19  N5  UNL     1      15.873  -4.783  54.219  1.00  0.00    -0.296 N 
HETATM   20  C11 UNL     1      15.478  -5.995  54.699  1.00  0.00     0.328 A 
ATOM     21  H5  UNL     1      16.830  -4.654  53.891  1.00  0.00     0.171 HD
HETATM   22  O1  UNL     1      16.321  -6.943  54.727  1.00  0.00    -0.247 OA
HETATM   23  N6  UNL     1      14.218  -6.173  55.132  1.00  0.00    -0.275 N 
HETATM   24  C12 UNL     1      13.320  -5.132  55.092  1.00  0.00     0.265 A 
ATOM     25  H6  UNL     1      13.927  -7.083  55.490  1.00  0.00     0.173 HD
HETATM   26  O2  UNL     1      12.181  -5.413  55.518  1.00  0.00    -0.267 OA
ENDBRANCH  15  16
ENDBRANCH  14  15
ENDBRANCH   6  14
BRANCH   1  27
HETATM   27  C4  UNL     1       8.100  -5.862  50.324  1.00  0.00     0.135 C 
BRANCH  27  28
HETATM   28  C2  UNL     1       7.901  -7.337  50.305  1.00  0.00    -0.004 C 
HETATM   29  C1  UNL     1       6.974  -7.838  51.371  1.00  0.00     0.011 C 
HETATM   30  C3  UNL     1       7.565  -7.891  48.939  1.00  0.00     0.011 C 
ENDBRANCH  27  28
ENDBRANCH   1  27
TORSDOF 5
ENDMDL
MODEL 4
REMARK VINA RESULT: -6.861289176      1.046      1.647
REMARK  5 active torsions:
REMARK  status: ('A' for Active; 'I' for Inactive)
REMARK    1  A    between atoms: C2_2  and  C4_4 
REMARK    2  A    between atoms: C4_4  and  N1_5 
REMARK    3  A    between atoms: C7_10  and  N3_11 
REMARK    4  A    between atoms: N3_11  and  C8_12 
REMARK    5  A    between atoms: C8_12  and  C9_13 
ROOT
HETATM    1  N1  UNL     1       8.999  -8.286  55.899  1.00  0.00    -0.327 N 
HETATM    2  C5  UNL     1       9.573  -7.294  56.604  1.00  0.00     0.185 A 
HETATM    3  N2  UNL     1       9.559  -6.145  55.906  1.00  0.00    -0.345 N 
ATOM      4  H2  UNL     1       9.930  -5.243  56.205  1.00  0.00     0.167 HD
HETATM    5  C6  UNL     1       8.959  -6.423  54.731  1.00  0.00     0.137 A 
HETATM    6  C7  UNL     1       8.677  -5.596  53.620  1.00  0.00     0.211 A 
HETATM    7  N7  UNL     1       8.043  -6.174  52.541  1.00  0.00    -0.303 N 
ATOM      8  H7  UNL     1       7.822  -5.609  51.720  1.00  0.00     0.171 HD
HETATM    9  C13 UNL     1       7.717  -7.463  52.564  1.00  0.00     0.196 A 
HETATM   10  N8  UNL     1       7.054  -8.015  51.402  1.00  0.00    -0.063 NA
HETATM   11  N9  UNL     1       7.991  -8.240  53.626  1.00  0.00    -0.314 N 
ATOM     12  H9  UNL     1       7.725  -9.225  53.604  1.00  0.00     0.170 HD
HETATM   13  C14 UNL     1       8.611  -7.745  54.723  1.00  0.00     0.143 A 
ENDROOT
BRANCH   6  14
HETATM   14  N3  UNL     1       9.000  -4.433  53.666  1.00  0.00    -0.396 NA
BRANCH  14  15
HETATM   15  C8  UNL     1       9.345  -3.153  53.699  1.00  0.00     0.205 C 
BRANCH  15  16
HETATM   16  C9  UNL     1       8.344  -2.084  53.402  1.00  0.00     0.102 A 
HETATM   17  C10 UNL     1       7.195  -2.008  54.162  1.00  0.00     0.138 A 
HETATM   18  N4  UNL     1       6.959  -2.943  55.228  1.00  0.00    -0.081 NA
HETATM   19  N5  UNL     1       6.280  -1.055  53.913  1.00  0.00    -0.296 N 
HETATM   20  C11 UNL     1       6.481  -0.157  52.909  1.00  0.00     0.328 A 
ATOM     21  H5  UNL     1       5.433  -1.004  54.479  1.00  0.00     0.171 HD
HETATM   22  O1  UNL     1       5.598   0.730  52.700  1.00  0.00    -0.247 OA
HETATM   23  N6  UNL     1       7.595  -0.217  52.159  1.00  0.00    -0.275 N 
HETATM   24  C12 UNL     1       8.539  -1.187  52.402  1.00  0.00     0.265 A 
ATOM     25  H6  UNL     1       7.739   0.457  51.408  1.00  0.00     0.173 HD
HETATM   26  O2  UNL     1       9.530  -1.148  51.645  1.00  0.00    -0.267 OA
ENDBRANCH  15  16
ENDBRANCH  14  15
ENDBRANCH   6  14
BRANCH   1  27
HETATM   27  C4  UNL     1       8.799  -9.664  56.261  1.00  0.00     0.135 C 
BRANCH  27  28
HETATM   28  C2  UNL     1       9.636 -10.153  57.392  1.00  0.00    -0.004 C 
HETATM   29  C1  UNL     1       9.006  -9.960  58.739  1.00  0.00     0.011 C 
HETATM   30  C3  UNL     1      10.167 -11.555  57.198  1.00  0.00     0.011 C 
ENDBRANCH  27  28
ENDBRANCH   1  27
TORSDOF 5
ENDMDL
MODEL 5
REMARK VINA RESULT: -6.841723667      3.434      6.827
REMARK  5 active torsions:
REMARK  status: ('A' for Active; 'I' for Inactive)
REMARK    1  A    between atoms: C2_2  and  C4_4 
REMARK    2  A    between atoms: C4_4  and  N1_5 
REMARK    3  A    between atoms: C7_10  and  N3_11 
REMARK    4  A    between atoms: N3_11  and  C8_12 
REMARK    5  A    between atoms: C8_12  and  C9_13 
ROOT
HETATM    1  N1  UNL     1       8.247  -2.317  55.076  1.00  0.00    -0.327 N 
HETATM    2  C5  UNL     1       8.542  -2.592  53.793  1.00  0.00     0.185 A 
HETATM    3  N2  UNL     1       8.537  -3.919  53.576  1.00  0.00    -0.345 N 
ATOM      4  H2  UNL     1       8.729  -4.396  52.695  1.00  0.00     0.167 HD
HETATM    5  C6  UNL     1       8.229  -4.493  54.757  1.00  0.00     0.137 A 
HETATM    6  C7  UNL     1       8.086  -5.854  55.112  1.00  0.00     0.211 A 
HETATM    7  N7  UNL     1       7.761  -6.139  56.421  1.00  0.00    -0.303 N 
ATOM      8  H7  UNL     1       7.649  -7.110  56.716  1.00  0.00     0.171 HD
HETATM    9  C13 UNL     1       7.592  -5.157  57.301  1.00  0.00     0.196 A 
HETATM   10  N8  UNL     1       7.252  -5.517  58.661  1.00  0.00    -0.063 NA
HETATM   11  N9  UNL     1       7.730  -3.866  56.952  1.00  0.00    -0.314 N 
ATOM     12  H9  UNL     1       7.593  -3.142  57.657  1.00  0.00     0.170 HD
HETATM   13  C14 UNL     1       8.048  -3.507  55.686  1.00  0.00     0.143 A 
ENDROOT
BRANCH   6  14
HETATM   14  N3  UNL     1       8.253  -6.696  54.262  1.00  0.00    -0.396 NA
BRANCH  14  15
HETATM   15  C8  UNL     1       8.440  -7.606  53.316  1.00  0.00     0.205 C 
BRANCH  15  16
HETATM   16  C9  UNL     1       8.435  -7.218  51.872  1.00  0.00     0.102 A 
HETATM   17  C10 UNL     1       9.511  -6.524  51.358  1.00  0.00     0.138 A 
HETATM   18  N4  UNL     1      10.625  -6.174  52.198  1.00  0.00    -0.081 NA
HETATM   19  N5  UNL     1       9.531  -6.165  50.063  1.00  0.00    -0.296 N 
HETATM   20  C11 UNL     1       8.487  -6.485  49.247  1.00  0.00     0.328 A 
ATOM     21  H5  UNL     1      10.329  -5.651  49.690  1.00  0.00     0.171 HD
HETATM   22  O1  UNL     1       8.537  -6.131  48.030  1.00  0.00    -0.247 OA
HETATM   23  N6  UNL     1       7.432  -7.161  49.732  1.00  0.00    -0.275 N 
HETATM   24  C12 UNL     1       7.399  -7.535  51.055  1.00  0.00     0.265 A 
ATOM     25  H6  UNL     1       6.653  -7.397  49.117  1.00  0.00     0.173 HD
HETATM   26  O2  UNL     1       6.371  -8.157  51.393  1.00  0.00    -0.267 OA
ENDBRANCH  15  16
ENDBRANCH  14  15
ENDBRANCH   6  14
BRANCH   1  27
HETATM   27  C4  UNL     1       8.141  -1.042  55.735  1.00  0.00     0.135 C 
BRANCH  27  28
HETATM   28  C2  UNL     1       7.777   0.102  54.853  1.00  0.00    -0.004 C 
HETATM   29  C1  UNL     1       6.345   0.093  54.411  1.00  0.00     0.011 C 
HETATM   30  C3  UNL     1       8.209   1.448  55.389  1.00  0.00     0.011 C 
ENDBRANCH  27  28
ENDBRANCH   1  27
TORSDOF 5
ENDMDL
