MODEL 1
REMARK VINA RESULT: -7.225770713      0.000      0.000
REMARK  7 active torsions:
REMARK  status: ('A' for Active; 'I' for Inactive)
REMARK    1  A    between atoms: C2_2  and  N1_3 
REMARK    2  A    between atoms: C2_2  and  C3_7 
REMARK    3  A    between atoms: N2_9  and  C5_10 
REMARK    4  A    between atoms: C7_12  and  N3_13 
REMARK    5  A    between atoms: C8_18  and  N5_19 
REMARK    6  A    between atoms: N7_26  and  C13_27 
REMARK    7  A    between atoms: C15_29  and  N8_30 
ROOT
HETATM    1  C3  UNL     1       8.745  -1.296  53.670  1.00  0.00     0.134 C 
HETATM    2  C4  UNL     1       9.275  -2.690  53.715  1.00  0.00     0.152 C 
HETATM    3  N2  UNL     1       8.211  -3.694  53.712  1.00  0.00    -0.363 N 
HETATM    4  C11 UNL     1       6.875  -3.434  54.121  1.00  0.00     0.144 C 
HETATM    5  C12 UNL     1       6.644  -2.148  54.820  1.00  0.00     0.145 C 
HETATM    6  N7  UNL     1       7.625  -1.136  54.528  1.00  0.00    -0.357 N 
ENDROOT
BRANCH   3   7
HETATM    7  C5  UNL     1       8.590  -4.988  53.266  1.00  0.00     0.122 A 
HETATM    8  C6  UNL     1       9.295  -5.890  54.038  1.00  0.00     0.097 A 
HETATM    9  C7  UNL     1       9.635  -7.136  53.546  1.00  0.00     0.118 A 
HETATM   10  N4  UNL     1       9.273  -7.469  52.299  1.00  0.00    -0.177 N 
HETATM   11  C8  UNL     1       8.584  -6.596  51.531  1.00  0.00     0.683 A 
ATOM     12  H4  UNL     1       9.518  -8.387  51.929  1.00  0.00     0.185 HD
HETATM   13  N6  UNL     1       8.265  -5.396  52.030  1.00  0.00    -0.177 N 
ATOM     14  H6  UNL     1       7.743  -4.753  51.434  1.00  0.00     0.186 HD
BRANCH   9  15
HETATM   15  N3  UNL     1      10.294  -7.991  54.286  1.00  0.00    -0.385 N 
ATOM     16  H32 UNL     1       9.802  -8.541  54.990  1.00  0.00     0.157 HD
ATOM     17  H31 UNL     1      11.301  -8.111  54.174  1.00  0.00     0.157 HD
ENDBRANCH   9  15
BRANCH  11  18
HETATM   18  N5  UNL     1       8.208  -6.906  50.201  1.00  0.00    -0.214 N 
HETATM   19  C9  UNL     1       7.656  -7.745  49.154  1.00  0.00     0.161 A 
HETATM   20  C10 UNL     1       8.138  -6.347  48.820  1.00  0.00     0.161 A 
ENDBRANCH  11  18
ENDBRANCH   3   7
BRANCH   1  21
HETATM   21  C2  UNL     1       8.572  -0.669  52.350  1.00  0.00     0.203 C 
HETATM   22  C1  UNL     1       9.403   0.487  51.975  1.00  0.00     0.042 C 
BRANCH  21  23
HETATM   23  N1  UNL     1       7.160  -0.344  52.080  1.00  0.00    -0.073 N 
ATOM     24  H13 UNL     1       6.852   0.496  52.571  1.00  0.00     0.274 HD
ATOM     25  H12 UNL     1       7.012  -0.013  51.127  1.00  0.00     0.274 HD
ATOM     26  H11 UNL     1       6.588  -1.158  52.304  1.00  0.00     0.274 HD
ENDBRANCH  21  23
ENDBRANCH   1  21
BRANCH   6  27
HETATM   27  C13 UNL     1       7.456   0.140  55.175  1.00  0.00     0.108 A 
HETATM   28  C14 UNL     1       8.558   0.554  55.930  1.00  0.00     0.096 A 
HETATM   29  C15 UNL     1       8.458   1.769  56.559  1.00  0.00     0.103 A 
HETATM   30  N9  UNL     1       7.337   2.488  56.428  1.00  0.00    -0.339 N 
HETATM   31  C16 UNL     1       6.275   2.061  55.687  1.00  0.00     0.183 A 
ATOM     32  H9  UNL     1       7.274   3.389  56.901  1.00  0.00     0.168 HD
HETATM   33  N10 UNL     1       6.358   0.883  55.068  1.00  0.00    -0.339 N 
ATOM     34  H10 UNL     1       5.573   0.548  54.509  1.00  0.00     0.168 HD
BRANCH  29  35
HETATM   35  N8  UNL     1       9.466   2.168  57.250  1.00  0.00    -0.385 N 
ATOM     36  H82 UNL     1      10.413   1.819  57.100  1.00  0.00     0.157 HD
ATOM     37  H81 UNL     1       9.296   2.860  57.980  1.00  0.00     0.157 HD
ENDBRANCH  29  35
ENDBRANCH   6  27
TORSDOF 7
ENDMDL
MODEL 2
REMARK VINA RESULT: -6.963976528      1.004      2.644
REMARK  7 active torsions:
REMARK  status: ('A' for Active; 'I' for Inactive)
REMARK    1  A    between atoms: C2_2  and  N1_3 
REMARK    2  A    between atoms: C2_2  and  C3_7 
REMARK    3  A    between atoms: N2_9  and  C5_10 
REMARK    4  A    between atoms: C7_12  and  N3_13 
REMARK    5  A    between atoms: C8_18  and  N5_19 
REMARK    6  A    between atoms: N7_26  and  C13_27 
REMARK    7  A    between atoms: C15_29  and  N8_30 
ROOT
HETATM    1  C3  UNL     1       8.751  -1.284  53.652  1.00  0.00     0.134 C 
HETATM    2  C4  UNL     1       9.323  -2.661  53.708  1.00  0.00     0.152 C 
HETATM    3  N2  UNL     1       8.290  -3.697  53.711  1.00  0.00    -0.363 N 
HETATM    4  C11 UNL     1       6.946  -3.476  54.117  1.00  0.00     0.144 C 
HETATM    5  C12 UNL     1       6.675  -2.193  54.806  1.00  0.00     0.145 C 
HETATM    6  N7  UNL     1       7.624  -1.153  54.509  1.00  0.00    -0.357 N 
ENDROOT
BRANCH   3   7
HETATM    7  C5  UNL     1       8.709  -4.982  53.274  1.00  0.00     0.122 A 
HETATM    8  C6  UNL     1       8.574  -5.433  51.976  1.00  0.00     0.097 A 
HETATM    9  C7  UNL     1       9.000  -6.696  51.612  1.00  0.00     0.118 A 
HETATM   10  N4  UNL     1       9.553  -7.493  52.537  1.00  0.00    -0.177 N 
HETATM   11  C8  UNL     1       9.690  -7.067  53.813  1.00  0.00     0.683 A 
ATOM     12  H4  UNL     1       9.872  -8.425  52.277  1.00  0.00     0.185 HD
HETATM   13  N6  UNL     1       9.271  -5.839  54.141  1.00  0.00    -0.177 N 
ATOM     14  H6  UNL     1       9.385  -5.536  55.108  1.00  0.00     0.186 HD
BRANCH   9  15
HETATM   15  N3  UNL     1       8.880  -7.114  50.377  1.00  0.00    -0.385 N 
ATOM     16  H32 UNL     1       8.598  -8.076  50.191  1.00  0.00     0.157 HD
ATOM     17  H31 UNL     1       9.075  -6.490  49.594  1.00  0.00     0.157 HD
ENDBRANCH   9  15
BRANCH  11  18
HETATM   18  N5  UNL     1      10.246  -7.891  54.821  1.00  0.00    -0.214 N 
HETATM   19  C9  UNL     1      11.327  -8.481  55.587  1.00  0.00     0.161 A 
HETATM   20  C10 UNL     1       9.890  -8.802  55.948  1.00  0.00     0.161 A 
ENDBRANCH  11  18
ENDBRANCH   3   7
BRANCH   1  21
HETATM   21  C2  UNL     1       8.560  -0.671  52.329  1.00  0.00     0.203 C 
HETATM   22  C1  UNL     1       9.396   0.470  51.924  1.00  0.00     0.042 C 
BRANCH  21  23
HETATM   23  N1  UNL     1       7.147  -0.335  52.080  1.00  0.00    -0.073 N 
ATOM     24  H13 UNL     1       6.851   0.502  52.582  1.00  0.00     0.274 HD
ATOM     25  H12 UNL     1       6.988   0.006  51.132  1.00  0.00     0.274 HD
ATOM     26  H11 UNL     1       6.572  -1.147  52.304  1.00  0.00     0.274 HD
ENDBRANCH  21  23
ENDBRANCH   1  21
BRANCH   6  27
HETATM   27  C13 UNL     1       7.416   0.122  55.147  1.00  0.00     0.108 A 
HETATM   28  C14 UNL     1       8.513   0.588  55.878  1.00  0.00     0.096 A 
HETATM   29  C15 UNL     1       8.375   1.804  56.497  1.00  0.00     0.103 A 
HETATM   30  N9  UNL     1       7.224   2.475  56.380  1.00  0.00    -0.339 N 
HETATM   31  C16 UNL     1       6.167   1.999  55.662  1.00  0.00     0.183 A 
ATOM     32  H9  UNL     1       7.133   3.378  56.846  1.00  0.00     0.168 HD
HETATM   33  N10 UNL     1       6.286   0.818  55.053  1.00  0.00    -0.339 N 
ATOM     34  H10 UNL     1       5.506   0.447  54.511  1.00  0.00     0.168 HD
BRANCH  29  35
HETATM   35  N8  UNL     1       9.379   2.250  57.166  1.00  0.00    -0.385 N 
ATOM     36  H82 UNL     1       9.667   3.228  57.145  1.00  0.00     0.157 HD
ATOM     37  H81 UNL     1       9.903   1.583  57.732  1.00  0.00     0.157 HD
ENDBRANCH  29  35
ENDBRANCH   6  27
TORSDOF 7
ENDMDL
MODEL 3
REMARK VINA RESULT: -6.638725190      1.524      2.713
REMARK  7 active torsions:
REMARK  status: ('A' for Active; 'I' for Inactive)
REMARK    1  A    between atoms: C2_2  and  N1_3 
REMARK    2  A    between atoms: C2_2  and  C3_7 
REMARK    3  A    between atoms: N2_9  and  C5_10 
REMARK    4  A    between atoms: C7_12  and  N3_13 
REMARK    5  A    between atoms: C8_18  and  N5_19 
REMARK    6  A    between atoms: N7_26  and  C13_27 
REMARK    7  A    between atoms: C15_29  and  N8_30 
ROOT
HETATM    1  C3  UNL     1       7.702  -2.538  55.817  1.00  0.00     0.134 C 
HETATM    2  C4  UNL     1       7.278  -3.733  55.031  1.00  0.00     0.152 C 
HETATM    3  N2  UNL     1       8.200  -4.042  53.938  1.00  0.00    -0.363 N 
HETATM    4  C11 UNL     1       9.086  -3.094  53.356  1.00  0.00     0.144 C 
HETATM    5  C12 UNL     1       8.856  -1.677  53.721  1.00  0.00     0.145 C 
HETATM    6  N7  UNL     1       8.165  -1.495  54.970  1.00  0.00    -0.357 N 
ENDROOT
BRANCH   3   7
HETATM    7  C5  UNL     1       8.169  -5.381  53.468  1.00  0.00     0.122 A 
HETATM    8  C6  UNL     1       8.245  -6.486  54.292  1.00  0.00     0.097 A 
HETATM    9  C7  UNL     1       8.210  -7.766  53.774  1.00  0.00     0.118 A 
HETATM   10  N4  UNL     1       8.100  -7.934  52.448  1.00  0.00    -0.177 N 
HETATM   11  C8  UNL     1       8.027  -6.863  51.628  1.00  0.00     0.683 A 
ATOM     12  H4  UNL     1       8.072  -8.875  52.057  1.00  0.00     0.185 HD
HETATM   13  N6  UNL     1       8.061  -5.632  52.154  1.00  0.00    -0.177 N 
ATOM     14  H6  UNL     1       8.003  -4.838  51.518  1.00  0.00     0.186 HD
BRANCH   9  15
HETATM   15  N3  UNL     1       8.272  -8.811  54.561  1.00  0.00    -0.385 N 
ATOM     16  H32 UNL     1       7.414  -9.220  54.931  1.00  0.00     0.157 HD
ATOM     17  H31 UNL     1       9.171  -9.218  54.819  1.00  0.00     0.157 HD
ENDBRANCH   9  15
BRANCH  11  18
HETATM   18  N5  UNL     1       7.936  -7.003  50.222  1.00  0.00    -0.214 N 
HETATM   19  C9  UNL     1       7.629  -7.702  48.988  1.00  0.00     0.161 A 
HETATM   20  C10 UNL     1       8.136  -6.274  48.935  1.00  0.00     0.161 A 
ENDBRANCH  11  18
ENDBRANCH   3   7
BRANCH   1  21
HETATM   21  C2  UNL     1       8.550  -2.758  56.999  1.00  0.00     0.203 C 
HETATM   22  C1  UNL     1      10.014  -2.789  56.853  1.00  0.00     0.042 C 
BRANCH  21  23
HETATM   23  N1  UNL     1       8.125  -3.944  57.764  1.00  0.00    -0.073 N 
ATOM     24  H13 UNL     1       8.815  -4.226  58.461  1.00  0.00     0.274 HD
ATOM     25  H12 UNL     1       7.356  -3.741  58.401  1.00  0.00     0.274 HD
ATOM     26  H11 UNL     1       7.902  -4.694  57.109  1.00  0.00     0.274 HD
ENDBRANCH  21  23
ENDBRANCH   1  21
BRANCH   6  27
HETATM   27  C13 UNL     1       7.911  -0.138  55.383  1.00  0.00     0.108 A 
HETATM   28  C14 UNL     1       6.642   0.341  55.045  1.00  0.00     0.096 A 
HETATM   29  C15 UNL     1       6.341   1.624  55.426  1.00  0.00     0.103 A 
HETATM   30  N9  UNL     1       7.254   2.346  56.085  1.00  0.00    -0.339 N 
HETATM   31  C16 UNL     1       8.486   1.856  56.403  1.00  0.00     0.183 A 
ATOM     32  H9  UNL     1       7.019   3.299  56.362  1.00  0.00     0.168 HD
HETATM   33  N10 UNL     1       8.793   0.610  56.041  1.00  0.00    -0.339 N 
ATOM     34  H10 UNL     1       9.710   0.227  56.270  1.00  0.00     0.168 HD
BRANCH  29  35
HETATM   35  N8  UNL     1       5.174   2.076  55.129  1.00  0.00    -0.385 N 
ATOM     36  H82 UNL     1       4.313   1.643  55.462  1.00  0.00     0.157 HD
ATOM     37  H81 UNL     1       5.124   2.900  54.530  1.00  0.00     0.157 HD
ENDBRANCH  29  35
ENDBRANCH   6  27
TORSDOF 7
ENDMDL
MODEL 4
REMARK VINA RESULT: -6.522400421      1.575      8.155
REMARK  7 active torsions:
REMARK  status: ('A' for Active; 'I' for Inactive)
REMARK    1  A    between atoms: C2_2  and  N1_3 
REMARK    2  A    between atoms: C2_2  and  C3_7 
REMARK    3  A    between atoms: N2_9  and  C5_10 
REMARK    4  A    between atoms: C7_12  and  N3_13 
REMARK    5  A    between atoms: C8_18  and  N5_19 
REMARK    6  A    between atoms: N7_26  and  C13_27 
REMARK    7  A    between atoms: C15_29  and  N8_30 
ROOT
HETATM    1  C3  UNL     1       9.148  -3.583  53.025  1.00  0.00     0.134 C 
HETATM    2  C4  UNL     1       8.557  -2.228  53.232  1.00  0.00     0.152 C 
HETATM    3  N2  UNL     1       7.746  -2.150  54.448  1.00  0.00    -0.363 N 
HETATM    4  C11 UNL     1       7.163  -3.279  55.086  1.00  0.00     0.144 C 
HETATM    5  C12 UNL     1       7.179  -4.544  54.315  1.00  0.00     0.145 C 
HETATM    6  N7  UNL     1       8.209  -4.610  53.313  1.00  0.00    -0.357 N 
ENDROOT
BRANCH   3   7
HETATM    7  C5  UNL     1       7.563  -0.847  54.980  1.00  0.00     0.122 A 
HETATM    8  C6  UNL     1       6.498  -0.029  54.660  1.00  0.00     0.097 A 
HETATM    9  C7  UNL     1       6.375   1.232  55.211  1.00  0.00     0.118 A 
HETATM   10  N4  UNL     1       7.307   1.664  56.071  1.00  0.00    -0.177 N 
HETATM   11  C8  UNL     1       8.357   0.877  56.394  1.00  0.00     0.683 A 
ATOM     12  H4  UNL     1       7.224   2.593  56.484  1.00  0.00     0.185 HD
HETATM   13  N6  UNL     1       8.454  -0.341  55.848  1.00  0.00    -0.177 N 
ATOM     14  H6  UNL     1       9.252  -0.920  56.106  1.00  0.00     0.186 HD
BRANCH   9  15
HETATM   15  N3  UNL     1       5.357   1.998  54.911  1.00  0.00    -0.385 N 
ATOM     16  H32 UNL     1       4.501   1.947  55.463  1.00  0.00     0.157 HD
ATOM     17  H31 UNL     1       5.403   2.644  54.122  1.00  0.00     0.157 HD
ENDBRANCH   9  15
BRANCH  11  18
HETATM   18  N5  UNL     1       9.374   1.312  57.279  1.00  0.00    -0.214 N 
HETATM   19  C9  UNL     1      10.128   2.297  58.030  1.00  0.00     0.161 A 
HETATM   20  C10 UNL     1      10.472   0.827  58.164  1.00  0.00     0.161 A 
ENDBRANCH  11  18
ENDBRANCH   3   7
BRANCH   1  21
HETATM   21  C2  UNL     1      10.489  -3.839  53.572  1.00  0.00     0.203 C 
HETATM   22  C1  UNL     1      11.064  -2.913  54.562  1.00  0.00     0.042 C 
BRANCH  21  23
HETATM   23  N1  UNL     1      11.481  -4.067  52.506  1.00  0.00    -0.073 N 
ATOM     24  H13 UNL     1      11.661  -3.227  51.955  1.00  0.00     0.274 HD
ATOM     25  H12 UNL     1      12.423  -4.200  52.872  1.00  0.00     0.274 HD
ATOM     26  H11 UNL     1      11.170  -4.850  51.932  1.00  0.00     0.274 HD
ENDBRANCH  21  23
ENDBRANCH   1  21
BRANCH   6  27
HETATM   27  C13 UNL     1       8.281  -5.817  52.530  1.00  0.00     0.108 A 
HETATM   28  C14 UNL     1       8.446  -5.606  51.157  1.00  0.00     0.096 A 
HETATM   29  C15 UNL     1       8.533  -6.721  50.364  1.00  0.00     0.103 A 
HETATM   30  N9  UNL     1       8.455  -7.934  50.922  1.00  0.00    -0.339 N 
HETATM   31  C16 UNL     1       8.292  -8.114  52.264  1.00  0.00     0.183 A 
ATOM     32  H9  UNL     1       8.520  -8.756  50.321  1.00  0.00     0.168 HD
HETATM   33  N10 UNL     1       8.208  -7.039  53.049  1.00  0.00    -0.339 N 
ATOM     34  H10 UNL     1       8.087  -7.156  54.055  1.00  0.00     0.168 HD
BRANCH  29  35
HETATM   35  N8  UNL     1       8.693  -6.543  49.100  1.00  0.00    -0.385 N 
ATOM     36  H82 UNL     1       9.578  -6.720  48.624  1.00  0.00     0.157 HD
ATOM     37  H81 UNL     1       7.894  -6.204  48.565  1.00  0.00     0.157 HD
ENDBRANCH  29  35
ENDBRANCH   6  27
TORSDOF 7
ENDMDL
MODEL 5
REMARK VINA RESULT: -6.510017992      1.726      2.550
REMARK  7 active torsions:
REMARK  status: ('A' for Active; 'I' for Inactive)
REMARK    1  A    between atoms: C2_2  and  N1_3 
REMARK    2  A    between atoms: C2_2  and  C3_7 
REMARK    3  A    between atoms: N2_9  and  C5_10 
REMARK    4  A    between atoms: C7_12  and  N3_13 
REMARK    5  A    between atoms: C8_18  and  N5_19 
REMARK    6  A    between atoms: N7_26  and  C13_27 
REMARK    7  A    between atoms: C15_29  and  N8_30 
ROOT
HETATM    1  C3  UNL     1       7.789  -2.218  54.661  1.00  0.00     0.134 C 
HETATM    2  C4  UNL     1       7.831  -3.222  53.558  1.00  0.00     0.152 C 
HETATM    3  N2  UNL     1       8.904  -2.957  52.599  1.00  0.00    -0.363 N 
HETATM    4  C11 UNL     1       9.507  -1.683  52.416  1.00  0.00     0.144 C 
HETATM    5  C12 UNL     1       8.818  -0.537  53.055  1.00  0.00     0.145 C 
HETATM    6  N7  UNL     1       7.987  -0.899  54.172  1.00  0.00    -0.357 N 
ENDROOT
BRANCH   3   7
HETATM    7  C5  UNL     1       9.332  -4.073  51.833  1.00  0.00     0.122 A 
HETATM    8  C6  UNL     1      10.652  -4.458  51.707  1.00  0.00     0.097 A 
HETATM    9  C7  UNL     1      11.006  -5.554  50.945  1.00  0.00     0.118 A 
HETATM   10  N4  UNL     1      10.049  -6.254  50.319  1.00  0.00    -0.177 N 
HETATM   11  C8  UNL     1       8.752  -5.889  50.431  1.00  0.00     0.683 A 
ATOM     12  H4  UNL     1      10.301  -7.065  49.756  1.00  0.00     0.185 HD
HETATM   13  N6  UNL     1       8.434  -4.824  51.176  1.00  0.00    -0.177 N 
ATOM     14  H6  UNL     1       7.450  -4.567  51.249  1.00  0.00     0.186 HD
BRANCH   9  15
HETATM   15  N3  UNL     1      12.258  -5.920  50.837  1.00  0.00    -0.385 N 
ATOM     16  H32 UNL     1      12.996  -5.331  51.223  1.00  0.00     0.157 HD
ATOM     17  H31 UNL     1      12.510  -6.788  50.363  1.00  0.00     0.157 HD
ENDBRANCH   9  15
BRANCH  11  18
HETATM   18  N5  UNL     1       7.718  -6.590  49.763  1.00  0.00    -0.214 N 
HETATM   19  C9  UNL     1       6.360  -6.797  49.298  1.00  0.00     0.161 A 
HETATM   20  C10 UNL     1       7.438  -7.798  48.934  1.00  0.00     0.161 A 
ENDBRANCH  11  18
ENDBRANCH   3   7
BRANCH   1  21
HETATM   21  C2  UNL     1       8.545  -2.513  55.888  1.00  0.00     0.203 C 
HETATM   22  C1  UNL     1      10.017  -2.522  55.856  1.00  0.00     0.042 C 
BRANCH  21  23
HETATM   23  N1  UNL     1       8.078  -3.752  56.534  1.00  0.00    -0.073 N 
ATOM     24  H13 UNL     1       7.799  -4.463  55.858  1.00  0.00     0.274 HD
ATOM     25  H12 UNL     1       8.837  -4.270  56.977  1.00  0.00     0.274 HD
ATOM     26  H11 UNL     1       7.330  -3.520  57.187  1.00  0.00     0.274 HD
ENDBRANCH  21  23
ENDBRANCH   1  21
BRANCH   6  27
HETATM   27  C13 UNL     1       7.290   0.171  54.839  1.00  0.00     0.108 A 
HETATM   28  C14 UNL     1       8.022   0.792  55.857  1.00  0.00     0.096 A 
HETATM   29  C15 UNL     1       7.411   1.826  56.518  1.00  0.00     0.103 A 
HETATM   30  N9  UNL     1       6.171   2.188  56.173  1.00  0.00    -0.339 N 
HETATM   31  C16 UNL     1       5.477   1.566  55.178  1.00  0.00     0.183 A 
ATOM     32  H9  UNL     1       5.727   2.958  56.673  1.00  0.00     0.168 HD
HETATM   33  N10 UNL     1       6.057   0.559  54.524  1.00  0.00    -0.339 N 
ATOM     34  H10 UNL     1       5.553   0.083  53.776  1.00  0.00     0.168 HD
BRANCH  29  35
HETATM   35  N8  UNL     1       8.076   2.413  57.450  1.00  0.00    -0.385 N 
ATOM     36  H82 UNL     1       9.034   2.159  57.690  1.00  0.00     0.157 HD
ATOM     37  H81 UNL     1       7.609   3.158  57.967  1.00  0.00     0.157 HD
ENDBRANCH  29  35
ENDBRANCH   6  27
TORSDOF 7
ENDMDL
