MODEL 1
REMARK VINA RESULT: -7.060272713      0.000      0.000
REMARK  6 active torsions:
REMARK  status: ('A' for Active; 'I' for Inactive)
REMARK    1  A    between atoms: N1_1  and  C1_4 
REMARK    2  A    between atoms: C6_16  and  O2_17 
REMARK    3  A    between atoms: C6_16  and  C7_19 
REMARK    4  A    between atoms: C7_19  and  N5_20 
REMARK    5  A    between atoms: N5_20  and  C8_22 
REMARK    6  A    between atoms: N8_30  and  C12_31 
ROOT
HETATM    1  C1  UNL     1      10.371  -2.776  53.824  1.00  0.00     0.129 A 
HETATM    2  N2  UNL     1       9.240  -2.049  53.841  1.00  0.00    -0.337 N 
ATOM      3  H2  UNL     1       9.109  -1.365  54.587  1.00  0.00     0.168 HD
HETATM    4  C2  UNL     1       8.275  -2.186  52.917  1.00  0.00     0.182 A 
HETATM    5  N3  UNL     1       8.432  -3.081  51.936  1.00  0.00    -0.350 N 
ATOM      6  H3  UNL     1       7.704  -3.192  51.231  1.00  0.00     0.166 HD
HETATM    7  C3  UNL     1       9.568  -3.854  51.869  1.00  0.00     0.090 A 
HETATM    8  C4  UNL     1      10.553  -3.709  52.811  1.00  0.00     0.105 A 
HETATM    9  N4  UNL     1      11.644  -4.601  52.535  1.00  0.00    -0.319 N 
ATOM     10  H4  UNL     1      12.500  -4.692  53.084  1.00  0.00     0.169 HD
HETATM   11  C5  UNL     1      11.330  -5.318  51.389  1.00  0.00     0.268 A 
HETATM   12  O1  UNL     1      12.043  -6.167  50.808  1.00  0.00    -0.269 OA
HETATM   13  C6  UNL     1       9.960  -4.923  50.921  1.00  0.00     0.216 A 
ENDROOT
BRANCH  13  14
HETATM   14  O2  UNL     1      10.018  -4.425  49.650  1.00  0.00    -0.370 OA
ATOM     15  H2  UNL     1      10.827  -3.944  49.524  1.00  0.00     0.212 HD
ENDBRANCH  13  14
BRANCH  13  16
HETATM   16  C7  UNL     1       9.115  -6.154  51.113  1.00  0.00     0.110 C 
BRANCH  16  17
HETATM   17  N5  UNL     1       9.584  -7.185  51.930  1.00  0.00    -0.394 N 
ATOM     18  H5  UNL     1      10.435  -7.705  51.716  1.00  0.00     0.159 HD
BRANCH  17  19
HETATM   19  C8  UNL     1       8.779  -7.466  53.099  1.00  0.00     0.086 C 
HETATM   20  C9  UNL     1       7.905  -6.313  53.395  1.00  0.00     0.031 C 
HETATM   21  C10 UNL     1       8.100  -5.667  54.739  1.00  0.00     0.063 C 
HETATM   22  C11 UNL     1       8.296  -6.671  55.796  1.00  0.00     0.051 A 
HETATM   23  N6  UNL     1       7.850  -6.881  57.059  1.00  0.00    -0.288 N 
HETATM   24  C15 UNL     1       9.142  -7.718  55.536  1.00  0.00     0.056 A 
HETATM   25  N7  UNL     1       8.408  -7.996  57.521  1.00  0.00    -0.240 N 
ATOM     26  H6  UNL     1       7.197  -6.285  57.569  1.00  0.00     0.188 HD
HETATM   27  N8  UNL     1       9.198  -8.537  56.636  1.00  0.00    -0.275 N 
ATOM     28  H7  UNL     1       8.240  -8.379  58.451  1.00  0.00     0.208 HD
HETATM   29  C16 UNL     1       9.798  -7.776  54.218  1.00  0.00     0.086 C 
BRANCH  27  30
HETATM   30  C12 UNL     1      10.033  -9.714  56.615  1.00  0.00     0.109 A 
HETATM   31  C13 UNL     1      10.282 -10.428  57.895  1.00  0.00     0.029 A 
HETATM   32  C14 UNL     1       9.364 -11.040  56.909  1.00  0.00     0.029 A 
ENDBRANCH  27  30
ENDBRANCH  17  19
ENDBRANCH  16  17
ENDBRANCH  13  16
BRANCH   1  33
HETATM   33  N1  UNL     1      11.289  -2.622  54.727  1.00  0.00    -0.384 N 
ATOM     34  H12 UNL     1      12.271  -2.720  54.471  1.00  0.00     0.157 HD
ATOM     35  H11 UNL     1      11.053  -2.403  55.695  1.00  0.00     0.157 HD
ENDBRANCH   1  33
TORSDOF 6
ENDMDL
MODEL 2
REMARK VINA RESULT: -7.047369918      2.280      3.689
REMARK  6 active torsions:
REMARK  status: ('A' for Active; 'I' for Inactive)
REMARK    1  A    between atoms: N1_1  and  C1_4 
REMARK    2  A    between atoms: C6_16  and  O2_17 
REMARK    3  A    between atoms: C6_16  and  C7_19 
REMARK    4  A    between atoms: C7_19  and  N5_20 
REMARK    5  A    between atoms: N5_20  and  C8_22 
REMARK    6  A    between atoms: N8_30  and  C12_31 
ROOT
HETATM    1  C1  UNL     1       8.088  -1.036  55.410  1.00  0.00     0.129 A 
HETATM    2  N2  UNL     1       6.992  -0.333  55.072  1.00  0.00    -0.337 N 
ATOM      3  H2  UNL     1       6.413   0.056  55.816  1.00  0.00     0.168 HD
HETATM    4  C2  UNL     1       6.629  -0.122  53.797  1.00  0.00     0.182 A 
HETATM    5  N3  UNL     1       7.377  -0.630  52.812  1.00  0.00    -0.350 N 
ATOM      6  H3  UNL     1       7.108  -0.475  51.840  1.00  0.00     0.166 HD
HETATM    7  C3  UNL     1       8.508  -1.359  53.097  1.00  0.00     0.090 A 
HETATM    8  C4  UNL     1       8.880  -1.568  54.400  1.00  0.00     0.105 A 
HETATM    9  N4  UNL     1      10.093  -2.336  54.457  1.00  0.00    -0.319 N 
ATOM     10  H4  UNL     1      10.578  -2.629  55.305  1.00  0.00     0.169 HD
HETATM   11  C5  UNL     1      10.487  -2.608  53.155  1.00  0.00     0.268 A 
HETATM   12  O1  UNL     1      11.514  -3.222  52.788  1.00  0.00    -0.269 OA
HETATM   13  C6  UNL     1       9.471  -2.045  52.204  1.00  0.00     0.216 A 
ENDROOT
BRANCH  13  14
HETATM   14  O2  UNL     1      10.058  -1.143  51.363  1.00  0.00    -0.370 OA
ATOM     15  H2  UNL     1      10.345  -0.380  51.850  1.00  0.00     0.212 HD
ENDBRANCH  13  14
BRANCH  13  16
HETATM   16  C7  UNL     1       8.842  -3.248  51.553  1.00  0.00     0.110 C 
BRANCH  16  17
HETATM   17  N5  UNL     1       9.582  -3.994  50.633  1.00  0.00    -0.394 N 
ATOM     18  H5  UNL     1      10.141  -3.556  49.900  1.00  0.00     0.159 HD
BRANCH  17  19
HETATM   19  C8  UNL     1       9.503  -5.429  50.790  1.00  0.00     0.086 C 
HETATM   20  C9  UNL     1       8.863  -6.029  49.602  1.00  0.00     0.031 C 
HETATM   21  C10 UNL     1       7.592  -6.791  49.852  1.00  0.00     0.063 C 
HETATM   22  C11 UNL     1       7.685  -7.610  51.070  1.00  0.00     0.051 A 
HETATM   23  N6  UNL     1       7.353  -8.871  51.445  1.00  0.00    -0.288 N 
HETATM   24  C15 UNL     1       8.239  -7.037  52.186  1.00  0.00     0.056 A 
HETATM   25  N7  UNL     1       7.693  -9.031  52.720  1.00  0.00    -0.240 N 
ATOM     26  H6  UNL     1       6.917  -9.575  50.850  1.00  0.00     0.188 HD
HETATM   27  N8  UNL     1       8.232  -7.950  53.211  1.00  0.00    -0.275 N 
ATOM     28  H7  UNL     1       7.550  -9.892  53.248  1.00  0.00     0.208 HD
HETATM   29  C16 UNL     1       8.708  -5.644  52.097  1.00  0.00     0.086 C 
BRANCH  27  30
HETATM   30  C12 UNL     1       8.758  -7.583  54.505  1.00  0.00     0.109 A 
HETATM   31  C13 UNL     1       8.989  -8.658  55.505  1.00  0.00     0.029 A 
HETATM   32  C14 UNL     1      10.160  -8.049  54.835  1.00  0.00     0.029 A 
ENDBRANCH  27  30
ENDBRANCH  17  19
ENDBRANCH  16  17
ENDBRANCH  13  16
BRANCH   1  33
HETATM   33  N1  UNL     1       8.419  -1.222  56.650  1.00  0.00    -0.384 N 
ATOM     34  H12 UNL     1       8.299  -2.143  57.071  1.00  0.00     0.157 HD
ATOM     35  H11 UNL     1       8.800  -0.467  57.219  1.00  0.00     0.157 HD
ENDBRANCH   1  33
TORSDOF 6
ENDMDL
MODEL 3
REMARK VINA RESULT: -6.961953857      2.783      6.222
REMARK  6 active torsions:
REMARK  status: ('A' for Active; 'I' for Inactive)
REMARK    1  A    between atoms: N1_1  and  C1_4 
REMARK    2  A    between atoms: C6_16  and  O2_17 
REMARK    3  A    between atoms: C6_16  and  C7_19 
REMARK    4  A    between atoms: C7_19  and  N5_20 
REMARK    5  A    between atoms: N5_20  and  C8_22 
REMARK    6  A    between atoms: N8_30  and  C12_31 
ROOT
HETATM    1  C1  UNL     1       7.714  -7.997  51.799  1.00  0.00     0.129 A 
HETATM    2  N2  UNL     1       8.517  -8.413  52.795  1.00  0.00    -0.337 N 
ATOM      3  H2  UNL     1       8.226  -9.214  53.355  1.00  0.00     0.168 HD
HETATM    4  C2  UNL     1       9.685  -7.817  53.083  1.00  0.00     0.182 A 
HETATM    5  N3  UNL     1      10.077  -6.763  52.359  1.00  0.00    -0.350 N 
ATOM      6  H3  UNL     1      10.963  -6.304  52.572  1.00  0.00     0.166 HD
HETATM    7  C3  UNL     1       9.296  -6.292  51.330  1.00  0.00     0.090 A 
HETATM    8  C4  UNL     1       8.106  -6.905  51.035  1.00  0.00     0.105 A 
HETATM    9  N4  UNL     1       7.473  -6.258  49.919  1.00  0.00    -0.319 N 
ATOM     10  H4  UNL     1       6.578  -6.518  49.503  1.00  0.00     0.169 HD
HETATM   11  C5  UNL     1       8.293  -5.216  49.509  1.00  0.00     0.268 A 
HETATM   12  O1  UNL     1       8.105  -4.441  48.545  1.00  0.00    -0.269 OA
HETATM   13  C6  UNL     1       9.485  -5.140  50.417  1.00  0.00     0.216 A 
ENDROOT
BRANCH  13  14
HETATM   14  O2  UNL     1      10.638  -5.292  49.700  1.00  0.00    -0.370 OA
ATOM     15  H2  UNL     1      11.391  -5.236  50.276  1.00  0.00     0.212 HD
ENDBRANCH  13  14
BRANCH  13  16
HETATM   16  C7  UNL     1       9.328  -3.836  51.153  1.00  0.00     0.110 C 
BRANCH  16  17
HETATM   17  N5  UNL     1       8.388  -3.737  52.180  1.00  0.00    -0.394 N 
ATOM     18  H5  UNL     1       7.413  -4.010  52.054  1.00  0.00     0.159 HD
BRANCH  17  19
HETATM   19  C8  UNL     1       8.889  -3.222  53.435  1.00  0.00     0.086 C 
HETATM   20  C9  UNL     1       9.013  -4.321  54.414  1.00  0.00     0.031 C 
HETATM   21  C10 UNL     1       8.194  -4.183  55.667  1.00  0.00     0.063 C 
HETATM   22  C11 UNL     1       8.216  -2.803  56.176  1.00  0.00     0.051 A 
HETATM   23  N6  UNL     1       8.357  -2.191  57.378  1.00  0.00    -0.288 N 
HETATM   24  C15 UNL     1       8.056  -1.784  55.271  1.00  0.00     0.056 A 
HETATM   25  N7  UNL     1       8.281  -0.877  57.191  1.00  0.00    -0.240 N 
ATOM     26  H6  UNL     1       8.497  -2.659  58.274  1.00  0.00     0.188 HD
HETATM   27  N8  UNL     1       8.100  -0.583  55.934  1.00  0.00    -0.275 N 
ATOM     28  H7  UNL     1       8.356  -0.186  57.938  1.00  0.00     0.208 HD
HETATM   29  C16 UNL     1       7.877  -2.132  53.851  1.00  0.00     0.086 C 
BRANCH  27  30
HETATM   30  C12 UNL     1       7.946   0.650  55.198  1.00  0.00     0.109 A 
HETATM   31  C13 UNL     1       6.881   1.597  55.619  1.00  0.00     0.029 A 
HETATM   32  C14 UNL     1       8.290   1.933  55.925  1.00  0.00     0.029 A 
ENDBRANCH  27  30
ENDBRANCH  17  19
ENDBRANCH  16  17
ENDBRANCH  13  16
BRANCH   1  33
HETATM   33  N1  UNL     1       6.592  -8.592  51.540  1.00  0.00    -0.384 N 
ATOM     34  H12 UNL     1       6.582  -9.597  51.365  1.00  0.00     0.157 HD
ATOM     35  H11 UNL     1       5.712  -8.078  51.506  1.00  0.00     0.157 HD
ENDBRANCH   1  33
TORSDOF 6
ENDMDL
MODEL 4
REMARK VINA RESULT: -6.918844392      3.404      7.053
REMARK  6 active torsions:
REMARK  status: ('A' for Active; 'I' for Inactive)
REMARK    1  A    between atoms: N1_1  and  C1_4 
REMARK    2  A    between atoms: C6_16  and  O2_17 
REMARK    3  A    between atoms: C6_16  and  C7_19 
REMARK    4  A    between atoms: C7_19  and  N5_20 
REMARK    5  A    between atoms: N5_20  and  C8_22 
REMARK    6  A    between atoms: N8_30  and  C12_31 
ROOT
HETATM    1  C1  UNL     1       8.448  -6.690  50.145  1.00  0.00     0.129 A 
HETATM    2  N2  UNL     1       8.089  -7.801  50.813  1.00  0.00    -0.337 N 
ATOM      3  H2  UNL     1       7.800  -8.621  50.280  1.00  0.00     0.168 HD
HETATM    4  C2  UNL     1       8.097  -7.876  52.154  1.00  0.00     0.182 A 
HETATM    5  N3  UNL     1       8.470  -6.807  52.866  1.00  0.00    -0.350 N 
ATOM      6  H3  UNL     1       8.478  -6.856  53.885  1.00  0.00     0.166 HD
HETATM    7  C3  UNL     1       8.845  -5.643  52.236  1.00  0.00     0.090 A 
HETATM    8  C4  UNL     1       8.841  -5.571  50.868  1.00  0.00     0.105 A 
HETATM    9  N4  UNL     1       9.282  -4.275  50.434  1.00  0.00    -0.319 N 
ATOM     10  H4  UNL     1       9.368  -3.963  49.466  1.00  0.00     0.169 HD
HETATM   11  C5  UNL     1       9.570  -3.522  51.563  1.00  0.00     0.268 A 
HETATM   12  O1  UNL     1      10.016  -2.353  51.600  1.00  0.00    -0.269 OA
HETATM   13  C6  UNL     1       9.259  -4.332  52.788  1.00  0.00     0.216 A 
ENDROOT
BRANCH  13  14
HETATM   14  O2  UNL     1      10.379  -4.477  53.557  1.00  0.00    -0.370 OA
ATOM     15  H2  UNL     1      10.942  -3.718  53.462  1.00  0.00     0.212 HD
ENDBRANCH  13  14
BRANCH  13  16
HETATM   16  C7  UNL     1       8.098  -3.626  53.435  1.00  0.00     0.110 C 
BRANCH  16  17
HETATM   17  N5  UNL     1       7.912  -2.261  53.204  1.00  0.00    -0.394 N 
ATOM     18  H5  UNL     1       8.184  -1.814  52.328  1.00  0.00     0.159 HD
BRANCH  17  19
HETATM   19  C8  UNL     1       7.306  -1.524  54.291  1.00  0.00     0.086 C 
HETATM   20  C9  UNL     1       5.944  -1.097  53.911  1.00  0.00     0.031 C 
HETATM   21  C10 UNL     1       5.697   0.386  53.901  1.00  0.00     0.063 C 
HETATM   22  C11 UNL     1       6.326   1.044  55.056  1.00  0.00     0.051 A 
HETATM   23  N6  UNL     1       5.983   1.988  55.968  1.00  0.00    -0.288 N 
HETATM   24  C15 UNL     1       7.607   0.679  55.382  1.00  0.00     0.056 A 
HETATM   25  N7  UNL     1       7.012   2.171  56.788  1.00  0.00    -0.240 N 
ATOM     26  H6  UNL     1       5.087   2.474  56.016  1.00  0.00     0.188 HD
HETATM   27  N8  UNL     1       8.018   1.403  56.474  1.00  0.00    -0.275 N 
ATOM     28  H7  UNL     1       7.015   2.831  57.566  1.00  0.00     0.208 HD
HETATM   29  C16 UNL     1       8.272  -0.348  54.561  1.00  0.00     0.086 C 
BRANCH  27  30
HETATM   30  C12 UNL     1       9.344   1.206  57.010  1.00  0.00     0.109 A 
HETATM   31  C13 UNL     1       9.676   1.823  58.320  1.00  0.00     0.029 A 
HETATM   32  C14 UNL     1       9.463   0.360  58.259  1.00  0.00     0.029 A 
ENDBRANCH  27  30
ENDBRANCH  17  19
ENDBRANCH  16  17
ENDBRANCH  13  16
BRANCH   1  33
HETATM   33  N1  UNL     1       8.435  -6.646  48.849  1.00  0.00    -0.384 N 
ATOM     34  H12 UNL     1       9.180  -6.158  48.353  1.00  0.00     0.157 HD
ATOM     35  H11 UNL     1       7.693  -7.090  48.308  1.00  0.00     0.157 HD
ENDBRANCH   1  33
TORSDOF 6
ENDMDL
MODEL 5
REMARK VINA RESULT: -6.838170778      2.732      6.365
REMARK  6 active torsions:
REMARK  status: ('A' for Active; 'I' for Inactive)
REMARK    1  A    between atoms: N1_1  and  C1_4 
REMARK    2  A    between atoms: C6_16  and  O2_17 
REMARK    3  A    between atoms: C6_16  and  C7_19 
REMARK    4  A    between atoms: C7_19  and  N5_20 
REMARK    5  A    between atoms: N5_20  and  C8_22 
REMARK    6  A    between atoms: N8_30  and  C12_31 
ROOT
HETATM    1  C1  UNL     1       7.375  -7.447  51.572  1.00  0.00     0.129 A 
HETATM    2  N2  UNL     1       7.670  -8.346  52.528  1.00  0.00    -0.337 N 
ATOM      3  H2  UNL     1       6.948  -9.007  52.816  1.00  0.00     0.168 HD
HETATM    4  C2  UNL     1       8.874  -8.410  53.119  1.00  0.00     0.182 A 
HETATM    5  N3  UNL     1       9.828  -7.547  52.753  1.00  0.00    -0.350 N 
ATOM      6  H3  UNL     1      10.745  -7.588  53.198  1.00  0.00     0.166 HD
HETATM    7  C3  UNL     1       9.583  -6.604  51.782  1.00  0.00     0.090 A 
HETATM    8  C4  UNL     1       8.355  -6.544  51.177  1.00  0.00     0.105 A 
HETATM    9  N4  UNL     1       8.333  -5.501  50.190  1.00  0.00    -0.319 N 
ATOM     10  H4  UNL     1       7.539  -5.249  49.600  1.00  0.00     0.169 HD
HETATM   11  C5  UNL     1       9.583  -4.898  50.180  1.00  0.00     0.268 A 
HETATM   12  O1  UNL     1       9.970  -3.972  49.432  1.00  0.00    -0.269 OA
HETATM   13  C6  UNL     1      10.445  -5.531  51.233  1.00  0.00     0.216 A 
ENDROOT
BRANCH  13  14
HETATM   14  O2  UNL     1      11.566  -6.070  50.668  1.00  0.00    -0.370 OA
ATOM     15  H2  UNL     1      12.205  -5.389  50.497  1.00  0.00     0.212 HD
ENDBRANCH  13  14
BRANCH  13  16
HETATM   16  C7  UNL     1      10.671  -4.445  52.251  1.00  0.00     0.110 C 
BRANCH  16  17
HETATM   17  N5  UNL     1       9.972  -3.242  52.136  1.00  0.00    -0.394 N 
ATOM     18  H5  UNL     1       9.402  -3.019  51.320  1.00  0.00     0.159 HD
BRANCH  17  19
HETATM   19  C8  UNL     1      10.111  -2.333  53.253  1.00  0.00     0.086 C 
HETATM   20  C9  UNL     1      10.822  -3.004  54.360  1.00  0.00     0.031 C 
HETATM   21  C10 UNL     1      10.065  -3.122  55.654  1.00  0.00     0.063 C 
HETATM   22  C11 UNL     1       9.325  -1.889  55.960  1.00  0.00     0.051 A 
HETATM   23  N6  UNL     1       9.109  -1.105  57.046  1.00  0.00    -0.288 N 
HETATM   24  C15 UNL     1       8.629  -1.290  54.941  1.00  0.00     0.056 A 
HETATM   25  N7  UNL     1       8.323  -0.097  56.684  1.00  0.00    -0.240 N 
ATOM     26  H6  UNL     1       9.487  -1.263  57.980  1.00  0.00     0.188 HD
HETATM   27  N8  UNL     1       8.005  -0.166  55.422  1.00  0.00    -0.275 N 
ATOM     28  H7  UNL     1       8.006   0.639  57.317  1.00  0.00     0.208 HD
HETATM   29  C16 UNL     1       8.666  -1.915  53.607  1.00  0.00     0.086 C 
BRANCH  27  30
HETATM   30  C12 UNL     1       7.196   0.641  54.539  1.00  0.00     0.109 A 
HETATM   31  C13 UNL     1       5.843   0.149  54.172  1.00  0.00     0.029 A 
HETATM   32  C14 UNL     1       5.953   1.273  55.129  1.00  0.00     0.029 A 
ENDBRANCH  27  30
ENDBRANCH  17  19
ENDBRANCH  16  17
ENDBRANCH  13  16
BRANCH   1  33
HETATM   33  N1  UNL     1       6.205  -7.409  51.015  1.00  0.00    -0.384 N 
ATOM     34  H12 UNL     1       5.900  -8.186  50.428  1.00  0.00     0.157 HD
ATOM     35  H11 UNL     1       5.577  -6.618  51.149  1.00  0.00     0.157 HD
ENDBRANCH   1  33
TORSDOF 6
ENDMDL
