MODEL 1
REMARK VINA RESULT: -6.434875414      0.000      0.000
REMARK  7 active torsions:
REMARK  status: ('A' for Active; 'I' for Inactive)
REMARK    1  A    between atoms: N1_1  and  C1_4 
REMARK    2  A    between atoms: C3_10  and  N4_11 
REMARK    3  A    between atoms: C7_15  and  C8_16 
REMARK    4  A    between atoms: C8_16  and  N5_17 
REMARK    5  A    between atoms: N5_17  and  C9_19 
REMARK    6  A    between atoms: C15_27  and  C16_28 
REMARK    7  A    between atoms: C16_28  and  O1_29 
ROOT
HETATM    1  C1  UNL     1       8.266   1.443  57.082  1.00  0.00     0.706 A 
HETATM    2  N2  UNL     1       8.394   0.111  57.256  1.00  0.00    -0.019 N 
ATOM      3  H2  UNL     1       8.434  -0.355  58.162  1.00  0.00     0.203 HD
HETATM    4  C2  UNL     1       8.462  -0.520  56.064  1.00  0.00     0.719 A 
HETATM    5  N3  UNL     1       8.592  -1.818  55.744  1.00  0.00    -0.174 N 
ATOM      6  H3  UNL     1       8.654  -2.514  56.487  1.00  0.00     0.186 HD
HETATM    7  C3  UNL     1       8.640  -2.223  54.438  1.00  0.00     0.129 A 
HETATM    8  C15 UNL     1       8.551  -1.245  53.488  1.00  0.00     0.028 A 
HETATM    9  C17 UNL     1       8.415   0.109  53.836  1.00  0.00     0.148 A 
HETATM   10  N7  UNL     1       8.373   0.447  55.139  1.00  0.00    -0.082 N 
HETATM   11  N8  UNL     1       8.254   1.637  55.753  1.00  0.00    -0.111 N 
ATOM     12  H8  UNL     1       8.168   2.539  55.286  1.00  0.00     0.207 HD
ENDROOT
BRANCH   7  13
HETATM   13  N4  UNL     1       8.765  -3.593  54.103  1.00  0.00    -0.366 N 
HETATM   14  C4  UNL     1       7.635  -4.491  53.991  1.00  0.00     0.124 C 
HETATM   15  C5  UNL     1       7.766  -5.556  55.062  1.00  0.00     0.020 C 
HETATM   16  C6  UNL     1       9.163  -5.925  55.407  1.00  0.00     0.009 C 
HETATM   17  C7  UNL     1      10.169  -5.575  54.354  1.00  0.00     0.021 C 
HETATM   18  C14 UNL     1      10.081  -4.188  53.830  1.00  0.00     0.130 C 
BRANCH  17  19
HETATM   19  C8  UNL     1      10.247  -6.638  53.264  1.00  0.00     0.120 C 
BRANCH  19  20
HETATM   20  N5  UNL     1      10.343  -5.995  52.008  1.00  0.00    -0.415 N 
ATOM     21  H5  UNL     1      11.087  -5.328  51.805  1.00  0.00     0.153 HD
BRANCH  20  22
HETATM   22  C9  UNL     1       9.355  -6.323  51.044  1.00  0.00     0.093 C 
HETATM   23  C10 UNL     1       8.257  -7.216  51.576  1.00  0.00     0.028 C 
HETATM   24  C11 UNL     1       7.616  -7.848  50.338  1.00  0.00     0.021 C 
HETATM   25  C12 UNL     1       7.710  -6.920  49.150  1.00  0.00     0.114 C 
HETATM   26  N6  UNL     1       7.697  -5.541  49.501  1.00  0.00    -0.419 N 
HETATM   27  C13 UNL     1       8.673  -5.108  50.445  1.00  0.00     0.138 C 
ATOM     28  H6  UNL     1       7.021  -4.893  49.096  1.00  0.00     0.153 HD
ENDBRANCH  20  22
ENDBRANCH  19  20
ENDBRANCH  17  19
ENDBRANCH   7  13
BRANCH   8  29
HETATM   29  C16 UNL     1       8.614  -1.588  52.049  1.00  0.00     0.208 C 
BRANCH  29  30
HETATM   30  O1  UNL     1       9.961  -1.571  51.610  1.00  0.00    -0.396 OA
ATOM     31  H1  UNL     1      10.012  -1.887  50.715  1.00  0.00     0.209 HD
ENDBRANCH  29  30
ENDBRANCH   8  29
BRANCH   1  32
HETATM   32  N1  UNL     1       8.171   2.360  58.010  1.00  0.00    -0.233 N 
ATOM     33  H12 UNL     1       7.379   2.980  58.178  1.00  0.00     0.174 HD
ATOM     34  H11 UNL     1       8.867   2.602  58.714  1.00  0.00     0.174 HD
ENDBRANCH   1  32
TORSDOF 7
ENDMDL
MODEL 2
REMARK VINA RESULT: -6.176519623      1.969      8.174
REMARK  7 active torsions:
REMARK  status: ('A' for Active; 'I' for Inactive)
REMARK    1  A    between atoms: N1_1  and  C1_4 
REMARK    2  A    between atoms: C3_10  and  N4_11 
REMARK    3  A    between atoms: C7_15  and  C8_16 
REMARK    4  A    between atoms: C8_16  and  N5_17 
REMARK    5  A    between atoms: N5_17  and  C9_19 
REMARK    6  A    between atoms: C15_27  and  C16_28 
REMARK    7  A    between atoms: C16_28  and  O1_29 
ROOT
HETATM    1  C1  UNL     1       8.535  -6.349  49.348  1.00  0.00     0.706 A 
HETATM    2  N2  UNL     1       7.799  -5.410  49.978  1.00  0.00    -0.019 N 
ATOM      3  H2  UNL     1       6.815  -5.218  49.787  1.00  0.00     0.203 HD
HETATM    4  C2  UNL     1       8.544  -4.760  50.898  1.00  0.00     0.719 A 
HETATM    5  N3  UNL     1       8.246  -3.765  51.750  1.00  0.00    -0.174 N 
ATOM      6  H3  UNL     1       7.302  -3.380  51.761  1.00  0.00     0.186 HD
HETATM    7  C3  UNL     1       9.189  -3.259  52.603  1.00  0.00     0.129 A 
HETATM    8  C15 UNL     1      10.435  -3.816  52.541  1.00  0.00     0.028 A 
HETATM    9  C17 UNL     1      10.732  -4.856  51.646  1.00  0.00     0.148 A 
HETATM   10  N7  UNL     1       9.764  -5.313  50.830  1.00  0.00    -0.082 N 
HETATM   11  N8  UNL     1       9.760  -6.276  49.893  1.00  0.00    -0.111 N 
ATOM     12  H8  UNL     1      10.559  -6.857  49.637  1.00  0.00     0.207 HD
ENDROOT
BRANCH   7  13
HETATM   13  N4  UNL     1       8.871  -2.218  53.508  1.00  0.00    -0.366 N 
HETATM   14  C4  UNL     1       8.574  -2.443  54.907  1.00  0.00     0.124 C 
HETATM   15  C5  UNL     1       7.137  -2.031  55.161  1.00  0.00     0.020 C 
HETATM   16  C6  UNL     1       6.652  -0.906  54.320  1.00  0.00     0.009 C 
HETATM   17  C7  UNL     1       7.743  -0.063  53.734  1.00  0.00     0.021 C 
HETATM   18  C14 UNL     1       8.836  -0.816  53.067  1.00  0.00     0.130 C 
BRANCH  17  19
HETATM   19  C8  UNL     1       8.237   0.994  54.715  1.00  0.00     0.120 C 
BRANCH  19  20
HETATM   20  N5  UNL     1       7.171   1.352  55.573  1.00  0.00    -0.415 N 
ATOM     21  H5  UNL     1       6.243   1.571  55.210  1.00  0.00     0.153 HD
BRANCH  20  22
HETATM   22  C9  UNL     1       7.453   1.393  56.963  1.00  0.00     0.093 C 
HETATM   23  C10 UNL     1       8.887   1.747  57.283  1.00  0.00     0.028 C 
HETATM   24  C11 UNL     1       9.114   1.256  58.715  1.00  0.00     0.021 C 
HETATM   25  C12 UNL     1       7.833   1.310  59.512  1.00  0.00     0.114 C 
HETATM   26  N6  UNL     1       6.950   2.347  59.102  1.00  0.00    -0.419 N 
HETATM   27  C13 UNL     1       6.584   2.375  57.725  1.00  0.00     0.138 C 
ATOM     28  H6  UNL     1       6.595   3.039  59.762  1.00  0.00     0.153 HD
ENDBRANCH  20  22
ENDBRANCH  19  20
ENDBRANCH  17  19
ENDBRANCH   7  13
BRANCH   8  29
HETATM   29  C16 UNL     1      11.524  -3.319  53.413  1.00  0.00     0.208 C 
BRANCH  29  30
HETATM   30  O1  UNL     1      12.778  -3.559  52.800  1.00  0.00    -0.396 OA
ATOM     31  H1  UNL     1      13.103  -2.757  52.406  1.00  0.00     0.209 HD
ENDBRANCH  29  30
ENDBRANCH   8  29
BRANCH   1  32
HETATM   32  N1  UNL     1       8.143  -7.165  48.404  1.00  0.00    -0.233 N 
ATOM     33  H12 UNL     1       7.221  -7.591  48.308  1.00  0.00     0.174 HD
ATOM     34  H11 UNL     1       8.689  -7.506  47.614  1.00  0.00     0.174 HD
ENDBRANCH   1  32
TORSDOF 7
ENDMDL
MODEL 3
REMARK VINA RESULT: -6.124391655      1.448      1.689
REMARK  7 active torsions:
REMARK  status: ('A' for Active; 'I' for Inactive)
REMARK    1  A    between atoms: N1_1  and  C1_4 
REMARK    2  A    between atoms: C3_10  and  N4_11 
REMARK    3  A    between atoms: C7_15  and  C8_16 
REMARK    4  A    between atoms: C8_16  and  N5_17 
REMARK    5  A    between atoms: N5_17  and  C9_19 
REMARK    6  A    between atoms: C15_27  and  C16_28 
REMARK    7  A    between atoms: C16_28  and  O1_29 
ROOT
HETATM    1  C1  UNL     1       8.675   1.992  58.065  1.00  0.00     0.706 A 
HETATM    2  N2  UNL     1       8.627   0.645  58.139  1.00  0.00    -0.019 N 
ATOM      3  H2  UNL     1       8.725   0.107  59.000  1.00  0.00     0.203 HD
HETATM    4  C2  UNL     1       8.431   0.108  56.915  1.00  0.00     0.719 A 
HETATM    5  N3  UNL     1       8.320  -1.166  56.504  1.00  0.00    -0.174 N 
ATOM      6  H3  UNL     1       8.383  -1.921  57.188  1.00  0.00     0.186 HD
HETATM    7  C3  UNL     1       8.123  -1.468  55.185  1.00  0.00     0.129 A 
HETATM    8  C15 UNL     1       8.046  -0.414  54.318  1.00  0.00     0.028 A 
HETATM    9  C17 UNL     1       8.163   0.913  54.761  1.00  0.00     0.148 A 
HETATM   10  N7  UNL     1       8.357   1.149  56.073  1.00  0.00    -0.082 N 
HETATM   11  N8  UNL     1       8.503   2.291  56.767  1.00  0.00    -0.111 N 
ATOM     12  H8  UNL     1       8.487   3.231  56.371  1.00  0.00     0.207 HD
ENDROOT
BRANCH   7  13
HETATM   13  N4  UNL     1       7.993  -2.811  54.755  1.00  0.00    -0.366 N 
HETATM   14  C4  UNL     1       6.734  -3.524  54.737  1.00  0.00     0.124 C 
HETATM   15  C5  UNL     1       6.826  -4.677  55.717  1.00  0.00     0.020 C 
HETATM   16  C6  UNL     1       8.181  -5.272  55.855  1.00  0.00     0.009 C 
HETATM   17  C7  UNL     1       9.095  -4.990  54.703  1.00  0.00     0.021 C 
HETATM   18  C14 UNL     1       9.160  -3.568  54.279  1.00  0.00     0.130 C 
BRANCH  17  19
HETATM   19  C8  UNL     1       8.878  -5.964  53.550  1.00  0.00     0.120 C 
BRANCH  19  20
HETATM   20  N5  UNL     1       8.505  -5.231  52.400  1.00  0.00    -0.415 N 
ATOM     21  H5  UNL     1       8.457  -4.212  52.407  1.00  0.00     0.153 HD
BRANCH  20  22
HETATM   22  C9  UNL     1       8.203  -5.980  51.233  1.00  0.00     0.093 C 
HETATM   23  C10 UNL     1       9.036  -5.598  50.031  1.00  0.00     0.028 C 
HETATM   24  C11 UNL     1       8.254  -6.111  48.818  1.00  0.00     0.021 C 
HETATM   25  C12 UNL     1       7.456  -7.342  49.175  1.00  0.00     0.114 C 
HETATM   26  N6  UNL     1       8.054  -8.134  50.194  1.00  0.00    -0.419 N 
HETATM   27  C13 UNL     1       8.370  -7.476  51.418  1.00  0.00     0.138 C 
ATOM     28  H6  UNL     1       8.246  -9.126  50.056  1.00  0.00     0.153 HD
ENDBRANCH  20  22
ENDBRANCH  19  20
ENDBRANCH  17  19
ENDBRANCH   7  13
BRANCH   8  29
HETATM   29  C16 UNL     1       7.853  -0.647  52.869  1.00  0.00     0.208 C 
BRANCH  29  30
HETATM   30  O1  UNL     1       6.721   0.073  52.413  1.00  0.00    -0.396 OA
ATOM     31  H1  UNL     1       6.310  -0.394  51.694  1.00  0.00     0.209 HD
ENDBRANCH  29  30
ENDBRANCH   8  29
BRANCH   1  32
HETATM   32  N1  UNL     1       8.849   2.836  59.048  1.00  0.00    -0.233 N 
ATOM     33  H12 UNL     1       9.111   2.611  60.008  1.00  0.00     0.174 HD
ATOM     34  H11 UNL     1       8.754   3.851  59.017  1.00  0.00     0.174 HD
ENDBRANCH   1  32
TORSDOF 7
ENDMDL
MODEL 4
REMARK VINA RESULT: -5.914356220      4.943      8.571
REMARK  7 active torsions:
REMARK  status: ('A' for Active; 'I' for Inactive)
REMARK    1  A    between atoms: N1_1  and  C1_4 
REMARK    2  A    between atoms: C3_10  and  N4_11 
REMARK    3  A    between atoms: C7_15  and  C8_16 
REMARK    4  A    between atoms: C8_16  and  N5_17 
REMARK    5  A    between atoms: N5_17  and  C9_19 
REMARK    6  A    between atoms: C15_27  and  C16_28 
REMARK    7  A    between atoms: C16_28  and  O1_29 
ROOT
HETATM    1  C1  UNL     1       7.868  -7.579  50.388  1.00  0.00     0.706 A 
HETATM    2  N2  UNL     1       8.369  -8.474  51.265  1.00  0.00    -0.019 N 
ATOM      3  H2  UNL     1       8.656  -9.423  51.026  1.00  0.00     0.203 HD
HETATM    4  C2  UNL     1       8.440  -7.939  52.503  1.00  0.00     0.719 A 
HETATM    5  N3  UNL     1       8.862  -8.443  53.674  1.00  0.00    -0.174 N 
ATOM      6  H3  UNL     1       9.211  -9.402  53.710  1.00  0.00     0.186 HD
HETATM    7  C3  UNL     1       8.835  -7.694  54.818  1.00  0.00     0.129 A 
HETATM    8  C15 UNL     1       8.359  -6.418  54.704  1.00  0.00     0.028 A 
HETATM    9  C17 UNL     1       7.920  -5.902  53.474  1.00  0.00     0.148 A 
HETATM   10  N7  UNL     1       7.971  -6.688  52.382  1.00  0.00    -0.082 N 
HETATM   11  N8  UNL     1       7.625  -6.468  51.102  1.00  0.00    -0.111 N 
ATOM     12  H8  UNL     1       7.240  -5.598  50.733  1.00  0.00     0.207 HD
ENDROOT
BRANCH   7  13
HETATM   13  N4  UNL     1       9.292  -8.223  56.048  1.00  0.00    -0.366 N 
HETATM   14  C4  UNL     1      10.655  -8.086  56.517  1.00  0.00     0.124 C 
HETATM   15  C5  UNL     1      11.271  -9.469  56.599  1.00  0.00     0.020 C 
HETATM   16  C6  UNL     1      10.319 -10.557  56.944  1.00  0.00     0.009 C 
HETATM   17  C7  UNL     1       9.064 -10.086  57.612  1.00  0.00     0.021 C 
HETATM   18  C14 UNL     1       8.380  -8.948  56.946  1.00  0.00     0.130 C 
BRANCH  17  19
HETATM   19  C8  UNL     1       9.254  -9.893  59.112  1.00  0.00     0.120 C 
BRANCH  19  20
HETATM   20  N5  UNL     1       8.596  -8.704  59.505  1.00  0.00    -0.415 N 
ATOM     21  H5  UNL     1       8.943  -7.785  59.230  1.00  0.00     0.153 HD
BRANCH  20  22
HETATM   22  C9  UNL     1       7.430  -8.850  60.299  1.00  0.00     0.093 C 
HETATM   23  C10 UNL     1       7.705  -8.880  61.786  1.00  0.00     0.028 C 
HETATM   24  C11 UNL     1       6.469  -9.530  62.413  1.00  0.00     0.021 C 
HETATM   25  C12 UNL     1       5.234  -9.236  61.596  1.00  0.00     0.114 C 
HETATM   26  N6  UNL     1       5.283  -7.985  60.919  1.00  0.00    -0.419 N 
HETATM   27  C13 UNL     1       6.406  -7.755  60.072  1.00  0.00     0.138 C 
ATOM     28  H6  UNL     1       4.549  -7.286  61.034  1.00  0.00     0.153 HD
ENDBRANCH  20  22
ENDBRANCH  19  20
ENDBRANCH  17  19
ENDBRANCH   7  13
BRANCH   8  29
HETATM   29  C16 UNL     1       8.274  -5.540  55.894  1.00  0.00     0.208 C 
BRANCH  29  30
HETATM   30  O1  UNL     1       7.000  -5.673  56.499  1.00  0.00    -0.396 OA
ATOM     31  H1  UNL     1       6.505  -4.869  56.389  1.00  0.00     0.209 HD
ENDBRANCH  29  30
ENDBRANCH   8  29
BRANCH   1  32
HETATM   32  N1  UNL     1       7.661  -7.751  49.108  1.00  0.00    -0.233 N 
ATOM     33  H12 UNL     1       7.431  -7.031  48.423  1.00  0.00     0.174 HD
ATOM     34  H11 UNL     1       7.698  -8.626  48.587  1.00  0.00     0.174 HD
ENDBRANCH   1  32
TORSDOF 7
ENDMDL
MODEL 5
REMARK VINA RESULT: -5.903422910      2.077      8.388
REMARK  7 active torsions:
REMARK  status: ('A' for Active; 'I' for Inactive)
REMARK    1  A    between atoms: N1_1  and  C1_4 
REMARK    2  A    between atoms: C3_10  and  N4_11 
REMARK    3  A    between atoms: C7_15  and  C8_16 
REMARK    4  A    between atoms: C8_16  and  N5_17 
REMARK    5  A    between atoms: N5_17  and  C9_19 
REMARK    6  A    between atoms: C15_27  and  C16_28 
REMARK    7  A    between atoms: C16_28  and  O1_29 
ROOT
HETATM    1  C1  UNL     1       8.322  -6.954  51.114  1.00  0.00     0.706 A 
HETATM    2  N2  UNL     1       7.757  -6.498  52.252  1.00  0.00    -0.019 N 
ATOM      3  H2  UNL     1       7.166  -7.054  52.870  1.00  0.00     0.203 HD
HETATM    4  C2  UNL     1       8.080  -5.203  52.457  1.00  0.00     0.719 A 
HETATM    5  N3  UNL     1       7.754  -4.344  53.437  1.00  0.00    -0.174 N 
ATOM      6  H3  UNL     1       7.157  -4.658  54.202  1.00  0.00     0.186 HD
HETATM    7  C3  UNL     1       8.211  -3.054  53.427  1.00  0.00     0.129 A 
HETATM    8  C15 UNL     1       9.008  -2.693  52.378  1.00  0.00     0.028 A 
HETATM    9  C17 UNL     1       9.341  -3.601  51.360  1.00  0.00     0.148 A 
HETATM   10  N7  UNL     1       8.862  -4.858  51.423  1.00  0.00    -0.082 N 
HETATM   11  N8  UNL     1       9.010  -5.917  50.609  1.00  0.00    -0.111 N 
ATOM     12  H8  UNL     1       9.557  -5.930  49.748  1.00  0.00     0.207 HD
ENDROOT
BRANCH   7  13
HETATM   13  N4  UNL     1       7.877  -2.153  54.467  1.00  0.00    -0.366 N 
HETATM   14  C4  UNL     1       6.576  -1.532  54.595  1.00  0.00     0.124 C 
HETATM   15  C5  UNL     1       6.744  -0.035  54.424  1.00  0.00     0.020 C 
HETATM   16  C6  UNL     1       8.039   0.507  54.912  1.00  0.00     0.009 C 
HETATM   17  C7  UNL     1       8.739  -0.373  55.900  1.00  0.00     0.021 C 
HETATM   18  C14 UNL     1       8.855  -1.801  55.506  1.00  0.00     0.130 C 
BRANCH  17  19
HETATM   19  C8  UNL     1       8.216  -0.170  57.318  1.00  0.00     0.120 C 
BRANCH  19  20
HETATM   20  N5  UNL     1       8.690   1.071  57.803  1.00  0.00    -0.415 N 
ATOM     21  H5  UNL     1       9.577   1.464  57.491  1.00  0.00     0.153 HD
BRANCH  20  22
HETATM   22  C9  UNL     1       7.870   1.745  58.746  1.00  0.00     0.093 C 
HETATM   23  C10 UNL     1       6.590   2.293  58.158  1.00  0.00     0.028 C 
HETATM   24  C11 UNL     1       6.123   3.369  59.142  1.00  0.00     0.021 C 
HETATM   25  C12 UNL     1       6.555   3.035  60.550  1.00  0.00     0.114 C 
HETATM   26  N6  UNL     1       6.644   1.637  60.802  1.00  0.00    -0.419 N 
HETATM   27  C13 UNL     1       7.469   0.877  59.923  1.00  0.00     0.138 C 
ATOM     28  H6  UNL     1       6.143   1.201  61.575  1.00  0.00     0.153 HD
ENDBRANCH  20  22
ENDBRANCH  19  20
ENDBRANCH  17  19
ENDBRANCH   7  13
BRANCH   8  29
HETATM   29  C16 UNL     1       9.532  -1.312  52.274  1.00  0.00     0.208 C 
BRANCH  29  30
HETATM   30  O1  UNL     1       8.601  -0.495  51.586  1.00  0.00    -0.396 OA
ATOM     31  H1  UNL     1       8.919  -0.312  50.709  1.00  0.00     0.209 HD
ENDBRANCH  29  30
ENDBRANCH   8  29
BRANCH   1  32
HETATM   32  N1  UNL     1       8.226  -8.155  50.606  1.00  0.00    -0.233 N 
ATOM     33  H12 UNL     1       8.805  -8.964  50.833  1.00  0.00     0.174 HD
ATOM     34  H11 UNL     1       7.561  -8.479  49.904  1.00  0.00     0.174 HD
ENDBRANCH   1  32
TORSDOF 7
ENDMDL
