MODEL 1
REMARK VINA RESULT: -6.586506507      0.000      0.000
REMARK  6 active torsions:
REMARK  status: ('A' for Active; 'I' for Inactive)
REMARK    1  A    between atoms: N1_1  and  C1_4 
REMARK    2  A    between atoms: N3_7  and  C2_8 
REMARK    3  A    between atoms: C2_8  and  C3_9 
REMARK    4  A    between atoms: C6_14  and  C7_15 
REMARK    5  A    between atoms: C7_15  and  N5_16 
REMARK    6  A    between atoms: C14_26  and  N7_27 
ROOT
HETATM    1  C3  UNL     1       8.414  -6.490  53.893  1.00  0.00     0.105 A 
HETATM    2  N4  UNL     1       8.551  -5.218  53.497  1.00  0.00    -0.342 N 
ATOM      3  H4  UNL     1       8.776  -5.032  52.520  1.00  0.00     0.167 HD
HETATM    4  C4  UNL     1       8.407  -4.175  54.334  1.00  0.00     0.065 A 
HETATM    5  C5  UNL     1       8.551  -2.871  53.915  1.00  0.00     0.042 A 
HETATM    6  C6  UNL     1       8.383  -1.872  54.851  1.00  0.00    -0.013 A 
HETATM    7  C12 UNL     1       8.077  -2.196  56.169  1.00  0.00     0.097 A 
HETATM    8  N6  UNL     1       7.952  -3.491  56.505  1.00  0.00    -0.360 N 
ATOM      9  H6  UNL     1       7.727  -3.714  57.475  1.00  0.00     0.165 HD
HETATM   10  C13 UNL     1       8.102  -4.505  55.646  1.00  0.00     0.103 A 
HETATM   11  C14 UNL     1       7.960  -5.811  56.057  1.00  0.00     0.129 A 
HETATM   12  N8  UNL     1       8.119  -6.800  55.165  1.00  0.00    -0.329 N 
ATOM     13  H8  UNL     1       8.017  -7.774  55.449  1.00  0.00     0.168 HD
ENDROOT
BRANCH   1  14
HETATM   14  C2  UNL     1       8.586  -7.578  52.925  1.00  0.00     0.246 C 
BRANCH  14  15
HETATM   15  N3  UNL     1       8.065  -7.236  51.611  1.00  0.00    -0.224 N 
HETATM   16  N2  UNL     1       6.821  -7.174  51.202  1.00  0.00    -0.266 N 
HETATM   17  C1  UNL     1       6.758  -6.816  49.895  1.00  0.00     0.158 A 
ATOM     18  H2  UNL     1       6.009  -7.369  51.788  1.00  0.00     0.190 HD
HETATM   19  C15 UNL     1       8.070  -6.657  49.512  1.00  0.00     0.177 A 
HETATM   20  N9  UNL     1       8.823  -6.924  50.588  1.00  0.00    -0.268 N 
HETATM   21  N10 UNL     1       8.510  -6.279  48.205  1.00  0.00    -0.077 NA
ATOM     22  H9  UNL     1       9.842  -6.888  50.609  1.00  0.00     0.190 HD
BRANCH  17  23
HETATM   23  N1  UNL     1       5.734  -6.654  49.155  1.00  0.00    -0.382 N 
ATOM     24  H12 UNL     1       5.239  -5.777  48.999  1.00  0.00     0.157 HD
ATOM     25  H11 UNL     1       5.229  -7.341  48.595  1.00  0.00     0.157 HD
ENDBRANCH  17  23
ENDBRANCH  14  15
ENDBRANCH   1  14
BRANCH  11  26
HETATM   26  N7  UNL     1       7.677  -6.128  57.275  1.00  0.00    -0.384 N 
ATOM     27  H72 UNL     1       8.212  -5.688  58.024  1.00  0.00     0.157 HD
ATOM     28  H71 UNL     1       6.945  -6.798  57.512  1.00  0.00     0.157 HD
ENDBRANCH  11  26
BRANCH   6  29
HETATM   29  C7  UNL     1       8.513  -0.434  54.520  1.00  0.00     0.312 C 
BRANCH  29  30
HETATM   30  N5  UNL     1       7.454   0.292  55.164  1.00  0.00     0.096 N 
HETATM   31  C8  UNL     1       6.309   0.509  54.338  1.00  0.00     0.299 C 
HETATM   32  C9  UNL     1       5.447   1.597  54.957  1.00  0.00     0.198 C 
HETATM   33  O1  UNL     1       5.599   1.687  56.319  1.00  0.00    -0.388 OA
HETATM   34  C10 UNL     1       6.872   1.971  56.747  1.00  0.00     0.198 C 
HETATM   35  C11 UNL     1       7.891   1.581  55.668  1.00  0.00     0.299 C 
ENDBRANCH  29  30
ENDBRANCH   6  29
TORSDOF 6
ENDMDL
MODEL 2
REMARK VINA RESULT: -6.584523731      3.007      4.453
REMARK  6 active torsions:
REMARK  status: ('A' for Active; 'I' for Inactive)
REMARK    1  A    between atoms: N1_1  and  C1_4 
REMARK    2  A    between atoms: N3_7  and  C2_8 
REMARK    3  A    between atoms: C2_8  and  C3_9 
REMARK    4  A    between atoms: C6_14  and  C7_15 
REMARK    5  A    between atoms: C7_15  and  N5_16 
REMARK    6  A    between atoms: C14_26  and  N7_27 
ROOT
HETATM    1  C3  UNL     1       8.160  -3.292  53.978  1.00  0.00     0.105 A 
HETATM    2  N4  UNL     1       8.450  -2.791  55.186  1.00  0.00    -0.342 N 
ATOM      3  H4  UNL     1       8.660  -3.438  55.945  1.00  0.00     0.167 HD
HETATM    4  C4  UNL     1       8.475  -1.471  55.439  1.00  0.00     0.065 A 
HETATM    5  C5  UNL     1       8.774  -0.968  56.687  1.00  0.00     0.042 A 
HETATM    6  C6  UNL     1       8.773   0.402  56.845  1.00  0.00    -0.013 A 
HETATM    7  C12 UNL     1       8.478   1.228  55.765  1.00  0.00     0.097 A 
HETATM    8  N6  UNL     1       8.195   0.666  54.578  1.00  0.00    -0.360 N 
ATOM      9  H6  UNL     1       7.981   1.284  53.795  1.00  0.00     0.165 HD
HETATM   10  C13 UNL     1       8.179  -0.653  54.360  1.00  0.00     0.103 A 
HETATM   11  C14 UNL     1       7.881  -1.164  53.117  1.00  0.00     0.129 A 
HETATM   12  N8  UNL     1       7.875  -2.493  52.938  1.00  0.00    -0.329 N 
ATOM     13  H8  UNL     1       7.657  -2.892  52.025  1.00  0.00     0.168 HD
ENDROOT
BRANCH   1  14
HETATM   14  C2  UNL     1       8.151  -4.744  53.774  1.00  0.00     0.246 C 
BRANCH  14  15
HETATM   15  N3  UNL     1       8.704  -5.126  52.484  1.00  0.00    -0.224 N 
HETATM   16  N2  UNL     1       8.100  -5.654  51.447  1.00  0.00    -0.266 N 
HETATM   17  C1  UNL     1       8.975  -5.861  50.432  1.00  0.00     0.158 A 
ATOM     18  H2  UNL     1       7.106  -5.880  51.408  1.00  0.00     0.190 HD
HETATM   19  C15 UNL     1      10.185  -5.418  50.915  1.00  0.00     0.177 A 
HETATM   20  N9  UNL     1       9.967  -4.982  52.163  1.00  0.00    -0.268 N 
HETATM   21  N10 UNL     1      11.420  -5.435  50.195  1.00  0.00    -0.077 NA
ATOM     22  H9  UNL     1      10.682  -4.594  52.778  1.00  0.00     0.190 HD
BRANCH  17  23
HETATM   23  N1  UNL     1       8.763  -6.353  49.275  1.00  0.00    -0.382 N 
ATOM     24  H12 UNL     1       8.055  -7.046  49.038  1.00  0.00     0.157 HD
ATOM     25  H11 UNL     1       9.241  -6.157  48.396  1.00  0.00     0.157 HD
ENDBRANCH  17  23
ENDBRANCH  14  15
ENDBRANCH   1  14
BRANCH  11  26
HETATM   26  N7  UNL     1       7.604  -0.412  52.106  1.00  0.00    -0.384 N 
ATOM     27  H72 UNL     1       8.375  -0.089  51.521  1.00  0.00     0.157 HD
ATOM     28  H71 UNL     1       6.650  -0.134  51.874  1.00  0.00     0.157 HD
ENDBRANCH  11  26
BRANCH   6  29
HETATM   29  C7  UNL     1       9.080   1.060  58.136  1.00  0.00     0.312 C 
BRANCH  29  30
HETATM   30  N5  UNL     1      10.346   1.729  58.032  1.00  0.00     0.096 N 
HETATM   31  C8  UNL     1      11.468   0.909  58.367  1.00  0.00     0.299 C 
HETATM   32  C9  UNL     1      12.679   1.795  58.609  1.00  0.00     0.198 C 
HETATM   33  O1  UNL     1      12.611   2.987  57.929  1.00  0.00    -0.388 OA
HETATM   34  C10 UNL     1      11.536   3.779  58.245  1.00  0.00     0.198 C 
HETATM   35  C11 UNL     1      10.411   2.926  58.849  1.00  0.00     0.299 C 
ENDBRANCH  29  30
ENDBRANCH   6  29
TORSDOF 6
ENDMDL
MODEL 3
REMARK VINA RESULT: -6.537422327      4.370      7.963
REMARK  6 active torsions:
REMARK  status: ('A' for Active; 'I' for Inactive)
REMARK    1  A    between atoms: N1_1  and  C1_4 
REMARK    2  A    between atoms: N3_7  and  C2_8 
REMARK    3  A    between atoms: C2_8  and  C3_9 
REMARK    4  A    between atoms: C6_14  and  C7_15 
REMARK    5  A    between atoms: C7_15  and  N5_16 
REMARK    6  A    between atoms: C14_26  and  N7_27 
ROOT
HETATM    1  C3  UNL     1       8.974  -5.304  52.317  1.00  0.00     0.105 A 
HETATM    2  N4  UNL     1       9.443  -5.503  53.556  1.00  0.00    -0.342 N 
ATOM      3  H4  UNL     1      10.015  -4.776  53.984  1.00  0.00     0.167 HD
HETATM    4  C4  UNL     1       9.192  -6.622  54.258  1.00  0.00     0.065 A 
HETATM    5  C5  UNL     1       9.680  -6.815  55.532  1.00  0.00     0.042 A 
HETATM    6  C6  UNL     1       9.367  -7.997  56.169  1.00  0.00    -0.013 A 
HETATM    7  C12 UNL     1       8.580  -8.948  55.525  1.00  0.00     0.097 A 
HETATM    8  N6  UNL     1       8.139  -8.690  54.283  1.00  0.00    -0.360 N 
ATOM      9  H6  UNL     1       7.564  -9.396  53.824  1.00  0.00     0.165 HD
HETATM   10  C13 UNL     1       8.408  -7.566  53.612  1.00  0.00     0.103 A 
HETATM   11  C14 UNL     1       7.924  -7.365  52.339  1.00  0.00     0.129 A 
HETATM   12  N8  UNL     1       8.216  -6.223  51.699  1.00  0.00    -0.329 N 
ATOM     13  H8  UNL     1       7.867  -6.054  50.755  1.00  0.00     0.168 HD
ENDROOT
BRANCH   1  14
HETATM   14  C2  UNL     1       9.288  -4.058  51.610  1.00  0.00     0.246 C 
BRANCH  14  15
HETATM   15  N3  UNL     1       8.684  -2.896  52.241  1.00  0.00    -0.224 N 
HETATM   16  N2  UNL     1       7.597  -2.819  52.971  1.00  0.00    -0.266 N 
HETATM   17  C1  UNL     1       7.374  -1.544  53.374  1.00  0.00     0.158 A 
ATOM     18  H2  UNL     1       6.999  -3.612  53.203  1.00  0.00     0.190 HD
HETATM   19  C15 UNL     1       8.414  -0.819  52.838  1.00  0.00     0.177 A 
HETATM   20  N9  UNL     1       9.180  -1.685  52.160  1.00  0.00    -0.268 N 
HETATM   21  N10 UNL     1       8.609   0.588  52.995  1.00  0.00    -0.077 NA
ATOM     22  H9  UNL     1      10.029  -1.438  51.652  1.00  0.00     0.190 HD
BRANCH  17  23
HETATM   23  N1  UNL     1       6.427  -1.081  54.090  1.00  0.00    -0.382 N 
ATOM     24  H12 UNL     1       5.430  -1.181  53.903  1.00  0.00     0.157 HD
ATOM     25  H11 UNL     1       6.478  -0.542  54.954  1.00  0.00     0.157 HD
ENDBRANCH  17  23
ENDBRANCH  14  15
ENDBRANCH   1  14
BRANCH  11  26
HETATM   26  N7  UNL     1       7.195  -8.236  51.728  1.00  0.00    -0.384 N 
ATOM     27  H72 UNL     1       6.205  -8.289  51.969  1.00  0.00     0.157 HD
ATOM     28  H71 UNL     1       7.571  -8.866  51.020  1.00  0.00     0.157 HD
ENDBRANCH  11  26
BRANCH   6  29
HETATM   29  C7  UNL     1       9.833  -8.318  57.538  1.00  0.00     0.312 C 
BRANCH  29  30
HETATM   30  N5  UNL     1      10.406  -9.635  57.541  1.00  0.00     0.096 N 
HETATM   31  C8  UNL     1       9.989 -10.450  58.638  1.00  0.00     0.299 C 
HETATM   32  C9  UNL     1      10.933 -11.635  58.765  1.00  0.00     0.198 C 
HETATM   33  O1  UNL     1      11.529 -11.971  57.575  1.00  0.00    -0.388 OA
HETATM   34  C10 UNL     1      12.292 -10.984  57.004  1.00  0.00     0.198 C 
HETATM   35  C11 UNL     1      11.857  -9.610  57.531  1.00  0.00     0.299 C 
ENDBRANCH  29  30
ENDBRANCH   6  29
TORSDOF 6
ENDMDL
MODEL 4
REMARK VINA RESULT: -6.448805035      3.195      7.466
REMARK  6 active torsions:
REMARK  status: ('A' for Active; 'I' for Inactive)
REMARK    1  A    between atoms: N1_1  and  C1_4 
REMARK    2  A    between atoms: N3_7  and  C2_8 
REMARK    3  A    between atoms: C2_8  and  C3_9 
REMARK    4  A    between atoms: C6_14  and  C7_15 
REMARK    5  A    between atoms: C7_15  and  N5_16 
REMARK    6  A    between atoms: C14_26  and  N7_27 
ROOT
HETATM    1  C3  UNL     1       9.483  -3.926  51.859  1.00  0.00     0.105 A 
HETATM    2  N4  UNL     1       9.389  -4.650  52.983  1.00  0.00    -0.342 N 
ATOM      3  H4  UNL     1       9.564  -4.189  53.875  1.00  0.00     0.167 HD
HETATM    4  C4  UNL     1       9.074  -5.957  52.983  1.00  0.00     0.065 A 
HETATM    5  C5  UNL     1       8.981  -6.690  54.146  1.00  0.00     0.042 A 
HETATM    6  C6  UNL     1       8.652  -8.025  54.040  1.00  0.00    -0.013 A 
HETATM    7  C12 UNL     1       8.426  -8.590  52.789  1.00  0.00     0.097 A 
HETATM    8  N6  UNL     1       8.535  -7.813  51.699  1.00  0.00    -0.360 N 
ATOM      9  H6  UNL     1       8.367  -8.241  50.788  1.00  0.00     0.165 HD
HETATM   10  C13 UNL     1       8.850  -6.514  51.733  1.00  0.00     0.103 A 
HETATM   11  C14 UNL     1       8.946  -5.775  50.576  1.00  0.00     0.129 A 
HETATM   12  N8  UNL     1       9.265  -4.474  50.653  1.00  0.00    -0.329 N 
ATOM     13  H8  UNL     1       9.341  -3.909  49.808  1.00  0.00     0.168 HD
ENDROOT
BRANCH   1  14
HETATM   14  C2  UNL     1       9.831  -2.504  51.934  1.00  0.00     0.246 C 
BRANCH  14  15
HETATM   15  N3  UNL     1       8.841  -1.730  52.665  1.00  0.00    -0.224 N 
HETATM   16  N2  UNL     1       7.587  -2.017  52.921  1.00  0.00    -0.266 N 
HETATM   17  C1  UNL     1       7.001  -1.025  53.636  1.00  0.00     0.158 A 
ATOM     18  H2  UNL     1       7.117  -2.871  52.623  1.00  0.00     0.190 HD
HETATM   19  C15 UNL     1       7.990  -0.085  53.811  1.00  0.00     0.177 A 
HETATM   20  N9  UNL     1       9.087  -0.560  53.203  1.00  0.00    -0.268 N 
HETATM   21  N10 UNL     1       7.842   1.151  54.513  1.00  0.00    -0.077 NA
ATOM     22  H9  UNL     1       9.985  -0.079  53.165  1.00  0.00     0.190 HD
BRANCH  17  23
HETATM   23  N1  UNL     1       5.804  -0.945  54.067  1.00  0.00    -0.382 N 
ATOM     24  H12 UNL     1       5.206  -1.728  54.328  1.00  0.00     0.157 HD
ATOM     25  H11 UNL     1       5.233  -0.115  54.229  1.00  0.00     0.157 HD
ENDBRANCH  17  23
ENDBRANCH  14  15
ENDBRANCH   1  14
BRANCH  11  26
HETATM   26  N7  UNL     1       8.741  -6.283  49.409  1.00  0.00    -0.384 N 
ATOM     27  H72 UNL     1       8.555  -7.284  49.345  1.00  0.00     0.157 HD
ATOM     28  H71 UNL     1       8.758  -5.724  48.556  1.00  0.00     0.157 HD
ENDBRANCH  11  26
BRANCH   6  29
HETATM   29  C7  UNL     1       8.521  -8.913  55.218  1.00  0.00     0.312 C 
BRANCH  29  30
HETATM   30  N5  UNL     1       9.405  -8.454  56.252  1.00  0.00     0.096 N 
HETATM   31  C8  UNL     1      10.557  -9.277  56.443  1.00  0.00     0.299 C 
HETATM   32  C9  UNL     1      11.193  -8.942  57.782  1.00  0.00     0.198 C 
HETATM   33  O1  UNL     1      10.934  -7.655  58.188  1.00  0.00    -0.388 OA
HETATM   34  C10 UNL     1       9.607  -7.351  58.352  1.00  0.00     0.198 C 
HETATM   35  C11 UNL     1       8.739  -8.317  57.534  1.00  0.00     0.299 C 
ENDBRANCH  29  30
ENDBRANCH   6  29
TORSDOF 6
ENDMDL
MODEL 5
REMARK VINA RESULT: -6.428008189      2.637      6.712
REMARK  6 active torsions:
REMARK  status: ('A' for Active; 'I' for Inactive)
REMARK    1  A    between atoms: N1_1  and  C1_4 
REMARK    2  A    between atoms: N3_7  and  C2_8 
REMARK    3  A    between atoms: C2_8  and  C3_9 
REMARK    4  A    between atoms: C6_14  and  C7_15 
REMARK    5  A    between atoms: C7_15  and  N5_16 
REMARK    6  A    between atoms: C14_26  and  N7_27 
ROOT
HETATM    1  C3  UNL     1       8.158  -3.650  56.218  1.00  0.00     0.105 A 
HETATM    2  N4  UNL     1       8.086  -4.077  54.950  1.00  0.00    -0.342 N 
ATOM      3  H4  UNL     1       7.952  -3.388  54.210  1.00  0.00     0.167 HD
HETATM    4  C4  UNL     1       8.183  -5.375  54.612  1.00  0.00     0.065 A 
HETATM    5  C5  UNL     1       8.107  -5.801  53.305  1.00  0.00     0.042 A 
HETATM    6  C6  UNL     1       8.217  -7.154  53.061  1.00  0.00    -0.013 A 
HETATM    7  C12 UNL     1       8.399  -8.039  54.120  1.00  0.00     0.097 A 
HETATM    8  N6  UNL     1       8.464  -7.551  55.369  1.00  0.00    -0.360 N 
ATOM      9  H6  UNL     1       8.597  -8.211  56.135  1.00  0.00     0.165 HD
HETATM   10  C13 UNL     1       8.364  -6.252  55.671  1.00  0.00     0.103 A 
HETATM   11  C14 UNL     1       8.438  -5.817  56.975  1.00  0.00     0.129 A 
HETATM   12  N8  UNL     1       8.333  -4.506  57.236  1.00  0.00    -0.329 N 
ATOM     13  H8  UNL     1       8.386  -4.164  58.196  1.00  0.00     0.168 HD
ENDROOT
BRANCH   1  14
HETATM   14  C2  UNL     1       8.044  -2.218  56.513  1.00  0.00     0.246 C 
BRANCH  14  15
HETATM   15  N3  UNL     1       7.768  -1.428  55.324  1.00  0.00    -0.224 N 
HETATM   16  N2  UNL     1       6.616  -1.153  54.760  1.00  0.00    -0.266 N 
HETATM   17  C1  UNL     1       6.789  -0.380  53.659  1.00  0.00     0.158 A 
ATOM     18  H2  UNL     1       5.712  -1.476  55.103  1.00  0.00     0.190 HD
HETATM   19  C15 UNL     1       8.149  -0.188  53.574  1.00  0.00     0.177 A 
HETATM   20  N9  UNL     1       8.697  -0.845  54.606  1.00  0.00    -0.268 N 
HETATM   21  N10 UNL     1       8.816   0.571  52.564  1.00  0.00    -0.077 NA
ATOM     22  H9  UNL     1       9.696  -0.885  54.806  1.00  0.00     0.190 HD
BRANCH  17  23
HETATM   23  N1  UNL     1       5.913   0.086  52.859  1.00  0.00    -0.382 N 
ATOM     24  H12 UNL     1       5.316   0.895  53.025  1.00  0.00     0.157 HD
ATOM     25  H11 UNL     1       5.649  -0.246  51.931  1.00  0.00     0.157 HD
ENDBRANCH  17  23
ENDBRANCH  14  15
ENDBRANCH   1  14
BRANCH  11  26
HETATM   26  N7  UNL     1       8.606  -6.625  57.967  1.00  0.00    -0.384 N 
ATOM     27  H72 UNL     1       8.097  -6.437  58.831  1.00  0.00     0.157 HD
ATOM     28  H71 UNL     1       9.222  -7.436  57.916  1.00  0.00     0.157 HD
ENDBRANCH  11  26
BRANCH   6  29
HETATM   29  C7  UNL     1       8.152  -7.731  51.699  1.00  0.00     0.312 C 
BRANCH  29  30
HETATM   30  N5  UNL     1       8.215  -6.668  50.736  1.00  0.00     0.096 N 
HETATM   31  C8  UNL     1       7.710  -7.018  49.446  1.00  0.00     0.299 C 
HETATM   32  C9  UNL     1       8.180  -5.990  48.430  1.00  0.00     0.198 C 
HETATM   33  O1  UNL     1       8.428  -4.761  48.992  1.00  0.00    -0.388 OA
HETATM   34  C10 UNL     1       9.394  -4.749  49.966  1.00  0.00     0.198 C 
HETATM   35  C11 UNL     1       9.561  -6.153  50.563  1.00  0.00     0.299 C 
ENDBRANCH  29  30
ENDBRANCH   6  29
TORSDOF 6
ENDMDL
