MODEL 1
REMARK VINA RESULT: -7.530678260      0.000      0.000
REMARK  9 active torsions:
REMARK  status: ('A' for Active; 'I' for Inactive)
REMARK    1  A    between atoms: C2_3  and  C3_4 
REMARK    2  A    between atoms: C10_17  and  N4_18 
REMARK    3  A    between atoms: N5_20  and  C11_22 
REMARK    4  A    between atoms: C11_22  and  C12_23 
REMARK    5  A    between atoms: C12_23  and  C13_24 
REMARK    6  A    between atoms: C13_24  and  N6_25 
REMARK    7  A    between atoms: N6_25  and  C14_28 
REMARK    8  A    between atoms: C14_28  and  C15_29 
REMARK    9  A    between atoms: C15_29  and  O2_30 
ROOT
HETATM    1  N1  UNL     1      -8.944  15.189 -19.252  1.00  0.00    -0.097 NA
HETATM    2  C1  UNL     1      -7.534  15.353 -19.303  1.00  0.00     0.108 A 
HETATM    3  C2  UNL     1      -6.790  15.046 -18.174  1.00  0.00     0.085 A 
HETATM    4  N2  UNL     1      -5.449  15.235 -18.288  1.00  0.00    -0.295 N 
ATOM      5  H2  UNL     1      -4.847  15.026 -17.491  1.00  0.00     0.187 HD
HETATM    6  N3  UNL     1      -4.905  15.682 -19.408  1.00  0.00    -0.264 N 
ATOM      7  H3  UNL     1      -3.893  15.804 -19.436  1.00  0.00     0.190 HD
HETATM    8  C9  UNL     1      -5.606  15.981 -20.501  1.00  0.00     0.289 A 
HETATM    9  O1  UNL     1      -5.067  16.407 -21.564  1.00  0.00    -0.264 OA
HETATM   10  C10 UNL     1      -6.959  15.821 -20.472  1.00  0.00     0.144 A 
ENDROOT
BRANCH  10  11
HETATM   11  N4  UNL     1      -7.837  16.106 -21.557  1.00  0.00    -0.298 N 
HETATM   12  N5  UNL     1      -8.045  15.272 -22.463  1.00  0.00    -0.336 N 
ATOM     13  H5  UNL     1      -8.686  15.543 -23.209  1.00  0.00     0.180 HD
ATOM     14  H4  UNL     1      -8.305  17.011 -21.596  1.00  0.00     0.186 HD
BRANCH  12  15
HETATM   15  C11 UNL     1      -7.455  13.952 -22.543  1.00  0.00     0.141 C 
BRANCH  15  16
HETATM   16  C12 UNL     1      -8.628  13.005 -22.823  1.00  0.00     0.048 C 
BRANCH  16  17
HETATM   17  C13 UNL     1      -9.125  12.414 -21.514  1.00  0.00     0.234 C 
BRANCH  17  18
HETATM   18  N6  UNL     1     -10.540  12.155 -21.569  1.00  0.00    -0.073 N 
ATOM     19  H62 UNL     1     -11.058  12.743 -20.916  1.00  0.00     0.277 HD
ATOM     20  H61 UNL     1     -10.952  12.493 -22.439  1.00  0.00     0.277 HD
BRANCH  18  21
HETATM   21  C14 UNL     1     -10.813  10.751 -21.357  1.00  0.00     0.258 C 
BRANCH  21  22
HETATM   22  C15 UNL     1     -11.252  10.127 -22.677  1.00  0.00     0.191 C 
BRANCH  22  23
HETATM   23  O2  UNL     1     -12.064  10.976 -23.396  1.00  0.00    -0.399 OA
ATOM     24  H2  UNL     1     -12.443  10.542 -24.151  1.00  0.00     0.209 HD
ENDBRANCH  22  23
ENDBRANCH  21  22
ENDBRANCH  18  21
ENDBRANCH  17  18
ENDBRANCH  16  17
ENDBRANCH  15  16
ENDBRANCH  12  15
ENDBRANCH  10  11
BRANCH   3  25
HETATM   25  C3  UNL     1      -7.401  14.567 -16.932  1.00  0.00    -0.004 A 
HETATM   26  C4  UNL     1      -7.515  13.210 -16.665  1.00  0.00     0.014 A 
HETATM   27  C5  UNL     1      -8.105  12.780 -15.476  1.00  0.00     0.003 A 
HETATM   28  C6  UNL     1      -8.589  13.659 -14.541  1.00  0.00     0.024 A 
HETATM   29  C7  UNL     1      -8.475  15.005 -14.807  1.00  0.00     0.035 A 
HETATM   30 CL1  UNL     1      -9.088  16.141 -13.624  1.00  0.00    -0.084 Cl
HETATM   31  C8  UNL     1      -7.892  15.440 -15.984  1.00  0.00     0.037 A 
ENDBRANCH   3  25
TORSDOF 9
ENDMDL
MODEL 2
REMARK VINA RESULT: -7.513961815      2.989      4.545
REMARK  9 active torsions:
REMARK  status: ('A' for Active; 'I' for Inactive)
REMARK    1  A    between atoms: C2_3  and  C3_4 
REMARK    2  A    between atoms: C10_17  and  N4_18 
REMARK    3  A    between atoms: N5_20  and  C11_22 
REMARK    4  A    between atoms: C11_22  and  C12_23 
REMARK    5  A    between atoms: C12_23  and  C13_24 
REMARK    6  A    between atoms: C13_24  and  N6_25 
REMARK    7  A    between atoms: N6_25  and  C14_28 
REMARK    8  A    between atoms: C14_28  and  C15_29 
REMARK    9  A    between atoms: C15_29  and  O2_30 
ROOT
HETATM    1  N1  UNL     1      -5.740  15.474 -18.133  1.00  0.00    -0.097 NA
HETATM    2  C1  UNL     1      -6.887  15.612 -18.958  1.00  0.00     0.108 A 
HETATM    3  C2  UNL     1      -8.120  15.232 -18.450  1.00  0.00     0.085 A 
HETATM    4  N2  UNL     1      -9.172  15.381 -19.296  1.00  0.00    -0.295 N 
ATOM      5  H2  UNL     1     -10.106  15.119 -18.979  1.00  0.00     0.187 HD
HETATM    6  N3  UNL     1      -9.016  15.859 -20.519  1.00  0.00    -0.264 N 
ATOM      7  H3  UNL     1      -9.842  15.948 -21.110  1.00  0.00     0.190 HD
HETATM    8  C9  UNL     1      -7.839  16.228 -21.023  1.00  0.00     0.289 A 
HETATM    9  O1  UNL     1      -7.709  16.684 -22.196  1.00  0.00    -0.264 OA
HETATM   10  C10 UNL     1      -6.729  16.110 -20.240  1.00  0.00     0.144 A 
ENDROOT
BRANCH  10  11
HETATM   11  N4  UNL     1      -5.407  16.457 -20.644  1.00  0.00    -0.298 N 
HETATM   12  N5  UNL     1      -4.761  15.743 -21.439  1.00  0.00    -0.336 N 
ATOM     13  H5  UNL     1      -3.821  16.052 -21.685  1.00  0.00     0.180 HD
ATOM     14  H4  UNL     1      -4.980  17.306 -20.275  1.00  0.00     0.186 HD
BRANCH  12  15
HETATM   15  C11 UNL     1      -5.234  14.514 -22.042  1.00  0.00     0.141 C 
BRANCH  15  16
HETATM   16  C12 UNL     1      -4.227  13.442 -21.606  1.00  0.00     0.048 C 
BRANCH  16  17
HETATM   17  C13 UNL     1      -4.757  12.721 -20.377  1.00  0.00     0.234 C 
BRANCH  17  18
HETATM   18  N6  UNL     1      -4.144  13.228 -19.177  1.00  0.00    -0.073 N 
ATOM     19  H62 UNL     1      -4.648  14.036 -18.808  1.00  0.00     0.277 HD
ATOM     20  H61 UNL     1      -4.274  12.593 -18.389  1.00  0.00     0.277 HD
BRANCH  18  21
HETATM   21  C14 UNL     1      -2.747  13.526 -19.401  1.00  0.00     0.258 C 
BRANCH  21  22
HETATM   22  C15 UNL     1      -2.366  14.757 -18.587  1.00  0.00     0.191 C 
BRANCH  22  23
HETATM   23  O2  UNL     1      -2.927  15.902 -19.105  1.00  0.00    -0.399 OA
ATOM     24  H2  UNL     1      -2.357  16.654 -18.993  1.00  0.00     0.209 HD
ENDBRANCH  22  23
ENDBRANCH  21  22
ENDBRANCH  18  21
ENDBRANCH  17  18
ENDBRANCH  16  17
ENDBRANCH  15  16
ENDBRANCH  12  15
ENDBRANCH  10  11
BRANCH   3  25
HETATM   25  C3  UNL     1      -8.282  14.689 -17.099  1.00  0.00    -0.004 A 
HETATM   26  C4  UNL     1      -8.195  13.325 -16.858  1.00  0.00     0.014 A 
HETATM   27  C5  UNL     1      -8.358  12.834 -15.562  1.00  0.00     0.003 A 
HETATM   28  C6  UNL     1      -8.607  13.658 -14.495  1.00  0.00     0.024 A 
HETATM   29  C7  UNL     1      -8.694  15.011 -14.735  1.00  0.00     0.035 A 
HETATM   30 CL1  UNL     1      -9.012  16.077 -13.384  1.00  0.00    -0.084 Cl
HETATM   31  C8  UNL     1      -8.534  15.507 -16.017  1.00  0.00     0.037 A 
ENDBRANCH   3  25
TORSDOF 9
ENDMDL
MODEL 3
REMARK VINA RESULT: -7.490371189      3.062      4.312
REMARK  9 active torsions:
REMARK  status: ('A' for Active; 'I' for Inactive)
REMARK    1  A    between atoms: C2_3  and  C3_4 
REMARK    2  A    between atoms: C10_17  and  N4_18 
REMARK    3  A    between atoms: N5_20  and  C11_22 
REMARK    4  A    between atoms: C11_22  and  C12_23 
REMARK    5  A    between atoms: C12_23  and  C13_24 
REMARK    6  A    between atoms: C13_24  and  N6_25 
REMARK    7  A    between atoms: N6_25  and  C14_28 
REMARK    8  A    between atoms: C14_28  and  C15_29 
REMARK    9  A    between atoms: C15_29  and  O2_30 
ROOT
HETATM    1  N1  UNL     1      -8.438  14.551 -19.677  1.00  0.00    -0.097 NA
HETATM    2  C1  UNL     1      -7.073  14.938 -19.602  1.00  0.00     0.108 A 
HETATM    3  C2  UNL     1      -6.436  14.884 -18.373  1.00  0.00     0.085 A 
HETATM    4  N2  UNL     1      -5.135  15.276 -18.371  1.00  0.00    -0.295 N 
ATOM      5  H2  UNL     1      -4.611  15.259 -17.496  1.00  0.00     0.187 HD
HETATM    6  N3  UNL     1      -4.532  15.681 -19.476  1.00  0.00    -0.264 N 
ATOM      7  H3  UNL     1      -3.554  15.964 -19.415  1.00  0.00     0.190 HD
HETATM    8  C9  UNL     1      -5.130  15.738 -20.665  1.00  0.00     0.289 A 
HETATM    9  O1  UNL     1      -4.536  16.128 -21.713  1.00  0.00    -0.264 OA
HETATM   10  C10 UNL     1      -6.438  15.362 -20.756  1.00  0.00     0.144 A 
ENDROOT
BRANCH  10  11
HETATM   11  N4  UNL     1      -7.208  15.378 -21.954  1.00  0.00    -0.298 N 
HETATM   12  N5  UNL     1      -7.799  16.410 -22.335  1.00  0.00    -0.336 N 
ATOM     13  H5  UNL     1      -8.332  16.350 -23.202  1.00  0.00     0.180 HD
ATOM     14  H4  UNL     1      -7.279  14.528 -22.513  1.00  0.00     0.186 HD
BRANCH  12  15
HETATM   15  C11 UNL     1      -7.791  17.686 -21.649  1.00  0.00     0.141 C 
BRANCH  15  16
HETATM   16  C12 UNL     1      -6.931  18.606 -22.525  1.00  0.00     0.048 C 
BRANCH  16  17
HETATM   17  C13 UNL     1      -7.520  18.666 -23.925  1.00  0.00     0.234 C 
BRANCH  17  18
HETATM   18  N6  UNL     1      -8.374  19.816 -24.075  1.00  0.00    -0.073 N 
ATOM     19  H62 UNL     1      -8.339  20.423 -23.256  1.00  0.00     0.277 HD
ATOM     20  H61 UNL     1      -8.007  20.470 -24.767  1.00  0.00     0.277 HD
BRANCH  18  21
HETATM   21  C14 UNL     1      -9.727  19.412 -24.385  1.00  0.00     0.258 C 
BRANCH  21  22
HETATM   22  C15 UNL     1     -10.621  19.715 -23.188  1.00  0.00     0.191 C 
BRANCH  22  23
HETATM   23  O2  UNL     1      -9.957  20.450 -22.232  1.00  0.00    -0.399 OA
ATOM     24  H2  UNL     1     -10.550  21.011 -21.746  1.00  0.00     0.209 HD
ENDBRANCH  22  23
ENDBRANCH  21  22
ENDBRANCH  18  21
ENDBRANCH  17  18
ENDBRANCH  16  17
ENDBRANCH  15  16
ENDBRANCH  12  15
ENDBRANCH  10  11
BRANCH   3  25
HETATM   25  C3  UNL     1      -7.115  14.450 -17.150  1.00  0.00    -0.004 A 
HETATM   26  C4  UNL     1      -7.232  13.104 -16.832  1.00  0.00     0.014 A 
HETATM   27  C5  UNL     1      -7.888  12.717 -15.663  1.00  0.00     0.003 A 
HETATM   28  C6  UNL     1      -8.434  13.629 -14.796  1.00  0.00     0.024 A 
HETATM   29  C7  UNL     1      -8.317  14.965 -15.112  1.00  0.00     0.035 A 
HETATM   30 CL1  UNL     1      -9.009  16.142 -14.017  1.00  0.00    -0.084 Cl
HETATM   31  C8  UNL     1      -7.669  15.357 -16.270  1.00  0.00     0.037 A 
ENDBRANCH   3  25
TORSDOF 9
ENDMDL
MODEL 4
REMARK VINA RESULT: -7.475914496      2.834      4.587
REMARK  9 active torsions:
REMARK  status: ('A' for Active; 'I' for Inactive)
REMARK    1  A    between atoms: C2_3  and  C3_4 
REMARK    2  A    between atoms: C10_17  and  N4_18 
REMARK    3  A    between atoms: N5_20  and  C11_22 
REMARK    4  A    between atoms: C11_22  and  C12_23 
REMARK    5  A    between atoms: C12_23  and  C13_24 
REMARK    6  A    between atoms: C13_24  and  N6_25 
REMARK    7  A    between atoms: N6_25  and  C14_28 
REMARK    8  A    between atoms: C14_28  and  C15_29 
REMARK    9  A    between atoms: C15_29  and  O2_30 
ROOT
HETATM    1  N1  UNL     1      -9.630  13.953 -20.143  1.00  0.00    -0.097 NA
HETATM    2  C1  UNL     1      -9.826  12.681 -19.542  1.00  0.00     0.108 A 
HETATM    3  C2  UNL     1      -9.365  12.479 -18.250  1.00  0.00     0.085 A 
HETATM    4  N2  UNL     1      -9.577  11.238 -17.741  1.00  0.00    -0.295 N 
ATOM      5  H2  UNL     1      -9.261  11.028 -16.794  1.00  0.00     0.187 HD
HETATM    6  N3  UNL     1     -10.184  10.295 -18.442  1.00  0.00    -0.264 N 
ATOM      7  H3  UNL     1     -10.315   9.382 -18.008  1.00  0.00     0.190 HD
HETATM    8  C9  UNL     1     -10.632  10.472 -19.684  1.00  0.00     0.289 A 
HETATM    9  O1  UNL     1     -11.211   9.558 -20.340  1.00  0.00    -0.264 OA
HETATM   10  C10 UNL     1     -10.460  11.690 -20.272  1.00  0.00     0.144 A 
ENDROOT
BRANCH  10  11
HETATM   11  N4  UNL     1     -10.878  12.024 -21.593  1.00  0.00    -0.298 N 
HETATM   12  N5  UNL     1     -10.187  11.727 -22.590  1.00  0.00    -0.336 N 
ATOM     13  H5  UNL     1     -10.548  11.996 -23.505  1.00  0.00     0.180 HD
ATOM     14  H4  UNL     1     -11.762  12.515 -21.727  1.00  0.00     0.186 HD
BRANCH  12  15
HETATM   15  C11 UNL     1      -8.916  11.033 -22.556  1.00  0.00     0.141 C 
BRANCH  15  16
HETATM   16  C12 UNL     1      -7.878  12.080 -22.977  1.00  0.00     0.048 C 
BRANCH  16  17
HETATM   17  C13 UNL     1      -6.493  11.618 -22.554  1.00  0.00     0.234 C 
BRANCH  17  18
HETATM   18  N6  UNL     1      -6.519  10.247 -22.114  1.00  0.00    -0.073 N 
ATOM     19  H62 UNL     1      -7.473   9.910 -21.984  1.00  0.00     0.277 HD
ATOM     20  H61 UNL     1      -6.230   9.608 -22.855  1.00  0.00     0.277 HD
BRANCH  18  21
HETATM   21  C14 UNL     1      -5.724  10.077 -20.919  1.00  0.00     0.258 C 
BRANCH  21  22
HETATM   22  C15 UNL     1      -6.401  10.809 -19.766  1.00  0.00     0.191 C 
BRANCH  22  23
HETATM   23  O2  UNL     1      -7.178   9.960 -19.011  1.00  0.00    -0.399 OA
ATOM     24  H2  UNL     1      -8.105  10.106 -19.162  1.00  0.00     0.209 HD
ENDBRANCH  22  23
ENDBRANCH  21  22
ENDBRANCH  18  21
ENDBRANCH  17  18
ENDBRANCH  16  17
ENDBRANCH  15  16
ENDBRANCH  12  15
ENDBRANCH  10  11
BRANCH   3  25
HETATM   25  C3  UNL     1      -8.680  13.524 -17.485  1.00  0.00    -0.004 A 
HETATM   26  C4  UNL     1      -7.427  13.985 -17.862  1.00  0.00     0.014 A 
HETATM   27  C5  UNL     1      -6.794  14.978 -17.114  1.00  0.00     0.003 A 
HETATM   28  C6  UNL     1      -7.370  15.530 -15.997  1.00  0.00     0.024 A 
HETATM   29  C7  UNL     1      -8.614  15.071 -15.624  1.00  0.00     0.035 A 
HETATM   30 CL1  UNL     1      -9.362  15.763 -14.201  1.00  0.00    -0.084 Cl
HETATM   31  C8  UNL     1      -9.248  14.086 -16.360  1.00  0.00     0.037 A 
ENDBRANCH   3  25
TORSDOF 9
ENDMDL
MODEL 5
REMARK VINA RESULT: -7.465404520      1.227      1.256
REMARK  9 active torsions:
REMARK  status: ('A' for Active; 'I' for Inactive)
REMARK    1  A    between atoms: C2_3  and  C3_4 
REMARK    2  A    between atoms: C10_17  and  N4_18 
REMARK    3  A    between atoms: N5_20  and  C11_22 
REMARK    4  A    between atoms: C11_22  and  C12_23 
REMARK    5  A    between atoms: C12_23  and  C13_24 
REMARK    6  A    between atoms: C13_24  and  N6_25 
REMARK    7  A    between atoms: N6_25  and  C14_28 
REMARK    8  A    between atoms: C14_28  and  C15_29 
REMARK    9  A    between atoms: C15_29  and  O2_30 
ROOT
HETATM    1  N1  UNL     1      -8.953  15.178 -19.220  1.00  0.00    -0.097 NA
HETATM    2  C1  UNL     1      -7.541  15.329 -19.258  1.00  0.00     0.108 A 
HETATM    3  C2  UNL     1      -6.812  15.033 -18.117  1.00  0.00     0.085 A 
HETATM    4  N2  UNL     1      -5.469  15.208 -18.219  1.00  0.00    -0.295 N 
ATOM      5  H2  UNL     1      -4.877  15.006 -17.413  1.00  0.00     0.187 HD
HETATM    6  N3  UNL     1      -4.909  15.634 -19.339  1.00  0.00    -0.264 N 
ATOM      7  H3  UNL     1      -3.896  15.748 -19.357  1.00  0.00     0.190 HD
HETATM    8  C9  UNL     1      -5.595  15.923 -20.444  1.00  0.00     0.289 A 
HETATM    9  O1  UNL     1      -5.041  16.329 -21.507  1.00  0.00    -0.264 OA
HETATM   10  C10 UNL     1      -6.950  15.775 -20.427  1.00  0.00     0.144 A 
ENDROOT
BRANCH  10  11
HETATM   11  N4  UNL     1      -7.813  16.052 -21.527  1.00  0.00    -0.298 N 
HETATM   12  N5  UNL     1      -8.053  15.191 -22.399  1.00  0.00    -0.336 N 
ATOM     13  H5  UNL     1      -8.680  15.458 -23.158  1.00  0.00     0.180 HD
ATOM     14  H4  UNL     1      -8.244  16.973 -21.603  1.00  0.00     0.186 HD
BRANCH  12  15
HETATM   15  C11 UNL     1      -7.516  13.846 -22.424  1.00  0.00     0.141 C 
BRANCH  15  16
HETATM   16  C12 UNL     1      -8.743  12.927 -22.480  1.00  0.00     0.048 C 
BRANCH  16  17
HETATM   17  C13 UNL     1      -8.854  12.153 -21.176  1.00  0.00     0.234 C 
BRANCH  17  18
HETATM   18  N6  UNL     1     -10.000  12.581 -20.418  1.00  0.00    -0.073 N 
ATOM     19  H62 UNL     1      -9.934  13.564 -20.155  1.00  0.00     0.277 HD
ATOM     20  H61 UNL     1     -10.838  12.634 -20.998  1.00  0.00     0.277 HD
BRANCH  18  21
HETATM   21  C14 UNL     1     -10.200  11.730 -19.266  1.00  0.00     0.258 C 
BRANCH  21  22
HETATM   22  C15 UNL     1      -9.887  10.290 -19.655  1.00  0.00     0.191 C 
BRANCH  22  23
HETATM   23  O2  UNL     1     -10.977   9.468 -19.479  1.00  0.00    -0.399 OA
ATOM     24  H2  UNL     1     -11.421   9.293 -20.301  1.00  0.00     0.209 HD
ENDBRANCH  22  23
ENDBRANCH  21  22
ENDBRANCH  18  21
ENDBRANCH  17  18
ENDBRANCH  16  17
ENDBRANCH  15  16
ENDBRANCH  12  15
ENDBRANCH  10  11
BRANCH   3  25
HETATM   25  C3  UNL     1      -7.441  14.577 -16.875  1.00  0.00    -0.004 A 
HETATM   26  C4  UNL     1      -7.574  13.225 -16.591  1.00  0.00     0.014 A 
HETATM   27  C5  UNL     1      -8.180  12.817 -15.403  1.00  0.00     0.003 A 
HETATM   28  C6  UNL     1      -8.663  13.714 -14.484  1.00  0.00     0.024 A 
HETATM   29  C7  UNL     1      -8.531  15.056 -14.767  1.00  0.00     0.035 A 
HETATM   30 CL1  UNL     1      -9.142  16.214 -13.605  1.00  0.00    -0.084 Cl
HETATM   31  C8  UNL     1      -7.931  15.469 -15.943  1.00  0.00     0.037 A 
ENDBRANCH   3  25
TORSDOF 9
ENDMDL
