MODEL 1
REMARK VINA RESULT: -7.919560736      0.000      0.000
REMARK  9 active torsions:
REMARK  status: ('A' for Active; 'I' for Inactive)
REMARK    1  A    between atoms: N1_1  and  C1_4 
REMARK    2  A    between atoms: C2_9  and  C3_10 
REMARK    3  A    between atoms: C3_10  and  C4_11 
REMARK    4  A    between atoms: C4_11  and  C5_12 
REMARK    5  A    between atoms: C5_12  and  C6_13 
REMARK    6  A    between atoms: C6_13  and  N4_14 
REMARK    7  A    between atoms: N4_14  and  C7_17 
REMARK    8  A    between atoms: C7_17  and  C8_18 
REMARK    9  A    between atoms: C8_18  and  N5_19 
ROOT
HETATM    1  N4  UNL     1      -9.838  13.538 -16.747  1.00  0.00    -0.074 N 
ATOM      2  H41 UNL     1     -10.075  14.081 -17.577  1.00  0.00     0.277 HD
ATOM      3  H42 UNL     1     -10.780  13.339 -16.410  1.00  0.00     0.277 HD
ENDROOT
BRANCH   1   4
HETATM    4  C6  UNL     1      -9.094  14.341 -15.789  1.00  0.00     0.232 C 
BRANCH   4   5
HETATM    5  C5  UNL     1      -8.483  15.555 -16.403  1.00  0.00     0.028 C 
BRANCH   5   6
HETATM    6  C4  UNL     1      -7.026  15.318 -16.708  1.00  0.00     0.009 C 
BRANCH   6   7
HETATM    7  C3  UNL     1      -6.715  15.238 -18.177  1.00  0.00     0.078 C 
BRANCH   7   8
HETATM    8  C2  UNL     1      -5.320  14.703 -18.310  1.00  0.00     0.112 A 
HETATM    9  N3  UNL     1      -4.906  13.633 -19.011  1.00  0.00    -0.274 N 
HETATM   10  N2  UNL     1      -3.599  13.504 -18.868  1.00  0.00    -0.131 N 
ATOM     11  H3  UNL     1      -5.505  13.019 -19.563  1.00  0.00     0.189 HD
HETATM   12  C1  UNL     1      -3.131  14.480 -18.075  1.00  0.00     0.691 A 
ATOM     13  H2  UNL     1      -3.031  12.772 -19.297  1.00  0.00     0.205 HD
HETATM   14  N9  UNL     1      -4.222  15.220 -17.736  1.00  0.00    -0.178 N 
ATOM     15  H9  UNL     1      -4.208  16.045 -17.136  1.00  0.00     0.185 HD
BRANCH  12  16
HETATM   16  N1  UNL     1      -1.903  14.684 -17.703  1.00  0.00    -0.233 N 
ATOM     17  H12 UNL     1      -1.161  15.119 -18.251  1.00  0.00     0.174 HD
ATOM     18  H11 UNL     1      -1.473  14.449 -16.808  1.00  0.00     0.174 HD
ENDBRANCH  12  16
ENDBRANCH   7   8
ENDBRANCH   6   7
ENDBRANCH   5   6
ENDBRANCH   4   5
ENDBRANCH   1   4
BRANCH   1  19
HETATM   19  C7  UNL     1      -9.143  12.326 -17.097  1.00  0.00     0.252 C 
BRANCH  19  20
HETATM   20  C8  UNL     1      -8.971  12.265 -18.587  1.00  0.00     0.159 C 
BRANCH  20  21
HETATM   21  N5  UNL     1      -9.967  11.477 -19.273  1.00  0.00    -0.326 N 
HETATM   22  C9  UNL     1     -11.057  10.885 -18.723  1.00  0.00     0.185 A 
HETATM   23  N6  UNL     1     -11.765  10.241 -19.661  1.00  0.00    -0.348 N 
HETATM   24  C10 UNL     1     -11.145  10.402 -20.835  1.00  0.00     0.102 A 
ATOM     25  H6  UNL     1     -12.628   9.719 -19.506  1.00  0.00     0.167 HD
HETATM   26  C11 UNL     1     -11.457   9.936 -22.113  1.00  0.00     0.080 A 
HETATM   27  C14 UNL     1     -10.028  11.170 -20.589  1.00  0.00     0.138 A 
HETATM   28  N7  UNL     1     -12.612   9.159 -22.291  1.00  0.00    -0.100 NA
HETATM   29  C12 UNL     1     -10.576  10.295 -23.108  1.00  0.00     0.071 A 
HETATM   30  C13 UNL     1      -9.459  11.066 -22.841  1.00  0.00     0.106 A 
HETATM   31 CL1  UNL     1      -8.382  11.479 -24.184  1.00  0.00    -0.064 Cl
HETATM   32  N8  UNL     1      -9.197  11.494 -21.597  1.00  0.00    -0.331 N 
ATOM     33  H8  UNL     1      -8.370  12.063 -21.415  1.00  0.00     0.168 HD
ENDBRANCH  20  21
ENDBRANCH  19  20
ENDBRANCH   1  19
TORSDOF 9
ENDMDL
MODEL 2
REMARK VINA RESULT: -7.598744012      1.278      1.639
REMARK  9 active torsions:
REMARK  status: ('A' for Active; 'I' for Inactive)
REMARK    1  A    between atoms: N1_1  and  C1_4 
REMARK    2  A    between atoms: C2_9  and  C3_10 
REMARK    3  A    between atoms: C3_10  and  C4_11 
REMARK    4  A    between atoms: C4_11  and  C5_12 
REMARK    5  A    between atoms: C5_12  and  C6_13 
REMARK    6  A    between atoms: C6_13  and  N4_14 
REMARK    7  A    between atoms: N4_14  and  C7_17 
REMARK    8  A    between atoms: C7_17  and  C8_18 
REMARK    9  A    between atoms: C8_18  and  N5_19 
ROOT
HETATM    1  N4  UNL     1      -9.783  13.433 -16.739  1.00  0.00    -0.074 N 
ATOM      2  H41 UNL     1      -9.913  14.019 -17.563  1.00  0.00     0.277 HD
ATOM      3  H42 UNL     1     -10.760  13.309 -16.473  1.00  0.00     0.277 HD
ENDROOT
BRANCH   1   4
HETATM    4  C6  UNL     1      -9.041  14.137 -15.704  1.00  0.00     0.232 C 
BRANCH   4   5
HETATM    5  C5  UNL     1      -8.697  15.535 -16.090  1.00  0.00     0.028 C 
BRANCH   5   6
HETATM    6  C4  UNL     1      -7.911  15.551 -17.376  1.00  0.00     0.009 C 
BRANCH   6   7
HETATM    7  C3  UNL     1      -6.453  15.224 -17.206  1.00  0.00     0.078 C 
BRANCH   7   8
HETATM    8  C2  UNL     1      -6.086  14.247 -18.282  1.00  0.00     0.112 A 
HETATM    9  N3  UNL     1      -5.475  13.057 -18.148  1.00  0.00    -0.274 N 
HETATM   10  N2  UNL     1      -5.337  12.506 -19.340  1.00  0.00    -0.131 N 
ATOM     11  H3  UNL     1      -5.167  12.646 -17.266  1.00  0.00     0.189 HD
HETATM   12  C1  UNL     1      -5.850  13.319 -20.277  1.00  0.00     0.691 A 
ATOM     13  H2  UNL     1      -4.904  11.600 -19.522  1.00  0.00     0.205 HD
HETATM   14  N9  UNL     1      -6.314  14.402 -19.595  1.00  0.00    -0.178 N 
ATOM     15  H9  UNL     1      -6.768  15.212 -20.020  1.00  0.00     0.185 HD
BRANCH  12  16
HETATM   16  N1  UNL     1      -5.899  13.124 -21.561  1.00  0.00    -0.233 N 
ATOM     17  H12 UNL     1      -6.026  13.833 -22.283  1.00  0.00     0.174 HD
ATOM     18  H11 UNL     1      -5.818  12.240 -22.063  1.00  0.00     0.174 HD
ENDBRANCH  12  16
ENDBRANCH   7   8
ENDBRANCH   6   7
ENDBRANCH   5   6
ENDBRANCH   4   5
ENDBRANCH   1   4
BRANCH   1  19
HETATM   19  C7  UNL     1      -9.173  12.175 -17.085  1.00  0.00     0.252 C 
BRANCH  19  20
HETATM   20  C8  UNL     1      -8.973  12.112 -18.571  1.00  0.00     0.159 C 
BRANCH  20  21
HETATM   21  N5  UNL     1      -9.980  11.358 -19.280  1.00  0.00    -0.326 N 
HETATM   22  C9  UNL     1     -11.084  10.775 -18.749  1.00  0.00     0.185 A 
HETATM   23  N6  UNL     1     -11.798  10.166 -19.705  1.00  0.00    -0.348 N 
HETATM   24  C10 UNL     1     -11.169  10.341 -20.873  1.00  0.00     0.102 A 
ATOM     25  H6  UNL     1     -12.672   9.656 -19.567  1.00  0.00     0.167 HD
HETATM   26  C11 UNL     1     -11.483   9.910 -22.162  1.00  0.00     0.080 A 
HETATM   27  C14 UNL     1     -10.040  11.083 -20.603  1.00  0.00     0.138 A 
HETATM   28  N7  UNL     1     -12.651   9.159 -22.364  1.00  0.00    -0.100 NA
HETATM   29  C12 UNL     1     -10.590  10.275 -23.144  1.00  0.00     0.071 A 
HETATM   30  C13 UNL     1      -9.460  11.019 -22.854  1.00  0.00     0.106 A 
HETATM   31 CL1  UNL     1      -8.367  11.442 -24.182  1.00  0.00    -0.064 Cl
HETATM   32  N8  UNL     1      -9.197  11.414 -21.599  1.00  0.00    -0.331 N 
ATOM     33  H8  UNL     1      -8.360  11.962 -21.400  1.00  0.00     0.168 HD
ENDBRANCH  20  21
ENDBRANCH  19  20
ENDBRANCH   1  19
TORSDOF 9
ENDMDL
MODEL 3
REMARK VINA RESULT: -7.449875323      1.620      1.885
REMARK  9 active torsions:
REMARK  status: ('A' for Active; 'I' for Inactive)
REMARK    1  A    between atoms: N1_1  and  C1_4 
REMARK    2  A    between atoms: C2_9  and  C3_10 
REMARK    3  A    between atoms: C3_10  and  C4_11 
REMARK    4  A    between atoms: C4_11  and  C5_12 
REMARK    5  A    between atoms: C5_12  and  C6_13 
REMARK    6  A    between atoms: C6_13  and  N4_14 
REMARK    7  A    between atoms: N4_14  and  C7_17 
REMARK    8  A    between atoms: C7_17  and  C8_18 
REMARK    9  A    between atoms: C8_18  and  N5_19 
ROOT
HETATM    1  N4  UNL     1      -9.781  13.567 -16.120  1.00  0.00    -0.074 N 
ATOM      2  H41 UNL     1     -10.101  14.392 -16.627  1.00  0.00     0.277 HD
ATOM      3  H42 UNL     1     -10.618  13.382 -15.567  1.00  0.00     0.277 HD
ENDROOT
BRANCH   1   4
HETATM    4  C6  UNL     1      -8.644  13.881 -15.267  1.00  0.00     0.232 C 
BRANCH   4   5
HETATM    5  C5  UNL     1      -8.186  15.293 -15.414  1.00  0.00     0.028 C 
BRANCH   5   6
HETATM    6  C4  UNL     1      -7.754  15.565 -16.831  1.00  0.00     0.009 C 
BRANCH   6   7
HETATM    7  C3  UNL     1      -6.307  15.254 -17.099  1.00  0.00     0.078 C 
BRANCH   7   8
HETATM    8  C2  UNL     1      -6.263  14.281 -18.240  1.00  0.00     0.112 A 
HETATM    9  N3  UNL     1      -6.372  14.540 -19.554  1.00  0.00    -0.274 N 
HETATM   10  N2  UNL     1      -6.278  13.407 -20.227  1.00  0.00    -0.131 N 
ATOM     11  H3  UNL     1      -6.506  15.463 -19.966  1.00  0.00     0.189 HD
HETATM   12  C1  UNL     1      -6.107  12.386 -19.372  1.00  0.00     0.691 A 
ATOM     13  H2  UNL     1      -6.329  13.320 -21.242  1.00  0.00     0.205 HD
HETATM   14  N9  UNL     1      -6.100  12.953 -18.134  1.00  0.00    -0.178 N 
ATOM     15  H9  UNL     1      -5.987  12.444 -17.257  1.00  0.00     0.185 HD
BRANCH  12  16
HETATM   16  N1  UNL     1      -5.977  11.124 -19.653  1.00  0.00    -0.233 N 
ATOM     17  H12 UNL     1      -5.379  10.449 -19.176  1.00  0.00     0.174 HD
ATOM     18  H11 UNL     1      -6.444  10.596 -20.390  1.00  0.00     0.174 HD
ENDBRANCH  12  16
ENDBRANCH   7   8
ENDBRANCH   6   7
ENDBRANCH   5   6
ENDBRANCH   4   5
ENDBRANCH   1   4
BRANCH   1  19
HETATM   19  C7  UNL     1      -9.501  12.478 -17.020  1.00  0.00     0.252 C 
BRANCH  19  20
HETATM   20  C8  UNL     1      -9.761  12.920 -18.430  1.00  0.00     0.159 C 
BRANCH  20  21
HETATM   21  N5  UNL     1     -10.252  11.881 -19.304  1.00  0.00    -0.326 N 
HETATM   22  C9  UNL     1     -11.079  10.859 -18.968  1.00  0.00     0.185 A 
HETATM   23  N6  UNL     1     -11.332  10.089 -20.035  1.00  0.00    -0.348 N 
HETATM   24  C10 UNL     1     -10.672  10.598 -21.082  1.00  0.00     0.102 A 
ATOM     25  H6  UNL     1     -11.925   9.260 -20.048  1.00  0.00     0.167 HD
HETATM   26  C11 UNL     1     -10.591  10.180 -22.411  1.00  0.00     0.080 A 
HETATM   27  C14 UNL     1     -10.002  11.710 -20.622  1.00  0.00     0.138 A 
HETATM   28  N7  UNL     1     -11.301   9.037 -22.810  1.00  0.00    -0.100 NA
HETATM   29  C12 UNL     1      -9.799  10.954 -23.230  1.00  0.00     0.071 A 
HETATM   30  C13 UNL     1      -9.133  12.067 -22.750  1.00  0.00     0.106 A 
HETATM   31 CL1  UNL     1      -8.137  13.002 -23.876  1.00  0.00    -0.064 Cl
HETATM   32  N8  UNL     1      -9.239  12.434 -21.464  1.00  0.00    -0.331 N 
ATOM     33  H8  UNL     1      -8.743  13.258 -21.124  1.00  0.00     0.168 HD
ENDBRANCH  20  21
ENDBRANCH  19  20
ENDBRANCH   1  19
TORSDOF 9
ENDMDL
MODEL 4
REMARK VINA RESULT: -7.296256851      2.067      6.676
REMARK  9 active torsions:
REMARK  status: ('A' for Active; 'I' for Inactive)
REMARK    1  A    between atoms: N1_1  and  C1_4 
REMARK    2  A    between atoms: C2_9  and  C3_10 
REMARK    3  A    between atoms: C3_10  and  C4_11 
REMARK    4  A    between atoms: C4_11  and  C5_12 
REMARK    5  A    between atoms: C5_12  and  C6_13 
REMARK    6  A    between atoms: C6_13  and  N4_14 
REMARK    7  A    between atoms: N4_14  and  C7_17 
REMARK    8  A    between atoms: C7_17  and  C8_18 
REMARK    9  A    between atoms: C8_18  and  N5_19 
ROOT
HETATM    1  N4  UNL     1      -8.407  15.380 -16.322  1.00  0.00    -0.074 N 
ATOM      2  H41 UNL     1      -7.848  15.345 -15.469  1.00  0.00     0.277 HD
ATOM      3  H42 UNL     1      -8.872  16.276 -16.174  1.00  0.00     0.277 HD
ENDROOT
BRANCH   1   4
HETATM    4  C6  UNL     1      -9.368  14.288 -16.367  1.00  0.00     0.232 C 
BRANCH   4   5
HETATM    5  C5  UNL     1      -8.751  12.964 -16.066  1.00  0.00     0.028 C 
BRANCH   5   6
HETATM    6  C4  UNL     1      -9.012  11.992 -17.188  1.00  0.00     0.009 C 
BRANCH   6   7
HETATM    7  C3  UNL     1      -9.915  12.528 -18.264  1.00  0.00     0.078 C 
BRANCH   7   8
HETATM    8  C2  UNL     1     -10.370  11.362 -19.088  1.00  0.00     0.112 A 
HETATM    9  N3  UNL     1     -10.955  10.228 -18.667  1.00  0.00    -0.274 N 
HETATM   10  N2  UNL     1     -11.202   9.456 -19.711  1.00  0.00    -0.131 N 
ATOM     11  H3  UNL     1     -11.174   9.999 -17.697  1.00  0.00     0.189 HD
HETATM   12  C1  UNL     1     -10.784  10.064 -20.832  1.00  0.00     0.691 A 
ATOM     13  H2  UNL     1     -11.642   8.536 -19.670  1.00  0.00     0.205 HD
HETATM   14  N9  UNL     1     -10.268  11.255 -20.423  1.00  0.00    -0.178 N 
ATOM     15  H9  UNL     1      -9.863  11.961 -21.038  1.00  0.00     0.185 HD
BRANCH  12  16
HETATM   16  N1  UNL     1     -10.853   9.621 -22.052  1.00  0.00    -0.233 N 
ATOM     17  H12 UNL     1     -11.537   9.883 -22.761  1.00  0.00     0.174 HD
ATOM     18  H11 UNL     1     -10.241   8.943 -22.507  1.00  0.00     0.174 HD
ENDBRANCH  12  16
ENDBRANCH   7   8
ENDBRANCH   6   7
ENDBRANCH   5   6
ENDBRANCH   4   5
ENDBRANCH   1   4
BRANCH   1  19
HETATM   19  C7  UNL     1      -7.569  15.415 -17.493  1.00  0.00     0.252 C 
BRANCH  19  20
HETATM   20  C8  UNL     1      -6.148  15.146 -17.094  1.00  0.00     0.159 C 
BRANCH  20  21
HETATM   21  N5  UNL     1      -5.260  14.859 -18.196  1.00  0.00    -0.326 N 
HETATM   22  C9  UNL     1      -4.240  15.635 -18.643  1.00  0.00     0.185 A 
HETATM   23  N6  UNL     1      -3.624  15.050 -19.679  1.00  0.00    -0.348 N 
HETATM   24  C10 UNL     1      -4.236  13.886 -19.925  1.00  0.00     0.102 A 
ATOM     25  H6  UNL     1      -2.827  15.428 -20.192  1.00  0.00     0.167 HD
HETATM   26  C11 UNL     1      -3.996  12.905 -20.887  1.00  0.00     0.080 A 
HETATM   27  C14 UNL     1      -5.251  13.772 -19.000  1.00  0.00     0.138 A 
HETATM   28  N7  UNL     1      -2.943  13.087 -21.797  1.00  0.00    -0.100 NA
HETATM   29  C12 UNL     1      -4.840  11.819 -20.852  1.00  0.00     0.071 A 
HETATM   30  C13 UNL     1      -5.856  11.722 -19.917  1.00  0.00     0.106 A 
HETATM   31 CL1  UNL     1      -6.893  10.288 -19.947  1.00  0.00    -0.064 Cl
HETATM   32  N8  UNL     1      -6.051  12.689 -19.008  1.00  0.00    -0.331 N 
ATOM     33  H8  UNL     1      -6.803  12.604 -18.324  1.00  0.00     0.168 HD
ENDBRANCH  20  21
ENDBRANCH  19  20
ENDBRANCH   1  19
TORSDOF 9
ENDMDL
MODEL 5
REMARK VINA RESULT: -7.281686630      2.319      4.931
REMARK  9 active torsions:
REMARK  status: ('A' for Active; 'I' for Inactive)
REMARK    1  A    between atoms: N1_1  and  C1_4 
REMARK    2  A    between atoms: C2_9  and  C3_10 
REMARK    3  A    between atoms: C3_10  and  C4_11 
REMARK    4  A    between atoms: C4_11  and  C5_12 
REMARK    5  A    between atoms: C5_12  and  C6_13 
REMARK    6  A    between atoms: C6_13  and  N4_14 
REMARK    7  A    between atoms: N4_14  and  C7_17 
REMARK    8  A    between atoms: C7_17  and  C8_18 
REMARK    9  A    between atoms: C8_18  and  N5_19 
ROOT
HETATM    1  N4  UNL     1      -6.624  15.497 -17.007  1.00  0.00    -0.074 N 
ATOM      2  H41 UNL     1      -6.015  15.747 -16.228  1.00  0.00     0.277 HD
ATOM      3  H42 UNL     1      -6.594  16.375 -17.524  1.00  0.00     0.277 HD
ENDROOT
BRANCH   1   4
HETATM    4  C6  UNL     1      -7.973  15.203 -16.547  1.00  0.00     0.232 C 
BRANCH   4   5
HETATM    5  C5  UNL     1      -8.008  14.136 -15.505  1.00  0.00     0.028 C 
BRANCH   5   6
HETATM    6  C4  UNL     1      -8.845  12.972 -15.967  1.00  0.00     0.009 C 
BRANCH   6   7
HETATM    7  C3  UNL     1      -9.646  13.249 -17.209  1.00  0.00     0.078 C 
BRANCH   7   8
HETATM    8  C2  UNL     1      -9.717  11.972 -17.990  1.00  0.00     0.112 A 
HETATM    9  N3  UNL     1      -8.721  11.112 -18.265  1.00  0.00    -0.274 N 
HETATM   10  N2  UNL     1      -9.202  10.109 -18.978  1.00  0.00    -0.131 N 
ATOM     11  H3  UNL     1      -7.750  11.218 -17.971  1.00  0.00     0.189 HD
HETATM   12  C1  UNL     1     -10.516  10.289 -19.185  1.00  0.00     0.691 A 
ATOM     13  H2  UNL     1      -8.656   9.317 -19.319  1.00  0.00     0.205 HD
HETATM   14  N9  UNL     1     -10.819  11.459 -18.559  1.00  0.00    -0.178 N 
ATOM     15  H9  UNL     1     -11.747  11.883 -18.528  1.00  0.00     0.185 HD
BRANCH  12  16
HETATM   16  N1  UNL     1     -11.332   9.519 -19.840  1.00  0.00    -0.233 N 
ATOM     17  H12 UNL     1     -11.082   8.753 -20.466  1.00  0.00     0.174 HD
ATOM     18  H11 UNL     1     -12.352   9.546 -19.843  1.00  0.00     0.174 HD
ENDBRANCH  12  16
ENDBRANCH   7   8
ENDBRANCH   6   7
ENDBRANCH   5   6
ENDBRANCH   4   5
ENDBRANCH   1   4
BRANCH   1  19
HETATM   19  C7  UNL     1      -6.065  14.417 -17.778  1.00  0.00     0.252 C 
BRANCH  19  20
HETATM   20  C8  UNL     1      -6.033  14.807 -19.227  1.00  0.00     0.159 C 
BRANCH  20  21
HETATM   21  N5  UNL     1      -7.103  14.250 -20.021  1.00  0.00    -0.326 N 
HETATM   22  C9  UNL     1      -8.310  14.817 -20.273  1.00  0.00     0.185 A 
HETATM   23  N6  UNL     1      -9.049  14.020 -21.055  1.00  0.00    -0.348 N 
HETATM   24  C10 UNL     1      -8.335  12.920 -21.324  1.00  0.00     0.102 A 
ATOM     25  H6  UNL     1      -9.993  14.217 -21.389  1.00  0.00     0.167 HD
HETATM   26  C11 UNL     1      -8.639  11.788 -22.079  1.00  0.00     0.080 A 
HETATM   27  C14 UNL     1      -7.127  13.069 -20.679  1.00  0.00     0.138 A 
HETATM   28  N7  UNL     1      -9.890  11.704 -22.710  1.00  0.00    -0.100 NA
HETATM   29  C12 UNL     1      -7.651  10.830 -22.137  1.00  0.00     0.071 A 
HETATM   30  C13 UNL     1      -6.444  10.995 -21.482  1.00  0.00     0.106 A 
HETATM   31 CL1  UNL     1      -5.233   9.711 -21.612  1.00  0.00    -0.064 Cl
HETATM   32  N8  UNL     1      -6.194  12.102 -20.766  1.00  0.00    -0.331 N 
ATOM     33  H8  UNL     1      -5.299  12.211 -20.289  1.00  0.00     0.168 HD
ENDBRANCH  20  21
ENDBRANCH  19  20
ENDBRANCH   1  19
TORSDOF 9
ENDMDL
