MODEL 1
REMARK VINA RESULT: -6.652545625      0.000      0.000
REMARK  18 active torsions:
REMARK  status: ('A' for Active; 'I' for Inactive)
REMARK    1  A    between atoms: C2_2  and  N1_3 
REMARK    2  A    between atoms: C3_6  and  N3_7 
REMARK    3  A    between atoms: C5_11  and  C6_12 
REMARK    4  A    between atoms: N6_18  and  C10_19 
REMARK    5  A    between atoms: C10_19  and  C11_20 
REMARK    6  A    between atoms: C11_20  and  O1_21 
REMARK    7  A    between atoms: C11_20  and  C12_23 
REMARK    8  A    between atoms: C12_23  and  O2_24 
REMARK    9  A    between atoms: O2_24  and  C13_25 
REMARK   10  A    between atoms: C13_25  and  C14_26 
REMARK   11  A    between atoms: C14_26  and  C15_27 
REMARK   12  A    between atoms: C17_29  and  N7_30 
REMARK   13  A    between atoms: N7_30  and  C18_32 
REMARK   14  A    between atoms: C18_32  and  C19_33 
REMARK   15  A    between atoms: C19_33  and  O3_34 
REMARK   16  A    between atoms: O3_34  and  P1_35 
REMARK   17  A    between atoms: P1_35  and  O4_36 
REMARK   18  A    between atoms: P1_35  and  O5_38 
ROOT
HETATM    1  N1  UNL     1     112.734  77.434   6.895  1.00  0.00    -0.206 N 
HETATM    2  N2  UNL     1     114.008  77.234   6.410  1.00  0.00    -0.264 N 
ATOM      3  H2  UNL     1     114.779  77.728   6.861  1.00  0.00     0.190 HD
HETATM    4  C3  UNL     1     114.275  76.475   5.437  1.00  0.00     0.140 A 
HETATM    5  C5  UNL     1     113.212  75.696   4.700  1.00  0.00     0.099 A 
HETATM    6  C17 UNL     1     111.923  75.935   5.219  1.00  0.00     0.135 A 
HETATM    7  N8  UNL     1     111.736  76.765   6.268  1.00  0.00    -0.264 N 
ATOM      8  H8  UNL     1     110.783  76.897   6.609  1.00  0.00     0.190 HD
ENDROOT
BRANCH   5   9
HETATM    9  C6  UNL     1     113.627  75.087   3.638  1.00  0.00     0.125 A 
HETATM   10  N5  UNL     1     113.876  73.645   3.866  1.00  0.00    -0.351 N 
HETATM   11  C7  UNL     1     114.153  72.782   3.006  1.00  0.00     0.091 A 
ATOM     12  H5  UNL     1     113.815  73.320   4.832  1.00  0.00     0.166 HD
HETATM   13  C8  UNL     1     114.262  73.129   1.607  1.00  0.00     0.034 A 
HETATM   14  C9  UNL     1     114.047  74.389   1.315  1.00  0.00     0.094 A 
HETATM   15  N6  UNL     1     113.723  75.407   2.280  1.00  0.00    -0.340 N 
BRANCH  15  16
HETATM   16  C10 UNL     1     113.258  76.652   1.780  1.00  0.00     0.164 C 
BRANCH  16  17
HETATM   17  C11 UNL     1     114.240  77.802   1.817  1.00  0.00     0.160 C 
BRANCH  17  18
HETATM   18  O1  UNL     1     113.841  78.960   2.393  1.00  0.00    -0.392 OA
ATOM     19  H1  UNL     1     114.226  79.769   2.080  1.00  0.00     0.210 HD
ENDBRANCH  17  18
BRANCH  17  20
HETATM   20  C12 UNL     1     115.129  77.838   0.618  1.00  0.00     0.200 C 
BRANCH  20  21
HETATM   21  O2  UNL     1     116.392  77.519   1.052  1.00  0.00    -0.389 OA
BRANCH  21  22
HETATM   22  C13 UNL     1     117.445  78.061   0.383  1.00  0.00     0.167 C 
BRANCH  22  23
HETATM   23  C14 UNL     1     117.121  79.330  -0.372  1.00  0.00     0.026 C 
BRANCH  23  24
HETATM   24  C15 UNL     1     117.770  79.344  -1.748  1.00  0.00    -0.002 C 
HETATM   25  C16 UNL     1     117.095  78.215  -2.540  1.00  0.00     0.005 C 
ENDBRANCH  23  24
ENDBRANCH  22  23
ENDBRANCH  21  22
ENDBRANCH  20  21
ENDBRANCH  17  20
ENDBRANCH  16  17
ENDBRANCH  15  16
ENDBRANCH   5   9
BRANCH   4  26
HETATM   26  N3  UNL     1     115.644  76.375   5.060  1.00  0.00    -0.339 N 
HETATM   27  C4  UNL     1     116.370  77.349   4.697  1.00  0.00     0.191 C 
HETATM   28  N4  UNL     1     115.824  78.652   4.649  1.00  0.00    -0.097 NA
ATOM     29  H3  UNL     1     116.074  75.450   5.082  1.00  0.00     0.167 HD
ENDBRANCH   4  26
BRANCH   6  30
HETATM   30  N7  UNL     1     110.668  75.641   4.674  1.00  0.00    -0.372 N 
ATOM     31  H7  UNL     1     110.574  75.672   3.659  1.00  0.00     0.161 HD
BRANCH  30  32
HETATM   32  C18 UNL     1     109.500  75.299   5.445  1.00  0.00     0.148 C 
BRANCH  32  33
HETATM   33  C19 UNL     1     108.393  76.256   5.556  1.00  0.00     0.197 C 
BRANCH  33  34
HETATM   34  O3  UNL     1     108.612  77.312   6.410  1.00  0.00    -0.316 OA
BRANCH  34  35
HETATM   35  P1  UNL     1     107.263  78.405   6.425  1.00  0.00     0.329 P 
BRANCH  35  36
HETATM   36  O4  UNL     1     107.733  79.851   5.558  1.00  0.00    -0.328 OA
ATOM     37  H4  UNL     1     107.874  79.613   4.649  1.00  0.00     0.219 HD
ENDBRANCH  35  36
BRANCH  35  38
HETATM   38  O5  UNL     1     106.832  78.817   8.065  1.00  0.00    -0.328 OA
ATOM     39  H5  UNL     1     107.028  78.096   8.652  1.00  0.00     0.219 HD
ENDBRANCH  35  38
ENDBRANCH  34  35
ENDBRANCH  33  34
ENDBRANCH  32  33
ENDBRANCH  30  32
ENDBRANCH   6  30
BRANCH   1  40
HETATM   40  C2  UNL     1     112.490  78.315   8.007  1.00  0.00     0.126 C 
HETATM   41  C1  UNL     1     111.289  78.629   8.416  1.00  0.00     0.033 C 
ENDBRANCH   1  40
TORSDOF 18
ENDMDL
MODEL 2
REMARK VINA RESULT: -6.651235200      1.870      4.150
REMARK  18 active torsions:
REMARK  status: ('A' for Active; 'I' for Inactive)
REMARK    1  A    between atoms: C2_2  and  N1_3 
REMARK    2  A    between atoms: C3_6  and  N3_7 
REMARK    3  A    between atoms: C5_11  and  C6_12 
REMARK    4  A    between atoms: N6_18  and  C10_19 
REMARK    5  A    between atoms: C10_19  and  C11_20 
REMARK    6  A    between atoms: C11_20  and  O1_21 
REMARK    7  A    between atoms: C11_20  and  C12_23 
REMARK    8  A    between atoms: C12_23  and  O2_24 
REMARK    9  A    between atoms: O2_24  and  C13_25 
REMARK   10  A    between atoms: C13_25  and  C14_26 
REMARK   11  A    between atoms: C14_26  and  C15_27 
REMARK   12  A    between atoms: C17_29  and  N7_30 
REMARK   13  A    between atoms: N7_30  and  C18_32 
REMARK   14  A    between atoms: C18_32  and  C19_33 
REMARK   15  A    between atoms: C19_33  and  O3_34 
REMARK   16  A    between atoms: O3_34  and  P1_35 
REMARK   17  A    between atoms: P1_35  and  O4_36 
REMARK   18  A    between atoms: P1_35  and  O5_38 
ROOT
HETATM    1  N1  UNL     1     111.170  74.376   4.237  1.00  0.00    -0.206 N 
HETATM    2  N2  UNL     1     112.363  74.234   3.562  1.00  0.00    -0.264 N 
ATOM      3  H2  UNL     1     112.511  73.384   3.017  1.00  0.00     0.190 HD
HETATM    4  C3  UNL     1     113.284  75.098   3.582  1.00  0.00     0.140 A 
HETATM    5  C5  UNL     1     113.169  76.390   4.353  1.00  0.00     0.099 A 
HETATM    6  C17 UNL     1     111.939  76.493   5.036  1.00  0.00     0.135 A 
HETATM    7  N8  UNL     1     111.011  75.515   4.953  1.00  0.00    -0.264 N 
ATOM      8  H8  UNL     1     110.135  75.643   5.460  1.00  0.00     0.190 HD
ENDROOT
BRANCH   5   9
HETATM    9  C6  UNL     1     114.252  77.093   4.394  1.00  0.00     0.125 A 
HETATM   10  N5  UNL     1     115.207  76.614   5.419  1.00  0.00    -0.351 N 
HETATM   11  C7  UNL     1     116.380  77.007   5.601  1.00  0.00     0.091 A 
ATOM     12  H5  UNL     1     114.871  75.883   6.047  1.00  0.00     0.166 HD
HETATM   13  C8  UNL     1     116.960  78.036   4.768  1.00  0.00     0.034 A 
HETATM   14  C9  UNL     1     116.183  78.512   3.826  1.00  0.00     0.094 A 
HETATM   15  N6  UNL     1     114.830  78.080   3.587  1.00  0.00    -0.340 N 
BRANCH  15  16
HETATM   16  C10 UNL     1     114.221  78.492   2.373  1.00  0.00     0.164 C 
BRANCH  16  17
HETATM   17  C11 UNL     1     114.769  77.882   1.103  1.00  0.00     0.160 C 
BRANCH  17  18
HETATM   18  O1  UNL     1     115.829  78.483   0.516  1.00  0.00    -0.392 OA
ATOM     19  H1  UNL     1     115.696  79.335   0.118  1.00  0.00     0.210 HD
ENDBRANCH  17  18
BRANCH  17  20
HETATM   20  C12 UNL     1     113.706  77.263   0.258  1.00  0.00     0.200 C 
BRANCH  20  21
HETATM   21  O2  UNL     1     114.001  75.925   0.169  1.00  0.00    -0.389 OA
BRANCH  21  22
HETATM   22  C13 UNL     1     114.435  75.452  -1.031  1.00  0.00     0.167 C 
BRANCH  22  23
HETATM   23  C14 UNL     1     115.112  74.102  -0.964  1.00  0.00     0.026 C 
BRANCH  23  24
HETATM   24  C15 UNL     1     114.100  72.967  -0.993  1.00  0.00    -0.002 C 
HETATM   25  C16 UNL     1     114.842  71.733  -0.457  1.00  0.00     0.005 C 
ENDBRANCH  23  24
ENDBRANCH  22  23
ENDBRANCH  21  22
ENDBRANCH  20  21
ENDBRANCH  17  20
ENDBRANCH  16  17
ENDBRANCH  15  16
ENDBRANCH   5   9
BRANCH   4  26
HETATM   26  N3  UNL     1     114.456  74.801   2.829  1.00  0.00    -0.339 N 
HETATM   27  C4  UNL     1     114.984  73.652   2.730  1.00  0.00     0.191 C 
HETATM   28  N4  UNL     1     114.402  72.552   3.399  1.00  0.00    -0.097 NA
ATOM     29  H3  UNL     1     114.904  75.570   2.331  1.00  0.00     0.167 HD
ENDBRANCH   4  26
BRANCH   6  30
HETATM   30  N7  UNL     1     111.550  77.370   6.054  1.00  0.00    -0.372 N 
ATOM     31  H7  UNL     1     112.195  78.119   6.306  1.00  0.00     0.161 HD
BRANCH  30  32
HETATM   32  C18 UNL     1     110.302  77.291   6.771  1.00  0.00     0.148 C 
BRANCH  32  33
HETATM   33  C19 UNL     1     110.078  78.149   7.940  1.00  0.00     0.197 C 
BRANCH  33  34
HETATM   34  O3  UNL     1     109.277  79.245   7.721  1.00  0.00    -0.316 OA
BRANCH  34  35
HETATM   35  P1  UNL     1     107.779  78.796   6.969  1.00  0.00     0.329 P 
BRANCH  35  36
HETATM   36  O4  UNL     1     107.625  79.714   5.486  1.00  0.00    -0.328 OA
ATOM     37  H4  UNL     1     106.777  80.142   5.495  1.00  0.00     0.219 HD
ENDBRANCH  35  36
BRANCH  35  38
HETATM   38  O5  UNL     1     106.435  79.154   8.024  1.00  0.00    -0.328 OA
ATOM     39  H5  UNL     1     106.150  78.369   8.477  1.00  0.00     0.219 HD
ENDBRANCH  35  38
ENDBRANCH  34  35
ENDBRANCH  33  34
ENDBRANCH  32  33
ENDBRANCH  30  32
ENDBRANCH   6  30
BRANCH   1  40
HETATM   40  C2  UNL     1     110.156  73.356   4.179  1.00  0.00     0.126 C 
HETATM   41  C1  UNL     1     110.177  72.377   3.314  1.00  0.00     0.033 C 
ENDBRANCH   1  40
TORSDOF 18
ENDMDL
MODEL 3
REMARK VINA RESULT: -6.644466767      1.507      3.635
REMARK  18 active torsions:
REMARK  status: ('A' for Active; 'I' for Inactive)
REMARK    1  A    between atoms: C2_2  and  N1_3 
REMARK    2  A    between atoms: C3_6  and  N3_7 
REMARK    3  A    between atoms: C5_11  and  C6_12 
REMARK    4  A    between atoms: N6_18  and  C10_19 
REMARK    5  A    between atoms: C10_19  and  C11_20 
REMARK    6  A    between atoms: C11_20  and  O1_21 
REMARK    7  A    between atoms: C11_20  and  C12_23 
REMARK    8  A    between atoms: C12_23  and  O2_24 
REMARK    9  A    between atoms: O2_24  and  C13_25 
REMARK   10  A    between atoms: C13_25  and  C14_26 
REMARK   11  A    between atoms: C14_26  and  C15_27 
REMARK   12  A    between atoms: C17_29  and  N7_30 
REMARK   13  A    between atoms: N7_30  and  C18_32 
REMARK   14  A    between atoms: C18_32  and  C19_33 
REMARK   15  A    between atoms: C19_33  and  O3_34 
REMARK   16  A    between atoms: O3_34  and  P1_35 
REMARK   17  A    between atoms: P1_35  and  O4_36 
REMARK   18  A    between atoms: P1_35  and  O5_38 
ROOT
HETATM    1  N1  UNL     1     111.326  74.543   4.394  1.00  0.00    -0.206 N 
HETATM    2  N2  UNL     1     112.590  74.221   3.950  1.00  0.00    -0.264 N 
ATOM      3  H2  UNL     1     112.743  73.287   3.569  1.00  0.00     0.190 HD
HETATM    4  C3  UNL     1     113.569  75.017   3.989  1.00  0.00     0.140 A 
HETATM    5  C5  UNL     1     113.452  76.421   4.530  1.00  0.00     0.099 A 
HETATM    6  C17 UNL     1     112.148  76.709   4.983  1.00  0.00     0.135 A 
HETATM    7  N8  UNL     1     111.161  75.791   4.897  1.00  0.00    -0.264 N 
ATOM      8  H8  UNL     1     110.234  76.054   5.231  1.00  0.00     0.190 HD
ENDROOT
BRANCH   5   9
HETATM    9  C6  UNL     1     114.574  77.053   4.641  1.00  0.00     0.125 A 
HETATM   10  N5  UNL     1     115.120  77.013   6.017  1.00  0.00    -0.351 N 
HETATM   11  C7  UNL     1     116.241  77.417   6.396  1.00  0.00     0.091 A 
ATOM     12  H5  UNL     1     114.516  76.612   6.734  1.00  0.00     0.166 HD
HETATM   13  C8  UNL     1     117.180  77.999   5.464  1.00  0.00     0.034 A 
HETATM   14  C9  UNL     1     116.779  78.066   4.218  1.00  0.00     0.094 A 
HETATM   15  N6  UNL     1     115.498  77.607   3.747  1.00  0.00    -0.340 N 
BRANCH  15  16
HETATM   16  C10 UNL     1     115.322  77.500   2.342  1.00  0.00     0.164 C 
BRANCH  16  17
HETATM   17  C11 UNL     1     114.276  78.401   1.724  1.00  0.00     0.160 C 
BRANCH  17  18
HETATM   18  O1  UNL     1     113.645  79.287   2.529  1.00  0.00    -0.392 OA
ATOM     19  H1  UNL     1     114.150  80.013   2.876  1.00  0.00     0.210 HD
ENDBRANCH  17  18
BRANCH  17  20
HETATM   20  C12 UNL     1     113.524  77.735   0.620  1.00  0.00     0.200 C 
BRANCH  20  21
HETATM   21  O2  UNL     1     114.107  76.508   0.428  1.00  0.00    -0.389 OA
BRANCH  21  22
HETATM   22  C13 UNL     1     114.291  76.090  -0.854  1.00  0.00     0.167 C 
BRANCH  22  23
HETATM   23  C14 UNL     1     115.160  77.000  -1.690  1.00  0.00     0.026 C 
BRANCH  23  24
HETATM   24  C15 UNL     1     116.606  76.987  -1.216  1.00  0.00    -0.002 C 
HETATM   25  C16 UNL     1     116.968  78.454  -0.940  1.00  0.00     0.005 C 
ENDBRANCH  23  24
ENDBRANCH  22  23
ENDBRANCH  21  22
ENDBRANCH  20  21
ENDBRANCH  17  20
ENDBRANCH  16  17
ENDBRANCH  15  16
ENDBRANCH   5   9
BRANCH   4  26
HETATM   26  N3  UNL     1     114.810  74.530   3.489  1.00  0.00    -0.339 N 
HETATM   27  C4  UNL     1     114.942  73.796   2.463  1.00  0.00     0.191 C 
HETATM   28  N4  UNL     1     113.800  73.407   1.727  1.00  0.00    -0.097 NA
ATOM     29  H3  UNL     1     115.658  74.792   3.993  1.00  0.00     0.167 HD
ENDBRANCH   4  26
BRANCH   6  30
HETATM   30  N7  UNL     1     111.688  77.761   5.782  1.00  0.00    -0.372 N 
ATOM     31  H7  UNL     1     111.763  78.708   5.408  1.00  0.00     0.161 HD
BRANCH  30  32
HETATM   32  C18 UNL     1     111.115  77.604   7.095  1.00  0.00     0.148 C 
BRANCH  32  33
HETATM   33  C19 UNL     1     109.725  78.010   7.337  1.00  0.00     0.197 C 
BRANCH  33  34
HETATM   34  O3  UNL     1     108.795  77.464   6.484  1.00  0.00    -0.316 OA
BRANCH  34  35
HETATM   35  P1  UNL     1     107.342  78.413   6.440  1.00  0.00     0.329 P 
BRANCH  35  36
HETATM   36  O4  UNL     1     107.685  79.880   5.548  1.00  0.00    -0.328 OA
ATOM     37  H4  UNL     1     107.116  80.564   5.883  1.00  0.00     0.219 HD
ENDBRANCH  35  36
BRANCH  35  38
HETATM   38  O5  UNL     1     106.828  78.815   8.058  1.00  0.00    -0.328 OA
ATOM     39  H5  UNL     1     106.840  79.757   8.186  1.00  0.00     0.219 HD
ENDBRANCH  35  38
ENDBRANCH  34  35
ENDBRANCH  33  34
ENDBRANCH  32  33
ENDBRANCH  30  32
ENDBRANCH   6  30
BRANCH   1  40
HETATM   40  C2  UNL     1     110.247  73.593   4.326  1.00  0.00     0.126 C 
HETATM   41  C1  UNL     1     110.275  72.537   3.558  1.00  0.00     0.033 C 
ENDBRANCH   1  40
TORSDOF 18
ENDMDL
MODEL 4
REMARK VINA RESULT: -6.537463954      3.442      5.841
REMARK  18 active torsions:
REMARK  status: ('A' for Active; 'I' for Inactive)
REMARK    1  A    between atoms: C2_2  and  N1_3 
REMARK    2  A    between atoms: C3_6  and  N3_7 
REMARK    3  A    between atoms: C5_11  and  C6_12 
REMARK    4  A    between atoms: N6_18  and  C10_19 
REMARK    5  A    between atoms: C10_19  and  C11_20 
REMARK    6  A    between atoms: C11_20  and  O1_21 
REMARK    7  A    between atoms: C11_20  and  C12_23 
REMARK    8  A    between atoms: C12_23  and  O2_24 
REMARK    9  A    between atoms: O2_24  and  C13_25 
REMARK   10  A    between atoms: C13_25  and  C14_26 
REMARK   11  A    between atoms: C14_26  and  C15_27 
REMARK   12  A    between atoms: C17_29  and  N7_30 
REMARK   13  A    between atoms: N7_30  and  C18_32 
REMARK   14  A    between atoms: C18_32  and  C19_33 
REMARK   15  A    between atoms: C19_33  and  O3_34 
REMARK   16  A    between atoms: O3_34  and  P1_35 
REMARK   17  A    between atoms: P1_35  and  O4_36 
REMARK   18  A    between atoms: P1_35  and  O5_38 
ROOT
HETATM    1  N1  UNL     1     111.712  73.941   3.874  1.00  0.00    -0.206 N 
HETATM    2  N2  UNL     1     111.612  75.219   4.382  1.00  0.00    -0.264 N 
ATOM      3  H2  UNL     1     110.689  75.560   4.648  1.00  0.00     0.190 HD
HETATM    4  C3  UNL     1     112.600  75.989   4.535  1.00  0.00     0.140 A 
HETATM    5  C5  UNL     1     114.010  75.584   4.176  1.00  0.00     0.099 A 
HETATM    6  C17 UNL     1     114.069  74.276   3.652  1.00  0.00     0.135 A 
HETATM    7  N8  UNL     1     112.955  73.523   3.528  1.00  0.00    -0.264 N 
ATOM      8  H8  UNL     1     113.054  72.581   3.151  1.00  0.00     0.190 HD
ENDROOT
BRANCH   5   9
HETATM    9  C6  UNL     1     114.881  76.536   4.250  1.00  0.00     0.125 A 
HETATM   10  N5  UNL     1     115.486  76.655   5.597  1.00  0.00    -0.351 N 
HETATM   11  C7  UNL     1     116.442  77.387   5.932  1.00  0.00     0.091 A 
ATOM     12  H5  UNL     1     115.078  76.075   6.331  1.00  0.00     0.166 HD
HETATM   13  C8  UNL     1     117.098  78.246   4.973  1.00  0.00     0.034 A 
HETATM   14  C9  UNL     1     116.629  78.196   3.750  1.00  0.00     0.094 A 
HETATM   15  N6  UNL     1     115.533  77.363   3.329  1.00  0.00    -0.340 N 
BRANCH  15  16
HETATM   16  C10 UNL     1     115.323  77.221   1.932  1.00  0.00     0.164 C 
BRANCH  16  17
HETATM   17  C11 UNL     1     114.277  78.122   1.314  1.00  0.00     0.160 C 
BRANCH  17  18
HETATM   18  O1  UNL     1     113.645  79.007   2.119  1.00  0.00    -0.392 OA
ATOM     19  H1  UNL     1     112.702  79.086   2.042  1.00  0.00     0.210 HD
ENDBRANCH  17  18
BRANCH  17  20
HETATM   20  C12 UNL     1     113.525  77.456   0.209  1.00  0.00     0.200 C 
BRANCH  20  21
HETATM   21  O2  UNL     1     114.377  76.536  -0.350  1.00  0.00    -0.389 OA
BRANCH  21  22
HETATM   22  C13 UNL     1     114.814  76.769  -1.618  1.00  0.00     0.167 C 
BRANCH  22  23
HETATM   23  C14 UNL     1     116.317  76.765  -1.772  1.00  0.00     0.026 C 
BRANCH  23  24
HETATM   24  C15 UNL     1     116.841  78.130  -2.193  1.00  0.00    -0.002 C 
HETATM   25  C16 UNL     1     117.200  78.859  -0.890  1.00  0.00     0.005 C 
ENDBRANCH  23  24
ENDBRANCH  22  23
ENDBRANCH  21  22
ENDBRANCH  20  21
ENDBRANCH  17  20
ENDBRANCH  16  17
ENDBRANCH  15  16
ENDBRANCH   5   9
BRANCH   4  26
HETATM   26  N3  UNL     1     112.328  77.279   5.075  1.00  0.00    -0.339 N 
HETATM   27  C4  UNL     1     111.825  77.496   6.218  1.00  0.00     0.191 C 
HETATM   28  N4  UNL     1     111.494  76.408   7.057  1.00  0.00    -0.097 NA
ATOM     29  H3  UNL     1     112.555  78.089   4.498  1.00  0.00     0.167 HD
ENDBRANCH   4  26
BRANCH   6  30
HETATM   30  N7  UNL     1     115.101  73.633   2.962  1.00  0.00    -0.372 N 
ATOM     31  H7  UNL     1     115.887  74.202   2.647  1.00  0.00     0.161 HD
BRANCH  30  32
HETATM   32  C18 UNL     1     115.134  72.223   2.664  1.00  0.00     0.148 C 
BRANCH  32  33
HETATM   33  C19 UNL     1     115.703  71.760   1.392  1.00  0.00     0.197 C 
BRANCH  33  34
HETATM   34  O3  UNL     1     114.785  71.416   0.428  1.00  0.00    -0.316 OA
BRANCH  34  35
HETATM   35  P1  UNL     1     114.419  72.760  -0.608  1.00  0.00     0.329 P 
BRANCH  35  36
HETATM   36  O4  UNL     1     113.491  73.917   0.321  1.00  0.00    -0.328 OA
ATOM     37  H4  UNL     1     114.057  74.655   0.515  1.00  0.00     0.219 HD
ENDBRANCH  35  36
BRANCH  35  38
HETATM   38  O5  UNL     1     113.487  72.231  -1.986  1.00  0.00    -0.328 OA
ATOM     39  H5  UNL     1     112.570  72.447  -1.869  1.00  0.00     0.219 HD
ENDBRANCH  35  38
ENDBRANCH  34  35
ENDBRANCH  33  34
ENDBRANCH  32  33
ENDBRANCH  30  32
ENDBRANCH   6  30
BRANCH   1  40
HETATM   40  C2  UNL     1     110.550  73.107   3.720  1.00  0.00     0.126 C 
HETATM   41  C1  UNL     1     110.263  72.483   2.609  1.00  0.00     0.033 C 
ENDBRANCH   1  40
TORSDOF 18
ENDMDL
MODEL 5
REMARK VINA RESULT: -6.397173565      4.030      5.844
REMARK  18 active torsions:
REMARK  status: ('A' for Active; 'I' for Inactive)
REMARK    1  A    between atoms: C2_2  and  N1_3 
REMARK    2  A    between atoms: C3_6  and  N3_7 
REMARK    3  A    between atoms: C5_11  and  C6_12 
REMARK    4  A    between atoms: N6_18  and  C10_19 
REMARK    5  A    between atoms: C10_19  and  C11_20 
REMARK    6  A    between atoms: C11_20  and  O1_21 
REMARK    7  A    between atoms: C11_20  and  C12_23 
REMARK    8  A    between atoms: C12_23  and  O2_24 
REMARK    9  A    between atoms: O2_24  and  C13_25 
REMARK   10  A    between atoms: C13_25  and  C14_26 
REMARK   11  A    between atoms: C14_26  and  C15_27 
REMARK   12  A    between atoms: C17_29  and  N7_30 
REMARK   13  A    between atoms: N7_30  and  C18_32 
REMARK   14  A    between atoms: C18_32  and  C19_33 
REMARK   15  A    between atoms: C19_33  and  O3_34 
REMARK   16  A    between atoms: O3_34  and  P1_35 
REMARK   17  A    between atoms: P1_35  and  O4_36 
REMARK   18  A    between atoms: P1_35  and  O5_38 
ROOT
HETATM    1  N1  UNL     1     111.365  74.126   4.155  1.00  0.00    -0.206 N 
HETATM    2  N2  UNL     1     111.276  75.373   4.736  1.00  0.00    -0.264 N 
ATOM      3  H2  UNL     1     110.364  75.686   5.069  1.00  0.00     0.190 HD
HETATM    4  C3  UNL     1     112.262  76.148   4.879  1.00  0.00     0.140 A 
HETATM    5  C5  UNL     1     113.655  75.784   4.425  1.00  0.00     0.099 A 
HETATM    6  C17 UNL     1     113.702  74.508   3.827  1.00  0.00     0.135 A 
HETATM    7  N8  UNL     1     112.591  73.746   3.722  1.00  0.00    -0.264 N 
ATOM      8  H8  UNL     1     112.682  72.826   3.289  1.00  0.00     0.190 HD
ENDROOT
BRANCH   5   9
HETATM    9  C6  UNL     1     114.517  76.743   4.504  1.00  0.00     0.125 A 
HETATM   10  N5  UNL     1     115.360  76.657   5.719  1.00  0.00    -0.351 N 
HETATM   11  C7  UNL     1     116.355  77.359   5.998  1.00  0.00     0.091 A 
ATOM     12  H5  UNL     1     115.099  75.946   6.403  1.00  0.00     0.166 HD
HETATM   13  C8  UNL     1     116.817  78.393   5.099  1.00  0.00     0.034 A 
HETATM   14  C9  UNL     1     116.130  78.532   3.992  1.00  0.00     0.094 A 
HETATM   15  N6  UNL     1     114.982  77.739   3.637  1.00  0.00    -0.340 N 
BRANCH  15  16
HETATM   16  C10 UNL     1     114.519  77.828   2.298  1.00  0.00     0.164 C 
BRANCH  16  17
HETATM   17  C11 UNL     1     115.351  77.124   1.250  1.00  0.00     0.160 C 
BRANCH  17  18
HETATM   18  O1  UNL     1     116.074  76.045   1.632  1.00  0.00    -0.392 OA
ATOM     19  H1  UNL     1     117.002  76.164   1.793  1.00  0.00     0.210 HD
ENDBRANCH  17  18
BRANCH  17  20
HETATM   20  C12 UNL     1     115.903  78.062   0.229  1.00  0.00     0.200 C 
BRANCH  20  21
HETATM   21  O2  UNL     1     115.945  77.375  -0.958  1.00  0.00    -0.389 OA
BRANCH  21  22
HETATM   22  C13 UNL     1     116.846  77.782  -1.893  1.00  0.00     0.167 C 
BRANCH  22  23
HETATM   23  C14 UNL     1     117.447  79.143  -1.631  1.00  0.00     0.026 C 
BRANCH  23  24
HETATM   24  C15 UNL     1     117.703  79.902  -2.925  1.00  0.00    -0.002 C 
HETATM   25  C16 UNL     1     116.981  79.108  -4.024  1.00  0.00     0.005 C 
ENDBRANCH  23  24
ENDBRANCH  22  23
ENDBRANCH  21  22
ENDBRANCH  20  21
ENDBRANCH  17  20
ENDBRANCH  16  17
ENDBRANCH  15  16
ENDBRANCH   5   9
BRANCH   4  26
HETATM   26  N3  UNL     1     112.004  77.403   5.502  1.00  0.00    -0.339 N 
HETATM   27  C4  UNL     1     111.747  77.563   6.733  1.00  0.00     0.191 C 
HETATM   28  N4  UNL     1     111.703  76.442   7.593  1.00  0.00    -0.097 NA
ATOM     29  H3  UNL     1     112.028  78.236   4.913  1.00  0.00     0.167 HD
ENDBRANCH   4  26
BRANCH   6  30
HETATM   30  N7  UNL     1     114.703  73.918   3.049  1.00  0.00    -0.372 N 
ATOM     31  H7  UNL     1     115.582  74.425   2.944  1.00  0.00     0.161 HD
BRANCH  30  32
HETATM   32  C18 UNL     1     114.582  72.644   2.385  1.00  0.00     0.148 C 
BRANCH  32  33
HETATM   33  C19 UNL     1     114.444  72.594   0.925  1.00  0.00     0.197 C 
BRANCH  33  34
HETATM   34  O3  UNL     1     114.427  73.815   0.293  1.00  0.00    -0.316 OA
BRANCH  34  35
HETATM   35  P1  UNL     1     115.424  73.808  -1.127  1.00  0.00     0.329 P 
BRANCH  35  36
HETATM   36  O4  UNL     1     116.985  74.471  -0.691  1.00  0.00    -0.328 OA
ATOM     37  H4  UNL     1     117.297  74.988  -1.425  1.00  0.00     0.219 HD
ENDBRANCH  35  36
BRANCH  35  38
HETATM   38  O5  UNL     1     114.703  74.782  -2.383  1.00  0.00    -0.328 OA
ATOM     39  H5  UNL     1     114.850  74.388  -3.235  1.00  0.00     0.219 HD
ENDBRANCH  35  38
ENDBRANCH  34  35
ENDBRANCH  33  34
ENDBRANCH  32  33
ENDBRANCH  30  32
ENDBRANCH   6  30
BRANCH   1  40
HETATM   40  C2  UNL     1     110.205  73.285   4.018  1.00  0.00     0.126 C 
HETATM   41  C1  UNL     1     110.175  72.234   3.241  1.00  0.00     0.033 C 
ENDBRANCH   1  40
TORSDOF 18
ENDMDL
