MODEL 1
REMARK VINA RESULT: -8.572486207      0.000      0.000
REMARK  15 active torsions:
REMARK  status: ('A' for Active; 'I' for Inactive)
REMARK    1  A    between atoms: C2_2  and  C4_4 
REMARK    2  A    between atoms: N1_6  and  C6_7 
REMARK    3  A    between atoms: C6_7  and  O1_8 
REMARK    4  A    between atoms: C6_7  and  N2_10 
REMARK    5  A    between atoms: C9_13  and  C11_15 
REMARK    6  A    between atoms: C11_15  and  C12_16 
REMARK    7  A    between atoms: C12_16  and  N3_17 
REMARK    8  A    between atoms: N3_17  and  C13_19 
REMARK    9  A    between atoms: C16_22  and  N4_23 
REMARK   10  A    between atoms: N4_23  and  N5_25 
REMARK   11  A    between atoms: N5_25  and  C17_26 
REMARK   12  A    between atoms: C17_26  and  C18_27 
REMARK   13  A    between atoms: C18_27  and  P1_28 
REMARK   14  A    between atoms: P1_28  and  O2_29 
REMARK   15  A    between atoms: P1_28  and  O3_31 
ROOT
HETATM    1  C12 UNL     1     111.929  79.691  12.010  1.00  0.00     0.126 C 
ENDROOT
BRANCH   1   2
HETATM    2  C11 UNL     1     113.398  79.995  12.223  1.00  0.00     0.081 C 
BRANCH   2   3
HETATM    3  C9  UNL     1     113.655  81.372  12.771  1.00  0.00     0.147 C 
HETATM    4  N1  UNL     1     114.379  82.256  11.832  1.00  0.00    -0.313 N 
HETATM    5  C5  UNL     1     113.832  83.389  11.148  1.00  0.00     0.155 C 
HETATM    6  C4  UNL     1     113.715  84.618  12.019  1.00  0.00     0.108 C 
HETATM    7  N8  UNL     1     112.619  84.398  12.939  1.00  0.00    -0.330 N 
HETATM    8  C19 UNL     1     111.954  83.210  13.258  1.00  0.00     0.363 C 
ATOM      9  H8  UNL     1     112.284  85.230  13.424  1.00  0.00     0.165 HD
HETATM   10  O4  UNL     1     112.364  81.914  13.032  1.00  0.00    -0.272 OA
HETATM   11  O5  UNL     1     110.829  83.351  13.828  1.00  0.00    -0.238 OA
HETATM   12  C10 UNL     1     114.359  81.244  14.087  1.00  0.00     0.072 C 
BRANCH   4  13
HETATM   13  C6  UNL     1     115.699  81.932  11.645  1.00  0.00     0.218 C 
BRANCH  13  14
HETATM   14  O1  UNL     1     115.941  81.444  10.432  1.00  0.00    -0.332 OA
ATOM     15  H1  UNL     1     115.415  80.679  10.233  1.00  0.00     0.220 HD
ENDBRANCH  13  14
BRANCH  13  16
HETATM   16  N2  UNL     1     116.874  81.973  12.382  1.00  0.00    -0.356 N 
HETATM   17  C7  UNL     1     117.686  80.715  12.526  1.00  0.00     0.152 C 
HETATM   18  C8  UNL     1     117.437  83.084  13.055  1.00  0.00     0.152 C 
ENDBRANCH  13  16
ENDBRANCH   4  13
BRANCH   6  19
HETATM   19  C2  UNL     1     113.388  85.779  11.083  1.00  0.00     0.002 C 
HETATM   20  C1  UNL     1     112.010  85.618  10.522  1.00  0.00     0.011 C 
HETATM   21  C3  UNL     1     114.450  85.971  10.048  1.00  0.00     0.011 C 
ENDBRANCH   6  19
ENDBRANCH   2   3
ENDBRANCH   1   2
BRANCH   1  22
HETATM   22  N3  UNL     1     111.394  80.211  10.784  1.00  0.00    -0.375 N 
ATOM     23  H3  UNL     1     111.161  81.204  10.752  1.00  0.00     0.161 HD
BRANCH  22  24
HETATM   24  C13 UNL     1     111.165  79.439   9.604  1.00  0.00     0.115 A 
HETATM   25  C14 UNL     1     112.192  78.842   8.912  1.00  0.00     0.053 A 
HETATM   26  C15 UNL     1     111.890  78.089   7.788  1.00  0.00     0.054 A 
HETATM   27  C16 UNL     1     110.595  77.946   7.378  1.00  0.00     0.131 A 
HETATM   28  N6  UNL     1     109.637  78.551   8.092  1.00  0.00    -0.283 N 
HETATM   29  N7  UNL     1     109.910  79.259   9.149  1.00  0.00    -0.284 N 
ATOM     30  H6  UNL     1     108.665  78.455   7.798  1.00  0.00     0.188 HD
ATOM     31  H7  UNL     1     109.140  79.697   9.655  1.00  0.00     0.188 HD
BRANCH  27  32
HETATM   32  N4  UNL     1     110.252  77.176   6.223  1.00  0.00    -0.288 N 
ATOM     33  H4  UNL     1     109.583  77.544   5.545  1.00  0.00     0.184 HD
BRANCH  32  34
HETATM   34  N5  UNL     1     110.823  75.934   6.021  1.00  0.00    -0.139 NA
BRANCH  34  35
HETATM   35  C17 UNL     1     111.751  75.925   4.903  1.00  0.00     0.144 C 
BRANCH  35  36
HETATM   36  C18 UNL     1     112.339  74.555   4.707  1.00  0.00     0.111 C 
BRANCH  36  37
HETATM   37  P1  UNL     1     111.035  73.376   4.123  1.00  0.00     0.164 P 
BRANCH  37  38
HETATM   38  O2  UNL     1     109.587  73.524   5.049  1.00  0.00    -0.350 OA
ATOM     39  H2  UNL     1     108.992  72.802   4.883  1.00  0.00     0.217 HD
ENDBRANCH  37  38
BRANCH  37  40
HETATM   40  O3  UNL     1     110.690  73.695   2.441  1.00  0.00    -0.350 OA
ATOM     41  H3  UNL     1     111.496  73.940   2.001  1.00  0.00     0.217 HD
ENDBRANCH  37  40
ENDBRANCH  36  37
ENDBRANCH  35  36
ENDBRANCH  34  35
ENDBRANCH  32  34
ENDBRANCH  27  32
ENDBRANCH  22  24
ENDBRANCH   1  22
TORSDOF 15
ENDMDL
MODEL 2
REMARK VINA RESULT: -8.358391434      4.615     10.594
REMARK  15 active torsions:
REMARK  status: ('A' for Active; 'I' for Inactive)
REMARK    1  A    between atoms: C2_2  and  C4_4 
REMARK    2  A    between atoms: N1_6  and  C6_7 
REMARK    3  A    between atoms: C6_7  and  O1_8 
REMARK    4  A    between atoms: C6_7  and  N2_10 
REMARK    5  A    between atoms: C9_13  and  C11_15 
REMARK    6  A    between atoms: C11_15  and  C12_16 
REMARK    7  A    between atoms: C12_16  and  N3_17 
REMARK    8  A    between atoms: N3_17  and  C13_19 
REMARK    9  A    between atoms: C16_22  and  N4_23 
REMARK   10  A    between atoms: N4_23  and  N5_25 
REMARK   11  A    between atoms: N5_25  and  C17_26 
REMARK   12  A    between atoms: C17_26  and  C18_27 
REMARK   13  A    between atoms: C18_27  and  P1_28 
REMARK   14  A    between atoms: P1_28  and  O2_29 
REMARK   15  A    between atoms: P1_28  and  O3_31 
ROOT
HETATM    1  C12 UNL     1     110.224  73.820   4.480  1.00  0.00     0.126 C 
ENDROOT
BRANCH   1   2
HETATM    2  C11 UNL     1     111.085  73.786   3.235  1.00  0.00     0.081 C 
BRANCH   2   3
HETATM    3  C9  UNL     1     112.505  74.221   3.472  1.00  0.00     0.147 C 
HETATM    4  N1  UNL     1     113.261  74.477   2.227  1.00  0.00    -0.313 N 
HETATM    5  C5  UNL     1     113.685  75.757   1.744  1.00  0.00     0.155 C 
HETATM    6  C4  UNL     1     114.911  76.289   2.450  1.00  0.00     0.108 C 
HETATM    7  N8  UNL     1     114.505  76.705   3.776  1.00  0.00    -0.330 N 
HETATM    8  C19 UNL     1     113.326  76.419   4.473  1.00  0.00     0.363 C 
ATOM      9  H8  UNL     1     115.175  77.290   4.274  1.00  0.00     0.165 HD
HETATM   10  O4  UNL     1     112.402  75.428   4.220  1.00  0.00    -0.272 OA
HETATM   11  O5  UNL     1     113.082  77.174   5.463  1.00  0.00    -0.238 OA
HETATM   12  C10 UNL     1     113.179  73.210   4.348  1.00  0.00     0.072 C 
BRANCH   4  13
HETATM   13  C6  UNL     1     113.579  73.351   1.510  1.00  0.00     0.218 C 
BRANCH  13  14
HETATM   14  O1  UNL     1     112.541  72.857   0.842  1.00  0.00    -0.332 OA
ATOM     15  H1  UNL     1     112.800  72.371   0.068  1.00  0.00     0.220 HD
ENDBRANCH  13  14
BRANCH  13  16
HETATM   16  N2  UNL     1     114.703  72.570   1.283  1.00  0.00    -0.356 N 
HETATM   17  C7  UNL     1     114.761  71.723   0.041  1.00  0.00     0.152 C 
HETATM   18  C8  UNL     1     115.853  72.447   2.100  1.00  0.00     0.152 C 
ENDBRANCH  13  16
ENDBRANCH   4  13
BRANCH   6  19
HETATM   19  C2  UNL     1     115.381  77.497   1.644  1.00  0.00     0.002 C 
HETATM   20  C1  UNL     1     114.291  78.519   1.563  1.00  0.00     0.011 C 
HETATM   21  C3  UNL     1     115.940  77.093   0.317  1.00  0.00     0.011 C 
ENDBRANCH   6  19
ENDBRANCH   2   3
ENDBRANCH   1   2
BRANCH   1  22
HETATM   22  N3  UNL     1     109.168  74.793   4.437  1.00  0.00    -0.375 N 
ATOM     23  H3  UNL     1     108.422  74.651   3.756  1.00  0.00     0.161 HD
BRANCH  22  24
HETATM   24  C13 UNL     1     109.088  75.944   5.279  1.00  0.00     0.115 A 
HETATM   25  C14 UNL     1     107.892  76.566   5.551  1.00  0.00     0.053 A 
HETATM   26  C15 UNL     1     107.889  77.665   6.396  1.00  0.00     0.054 A 
HETATM   27  C16 UNL     1     109.054  78.120   6.944  1.00  0.00     0.131 A 
HETATM   28  N6  UNL     1     110.188  77.474   6.642  1.00  0.00    -0.283 N 
HETATM   29  N7  UNL     1     110.201  76.440   5.851  1.00  0.00    -0.284 N 
ATOM     30  H6  UNL     1     111.067  77.801   7.043  1.00  0.00     0.188 HD
ATOM     31  H7  UNL     1     111.094  75.987   5.656  1.00  0.00     0.188 HD
BRANCH  27  32
HETATM   32  N4  UNL     1     109.084  79.251   7.819  1.00  0.00    -0.288 N 
ATOM     33  H4  UNL     1     108.762  80.161   7.486  1.00  0.00     0.184 HD
BRANCH  32  34
HETATM   34  N5  UNL     1     109.547  79.115   9.113  1.00  0.00    -0.139 NA
BRANCH  34  35
HETATM   35  C17 UNL     1     110.913  79.588   9.266  1.00  0.00     0.144 C 
BRANCH  35  36
HETATM   36  C18 UNL     1     110.975  80.742  10.228  1.00  0.00     0.111 C 
BRANCH  36  37
HETATM   37  P1  UNL     1     110.115  80.304  11.810  1.00  0.00     0.164 P 
BRANCH  37  38
HETATM   38  O2  UNL     1     110.501  81.418  13.069  1.00  0.00    -0.350 OA
ATOM     39  H2  UNL     1     110.521  80.991  13.917  1.00  0.00     0.217 HD
ENDBRANCH  37  38
BRANCH  37  40
HETATM   40  O3  UNL     1     108.390  80.300  11.538  1.00  0.00    -0.350 OA
ATOM     41  H3  UNL     1     108.102  79.406  11.395  1.00  0.00     0.217 HD
ENDBRANCH  37  40
ENDBRANCH  36  37
ENDBRANCH  35  36
ENDBRANCH  34  35
ENDBRANCH  32  34
ENDBRANCH  27  32
ENDBRANCH  22  24
ENDBRANCH   1  22
TORSDOF 15
ENDMDL
MODEL 3
REMARK VINA RESULT: -8.341279983      0.998      1.196
REMARK  15 active torsions:
REMARK  status: ('A' for Active; 'I' for Inactive)
REMARK    1  A    between atoms: C2_2  and  C4_4 
REMARK    2  A    between atoms: N1_6  and  C6_7 
REMARK    3  A    between atoms: C6_7  and  O1_8 
REMARK    4  A    between atoms: C6_7  and  N2_10 
REMARK    5  A    between atoms: C9_13  and  C11_15 
REMARK    6  A    between atoms: C11_15  and  C12_16 
REMARK    7  A    between atoms: C12_16  and  N3_17 
REMARK    8  A    between atoms: N3_17  and  C13_19 
REMARK    9  A    between atoms: C16_22  and  N4_23 
REMARK   10  A    between atoms: N4_23  and  N5_25 
REMARK   11  A    between atoms: N5_25  and  C17_26 
REMARK   12  A    between atoms: C17_26  and  C18_27 
REMARK   13  A    between atoms: C18_27  and  P1_28 
REMARK   14  A    between atoms: P1_28  and  O2_29 
REMARK   15  A    between atoms: P1_28  and  O3_31 
ROOT
HETATM    1  C12 UNL     1     112.464  79.607  11.878  1.00  0.00     0.126 C 
ENDROOT
BRANCH   1   2
HETATM    2  C11 UNL     1     113.829  79.981  12.417  1.00  0.00     0.081 C 
BRANCH   2   3
HETATM    3  C9  UNL     1     113.903  81.385  12.949  1.00  0.00     0.147 C 
HETATM    4  N1  UNL     1     114.658  82.309  12.076  1.00  0.00    -0.313 N 
HETATM    5  C5  UNL     1     114.105  83.377  11.298  1.00  0.00     0.155 C 
HETATM    6  C4  UNL     1     113.782  84.609  12.112  1.00  0.00     0.108 C 
HETATM    7  N8  UNL     1     112.606  84.313  12.903  1.00  0.00    -0.330 N 
HETATM    8  C19 UNL     1     112.009  83.078  13.177  1.00  0.00     0.363 C 
ATOM      9  H8  UNL     1     112.147  85.123  13.321  1.00  0.00     0.165 HD
HETATM   10  O4  UNL     1     112.550  81.818  13.041  1.00  0.00    -0.272 OA
HETATM   11  O5  UNL     1     110.816  83.133  13.607  1.00  0.00    -0.238 OA
HETATM   12  C10 UNL     1     114.453  81.344  14.342  1.00  0.00     0.072 C 
BRANCH   4  13
HETATM   13  C6  UNL     1     116.014  82.097  12.055  1.00  0.00     0.218 C 
BRANCH  13  14
HETATM   14  O1  UNL     1     116.705  83.156  12.463  1.00  0.00    -0.332 OA
ATOM     15  H1  UNL     1     117.538  83.246  12.014  1.00  0.00     0.220 HD
ENDBRANCH  13  14
BRANCH  13  16
HETATM   16  N2  UNL     1     116.880  81.066  11.720  1.00  0.00    -0.356 N 
HETATM   17  C7  UNL     1     116.997  80.655  10.277  1.00  0.00     0.152 C 
HETATM   18  C8  UNL     1     117.702  80.307  12.587  1.00  0.00     0.152 C 
ENDBRANCH  13  16
ENDBRANCH   4  13
BRANCH   6  19
HETATM   19  C2  UNL     1     113.474  85.718  11.110  1.00  0.00     0.002 C 
HETATM   20  C1  UNL     1     112.090  85.553  10.567  1.00  0.00     0.011 C 
HETATM   21  C3  UNL     1     114.534  85.825  10.061  1.00  0.00     0.011 C 
ENDBRANCH   6  19
ENDBRANCH   2   3
ENDBRANCH   1   2
BRANCH   1  22
HETATM   22  N3  UNL     1     112.183  80.136  10.573  1.00  0.00    -0.375 N 
ATOM     23  H3  UNL     1     112.353  81.130  10.419  1.00  0.00     0.161 HD
BRANCH  22  24
HETATM   24  C13 UNL     1     111.684  79.371   9.475  1.00  0.00     0.115 A 
HETATM   25  C14 UNL     1     110.341  79.299   9.187  1.00  0.00     0.053 A 
HETATM   26  C15 UNL     1     109.933  78.555   8.091  1.00  0.00     0.054 A 
HETATM   27  C16 UNL     1     110.850  77.905   7.315  1.00  0.00     0.131 A 
HETATM   28  N6  UNL     1     112.145  78.011   7.645  1.00  0.00    -0.283 N 
HETATM   29  N7  UNL     1     112.538  78.708   8.671  1.00  0.00    -0.284 N 
ATOM     30  H6  UNL     1     112.842  77.531   7.076  1.00  0.00     0.188 HD
ATOM     31  H7  UNL     1     113.536  78.755   8.875  1.00  0.00     0.188 HD
BRANCH  27  32
HETATM   32  N4  UNL     1     110.461  77.129   6.178  1.00  0.00    -0.288 N 
ATOM     33  H4  UNL     1     109.775  77.499   5.519  1.00  0.00     0.184 HD
BRANCH  32  34
HETATM   34  N5  UNL     1     111.012  75.879   5.970  1.00  0.00    -0.139 NA
BRANCH  34  35
HETATM   35  C17 UNL     1     111.913  75.853   4.831  1.00  0.00     0.144 C 
BRANCH  35  36
HETATM   36  C18 UNL     1     112.461  74.469   4.614  1.00  0.00     0.111 C 
BRANCH  36  37
HETATM   37  P1  UNL     1     111.113  73.328   4.053  1.00  0.00     0.164 P 
BRANCH  37  38
HETATM   38  O2  UNL     1     109.687  73.518   5.005  1.00  0.00    -0.350 OA
ATOM     39  H2  UNL     1     109.508  74.433   5.185  1.00  0.00     0.217 HD
ENDBRANCH  37  38
BRANCH  37  40
HETATM   40  O3  UNL     1     110.747  73.658   2.378  1.00  0.00    -0.350 OA
ATOM     41  H3  UNL     1     110.507  72.845   1.947  1.00  0.00     0.217 HD
ENDBRANCH  37  40
ENDBRANCH  36  37
ENDBRANCH  35  36
ENDBRANCH  34  35
ENDBRANCH  32  34
ENDBRANCH  27  32
ENDBRANCH  22  24
ENDBRANCH   1  22
TORSDOF 15
ENDMDL
MODEL 4
REMARK VINA RESULT: -8.072080931      1.726      1.913
REMARK  15 active torsions:
REMARK  status: ('A' for Active; 'I' for Inactive)
REMARK    1  A    between atoms: C2_2  and  C4_4 
REMARK    2  A    between atoms: N1_6  and  C6_7 
REMARK    3  A    between atoms: C6_7  and  O1_8 
REMARK    4  A    between atoms: C6_7  and  N2_10 
REMARK    5  A    between atoms: C9_13  and  C11_15 
REMARK    6  A    between atoms: C11_15  and  C12_16 
REMARK    7  A    between atoms: C12_16  and  N3_17 
REMARK    8  A    between atoms: N3_17  and  C13_19 
REMARK    9  A    between atoms: C16_22  and  N4_23 
REMARK   10  A    between atoms: N4_23  and  N5_25 
REMARK   11  A    between atoms: N5_25  and  C17_26 
REMARK   12  A    between atoms: C17_26  and  C18_27 
REMARK   13  A    between atoms: C18_27  and  P1_28 
REMARK   14  A    between atoms: P1_28  and  O2_29 
REMARK   15  A    between atoms: P1_28  and  O3_31 
ROOT
HETATM    1  C12 UNL     1     113.964  80.027  10.922  1.00  0.00     0.126 C 
ENDROOT
BRANCH   1   2
HETATM    2  C11 UNL     1     114.184  80.101  12.419  1.00  0.00     0.081 C 
BRANCH   2   3
HETATM    3  C9  UNL     1     114.042  81.488  12.981  1.00  0.00     0.147 C 
HETATM    4  N1  UNL     1     114.762  82.519  12.201  1.00  0.00    -0.313 N 
HETATM    5  C5  UNL     1     114.163  83.538  11.393  1.00  0.00     0.155 C 
HETATM    6  C4  UNL     1     113.622  84.700  12.193  1.00  0.00     0.108 C 
HETATM    7  N8  UNL     1     112.420  84.248  12.861  1.00  0.00    -0.330 N 
HETATM    8  C19 UNL     1     111.949  82.945  13.055  1.00  0.00     0.363 C 
ATOM      9  H8  UNL     1     111.832  84.986  13.247  1.00  0.00     0.165 HD
HETATM   10  O4  UNL     1     112.645  81.760  12.949  1.00  0.00    -0.272 OA
HETATM   11  O5  UNL     1     110.723  82.849  13.367  1.00  0.00    -0.238 OA
HETATM   12  C10 UNL     1     114.460  81.471  14.419  1.00  0.00     0.072 C 
BRANCH   4  13
HETATM   13  C6  UNL     1     116.130  82.465  12.308  1.00  0.00     0.218 C 
BRANCH  13  14
HETATM   14  O1  UNL     1     116.647  83.570  12.835  1.00  0.00    -0.332 OA
ATOM     15  H1  UNL     1     117.566  83.682  12.624  1.00  0.00     0.220 HD
ENDBRANCH  13  14
BRANCH  13  16
HETATM   16  N2  UNL     1     117.141  81.562  12.013  1.00  0.00    -0.356 N 
HETATM   17  C7  UNL     1     117.462  81.276  10.571  1.00  0.00     0.152 C 
HETATM   18  C8  UNL     1     117.945  80.833  12.922  1.00  0.00     0.152 C 
ENDBRANCH  13  16
ENDBRANCH   4  13
BRANCH   6  19
HETATM   19  C2  UNL     1     113.282  85.795  11.186  1.00  0.00     0.002 C 
HETATM   20  C1  UNL     1     112.205  85.326  10.258  1.00  0.00     0.011 C 
HETATM   21  C3  UNL     1     114.503  86.310  10.494  1.00  0.00     0.011 C 
ENDBRANCH   6  19
ENDBRANCH   2   3
ENDBRANCH   1   2
BRANCH   1  22
HETATM   22  N3  UNL     1     112.617  80.307  10.513  1.00  0.00    -0.375 N 
ATOM     23  H3  UNL     1     112.143  81.096  10.953  1.00  0.00     0.161 HD
BRANCH  22  24
HETATM   24  C13 UNL     1     111.892  79.560   9.534  1.00  0.00     0.115 A 
HETATM   25  C14 UNL     1     110.518  79.575   9.475  1.00  0.00     0.053 A 
HETATM   26  C15 UNL     1     109.885  78.843   8.483  1.00  0.00     0.054 A 
HETATM   27  C16 UNL     1     110.616  78.120   7.582  1.00  0.00     0.131 A 
HETATM   28  N6  UNL     1     111.951  78.143   7.690  1.00  0.00    -0.283 N 
HETATM   29  N7  UNL     1     112.555  78.828   8.617  1.00  0.00    -0.284 N 
ATOM     30  H6  UNL     1     112.511  77.608   7.026  1.00  0.00     0.188 HD
ATOM     31  H7  UNL     1     113.574  78.811   8.651  1.00  0.00     0.188 HD
BRANCH  27  32
HETATM   32  N4  UNL     1     109.992  77.355   6.548  1.00  0.00    -0.288 N 
ATOM     33  H4  UNL     1     109.313  77.796   5.926  1.00  0.00     0.184 HD
BRANCH  32  34
HETATM   34  N5  UNL     1     110.307  76.019   6.387  1.00  0.00    -0.139 NA
BRANCH  34  35
HETATM   35  C17 UNL     1     110.056  75.548   5.036  1.00  0.00     0.144 C 
BRANCH  35  36
HETATM   36  C18 UNL     1     111.285  74.901   4.458  1.00  0.00     0.111 C 
BRANCH  36  37
HETATM   37  P1  UNL     1     112.782  75.929   4.826  1.00  0.00     0.164 P 
BRANCH  37  38
HETATM   38  O2  UNL     1     112.452  77.613   4.649  1.00  0.00    -0.350 OA
ATOM     39  H2  UNL     1     111.725  77.765   4.056  1.00  0.00     0.217 HD
ENDBRANCH  37  38
BRANCH  37  40
HETATM   40  O3  UNL     1     113.311  75.603   6.457  1.00  0.00    -0.350 OA
ATOM     41  H3  UNL     1     114.129  75.119   6.427  1.00  0.00     0.217 HD
ENDBRANCH  37  40
ENDBRANCH  36  37
ENDBRANCH  35  36
ENDBRANCH  34  35
ENDBRANCH  32  34
ENDBRANCH  27  32
ENDBRANCH  22  24
ENDBRANCH   1  22
TORSDOF 15
ENDMDL
MODEL 5
REMARK VINA RESULT: -8.065414597      1.638      3.420
REMARK  15 active torsions:
REMARK  status: ('A' for Active; 'I' for Inactive)
REMARK    1  A    between atoms: C2_2  and  C4_4 
REMARK    2  A    between atoms: N1_6  and  C6_7 
REMARK    3  A    between atoms: C6_7  and  O1_8 
REMARK    4  A    between atoms: C6_7  and  N2_10 
REMARK    5  A    between atoms: C9_13  and  C11_15 
REMARK    6  A    between atoms: C11_15  and  C12_16 
REMARK    7  A    between atoms: C12_16  and  N3_17 
REMARK    8  A    between atoms: N3_17  and  C13_19 
REMARK    9  A    between atoms: C16_22  and  N4_23 
REMARK   10  A    between atoms: N4_23  and  N5_25 
REMARK   11  A    between atoms: N5_25  and  C17_26 
REMARK   12  A    between atoms: C17_26  and  C18_27 
REMARK   13  A    between atoms: C18_27  and  P1_28 
REMARK   14  A    between atoms: P1_28  and  O2_29 
REMARK   15  A    between atoms: P1_28  and  O3_31 
ROOT
HETATM    1  C12 UNL     1     111.746  81.914  10.980  1.00  0.00     0.126 C 
ENDROOT
BRANCH   1   2
HETATM    2  C11 UNL     1     112.362  82.335  12.299  1.00  0.00     0.081 C 
BRANCH   2   3
HETATM    3  C9  UNL     1     113.866  82.319  12.293  1.00  0.00     0.147 C 
HETATM    4  N1  UNL     1     114.471  83.667  12.319  1.00  0.00    -0.313 N 
HETATM    5  C5  UNL     1     115.177  84.256  13.418  1.00  0.00     0.155 C 
HETATM    6  C4  UNL     1     116.594  83.753  13.561  1.00  0.00     0.108 C 
HETATM    7  N8  UNL     1     116.528  82.400  14.072  1.00  0.00    -0.330 N 
HETATM    8  C19 UNL     1     115.433  81.532  14.146  1.00  0.00     0.363 C 
ATOM      9  H8  UNL     1     117.406  82.026  14.431  1.00  0.00     0.165 HD
HETATM   10  O4  UNL     1     114.233  81.612  13.474  1.00  0.00    -0.272 OA
HETATM   11  O5  UNL     1     115.570  80.548  14.935  1.00  0.00    -0.238 OA
HETATM   12  C10 UNL     1     114.335  81.508  11.124  1.00  0.00     0.072 C 
BRANCH   4  13
HETATM   13  C6  UNL     1     114.336  84.378  11.152  1.00  0.00     0.218 C 
BRANCH  13  14
HETATM   14  O1  UNL     1     115.313  84.131  10.285  1.00  0.00    -0.332 OA
ATOM     15  H1  UNL     1     115.574  84.903   9.797  1.00  0.00     0.220 HD
ENDBRANCH  13  14
BRANCH  13  16
HETATM   16  N2  UNL     1     113.447  85.298  10.616  1.00  0.00    -0.356 N 
HETATM   17  C7  UNL     1     113.860  86.086   9.403  1.00  0.00     0.152 C 
HETATM   18  C8  UNL     1     112.148  85.621  11.078  1.00  0.00     0.152 C 
ENDBRANCH  13  16
ENDBRANCH   4  13
BRANCH   6  19
HETATM   19  C2  UNL     1     117.274  84.665  14.579  1.00  0.00     0.002 C 
HETATM   20  C1  UNL     1     117.620  85.976  13.945  1.00  0.00     0.011 C 
HETATM   21  C3  UNL     1     118.426  83.987  15.248  1.00  0.00     0.011 C 
ENDBRANCH   6  19
ENDBRANCH   2   3
ENDBRANCH   1   2
BRANCH   1  22
HETATM   22  N3  UNL     1     111.116  80.624  11.013  1.00  0.00    -0.375 N 
ATOM     23  H3  UNL     1     110.771  80.289  11.913  1.00  0.00     0.161 HD
BRANCH  22  24
HETATM   24  C13 UNL     1     110.936  79.777   9.877  1.00  0.00     0.115 A 
HETATM   25  C14 UNL     1     111.988  79.118   9.284  1.00  0.00     0.053 A 
HETATM   26  C15 UNL     1     111.732  78.295   8.199  1.00  0.00     0.054 A 
HETATM   27  C16 UNL     1     110.459  78.145   7.728  1.00  0.00     0.131 A 
HETATM   28  N6  UNL     1     109.475  78.812   8.346  1.00  0.00    -0.283 N 
HETATM   29  N7  UNL     1     109.704  79.586   9.366  1.00  0.00    -0.284 N 
ATOM     30  H6  UNL     1     108.519  78.711   8.006  1.00  0.00     0.188 HD
ATOM     31  H7  UNL     1     108.917  80.069   9.799  1.00  0.00     0.188 HD
BRANCH  27  32
HETATM   32  N4  UNL     1     110.164  77.303   6.610  1.00  0.00    -0.288 N 
ATOM     33  H4  UNL     1     109.438  77.575   5.946  1.00  0.00     0.184 HD
BRANCH  32  34
HETATM   34  N5  UNL     1     110.859  76.124   6.426  1.00  0.00    -0.139 NA
BRANCH  34  35
HETATM   35  C17 UNL     1     111.661  76.136   5.215  1.00  0.00     0.144 C 
BRANCH  35  36
HETATM   36  C18 UNL     1     112.049  74.738   4.816  1.00  0.00     0.111 C 
BRANCH  36  37
HETATM   37  P1  UNL     1     110.559  73.803   4.233  1.00  0.00     0.164 P 
BRANCH  37  38
HETATM   38  O2  UNL     1     110.923  72.139   3.961  1.00  0.00    -0.350 OA
ATOM     39  H2  UNL     1     111.637  71.844   4.515  1.00  0.00     0.217 HD
ENDBRANCH  37  38
BRANCH  37  40
HETATM   40  O3  UNL     1     109.296  73.939   5.431  1.00  0.00    -0.350 OA
ATOM     41  H3  UNL     1     109.304  74.819   5.790  1.00  0.00     0.217 HD
ENDBRANCH  37  40
ENDBRANCH  36  37
ENDBRANCH  35  36
ENDBRANCH  34  35
ENDBRANCH  32  34
ENDBRANCH  27  32
ENDBRANCH  22  24
ENDBRANCH   1  22
TORSDOF 15
ENDMDL
