MODEL 1
REMARK VINA RESULT: -6.777771458      0.000      0.000
REMARK  16 active torsions:
REMARK  status: ('A' for Active; 'I' for Inactive)
REMARK    1  A    between atoms: C2_2  and  O1_3 
REMARK    2  A    between atoms: O1_3  and  P1_4 
REMARK    3  A    between atoms: P1_4  and  O2_5 
REMARK    4  A    between atoms: P1_4  and  O3_8 
REMARK    5  A    between atoms: O2_5  and  C3_6 
REMARK    6  A    between atoms: O3_8  and  C5_9 
REMARK    7  A    between atoms: C5_9  and  C6_10 
REMARK    8  A    between atoms: C6_10  and  N1_11 
REMARK    9  A    between atoms: N1_11  and  C7_13 
REMARK   10  A    between atoms: C9_17  and  C10_18 
REMARK   11  A    between atoms: N3_19  and  N4_21 
REMARK   12  A    between atoms: C11_24  and  C13_26 
REMARK       I    between atoms: C13_26  and  N5_28 
REMARK   13  A    between atoms: N5_28  and  C14_30 
REMARK   14  A    between atoms: C14_30  and  C15_31 
REMARK   15  A    between atoms: C15_31  and  O5_32 
REMARK   16  A    between atoms: C17_35  and  C18_36 
ROOT
HETATM    1  C7  UNL     1     111.921  81.652  12.641  1.00  0.00     0.119 C 
HETATM    2  N2  UNL     1     111.676  80.344  12.723  1.00  0.00    -0.344 N 
ATOM      3  H2  UNL     1     112.058  79.704  13.420  1.00  0.00     0.167 HD
HETATM    4  C8  UNL     1     110.728  79.975  11.598  1.00  0.00     0.033 C 
HETATM    5  C9  UNL     1     109.449  79.782  11.787  1.00  0.00     0.045 C 
HETATM    6  C11 UNL     1     111.428  80.051  10.329  1.00  0.00     0.098 C 
HETATM    7  C12 UNL     1     112.873  79.495  10.498  1.00  0.00     0.037 C 
HETATM    8  C16 UNL     1     111.609  81.580  10.223  1.00  0.00     0.017 C 
HETATM    9  C17 UNL     1     111.844  82.296  11.310  1.00  0.00     0.051 C 
ENDROOT
BRANCH   1  10
HETATM   10  N1  UNL     1     112.741  82.363  13.575  1.00  0.00    -0.353 N 
ATOM     11  H1  UNL     1     112.237  82.838  14.323  1.00  0.00     0.166 HD
BRANCH  10  12
HETATM   12  C6  UNL     1     114.119  82.500  13.611  1.00  0.00     0.089 C 
BRANCH  12  13
HETATM   13  C5  UNL     1     114.885  83.764  13.681  1.00  0.00     0.222 C 
BRANCH  13  14
HETATM   14  O3  UNL     1     114.413  84.440  12.483  1.00  0.00    -0.312 OA
BRANCH  14  15
HETATM   15  P1  UNL     1     115.848  84.813  11.523  1.00  0.00     0.334 P 
BRANCH  15  16
HETATM   16  O1  UNL     1     115.034  85.882  10.169  1.00  0.00    -0.318 OA
BRANCH  16  17
HETATM   17  C2  UNL     1     115.507  87.143  10.510  1.00  0.00     0.173 C 
HETATM   18  C1  UNL     1     116.665  87.019  11.456  1.00  0.00     0.034 C 
ENDBRANCH  16  17
ENDBRANCH  15  16
BRANCH  15  19
HETATM   19  O2  UNL     1     116.180  83.507  10.359  1.00  0.00    -0.318 OA
BRANCH  19  20
HETATM   20  C3  UNL     1     116.931  82.534  10.950  1.00  0.00     0.173 C 
HETATM   21  C4  UNL     1     116.161  81.218  10.846  1.00  0.00     0.034 C 
ENDBRANCH  19  20
ENDBRANCH  15  19
ENDBRANCH  14  15
ENDBRANCH  13  14
ENDBRANCH  12  13
ENDBRANCH  10  12
ENDBRANCH   1  10
BRANCH   9  22
HETATM   22  C18 UNL     1     111.823  83.790  11.208  1.00  0.00     0.134 A 
HETATM   23  N6  UNL     1     111.232  84.632  12.108  1.00  0.00    -0.336 N 
HETATM   24  C19 UNL     1     111.371  85.915  11.670  1.00  0.00     0.199 A 
ATOM     25  H6  UNL     1     110.763  84.347  12.967  1.00  0.00     0.168 HD
HETATM   26  N7  UNL     1     112.055  85.837  10.518  1.00  0.00    -0.295 N 
HETATM   27  N8  UNL     1     112.315  84.530  10.254  1.00  0.00    -0.284 N 
ATOM     28  H7  UNL     1     112.334  86.628   9.936  1.00  0.00     0.187 HD
ATOM     29  H8  UNL     1     112.817  84.181   9.437  1.00  0.00     0.188 HD
ENDBRANCH   9  22
BRANCH   5  30
HETATM   30  C10 UNL     1     108.759  79.905  13.078  1.00  0.00     0.108 C 
HETATM   31  N3  UNL     1     107.475  79.778  13.137  1.00  0.00    -0.318 N 
ATOM     32  H3  UNL     1     107.008  79.859  14.040  1.00  0.00     0.185 HD
BRANCH  31  33
HETATM   33  N4  UNL     1     106.701  79.527  11.978  1.00  0.00    -0.345 N 
ATOM     34  H42 UNL     1     106.968  78.744  11.380  1.00  0.00     0.176 HD
ATOM     35  H41 UNL     1     105.898  80.107  11.737  1.00  0.00     0.176 HD
ENDBRANCH  31  33
ENDBRANCH   5  30
BRANCH   6  36
HETATM   36  C13 UNL     1     110.910  79.446   9.134  1.00  0.00     0.235 C 
HETATM   37  O4  UNL     1     109.811  79.702   8.540  1.00  0.00    -0.272 OA
HETATM   38  N5  UNL     1     111.704  78.429   8.507  1.00  0.00    -0.358 N 
ATOM     39  H5  UNL     1     112.598  78.155   8.913  1.00  0.00     0.162 HD
BRANCH  38  40
HETATM   40  C14 UNL     1     111.224  77.784   7.275  1.00  0.00     0.148 C 
BRANCH  40  41
HETATM   41  C15 UNL     1     112.405  77.285   6.459  1.00  0.00     0.183 C 
BRANCH  41  42
HETATM   42  O5  UNL     1     112.080  77.626   5.101  1.00  0.00    -0.399 OA
ATOM     43  H5  UNL     1     112.354  78.530   5.007  1.00  0.00     0.209 HD
ENDBRANCH  41  42
ENDBRANCH  40  41
ENDBRANCH  38  40
ENDBRANCH   6  36
TORSDOF 16
ENDMDL
MODEL 2
REMARK VINA RESULT: -6.627858986      2.502      3.436
REMARK  16 active torsions:
REMARK  status: ('A' for Active; 'I' for Inactive)
REMARK    1  A    between atoms: C2_2  and  O1_3 
REMARK    2  A    between atoms: O1_3  and  P1_4 
REMARK    3  A    between atoms: P1_4  and  O2_5 
REMARK    4  A    between atoms: P1_4  and  O3_8 
REMARK    5  A    between atoms: O2_5  and  C3_6 
REMARK    6  A    between atoms: O3_8  and  C5_9 
REMARK    7  A    between atoms: C5_9  and  C6_10 
REMARK    8  A    between atoms: C6_10  and  N1_11 
REMARK    9  A    between atoms: N1_11  and  C7_13 
REMARK   10  A    between atoms: C9_17  and  C10_18 
REMARK   11  A    between atoms: N3_19  and  N4_21 
REMARK   12  A    between atoms: C11_24  and  C13_26 
REMARK       I    between atoms: C13_26  and  N5_28 
REMARK   13  A    between atoms: N5_28  and  C14_30 
REMARK   14  A    between atoms: C14_30  and  C15_31 
REMARK   15  A    between atoms: C15_31  and  O5_32 
REMARK   16  A    between atoms: C17_35  and  C18_36 
ROOT
HETATM    1  C7  UNL     1     111.978  81.682  12.639  1.00  0.00     0.119 C 
HETATM    2  N2  UNL     1     111.716  80.379  12.740  1.00  0.00    -0.344 N 
ATOM      3  H2  UNL     1     112.082  79.747  13.452  1.00  0.00     0.167 HD
HETATM    4  C8  UNL     1     110.781  80.002  11.608  1.00  0.00     0.033 C 
HETATM    5  C9  UNL     1     109.496  79.828  11.782  1.00  0.00     0.045 C 
HETATM    6  C11 UNL     1     111.498  80.049  10.348  1.00  0.00     0.098 C 
HETATM    7  C12 UNL     1     112.935  79.479  10.546  1.00  0.00     0.037 C 
HETATM    8  C16 UNL     1     111.699  81.573  10.218  1.00  0.00     0.017 C 
HETATM    9  C17 UNL     1     111.928  82.305  11.297  1.00  0.00     0.051 C 
ENDROOT
BRANCH   1  10
HETATM   10  N1  UNL     1     112.794  82.400  13.572  1.00  0.00    -0.353 N 
ATOM     11  H1  UNL     1     112.285  82.903  14.299  1.00  0.00     0.166 HD
BRANCH  10  12
HETATM   12  C6  UNL     1     114.173  82.510  13.633  1.00  0.00     0.089 C 
BRANCH  12  13
HETATM   13  C5  UNL     1     115.160  81.416  13.500  1.00  0.00     0.222 C 
BRANCH  13  14
HETATM   14  O3  UNL     1     115.546  81.220  14.889  1.00  0.00    -0.312 OA
BRANCH  14  15
HETATM   15  P1  UNL     1     117.309  81.131  14.908  1.00  0.00     0.334 P 
BRANCH  15  16
HETATM   16  O1  UNL     1     117.512  79.258  15.203  1.00  0.00    -0.318 OA
BRANCH  16  17
HETATM   17  C2  UNL     1     118.286  78.902  14.106  1.00  0.00     0.173 C 
HETATM   18  C1  UNL     1     118.628  80.120  13.302  1.00  0.00     0.034 C 
ENDBRANCH  16  17
ENDBRANCH  15  16
BRANCH  15  19
HETATM   19  O2  UNL     1     117.937  81.503  16.533  1.00  0.00    -0.318 OA
BRANCH  19  20
HETATM   20  C3  UNL     1     118.839  82.524  16.463  1.00  0.00     0.173 C 
HETATM   21  C4  UNL     1     118.491  83.375  15.243  1.00  0.00     0.034 C 
ENDBRANCH  19  20
ENDBRANCH  15  19
ENDBRANCH  14  15
ENDBRANCH  13  14
ENDBRANCH  12  13
ENDBRANCH  10  12
ENDBRANCH   1  10
BRANCH   9  22
HETATM   22  C18 UNL     1     111.926  83.797  11.169  1.00  0.00     0.134 A 
HETATM   23  N6  UNL     1     112.971  84.549  10.711  1.00  0.00    -0.336 N 
HETATM   24  C19 UNL     1     112.630  85.866  10.776  1.00  0.00     0.199 A 
ATOM     25  H6  UNL     1     113.861  84.184  10.374  1.00  0.00     0.168 HD
HETATM   26  N7  UNL     1     111.379  85.897  11.262  1.00  0.00    -0.295 N 
HETATM   27  N8  UNL     1     110.973  84.623  11.499  1.00  0.00    -0.284 N 
ATOM     28  H7  UNL     1     110.825  86.739  11.426  1.00  0.00     0.187 HD
ATOM     29  H8  UNL     1     110.064  84.354  11.876  1.00  0.00     0.188 HD
ENDBRANCH   9  22
BRANCH   5  30
HETATM   30  C10 UNL     1     108.790  79.981  13.061  1.00  0.00     0.108 C 
HETATM   31  N3  UNL     1     107.510  79.816  13.113  1.00  0.00    -0.318 N 
ATOM     32  H3  UNL     1     107.031  79.919  14.008  1.00  0.00     0.185 HD
BRANCH  31  33
HETATM   33  N4  UNL     1     106.756  79.495  11.958  1.00  0.00    -0.345 N 
ATOM     34  H42 UNL     1     107.259  79.301  11.093  1.00  0.00     0.176 HD
ATOM     35  H41 UNL     1     105.737  79.456  11.980  1.00  0.00     0.176 HD
ENDBRANCH  31  33
ENDBRANCH   5  30
BRANCH   6  36
HETATM   36  C13 UNL     1     110.990  79.429   9.156  1.00  0.00     0.235 C 
HETATM   37  O4  UNL     1     109.890  79.669   8.558  1.00  0.00    -0.272 OA
HETATM   38  N5  UNL     1     111.796  78.416   8.538  1.00  0.00    -0.358 N 
ATOM     39  H5  UNL     1     112.692  78.155   8.948  1.00  0.00     0.162 HD
BRANCH  38  40
HETATM   40  C14 UNL     1     111.326  77.757   7.310  1.00  0.00     0.148 C 
BRANCH  40  41
HETATM   41  C15 UNL     1     112.516  77.348   6.456  1.00  0.00     0.183 C 
BRANCH  41  42
HETATM   42  O5  UNL     1     112.137  77.697   5.113  1.00  0.00    -0.399 OA
ATOM     43  H5  UNL     1     112.528  78.550   4.967  1.00  0.00     0.209 HD
ENDBRANCH  41  42
ENDBRANCH  40  41
ENDBRANCH  38  40
ENDBRANCH   6  36
TORSDOF 16
ENDMDL
MODEL 3
REMARK VINA RESULT: -6.546596286      1.132      1.733
REMARK  16 active torsions:
REMARK  status: ('A' for Active; 'I' for Inactive)
REMARK    1  A    between atoms: C2_2  and  O1_3 
REMARK    2  A    between atoms: O1_3  and  P1_4 
REMARK    3  A    between atoms: P1_4  and  O2_5 
REMARK    4  A    between atoms: P1_4  and  O3_8 
REMARK    5  A    between atoms: O2_5  and  C3_6 
REMARK    6  A    between atoms: O3_8  and  C5_9 
REMARK    7  A    between atoms: C5_9  and  C6_10 
REMARK    8  A    between atoms: C6_10  and  N1_11 
REMARK    9  A    between atoms: N1_11  and  C7_13 
REMARK   10  A    between atoms: C9_17  and  C10_18 
REMARK   11  A    between atoms: N3_19  and  N4_21 
REMARK   12  A    between atoms: C11_24  and  C13_26 
REMARK       I    between atoms: C13_26  and  N5_28 
REMARK   13  A    between atoms: N5_28  and  C14_30 
REMARK   14  A    between atoms: C14_30  and  C15_31 
REMARK   15  A    between atoms: C15_31  and  O5_32 
REMARK   16  A    between atoms: C17_35  and  C18_36 
ROOT
HETATM    1  C7  UNL     1     111.952  81.639  12.685  1.00  0.00     0.119 C 
HETATM    2  N2  UNL     1     111.695  80.332  12.753  1.00  0.00    -0.344 N 
ATOM      3  H2  UNL     1     112.066  79.684  13.447  1.00  0.00     0.167 HD
HETATM    4  C8  UNL     1     110.756  79.981  11.616  1.00  0.00     0.033 C 
HETATM    5  C9  UNL     1     109.473  79.797  11.790  1.00  0.00     0.045 C 
HETATM    6  C11 UNL     1     111.469  80.063  10.354  1.00  0.00     0.098 C 
HETATM    7  C12 UNL     1     112.908  79.494  10.532  1.00  0.00     0.037 C 
HETATM    8  C16 UNL     1     111.663  81.591  10.263  1.00  0.00     0.017 C 
HETATM    9  C17 UNL     1     111.894  82.296  11.359  1.00  0.00     0.051 C 
ENDROOT
BRANCH   1  10
HETATM   10  N1  UNL     1     112.769  82.335  13.633  1.00  0.00    -0.353 N 
ATOM     11  H1  UNL     1     112.271  82.980  14.246  1.00  0.00     0.166 HD
BRANCH  10  12
HETATM   12  C6  UNL     1     114.136  82.260  13.840  1.00  0.00     0.089 C 
BRANCH  12  13
HETATM   13  C5  UNL     1     115.202  82.653  12.892  1.00  0.00     0.222 C 
BRANCH  13  14
HETATM   14  O3  UNL     1     114.887  84.059  12.688  1.00  0.00    -0.312 OA
BRANCH  14  15
HETATM   15  P1  UNL     1     116.110  84.688  11.581  1.00  0.00     0.334 P 
BRANCH  15  16
HETATM   16  O1  UNL     1     116.839  86.060  12.687  1.00  0.00    -0.318 OA
BRANCH  16  17
HETATM   17  C2  UNL     1     117.807  85.348  13.384  1.00  0.00     0.173 C 
HETATM   18  C1  UNL     1     117.727  85.668  14.847  1.00  0.00     0.034 C 
ENDBRANCH  16  17
ENDBRANCH  15  16
BRANCH  15  19
HETATM   19  O2  UNL     1     115.397  85.891  10.478  1.00  0.00    -0.318 OA
BRANCH  19  20
HETATM   20  C3  UNL     1     115.874  85.706   9.214  1.00  0.00     0.173 C 
HETATM   21  C4  UNL     1     114.894  86.365   8.242  1.00  0.00     0.034 C 
ENDBRANCH  19  20
ENDBRANCH  15  19
ENDBRANCH  14  15
ENDBRANCH  13  14
ENDBRANCH  12  13
ENDBRANCH  10  12
ENDBRANCH   1  10
BRANCH   9  22
HETATM   22  C18 UNL     1     111.886  83.791  11.271  1.00  0.00     0.134 A 
HETATM   23  N6  UNL     1     111.094  84.619  12.015  1.00  0.00    -0.336 N 
HETATM   24  C19 UNL     1     111.322  85.907  11.635  1.00  0.00     0.199 A 
ATOM     25  H6  UNL     1     110.439  84.321  12.737  1.00  0.00     0.168 HD
HETATM   26  N7  UNL     1     112.257  85.847  10.675  1.00  0.00    -0.295 N 
HETATM   27  N8  UNL     1     112.581  84.544  10.466  1.00  0.00    -0.284 N 
ATOM     28  H7  UNL     1     112.658  86.646  10.183  1.00  0.00     0.187 HD
ATOM     29  H8  UNL     1     113.263  84.208   9.785  1.00  0.00     0.188 HD
ENDBRANCH   9  22
BRANCH   5  30
HETATM   30  C10 UNL     1     108.772  79.914  13.076  1.00  0.00     0.108 C 
HETATM   31  N3  UNL     1     107.488  79.774  13.124  1.00  0.00    -0.318 N 
ATOM     32  H3  UNL     1     107.013  79.852  14.023  1.00  0.00     0.185 HD
BRANCH  31  33
HETATM   33  N4  UNL     1     106.727  79.516  11.958  1.00  0.00    -0.345 N 
ATOM     34  H42 UNL     1     107.157  78.968  11.213  1.00  0.00     0.176 HD
ATOM     35  H41 UNL     1     105.773  79.863  11.856  1.00  0.00     0.176 HD
ENDBRANCH  31  33
ENDBRANCH   5  30
BRANCH   6  36
HETATM   36  C13 UNL     1     110.958  79.473   9.149  1.00  0.00     0.235 C 
HETATM   37  O4  UNL     1     109.896  79.783   8.514  1.00  0.00    -0.272 OA
HETATM   38  N5  UNL     1     111.713  78.404   8.560  1.00  0.00    -0.358 N 
ATOM     39  H5  UNL     1     112.575  78.084   9.000  1.00  0.00     0.162 HD
BRANCH  38  40
HETATM   40  C14 UNL     1     111.238  77.771   7.320  1.00  0.00     0.148 C 
BRANCH  40  41
HETATM   41  C15 UNL     1     112.425  77.355   6.467  1.00  0.00     0.183 C 
BRANCH  41  42
HETATM   42  O5  UNL     1     112.046  77.699   5.123  1.00  0.00    -0.399 OA
ATOM     43  H5  UNL     1     111.098  77.751   5.146  1.00  0.00     0.209 HD
ENDBRANCH  41  42
ENDBRANCH  40  41
ENDBRANCH  38  40
ENDBRANCH   6  36
TORSDOF 16
ENDMDL
MODEL 4
REMARK VINA RESULT: -6.513976907      1.075      2.333
REMARK  16 active torsions:
REMARK  status: ('A' for Active; 'I' for Inactive)
REMARK    1  A    between atoms: C2_2  and  O1_3 
REMARK    2  A    between atoms: O1_3  and  P1_4 
REMARK    3  A    between atoms: P1_4  and  O2_5 
REMARK    4  A    between atoms: P1_4  and  O3_8 
REMARK    5  A    between atoms: O2_5  and  C3_6 
REMARK    6  A    between atoms: O3_8  and  C5_9 
REMARK    7  A    between atoms: C5_9  and  C6_10 
REMARK    8  A    between atoms: C6_10  and  N1_11 
REMARK    9  A    between atoms: N1_11  and  C7_13 
REMARK   10  A    between atoms: C9_17  and  C10_18 
REMARK   11  A    between atoms: N3_19  and  N4_21 
REMARK   12  A    between atoms: C11_24  and  C13_26 
REMARK       I    between atoms: C13_26  and  N5_28 
REMARK   13  A    between atoms: N5_28  and  C14_30 
REMARK   14  A    between atoms: C14_30  and  C15_31 
REMARK   15  A    between atoms: C15_31  and  O5_32 
REMARK   16  A    between atoms: C17_35  and  C18_36 
ROOT
HETATM    1  C7  UNL     1     111.923  81.636  12.679  1.00  0.00     0.119 C 
HETATM    2  N2  UNL     1     111.668  80.329  12.754  1.00  0.00    -0.344 N 
ATOM      3  H2  UNL     1     112.042  79.684  13.450  1.00  0.00     0.167 HD
HETATM    4  C8  UNL     1     110.725  79.972  11.622  1.00  0.00     0.033 C 
HETATM    5  C9  UNL     1     109.443  79.788  11.803  1.00  0.00     0.045 C 
HETATM    6  C11 UNL     1     111.432  80.049  10.358  1.00  0.00     0.098 C 
HETATM    7  C12 UNL     1     112.873  79.482  10.532  1.00  0.00     0.037 C 
HETATM    8  C16 UNL     1     111.625  81.577  10.259  1.00  0.00     0.017 C 
HETATM    9  C17 UNL     1     111.859  82.287  11.351  1.00  0.00     0.051 C 
ENDROOT
BRANCH   1  10
HETATM   10  N1  UNL     1     112.743  82.337  13.621  1.00  0.00    -0.353 N 
ATOM     11  H1  UNL     1     112.236  82.840  14.350  1.00  0.00     0.166 HD
BRANCH  10  12
HETATM   12  C6  UNL     1     114.123  82.433  13.688  1.00  0.00     0.089 C 
BRANCH  12  13
HETATM   13  C5  UNL     1     115.101  81.344  13.470  1.00  0.00     0.222 C 
BRANCH  13  14
HETATM   14  O3  UNL     1     116.143  82.049  12.740  1.00  0.00    -0.312 OA
BRANCH  14  15
HETATM   15  P1  UNL     1     115.605  82.133  11.060  1.00  0.00     0.334 P 
BRANCH  15  16
HETATM   16  O1  UNL     1     117.285  81.873  10.195  1.00  0.00    -0.318 OA
BRANCH  16  17
HETATM   17  C2  UNL     1     117.484  80.514  10.410  1.00  0.00     0.173 C 
HETATM   18  C1  UNL     1     117.413  79.772   9.109  1.00  0.00     0.034 C 
ENDBRANCH  16  17
ENDBRANCH  15  16
BRANCH  15  19
HETATM   19  O2  UNL     1     115.531  83.825  10.509  1.00  0.00    -0.318 OA
BRANCH  19  20
HETATM   20  C3  UNL     1     116.131  84.641  11.423  1.00  0.00     0.173 C 
HETATM   21  C4  UNL     1     115.705  86.077  11.120  1.00  0.00     0.034 C 
ENDBRANCH  19  20
ENDBRANCH  15  19
ENDBRANCH  14  15
ENDBRANCH  13  14
ENDBRANCH  12  13
ENDBRANCH  10  12
ENDBRANCH   1  10
BRANCH   9  22
HETATM   22  C18 UNL     1     111.849  83.781  11.255  1.00  0.00     0.134 A 
HETATM   23  N6  UNL     1     111.155  84.618  12.083  1.00  0.00    -0.336 N 
HETATM   24  C19 UNL     1     111.344  85.903  11.672  1.00  0.00     0.199 A 
ATOM     25  H6  UNL     1     110.588  84.328  12.879  1.00  0.00     0.168 HD
HETATM   26  N7  UNL     1     112.159  85.832  10.608  1.00  0.00    -0.295 N 
HETATM   27  N8  UNL     1     112.449  84.526  10.370  1.00  0.00    -0.284 N 
ATOM     28  H7  UNL     1     112.504  86.626  10.068  1.00  0.00     0.187 HD
ATOM     29  H8  UNL     1     113.044  84.182   9.616  1.00  0.00     0.188 HD
ENDBRANCH   9  22
BRANCH   5  30
HETATM   30  C10 UNL     1     108.746  79.910  13.090  1.00  0.00     0.108 C 
HETATM   31  N3  UNL     1     107.462  79.780  13.142  1.00  0.00    -0.318 N 
ATOM     32  H3  UNL     1     106.990  79.862  14.043  1.00  0.00     0.185 HD
BRANCH  31  33
HETATM   33  N4  UNL     1     106.695  79.529  11.979  1.00  0.00    -0.345 N 
ATOM     34  H42 UNL     1     107.077  78.895  11.278  1.00  0.00     0.176 HD
ATOM     35  H41 UNL     1     105.784  79.964  11.837  1.00  0.00     0.176 HD
ENDBRANCH  31  33
ENDBRANCH   5  30
BRANCH   6  36
HETATM   36  C13 UNL     1     110.917  79.453   9.157  1.00  0.00     0.235 C 
HETATM   37  O4  UNL     1     109.836  79.737   8.543  1.00  0.00    -0.272 OA
HETATM   38  N5  UNL     1     111.692  78.410   8.547  1.00  0.00    -0.358 N 
ATOM     39  H5  UNL     1     112.570  78.112   8.970  1.00  0.00     0.162 HD
BRANCH  38  40
HETATM   40  C14 UNL     1     111.214  77.772   7.311  1.00  0.00     0.148 C 
BRANCH  40  41
HETATM   41  C15 UNL     1     112.398  77.296   6.485  1.00  0.00     0.183 C 
BRANCH  41  42
HETATM   42  O5  UNL     1     112.100  77.718   5.144  1.00  0.00    -0.399 OA
ATOM     43  H5  UNL     1     111.470  78.422   5.247  1.00  0.00     0.209 HD
ENDBRANCH  41  42
ENDBRANCH  40  41
ENDBRANCH  38  40
ENDBRANCH   6  36
TORSDOF 16
ENDMDL
MODEL 5
REMARK VINA RESULT: -6.471094665      8.605     13.350
REMARK  16 active torsions:
REMARK  status: ('A' for Active; 'I' for Inactive)
REMARK    1  A    between atoms: C2_2  and  O1_3 
REMARK    2  A    between atoms: O1_3  and  P1_4 
REMARK    3  A    between atoms: P1_4  and  O2_5 
REMARK    4  A    between atoms: P1_4  and  O3_8 
REMARK    5  A    between atoms: O2_5  and  C3_6 
REMARK    6  A    between atoms: O3_8  and  C5_9 
REMARK    7  A    between atoms: C5_9  and  C6_10 
REMARK    8  A    between atoms: C6_10  and  N1_11 
REMARK    9  A    between atoms: N1_11  and  C7_13 
REMARK   10  A    between atoms: C9_17  and  C10_18 
REMARK   11  A    between atoms: N3_19  and  N4_21 
REMARK   12  A    between atoms: C11_24  and  C13_26 
REMARK       I    between atoms: C13_26  and  N5_28 
REMARK   13  A    between atoms: N5_28  and  C14_30 
REMARK   14  A    between atoms: C14_30  and  C15_31 
REMARK   15  A    between atoms: C15_31  and  O5_32 
REMARK   16  A    between atoms: C17_35  and  C18_36 
ROOT
HETATM    1  C7  UNL     1     115.655  74.016   1.668  1.00  0.00     0.119 C 
HETATM    2  N2  UNL     1     116.672  73.836   0.826  1.00  0.00    -0.344 N 
ATOM      3  H2  UNL     1     117.439  74.489   0.663  1.00  0.00     0.167 HD
HETATM    4  C8  UNL     1     116.489  72.490   0.153  1.00  0.00     0.033 C 
HETATM    5  C9  UNL     1     117.164  71.426   0.506  1.00  0.00     0.045 C 
HETATM    6  C11 UNL     1     115.370  72.555  -0.768  1.00  0.00     0.098 C 
HETATM    7  C12 UNL     1     115.382  73.927  -1.505  1.00  0.00     0.037 C 
HETATM    8  C16 UNL     1     114.208  72.667   0.242  1.00  0.00     0.017 C 
HETATM    9  C17 UNL     1     114.366  73.357   1.359  1.00  0.00     0.051 C 
ENDROOT
BRANCH   1  10
HETATM   10  N1  UNL     1     115.523  75.164   2.515  1.00  0.00    -0.353 N 
ATOM     11  H1  UNL     1     115.658  74.988   3.510  1.00  0.00     0.166 HD
BRANCH  10  12
HETATM   12  C6  UNL     1     115.238  76.477   2.181  1.00  0.00     0.089 C 
BRANCH  12  13
HETATM   13  C5  UNL     1     113.948  77.180   2.360  1.00  0.00     0.222 C 
BRANCH  13  14
HETATM   14  O3  UNL     1     113.213  76.211   3.157  1.00  0.00    -0.312 OA
BRANCH  14  15
HETATM   15  P1  UNL     1     113.062  76.906   4.773  1.00  0.00     0.334 P 
BRANCH  15  16
HETATM   16  O1  UNL     1     114.698  76.277   5.524  1.00  0.00    -0.318 OA
BRANCH  16  17
HETATM   17  C2  UNL     1     115.193  77.446   6.090  1.00  0.00     0.173 C 
HETATM   18  C1  UNL     1     114.957  77.440   7.570  1.00  0.00     0.034 C 
ENDBRANCH  16  17
ENDBRANCH  15  16
BRANCH  15  19
HETATM   19  O2  UNL     1     112.110  75.834   5.830  1.00  0.00    -0.318 OA
BRANCH  19  20
HETATM   20  C3  UNL     1     110.913  76.415   6.130  1.00  0.00     0.173 C 
HETATM   21  C4  UNL     1     111.135  77.367   7.305  1.00  0.00     0.034 C 
ENDBRANCH  19  20
ENDBRANCH  15  19
ENDBRANCH  14  15
ENDBRANCH  13  14
ENDBRANCH  12  13
ENDBRANCH  10  12
ENDBRANCH   1  10
BRANCH   9  22
HETATM   22  C18 UNL     1     113.296  73.289   2.406  1.00  0.00     0.134 A 
HETATM   23  N6  UNL     1     111.968  73.526   2.190  1.00  0.00    -0.336 N 
HETATM   24  C19 UNL     1     111.302  73.420   3.374  1.00  0.00     0.199 A 
ATOM     25  H6  UNL     1     111.544  73.747   1.290  1.00  0.00     0.168 HD
HETATM   26  N7  UNL     1     112.232  73.108   4.291  1.00  0.00    -0.295 N 
HETATM   27  N8  UNL     1     113.441  73.039   3.677  1.00  0.00    -0.284 N 
ATOM     28  H7  UNL     1     112.058  72.948   5.284  1.00  0.00     0.187 HD
ATOM     29  H8  UNL     1     114.326  72.825   4.139  1.00  0.00     0.188 HD
ENDBRANCH   9  22
BRANCH   5  30
HETATM   30  C10 UNL     1     118.160  71.379   1.584  1.00  0.00     0.108 C 
HETATM   31  N3  UNL     1     117.806  71.016   2.772  1.00  0.00    -0.318 N 
ATOM     32  H3  UNL     1     118.508  70.981   3.512  1.00  0.00     0.185 HD
BRANCH  31  33
HETATM   33  N4  UNL     1     116.467  70.665   3.072  1.00  0.00    -0.345 N 
ATOM     34  H42 UNL     1     115.719  71.161   2.588  1.00  0.00     0.176 HD
ATOM     35  H41 UNL     1     116.246  69.939   3.753  1.00  0.00     0.176 HD
ENDBRANCH  31  33
ENDBRANCH   5  30
BRANCH   6  36
HETATM   36  C13 UNL     1     115.158  71.563  -1.785  1.00  0.00     0.235 C 
HETATM   37  O4  UNL     1     115.989  71.151  -2.660  1.00  0.00    -0.272 OA
HETATM   38  N5  UNL     1     113.868  70.940  -1.848  1.00  0.00    -0.358 N 
ATOM     39  H5  UNL     1     113.137  71.209  -1.190  1.00  0.00     0.162 HD
BRANCH  38  40
HETATM   40  C14 UNL     1     113.602  69.912  -2.865  1.00  0.00     0.148 C 
BRANCH  40  41
HETATM   41  C15 UNL     1     112.113  69.856  -3.166  1.00  0.00     0.183 C 
BRANCH  41  42
HETATM   42  O5  UNL     1     111.607  71.134  -2.743  1.00  0.00    -0.399 OA
ATOM     43  H5  UNL     1     111.953  71.252  -1.867  1.00  0.00     0.209 HD
ENDBRANCH  41  42
ENDBRANCH  40  41
ENDBRANCH  38  40
ENDBRANCH   6  36
TORSDOF 16
ENDMDL
