MODEL 1
REMARK VINA RESULT: -7.966082041      0.000      0.000
REMARK  15 active torsions:
REMARK  status: ('A' for Active; 'I' for Inactive)
REMARK    1  A    between atoms: C2_2  and  N1_3 
REMARK    2  A    between atoms: C2_2  and  C3_7 
REMARK    3  A    between atoms: C3_7  and  C4_8 
REMARK       I    between atoms: C4_8  and  N2_10 
REMARK    4  A    between atoms: N2_10  and  C5_12 
REMARK    5  A    between atoms: C5_12  and  C6_13 
REMARK    6  A    between atoms: C8_19  and  C9_20 
REMARK    7  A    between atoms: C9_20  and  N6_34 
REMARK    8  A    between atoms: N5_21  and  C10_23 
REMARK    9  A    between atoms: C13_26  and  P1_27 
REMARK   10  A    between atoms: P1_27  and  O2_28 
REMARK   11  A    between atoms: P1_27  and  O3_30 
REMARK       I    between atoms: N6_34  and  C16_36 
REMARK       I    between atoms: C16_36  and  N7_38 
REMARK   12  A    between atoms: N7_38  and  C17_40 
REMARK   13  A    between atoms: C17_40  and  C18_41 
REMARK   14  A    between atoms: C18_41  and  C19_42 
REMARK   15  A    between atoms: C19_42  and  O5_43 
ROOT
HETATM    1  C9  UNL     1     111.359  80.299  11.900  1.00  0.00     0.138 C 
HETATM    2  N5  UNL     1     112.407  79.509  11.859  1.00  0.00    -0.340 N 
ATOM      3  H5  UNL     1     112.394  78.633  11.336  1.00  0.00     0.167 HD
ENDROOT
BRANCH   1   4
HETATM    4  C8  UNL     1     110.182  79.867  11.168  1.00  0.00     0.095 A 
HETATM    5  C7  UNL     1     108.963  79.911  11.773  1.00  0.00     0.140 A 
HETATM    6  N4  UNL     1     107.874  79.514  11.085  1.00  0.00    -0.308 N 
HETATM    7  N3  UNL     1     108.017  79.097   9.851  1.00  0.00    -0.288 N 
ATOM      8  H4  UNL     1     106.951  79.538  11.519  1.00  0.00     0.186 HD
HETATM    9  C6  UNL     1     109.193  79.046   9.240  1.00  0.00     0.114 A 
ATOM     10  H3  UNL     1     107.188  78.799   9.337  1.00  0.00     0.188 HD
HETATM   11  N8  UNL     1     110.299  79.438   9.908  1.00  0.00    -0.339 N 
ATOM     12  H8  UNL     1     111.214  79.407   9.455  1.00  0.00     0.167 HD
BRANCH   9  13
HETATM   13  C5  UNL     1     109.387  78.573   7.857  1.00  0.00     0.200 C 
BRANCH  13  14
HETATM   14  N2  UNL     1     110.754  78.096   7.699  1.00  0.00    -0.354 N 
HETATM   15  C4  UNL     1     111.059  76.939   6.944  1.00  0.00     0.219 C 
HETATM   16  O1  UNL     1     110.172  76.258   6.370  1.00  0.00    -0.274 OA
ATOM     17  H2  UNL     1     111.513  78.611   8.145  1.00  0.00     0.162 HD
BRANCH  15  18
HETATM   18  C3  UNL     1     112.470  76.511   6.824  1.00  0.00     0.135 C 
BRANCH  18  19
HETATM   19  C2  UNL     1     112.882  76.434   5.356  1.00  0.00     0.188 C 
HETATM   20  C1  UNL     1     114.347  76.214   5.221  1.00  0.00     0.040 C 
BRANCH  19  21
HETATM   21  N1  UNL     1     112.433  77.644   4.695  1.00  0.00    -0.075 N 
ATOM     22  H13 UNL     1     112.775  78.474   5.179  1.00  0.00     0.274 HD
ATOM     23  H12 UNL     1     112.905  77.768   3.800  1.00  0.00     0.274 HD
ATOM     24  H11 UNL     1     111.420  77.679   4.582  1.00  0.00     0.274 HD
ENDBRANCH  19  21
ENDBRANCH  18  19
ENDBRANCH  15  18
ENDBRANCH  13  14
ENDBRANCH   9  13
ENDBRANCH   1   4
BRANCH   1  25
HETATM   25  N6  UNL     1     111.396  81.499  12.621  1.00  0.00    -0.293 N 
HETATM   26  C16 UNL     1     111.570  82.747  12.004  1.00  0.00     0.321 C 
HETATM   27  O4  UNL     1     111.703  82.829  10.772  1.00  0.00    -0.247 OA
HETATM   28  N7  UNL     1     111.598  83.953  12.768  1.00  0.00    -0.343 N 
ATOM     29  H7  UNL     1     111.497  83.881  13.781  1.00  0.00     0.164 HD
ATOM     30  H6  UNL     1     111.292  81.465  13.635  1.00  0.00     0.172 HD
BRANCH  28  31
HETATM   31  C17 UNL     1     111.760  85.255  12.197  1.00  0.00     0.126 C 
BRANCH  31  32
HETATM   32  C18 UNL     1     113.191  85.541  11.838  1.00  0.00     0.046 C 
BRANCH  32  33
HETATM   33  C19 UNL     1     113.222  86.083  10.410  1.00  0.00     0.165 C 
BRANCH  33  34
HETATM   34  O5  UNL     1     112.042  85.790   9.739  1.00  0.00    -0.401 OA
ATOM     35  H5  UNL     1     112.216  85.318   8.933  1.00  0.00     0.209 HD
ENDBRANCH  33  34
ENDBRANCH  32  33
ENDBRANCH  31  32
ENDBRANCH  28  31
ENDBRANCH   1  25
BRANCH   2  36
HETATM   36  C10 UNL     1     113.566  79.928  12.577  1.00  0.00     0.033 A 
HETATM   37  C11 UNL     1     113.742  79.562  13.901  1.00  0.00     0.030 A 
HETATM   38  C12 UNL     1     114.855  79.963  14.601  1.00  0.00     0.019 A 
HETATM   39  C13 UNL     1     115.820  80.740  14.000  1.00  0.00     0.022 A 
HETATM   40  C14 UNL     1     115.649  81.111  12.674  1.00  0.00     0.019 A 
HETATM   41  C15 UNL     1     114.541  80.715  11.963  1.00  0.00     0.030 A 
BRANCH  39  42
HETATM   42  P1  UNL     1     117.289  81.266  14.935  1.00  0.00     0.200 P 
BRANCH  42  43
HETATM   43  O2  UNL     1     118.583  81.528  13.813  1.00  0.00    -0.346 OA
ATOM     44  H2  UNL     1     118.953  80.684  13.582  1.00  0.00     0.217 HD
ENDBRANCH  42  43
BRANCH  42  45
HETATM   45  O3  UNL     1     117.711  80.013  16.055  1.00  0.00    -0.346 OA
ATOM     46  H3  UNL     1     118.591  79.714  15.858  1.00  0.00     0.217 HD
ENDBRANCH  42  45
ENDBRANCH  39  42
ENDBRANCH   2  36
TORSDOF 15
ENDMDL
MODEL 2
REMARK VINA RESULT: -7.753813059      4.307      9.523
REMARK  15 active torsions:
REMARK  status: ('A' for Active; 'I' for Inactive)
REMARK    1  A    between atoms: C2_2  and  N1_3 
REMARK    2  A    between atoms: C2_2  and  C3_7 
REMARK    3  A    between atoms: C3_7  and  C4_8 
REMARK       I    between atoms: C4_8  and  N2_10 
REMARK    4  A    between atoms: N2_10  and  C5_12 
REMARK    5  A    between atoms: C5_12  and  C6_13 
REMARK    6  A    between atoms: C8_19  and  C9_20 
REMARK    7  A    between atoms: C9_20  and  N6_34 
REMARK    8  A    between atoms: N5_21  and  C10_23 
REMARK    9  A    between atoms: C13_26  and  P1_27 
REMARK   10  A    between atoms: P1_27  and  O2_28 
REMARK   11  A    between atoms: P1_27  and  O3_30 
REMARK       I    between atoms: N6_34  and  C16_36 
REMARK       I    between atoms: C16_36  and  N7_38 
REMARK   12  A    between atoms: N7_38  and  C17_40 
REMARK   13  A    between atoms: C17_40  and  C18_41 
REMARK   14  A    between atoms: C18_41  and  C19_42 
REMARK   15  A    between atoms: C19_42  and  O5_43 
ROOT
HETATM    1  C9  UNL     1     113.249  77.692   6.994  1.00  0.00     0.138 C 
HETATM    2  N5  UNL     1     114.189  76.827   6.688  1.00  0.00    -0.340 N 
ATOM      3  H5  UNL     1     115.050  76.762   7.232  1.00  0.00     0.167 HD
ENDROOT
BRANCH   1   4
HETATM    4  C8  UNL     1     113.494  78.550   8.140  1.00  0.00     0.095 A 
HETATM    5  C7  UNL     1     114.774  78.863   8.481  1.00  0.00     0.140 A 
HETATM    6  N4  UNL     1     114.993  79.665   9.543  1.00  0.00    -0.308 N 
HETATM    7  N3  UNL     1     113.967  80.122  10.217  1.00  0.00    -0.288 N 
ATOM      8  H4  UNL     1     115.944  79.912   9.816  1.00  0.00     0.186 HD
HETATM    9  C6  UNL     1     112.712  79.831   9.904  1.00  0.00     0.114 A 
ATOM     10  H3  UNL     1     114.141  80.729  11.018  1.00  0.00     0.188 HD
HETATM   11  N8  UNL     1     112.465  79.031   8.846  1.00  0.00    -0.339 N 
ATOM     12  H8  UNL     1     111.507  78.796   8.587  1.00  0.00     0.167 HD
BRANCH   9  13
HETATM   13  C5  UNL     1     111.538  80.323  10.650  1.00  0.00     0.200 C 
BRANCH  13  14
HETATM   14  N2  UNL     1     111.744  81.719  11.005  1.00  0.00    -0.354 N 
HETATM   15  C4  UNL     1     111.232  82.268  12.206  1.00  0.00     0.219 C 
HETATM   16  O1  UNL     1     110.573  81.585  13.028  1.00  0.00    -0.274 OA
ATOM     17  H2  UNL     1     112.272  82.319  10.372  1.00  0.00     0.162 HD
BRANCH  15  18
HETATM   18  C3  UNL     1     111.479  83.695  12.504  1.00  0.00     0.135 C 
BRANCH  18  19
HETATM   19  C2  UNL     1     112.739  83.853  13.352  1.00  0.00     0.188 C 
HETATM   20  C1  UNL     1     113.900  84.265  12.517  1.00  0.00     0.040 C 
BRANCH  19  21
HETATM   21  N1  UNL     1     112.969  82.608  14.057  1.00  0.00    -0.075 N 
ATOM     22  H13 UNL     1     113.674  82.043  13.583  1.00  0.00     0.274 HD
ATOM     23  H12 UNL     1     113.456  82.772  14.939  1.00  0.00     0.274 HD
ATOM     24  H11 UNL     1     112.112  82.075  14.206  1.00  0.00     0.274 HD
ENDBRANCH  19  21
ENDBRANCH  18  19
ENDBRANCH  15  18
ENDBRANCH  13  14
ENDBRANCH   9  13
ENDBRANCH   1   4
BRANCH   1  25
HETATM   25  N6  UNL     1     112.072  77.766   6.238  1.00  0.00    -0.293 N 
HETATM   26  C16 UNL     1     110.896  77.091   6.602  1.00  0.00     0.321 C 
HETATM   27  O4  UNL     1     110.862  76.389   7.625  1.00  0.00    -0.247 OA
HETATM   28  N7  UNL     1     109.712  77.192   5.811  1.00  0.00    -0.343 N 
ATOM     29  H7  UNL     1     109.746  77.763   4.966  1.00  0.00     0.164 HD
ATOM     30  H6  UNL     1     112.069  78.332   5.391  1.00  0.00     0.172 HD
BRANCH  28  31
HETATM   31  C17 UNL     1     108.480  76.539   6.134  1.00  0.00     0.126 C 
BRANCH  31  32
HETATM   32  C18 UNL     1     107.317  77.490   6.124  1.00  0.00     0.046 C 
BRANCH  32  33
HETATM   33  C19 UNL     1     107.813  78.852   6.608  1.00  0.00     0.165 C 
BRANCH  33  34
HETATM   34  O5  UNL     1     107.821  79.777   5.573  1.00  0.00    -0.401 OA
ATOM     35  H5  UNL     1     107.464  80.610   5.857  1.00  0.00     0.209 HD
ENDBRANCH  33  34
ENDBRANCH  32  33
ENDBRANCH  31  32
ENDBRANCH  28  31
ENDBRANCH   1  25
BRANCH   2  36
HETATM   36  C10 UNL     1     113.955  75.982   5.563  1.00  0.00     0.033 A 
HETATM   37  C11 UNL     1     113.182  74.841   5.691  1.00  0.00     0.030 A 
HETATM   38  C12 UNL     1     112.952  74.020   4.612  1.00  0.00     0.019 A 
HETATM   39  C13 UNL     1     113.488  74.316   3.380  1.00  0.00     0.022 A 
HETATM   40  C14 UNL     1     114.264  75.458   3.244  1.00  0.00     0.019 A 
HETATM   41  C15 UNL     1     114.501  76.287   4.316  1.00  0.00     0.030 A 
BRANCH  39  42
HETATM   42  P1  UNL     1     113.179  73.224   1.958  1.00  0.00     0.200 P 
BRANCH  42  43
HETATM   43  O2  UNL     1     113.763  74.012   0.529  1.00  0.00    -0.346 OA
ATOM     44  H2  UNL     1     113.060  74.030  -0.109  1.00  0.00     0.217 HD
ENDBRANCH  42  43
BRANCH  42  45
HETATM   45  O3  UNL     1     111.474  72.945   1.834  1.00  0.00    -0.346 OA
ATOM     46  H3  UNL     1     111.325  72.245   1.210  1.00  0.00     0.217 HD
ENDBRANCH  42  45
ENDBRANCH  39  42
ENDBRANCH   2  36
TORSDOF 15
ENDMDL
MODEL 3
REMARK VINA RESULT: -7.744037709      5.293      7.859
REMARK  15 active torsions:
REMARK  status: ('A' for Active; 'I' for Inactive)
REMARK    1  A    between atoms: C2_2  and  N1_3 
REMARK    2  A    between atoms: C2_2  and  C3_7 
REMARK    3  A    between atoms: C3_7  and  C4_8 
REMARK       I    between atoms: C4_8  and  N2_10 
REMARK    4  A    between atoms: N2_10  and  C5_12 
REMARK    5  A    between atoms: C5_12  and  C6_13 
REMARK    6  A    between atoms: C8_19  and  C9_20 
REMARK    7  A    between atoms: C9_20  and  N6_34 
REMARK    8  A    between atoms: N5_21  and  C10_23 
REMARK    9  A    between atoms: C13_26  and  P1_27 
REMARK   10  A    between atoms: P1_27  and  O2_28 
REMARK   11  A    between atoms: P1_27  and  O3_30 
REMARK       I    between atoms: N6_34  and  C16_36 
REMARK       I    between atoms: C16_36  and  N7_38 
REMARK   12  A    between atoms: N7_38  and  C17_40 
REMARK   13  A    between atoms: C17_40  and  C18_41 
REMARK   14  A    between atoms: C18_41  and  C19_42 
REMARK   15  A    between atoms: C19_42  and  O5_43 
ROOT
HETATM    1  C9  UNL     1     112.427  76.986   6.007  1.00  0.00     0.138 C 
HETATM    2  N5  UNL     1     112.918  76.786   7.209  1.00  0.00    -0.340 N 
ATOM      3  H5  UNL     1     112.477  76.139   7.863  1.00  0.00     0.167 HD
ENDROOT
BRANCH   1   4
HETATM    4  C8  UNL     1     111.229  76.244   5.655  1.00  0.00     0.095 A 
HETATM    5  C7  UNL     1     110.009  76.743   5.993  1.00  0.00     0.140 A 
HETATM    6  N4  UNL     1     108.901  76.051   5.657  1.00  0.00    -0.308 N 
HETATM    7  N3  UNL     1     109.029  74.918   5.013  1.00  0.00    -0.288 N 
ATOM      8  H4  UNL     1     107.976  76.406   5.902  1.00  0.00     0.186 HD
HETATM    9  C6  UNL     1     110.207  74.413   4.672  1.00  0.00     0.114 A 
ATOM     10  H3  UNL     1     108.186  74.402   4.762  1.00  0.00     0.188 HD
HETATM   11  N8  UNL     1     111.331  75.086   4.996  1.00  0.00    -0.339 N 
ATOM     12  H8  UNL     1     112.247  74.715   4.742  1.00  0.00     0.167 HD
BRANCH   9  13
HETATM   13  C5  UNL     1     110.383  73.136   3.956  1.00  0.00     0.200 C 
BRANCH  13  14
HETATM   14  N2  UNL     1     111.596  73.198   3.153  1.00  0.00    -0.354 N 
HETATM   15  C4  UNL     1     112.855  72.810   3.672  1.00  0.00     0.219 C 
HETATM   16  O1  UNL     1     112.998  72.395   4.848  1.00  0.00    -0.274 OA
ATOM     17  H2  UNL     1     111.537  73.529   2.191  1.00  0.00     0.162 HD
BRANCH  15  18
HETATM   18  C3  UNL     1     114.047  72.899   2.800  1.00  0.00     0.135 C 
BRANCH  18  19
HETATM   19  C2  UNL     1     113.633  73.147   1.352  1.00  0.00     0.188 C 
HETATM   20  C1  UNL     1     114.410  72.289   0.417  1.00  0.00     0.040 C 
BRANCH  19  21
HETATM   21  N1  UNL     1     113.785  74.561   1.073  1.00  0.00    -0.075 N 
ATOM     22  H13 UNL     1     113.301  75.126   1.771  1.00  0.00     0.274 HD
ATOM     23  H12 UNL     1     114.742  74.867   1.248  1.00  0.00     0.274 HD
ATOM     24  H11 UNL     1     113.487  74.812   0.130  1.00  0.00     0.274 HD
ENDBRANCH  19  21
ENDBRANCH  18  19
ENDBRANCH  15  18
ENDBRANCH  13  14
ENDBRANCH   9  13
ENDBRANCH   1   4
BRANCH   1  25
HETATM   25  N6  UNL     1     113.046  77.877   5.120  1.00  0.00    -0.293 N 
HETATM   26  C16 UNL     1     113.560  77.473   3.879  1.00  0.00     0.321 C 
HETATM   27  O4  UNL     1     113.484  76.288   3.519  1.00  0.00    -0.247 OA
HETATM   28  N7  UNL     1     114.181  78.409   2.996  1.00  0.00    -0.343 N 
ATOM     29  H7  UNL     1     114.250  79.380   3.298  1.00  0.00     0.164 HD
ATOM     30  H6  UNL     1     113.127  78.858   5.388  1.00  0.00     0.172 HD
BRANCH  28  31
HETATM   31  C17 UNL     1     114.713  78.062   1.714  1.00  0.00     0.126 C 
BRANCH  31  32
HETATM   32  C18 UNL     1     116.215  78.036   1.713  1.00  0.00     0.046 C 
BRANCH  32  33
HETATM   33  C19 UNL     1     116.664  76.581   1.584  1.00  0.00     0.165 C 
BRANCH  33  34
HETATM   34  O5  UNL     1     116.191  75.816   2.642  1.00  0.00    -0.401 OA
ATOM     35  H5  UNL     1     116.588  74.953   2.643  1.00  0.00     0.209 HD
ENDBRANCH  33  34
ENDBRANCH  32  33
ENDBRANCH  31  32
ENDBRANCH  28  31
ENDBRANCH   1  25
BRANCH   2  36
HETATM   36  C10 UNL     1     114.094  77.513   7.560  1.00  0.00     0.033 A 
HETATM   37  C11 UNL     1     114.025  78.570   8.453  1.00  0.00     0.030 A 
HETATM   38  C12 UNL     1     115.153  79.277   8.796  1.00  0.00     0.019 A 
HETATM   39  C13 UNL     1     116.376  78.950   8.257  1.00  0.00     0.022 A 
HETATM   40  C14 UNL     1     116.452  77.893   7.361  1.00  0.00     0.019 A 
HETATM   41  C15 UNL     1     115.331  77.178   7.011  1.00  0.00     0.030 A 
BRANCH  39  42
HETATM   42  P1  UNL     1     117.863  79.892   8.716  1.00  0.00     0.200 P 
BRANCH  42  43
HETATM   43  O2  UNL     1     117.418  81.060   9.918  1.00  0.00    -0.346 OA
ATOM     44  H2  UNL     1     117.058  81.819   9.476  1.00  0.00     0.217 HD
ENDBRANCH  42  43
BRANCH  42  45
HETATM   45  O3  UNL     1     118.472  80.690   7.304  1.00  0.00    -0.346 OA
ATOM     46  H3  UNL     1     119.421  80.698   7.345  1.00  0.00     0.217 HD
ENDBRANCH  42  45
ENDBRANCH  39  42
ENDBRANCH   2  36
TORSDOF 15
ENDMDL
MODEL 4
REMARK VINA RESULT: -7.590864395      3.297      5.901
REMARK  15 active torsions:
REMARK  status: ('A' for Active; 'I' for Inactive)
REMARK    1  A    between atoms: C2_2  and  N1_3 
REMARK    2  A    between atoms: C2_2  and  C3_7 
REMARK    3  A    between atoms: C3_7  and  C4_8 
REMARK       I    between atoms: C4_8  and  N2_10 
REMARK    4  A    between atoms: N2_10  and  C5_12 
REMARK    5  A    between atoms: C5_12  and  C6_13 
REMARK    6  A    between atoms: C8_19  and  C9_20 
REMARK    7  A    between atoms: C9_20  and  N6_34 
REMARK    8  A    between atoms: N5_21  and  C10_23 
REMARK    9  A    between atoms: C13_26  and  P1_27 
REMARK   10  A    between atoms: P1_27  and  O2_28 
REMARK   11  A    between atoms: P1_27  and  O3_30 
REMARK       I    between atoms: N6_34  and  C16_36 
REMARK       I    between atoms: C16_36  and  N7_38 
REMARK   12  A    between atoms: N7_38  and  C17_40 
REMARK   13  A    between atoms: C17_40  and  C18_41 
REMARK   14  A    between atoms: C18_41  and  C19_42 
REMARK   15  A    between atoms: C19_42  and  O5_43 
ROOT
HETATM    1  C9  UNL     1     110.881  78.122   8.042  1.00  0.00     0.138 C 
HETATM    2  N5  UNL     1     110.551  79.046   8.916  1.00  0.00    -0.340 N 
ATOM      3  H5  UNL     1     109.619  79.459   8.929  1.00  0.00     0.167 HD
ENDROOT
BRANCH   1   4
HETATM    4  C8  UNL     1     109.856  77.719   7.096  1.00  0.00     0.095 A 
HETATM    5  C7  UNL     1     108.753  78.500   6.930  1.00  0.00     0.140 A 
HETATM    6  N4  UNL     1     107.808  78.122   6.045  1.00  0.00    -0.308 N 
HETATM    7  N3  UNL     1     107.978  77.014   5.367  1.00  0.00    -0.288 N 
ATOM      8  H4  UNL     1     106.973  78.691   5.906  1.00  0.00     0.186 HD
HETATM    9  C6  UNL     1     109.044  76.238   5.510  1.00  0.00     0.114 A 
ATOM     10  H3  UNL     1     107.259  76.736   4.699  1.00  0.00     0.188 HD
HETATM   11  N8  UNL     1     110.004  76.594   6.390  1.00  0.00    -0.339 N 
ATOM     12  H8  UNL     1     110.832  76.011   6.514  1.00  0.00     0.167 HD
BRANCH   9  13
HETATM   13  C5  UNL     1     109.258  74.982   4.769  1.00  0.00     0.200 C 
BRANCH  13  14
HETATM   14  N2  UNL     1     110.687  74.738   4.638  1.00  0.00    -0.354 N 
HETATM   15  C4  UNL     1     111.202  73.450   4.358  1.00  0.00     0.219 C 
HETATM   16  O1  UNL     1     110.461  72.448   4.208  1.00  0.00    -0.274 OA
ATOM     17  H2  UNL     1     111.335  75.517   4.752  1.00  0.00     0.162 HD
BRANCH  15  18
HETATM   18  C3  UNL     1     112.666  73.274   4.238  1.00  0.00     0.135 C 
BRANCH  18  19
HETATM   19  C2  UNL     1     113.108  73.446   2.786  1.00  0.00     0.188 C 
HETATM   20  C1  UNL     1     113.634  74.816   2.545  1.00  0.00     0.040 C 
BRANCH  19  21
HETATM   21  N1  UNL     1     111.985  73.117   1.930  1.00  0.00    -0.075 N 
ATOM     22  H13 UNL     1     111.117  73.078   2.463  1.00  0.00     0.274 HD
ATOM     23  H12 UNL     1     111.761  73.894   1.307  1.00  0.00     0.274 HD
ATOM     24  H11 UNL     1     112.130  72.256   1.403  1.00  0.00     0.274 HD
ENDBRANCH  19  21
ENDBRANCH  18  19
ENDBRANCH  15  18
ENDBRANCH  13  14
ENDBRANCH   9  13
ENDBRANCH   1   4
BRANCH   1  25
HETATM   25  N6  UNL     1     112.166  77.564   8.041  1.00  0.00    -0.293 N 
HETATM   26  C16 UNL     1     112.923  77.414   6.869  1.00  0.00     0.321 C 
HETATM   27  O4  UNL     1     112.468  77.775   5.772  1.00  0.00    -0.247 OA
HETATM   28  N7  UNL     1     114.233  76.845   6.903  1.00  0.00    -0.343 N 
ATOM     29  H7  UNL     1     114.600  76.541   7.805  1.00  0.00     0.164 HD
ATOM     30  H6  UNL     1     112.566  77.255   8.926  1.00  0.00     0.172 HD
BRANCH  28  31
HETATM   31  C17 UNL     1     115.059  76.677   5.747  1.00  0.00     0.126 C 
BRANCH  31  32
HETATM   32  C18 UNL     1     115.874  77.904   5.451  1.00  0.00     0.046 C 
BRANCH  32  33
HETATM   33  C19 UNL     1     115.755  78.203   3.958  1.00  0.00     0.165 C 
BRANCH  33  34
HETATM   34  O5  UNL     1     114.425  78.291   3.571  1.00  0.00    -0.401 OA
ATOM     35  H5  UNL     1     113.906  78.738   4.229  1.00  0.00     0.209 HD
ENDBRANCH  33  34
ENDBRANCH  32  33
ENDBRANCH  31  32
ENDBRANCH  28  31
ENDBRANCH   1  25
BRANCH   2  36
HETATM   36  C10 UNL     1     111.555  79.446   9.848  1.00  0.00     0.033 A 
HETATM   37  C11 UNL     1     112.837  79.742   9.415  1.00  0.00     0.030 A 
HETATM   38  C12 UNL     1     113.810  80.127  10.307  1.00  0.00     0.019 A 
HETATM   39  C13 UNL     1     113.531  80.226  11.650  1.00  0.00     0.022 A 
HETATM   40  C14 UNL     1     112.249  79.931  12.091  1.00  0.00     0.019 A 
HETATM   41  C15 UNL     1     111.266  79.545  11.209  1.00  0.00     0.030 A 
BRANCH  39  42
HETATM   42  P1  UNL     1     114.826  80.735  12.822  1.00  0.00     0.200 P 
BRANCH  42  43
HETATM   43  O2  UNL     1     114.106  80.904  14.389  1.00  0.00    -0.346 OA
ATOM     44  H2  UNL     1     114.303  81.774  14.716  1.00  0.00     0.217 HD
ENDBRANCH  42  43
BRANCH  42  45
HETATM   45  O3  UNL     1     115.481  82.251  12.298  1.00  0.00    -0.346 OA
ATOM     46  H3  UNL     1     115.699  82.769  13.064  1.00  0.00     0.217 HD
ENDBRANCH  42  45
ENDBRANCH  39  42
ENDBRANCH   2  36
TORSDOF 15
ENDMDL
MODEL 5
REMARK VINA RESULT: -7.527078676      5.251     11.354
REMARK  15 active torsions:
REMARK  status: ('A' for Active; 'I' for Inactive)
REMARK    1  A    between atoms: C2_2  and  N1_3 
REMARK    2  A    between atoms: C2_2  and  C3_7 
REMARK    3  A    between atoms: C3_7  and  C4_8 
REMARK       I    between atoms: C4_8  and  N2_10 
REMARK    4  A    between atoms: N2_10  and  C5_12 
REMARK    5  A    between atoms: C5_12  and  C6_13 
REMARK    6  A    between atoms: C8_19  and  C9_20 
REMARK    7  A    between atoms: C9_20  and  N6_34 
REMARK    8  A    between atoms: N5_21  and  C10_23 
REMARK    9  A    between atoms: C13_26  and  P1_27 
REMARK   10  A    between atoms: P1_27  and  O2_28 
REMARK   11  A    between atoms: P1_27  and  O3_30 
REMARK       I    between atoms: N6_34  and  C16_36 
REMARK       I    between atoms: C16_36  and  N7_38 
REMARK   12  A    between atoms: N7_38  and  C17_40 
REMARK   13  A    between atoms: C17_40  and  C18_41 
REMARK   14  A    between atoms: C18_41  and  C19_42 
REMARK   15  A    between atoms: C19_42  and  O5_43 
ROOT
HETATM    1  C9  UNL     1     114.775  77.148   4.314  1.00  0.00     0.138 C 
HETATM    2  N5  UNL     1     114.865  78.117   3.432  1.00  0.00    -0.340 N 
ATOM      3  H5  UNL     1     114.860  79.097   3.715  1.00  0.00     0.167 HD
ENDROOT
BRANCH   1   4
HETATM    4  C8  UNL     1     114.666  77.537   5.709  1.00  0.00     0.095 A 
HETATM    5  C7  UNL     1     115.796  77.810   6.418  1.00  0.00     0.140 A 
HETATM    6  N4  UNL     1     115.687  78.178   7.711  1.00  0.00    -0.308 N 
HETATM    7  N3  UNL     1     114.497  78.263   8.250  1.00  0.00    -0.288 N 
ATOM      8  H4  UNL     1     116.521  78.386   8.261  1.00  0.00     0.186 HD
HETATM    9  C6  UNL     1     113.382  78.003   7.580  1.00  0.00     0.114 A 
ATOM     10  H3  UNL     1     114.423  78.543   9.228  1.00  0.00     0.188 HD
HETATM   11  N8  UNL     1     113.464  77.634   6.284  1.00  0.00    -0.339 N 
ATOM     12  H8  UNL     1     112.618  77.431   5.750  1.00  0.00     0.167 HD
BRANCH   9  13
HETATM   13  C5  UNL     1     112.030  78.082   8.161  1.00  0.00     0.200 C 
BRANCH  13  14
HETATM   14  N2  UNL     1     112.005  79.118   9.184  1.00  0.00    -0.354 N 
HETATM   15  C4  UNL     1     110.795  79.714   9.614  1.00  0.00     0.219 C 
HETATM   16  O1  UNL     1     109.680  79.386   9.141  1.00  0.00    -0.274 OA
ATOM     17  H2  UNL     1     112.884  79.422   9.602  1.00  0.00     0.162 HD
BRANCH  15  18
HETATM   18  C3  UNL     1     110.844  80.761  10.658  1.00  0.00     0.135 C 
BRANCH  18  19
HETATM   19  C2  UNL     1     111.002  80.131  12.040  1.00  0.00     0.188 C 
HETATM   20  C1  UNL     1     109.703  80.093  12.764  1.00  0.00     0.040 C 
BRANCH  19  21
HETATM   21  N1  UNL     1     112.023  80.867  12.759  1.00  0.00    -0.075 N 
ATOM     22  H13 UNL     1     111.661  81.230  13.641  1.00  0.00     0.274 HD
ATOM     23  H12 UNL     1     112.740  80.238  13.122  1.00  0.00     0.274 HD
ATOM     24  H11 UNL     1     112.440  81.612  12.200  1.00  0.00     0.274 HD
ENDBRANCH  19  21
ENDBRANCH  18  19
ENDBRANCH  15  18
ENDBRANCH  13  14
ENDBRANCH   9  13
ENDBRANCH   1   4
BRANCH   1  25
HETATM   25  N6  UNL     1     114.786  75.807   3.908  1.00  0.00    -0.293 N 
HETATM   26  C16 UNL     1     113.680  74.959   4.068  1.00  0.00     0.321 C 
HETATM   27  O4  UNL     1     112.634  75.378   4.589  1.00  0.00    -0.247 OA
HETATM   28  N7  UNL     1     113.723  73.598   3.638  1.00  0.00    -0.343 N 
ATOM     29  H7  UNL     1     114.587  73.255   3.218  1.00  0.00     0.164 HD
ATOM     30  H6  UNL     1     115.632  75.433   3.478  1.00  0.00     0.172 HD
BRANCH  28  31
HETATM   31  C17 UNL     1     112.626  72.688   3.762  1.00  0.00     0.126 C 
BRANCH  31  32
HETATM   32  C18 UNL     1     111.563  72.939   2.730  1.00  0.00     0.046 C 
BRANCH  32  33
HETATM   33  C19 UNL     1     110.201  72.827   3.413  1.00  0.00     0.165 C 
BRANCH  33  34
HETATM   34  O5  UNL     1     110.258  73.298   4.718  1.00  0.00    -0.401 OA
ATOM     35  H5  UNL     1     109.440  73.713   4.967  1.00  0.00     0.209 HD
ENDBRANCH  33  34
ENDBRANCH  32  33
ENDBRANCH  31  32
ENDBRANCH  28  31
ENDBRANCH   1  25
BRANCH   2  36
HETATM   36  C10 UNL     1     114.971  77.740   2.060  1.00  0.00     0.033 A 
HETATM   37  C11 UNL     1     116.213  77.615   1.460  1.00  0.00     0.030 A 
HETATM   38  C12 UNL     1     116.324  77.254   0.138  1.00  0.00     0.019 A 
HETATM   39  C13 UNL     1     115.200  77.010  -0.618  1.00  0.00     0.022 A 
HETATM   40  C14 UNL     1     113.953  77.133  -0.024  1.00  0.00     0.019 A 
HETATM   41  C15 UNL     1     113.829  77.493   1.298  1.00  0.00     0.030 A 
BRANCH  39  42
HETATM   42  P1  UNL     1     115.358  76.533  -2.367  1.00  0.00     0.200 P 
BRANCH  42  43
HETATM   43  O2  UNL     1     114.780  74.908  -2.542  1.00  0.00    -0.346 OA
ATOM     44  H2  UNL     1     114.805  74.490  -1.690  1.00  0.00     0.217 HD
ENDBRANCH  42  43
BRANCH  42  45
HETATM   45  O3  UNL     1     117.028  76.626  -2.819  1.00  0.00    -0.346 OA
ATOM     46  H3  UNL     1     117.148  77.381  -3.382  1.00  0.00     0.217 HD
ENDBRANCH  42  45
ENDBRANCH  39  42
ENDBRANCH   2  36
TORSDOF 15
ENDMDL
