MODEL 1
REMARK VINA RESULT: -9.473748291      0.000      0.000
REMARK  12 active torsions:
REMARK  status: ('A' for Active; 'I' for Inactive)
REMARK    1  A    between atoms: C2_2  and  C4_4 
REMARK    2  A    between atoms: C4_4  and  N1_5 
REMARK    3  A    between atoms: C4_4  and  C13_22 
REMARK       I    between atoms: N1_5  and  C5_7 
REMARK    4  A    between atoms: C5_7  and  C6_9 
REMARK    5  A    between atoms: C6_9  and  C7_10 
REMARK    6  A    between atoms: C7_10  and  N2_11 
REMARK       I    between atoms: N3_14  and  C10_15 
REMARK       I    between atoms: C13_22  and  N6_24 
REMARK    7  A    between atoms: N6_24  and  C15_26 
REMARK    8  A    between atoms: N7_29  and  C18_30 
REMARK    9  A    between atoms: C18_30  and  C19_31 
REMARK   10  A    between atoms: N8_34  and  C22_35 
REMARK   11  A    between atoms: C22_35  and  O3_36 
REMARK   12  A    between atoms: C22_35  and  N9_38 
ROOT
HETATM    1  C15 UNL     1      -2.337 -16.915  32.668  1.00  0.00     0.090 C 
HETATM    2  C16 UNL     1      -1.789 -15.644  33.264  1.00  0.00     0.055 C 
HETATM    3  C17 UNL     1      -1.280 -14.779  32.121  1.00  0.00     0.274 C 
HETATM    4  N7  UNL     1      -2.308 -14.620  31.122  1.00  0.00     0.088 N 
HETATM    5  C33 UNL     1      -3.596 -15.109  31.604  1.00  0.00     0.274 C 
HETATM    6  C34 UNL     1      -3.540 -16.603  31.844  1.00  0.00     0.055 C 
ENDROOT
BRANCH   1   7
HETATM    7  N6  UNL     1      -2.559 -17.955  33.668  1.00  0.00    -0.350 N 
HETATM    8  C13 UNL     1      -1.511 -18.631  34.302  1.00  0.00     0.243 C 
HETATM    9  O2  UNL     1      -0.334 -18.321  33.892  1.00  0.00    -0.271 OA
HETATM   10  C14 UNL     1      -3.940 -18.245  33.977  1.00  0.00     0.153 C 
BRANCH   8  11
HETATM   11  C4  UNL     1      -1.590 -19.629  35.354  1.00  0.00     0.180 C 
BRANCH  11  12
HETATM   12  C2  UNL     1      -1.809 -21.053  34.925  1.00  0.00     0.009 C 
HETATM   13  C1  UNL     1      -2.698 -21.860  35.828  1.00  0.00     0.012 C 
HETATM   14  C3  UNL     1      -0.396 -21.714  35.002  1.00  0.00     0.012 C 
ENDBRANCH  11  12
BRANCH  11  15
HETATM   15  N1  UNL     1      -2.495 -19.283  36.424  1.00  0.00    -0.347 N 
HETATM   16  C5  UNL     1      -2.310 -19.312  37.799  1.00  0.00     0.220 C 
HETATM   17  O1  UNL     1      -1.278 -19.655  38.424  1.00  0.00    -0.274 OA
ATOM     18  H1  UNL     1      -3.416 -18.967  36.121  1.00  0.00     0.163 HD
BRANCH  16  19
HETATM   19  C6  UNL     1      -3.458 -18.886  38.685  1.00  0.00     0.133 C 
BRANCH  19  20
HETATM   20  C7  UNL     1      -4.459 -19.986  38.724  1.00  0.00     0.281 C 
BRANCH  20  21
HETATM   21  N2  UNL     1      -5.063 -20.150  40.034  1.00  0.00     0.092 N 
HETATM   22  C8  UNL     1      -5.175 -18.906  40.740  1.00  0.00     0.292 C 
HETATM   23  C9  UNL     1      -5.910 -19.149  42.049  1.00  0.00     0.156 C 
HETATM   24  N3  UNL     1      -5.116 -20.107  42.774  1.00  0.00    -0.353 N 
HETATM   25  C10 UNL     1      -5.529 -20.561  44.042  1.00  0.00     0.184 C 
HETATM   26  C11 UNL     1      -3.900 -20.588  42.170  1.00  0.00     0.156 C 
HETATM   27  N4  UNL     1      -6.797 -20.678  44.365  1.00  0.00    -0.374 N 
HETATM   28  N5  UNL     1      -4.628 -20.928  45.077  1.00  0.00    -0.064 NA
ATOM     29  H42 UNL     1      -7.443 -20.415  43.622  1.00  0.00     0.158 HD
ATOM     30  H41 UNL     1      -7.095 -21.007  45.283  1.00  0.00     0.158 HD
HETATM   31  C12 UNL     1      -4.253 -21.089  40.776  1.00  0.00     0.292 C 
ENDBRANCH  20  21
ENDBRANCH  19  20
ENDBRANCH  16  19
ENDBRANCH  11  15
ENDBRANCH   8  11
ENDBRANCH   1   7
BRANCH   4  32
HETATM   32  C18 UNL     1      -1.981 -15.187  29.840  1.00  0.00     0.277 C 
BRANCH  32  33
HETATM   33  C19 UNL     1      -0.472 -15.059  29.638  1.00  0.00     0.017 C 
HETATM   34  C20 UNL     1      -0.190 -14.900  28.187  1.00  0.00     0.026 C 
HETATM   35  C21 UNL     1       1.338 -14.832  27.991  1.00  0.00     0.127 C 
HETATM   36  N8  UNL     1       1.902 -16.071  28.396  1.00  0.00    -0.347 N 
HETATM   37  C31 UNL     1       0.942 -16.989  29.073  1.00  0.00     0.127 C 
HETATM   38  C32 UNL     1       0.255 -16.239  30.189  1.00  0.00     0.026 C 
BRANCH  36  39
HETATM   39  C22 UNL     1       3.213 -16.556  28.299  1.00  0.00     0.217 C 
BRANCH  39  40
HETATM   40  O3  UNL     1       3.817 -16.706  29.450  1.00  0.00    -0.333 OA
ATOM     41  H3  UNL     1       4.221 -15.915  29.784  1.00  0.00     0.220 HD
ENDBRANCH  39  40
BRANCH  39  42
HETATM   42  N9  UNL     1       3.990 -16.906  27.178  1.00  0.00    -0.348 N 
HETATM   43  C23 UNL     1       4.805 -18.134  27.307  1.00  0.00     0.126 C 
HETATM   44  C24 UNL     1       6.153 -18.026  26.657  1.00  0.00     0.020 C 
HETATM   45  C25 UNL     1       7.258 -17.832  27.655  1.00  0.00     0.002 C 
HETATM   46  C26 UNL     1       7.744 -16.462  27.865  1.00  0.00     0.000 C 
HETATM   47  C27 UNL     1       7.319 -15.455  26.830  1.00  0.00     0.000 C 
HETATM   48  C28 UNL     1       5.925 -14.914  27.129  1.00  0.00     0.002 C 
HETATM   49  C29 UNL     1       5.006 -14.996  25.963  1.00  0.00     0.020 C 
HETATM   50  C30 UNL     1       4.037 -16.143  25.968  1.00  0.00     0.126 C 
ENDBRANCH  39  42
ENDBRANCH  36  39
ENDBRANCH  32  33
ENDBRANCH   4  32
TORSDOF 12
ENDMDL
MODEL 2
REMARK VINA RESULT: -9.427126270      2.878     13.203
REMARK  12 active torsions:
REMARK  status: ('A' for Active; 'I' for Inactive)
REMARK    1  A    between atoms: C2_2  and  C4_4 
REMARK    2  A    between atoms: C4_4  and  N1_5 
REMARK    3  A    between atoms: C4_4  and  C13_22 
REMARK       I    between atoms: N1_5  and  C5_7 
REMARK    4  A    between atoms: C5_7  and  C6_9 
REMARK    5  A    between atoms: C6_9  and  C7_10 
REMARK    6  A    between atoms: C7_10  and  N2_11 
REMARK       I    between atoms: N3_14  and  C10_15 
REMARK       I    between atoms: C13_22  and  N6_24 
REMARK    7  A    between atoms: N6_24  and  C15_26 
REMARK    8  A    between atoms: N7_29  and  C18_30 
REMARK    9  A    between atoms: C18_30  and  C19_31 
REMARK   10  A    between atoms: N8_34  and  C22_35 
REMARK   11  A    between atoms: C22_35  and  O3_36 
REMARK   12  A    between atoms: C22_35  and  N9_38 
ROOT
HETATM    1  C15 UNL     1      -2.514 -18.065  33.969  1.00  0.00     0.090 C 
HETATM    2  C16 UNL     1      -1.471 -19.127  33.735  1.00  0.00     0.055 C 
HETATM    3  C17 UNL     1      -1.352 -19.948  35.010  1.00  0.00     0.274 C 
HETATM    4  N7  UNL     1      -2.653 -20.416  35.422  1.00  0.00     0.088 N 
HETATM    5  C33 UNL     1      -3.652 -20.190  34.383  1.00  0.00     0.274 C 
HETATM    6  C34 UNL     1      -3.849 -18.707  34.150  1.00  0.00     0.055 C 
ENDROOT
BRANCH   1   7
HETATM    7  N6  UNL     1      -2.494 -17.022  32.949  1.00  0.00    -0.350 N 
HETATM    8  C13 UNL     1      -1.408 -16.157  32.772  1.00  0.00     0.243 C 
HETATM    9  O2  UNL     1      -0.453 -16.300  33.619  1.00  0.00    -0.271 OA
HETATM   10  C14 UNL     1      -3.670 -16.937  32.113  1.00  0.00     0.153 C 
BRANCH   8  11
HETATM   11  C4  UNL     1      -1.231 -15.130  31.761  1.00  0.00     0.180 C 
BRANCH  11  12
HETATM   12  C2  UNL     1      -2.403 -14.227  31.497  1.00  0.00     0.009 C 
HETATM   13  C1  UNL     1      -2.723 -14.008  30.045  1.00  0.00     0.012 C 
HETATM   14  C3  UNL     1      -1.971 -12.836  32.061  1.00  0.00     0.012 C 
ENDBRANCH  11  12
BRANCH  11  15
HETATM   15  N1  UNL     1      -0.684 -15.618  30.518  1.00  0.00    -0.347 N 
HETATM   16  C5  UNL     1       0.411 -16.437  30.281  1.00  0.00     0.220 C 
HETATM   17  O1  UNL     1       1.183 -16.946  31.129  1.00  0.00    -0.274 OA
ATOM     18  H1  UNL     1      -1.182 -15.314  29.681  1.00  0.00     0.163 HD
BRANCH  16  19
HETATM   19  C6  UNL     1       0.748 -16.785  28.849  1.00  0.00     0.133 C 
BRANCH  19  20
HETATM   20  C7  UNL     1       1.786 -15.836  28.363  1.00  0.00     0.281 C 
BRANCH  20  21
HETATM   21  N2  UNL     1       2.899 -16.503  27.713  1.00  0.00     0.092 N 
HETATM   22  C8  UNL     1       3.844 -17.026  28.657  1.00  0.00     0.292 C 
HETATM   23  C9  UNL     1       4.916 -17.796  27.902  1.00  0.00     0.156 C 
HETATM   24  N3  UNL     1       5.524 -16.848  27.005  1.00  0.00    -0.353 N 
HETATM   25  C10 UNL     1       6.563 -17.249  26.141  1.00  0.00     0.184 C 
HETATM   26  C11 UNL     1       5.042 -15.491  27.011  1.00  0.00     0.156 C 
HETATM   27  N4  UNL     1       6.629 -18.461  25.641  1.00  0.00    -0.374 N 
HETATM   28  N5  UNL     1       7.623 -16.394  25.738  1.00  0.00    -0.064 NA
ATOM     29  H42 UNL     1       5.868 -19.075  25.931  1.00  0.00     0.158 HD
ATOM     30  H41 UNL     1       7.382 -18.750  25.016  1.00  0.00     0.158 HD
HETATM   31  C12 UNL     1       3.530 -15.546  26.832  1.00  0.00     0.292 C 
ENDBRANCH  20  21
ENDBRANCH  19  20
ENDBRANCH  16  19
ENDBRANCH  11  15
ENDBRANCH   8  11
ENDBRANCH   1   7
BRANCH   4  32
HETATM   32  C18 UNL     1      -3.093 -19.899  36.691  1.00  0.00     0.277 C 
BRANCH  32  33
HETATM   33  C19 UNL     1      -2.080 -20.325  37.753  1.00  0.00     0.017 C 
HETATM   34  C20 UNL     1      -2.208 -21.788  37.984  1.00  0.00     0.026 C 
HETATM   35  C21 UNL     1      -1.224 -22.194  39.100  1.00  0.00     0.127 C 
HETATM   36  N8  UNL     1      -1.607 -21.542  40.302  1.00  0.00    -0.347 N 
HETATM   37  C31 UNL     1      -2.678 -20.520  40.129  1.00  0.00     0.127 C 
HETATM   38  C32 UNL     1      -2.274 -19.572  39.025  1.00  0.00     0.026 C 
BRANCH  36  39
HETATM   39  C22 UNL     1      -1.122 -21.674  41.610  1.00  0.00     0.217 C 
BRANCH  39  40
HETATM   40  O3  UNL     1      -1.973 -22.211  42.446  1.00  0.00    -0.333 OA
ATOM     41  H3  UNL     1      -1.584 -22.824  43.059  1.00  0.00     0.220 HD
ENDBRANCH  39  40
BRANCH  39  42
HETATM   42  N9  UNL     1       0.119 -21.327  42.176  1.00  0.00    -0.348 N 
HETATM   43  C23 UNL     1       0.068 -20.544  43.430  1.00  0.00     0.126 C 
HETATM   44  C24 UNL     1       1.132 -19.491  43.519  1.00  0.00     0.020 C 
HETATM   45  C25 UNL     1       0.598 -18.110  43.265  1.00  0.00     0.002 C 
HETATM   46  C26 UNL     1       0.785 -17.552  41.918  1.00  0.00     0.000 C 
HETATM   47  C27 UNL     1       1.772 -18.279  41.044  1.00  0.00     0.000 C 
HETATM   48  C28 UNL     1       1.123 -19.479  40.363  1.00  0.00     0.002 C 
HETATM   49  C29 UNL     1       1.893 -20.738  40.545  1.00  0.00     0.020 C 
HETATM   50  C30 UNL     1       1.384 -21.674  41.604  1.00  0.00     0.126 C 
ENDBRANCH  39  42
ENDBRANCH  36  39
ENDBRANCH  32  33
ENDBRANCH   4  32
TORSDOF 12
ENDMDL
MODEL 3
REMARK VINA RESULT: -9.403123674      3.183     12.448
REMARK  12 active torsions:
REMARK  status: ('A' for Active; 'I' for Inactive)
REMARK    1  A    between atoms: C2_2  and  C4_4 
REMARK    2  A    between atoms: C4_4  and  N1_5 
REMARK    3  A    between atoms: C4_4  and  C13_22 
REMARK       I    between atoms: N1_5  and  C5_7 
REMARK    4  A    between atoms: C5_7  and  C6_9 
REMARK    5  A    between atoms: C6_9  and  C7_10 
REMARK    6  A    between atoms: C7_10  and  N2_11 
REMARK       I    between atoms: N3_14  and  C10_15 
REMARK       I    between atoms: C13_22  and  N6_24 
REMARK    7  A    between atoms: N6_24  and  C15_26 
REMARK    8  A    between atoms: N7_29  and  C18_30 
REMARK    9  A    between atoms: C18_30  and  C19_31 
REMARK   10  A    between atoms: N8_34  and  C22_35 
REMARK   11  A    between atoms: C22_35  and  O3_36 
REMARK   12  A    between atoms: C22_35  and  N9_38 
ROOT
HETATM    1  C15 UNL     1      -2.527 -17.813  33.850  1.00  0.00     0.090 C 
HETATM    2  C16 UNL     1      -1.481 -18.871  33.618  1.00  0.00     0.055 C 
HETATM    3  C17 UNL     1      -1.345 -19.678  34.899  1.00  0.00     0.274 C 
HETATM    4  N7  UNL     1      -2.639 -20.150  35.329  1.00  0.00     0.088 N 
HETATM    5  C33 UNL     1      -3.650 -19.940  34.296  1.00  0.00     0.274 C 
HETATM    6  C34 UNL     1      -3.856 -18.460  34.051  1.00  0.00     0.055 C 
ENDROOT
BRANCH   1   7
HETATM    7  N6  UNL     1      -2.522 -16.780  32.819  1.00  0.00    -0.350 N 
HETATM    8  C13 UNL     1      -1.420 -15.952  32.582  1.00  0.00     0.243 C 
HETATM    9  O2  UNL     1      -0.431 -16.118  33.385  1.00  0.00    -0.271 OA
HETATM   10  C14 UNL     1      -3.733 -16.665  32.039  1.00  0.00     0.153 C 
BRANCH   8  11
HETATM   11  C4  UNL     1      -1.258 -14.940  31.553  1.00  0.00     0.180 C 
BRANCH  11  12
HETATM   12  C2  UNL     1      -2.485 -14.563  30.772  1.00  0.00     0.009 C 
HETATM   13  C1  UNL     1      -2.258 -14.323  29.306  1.00  0.00     0.012 C 
HETATM   14  C3  UNL     1      -2.934 -13.192  31.372  1.00  0.00     0.012 C 
ENDBRANCH  11  12
BRANCH  11  15
HETATM   15  N1  UNL     1      -0.151 -15.183  30.661  1.00  0.00    -0.347 N 
HETATM   16  C5  UNL     1       0.444 -16.376  30.273  1.00  0.00     0.220 C 
HETATM   17  O1  UNL     1       0.129 -17.537  30.629  1.00  0.00    -0.274 OA
ATOM     18  H1  UNL     1       0.261 -14.345  30.249  1.00  0.00     0.163 HD
BRANCH  16  19
HETATM   19  C6  UNL     1       1.607 -16.317  29.309  1.00  0.00     0.133 C 
BRANCH  19  20
HETATM   20  C7  UNL     1       2.054 -17.707  29.022  1.00  0.00     0.281 C 
BRANCH  20  21
HETATM   21  N2  UNL     1       3.462 -17.915  29.309  1.00  0.00     0.092 N 
HETATM   22  C8  UNL     1       4.105 -18.719  28.310  1.00  0.00     0.292 C 
HETATM   23  C9  UNL     1       5.590 -18.800  28.627  1.00  0.00     0.156 C 
HETATM   24  N3  UNL     1       5.682 -19.395  29.935  1.00  0.00    -0.353 N 
HETATM   25  C10 UNL     1       6.939 -19.605  30.536  1.00  0.00     0.184 C 
HETATM   26  C11 UNL     1       4.463 -19.764  30.608  1.00  0.00     0.156 C 
HETATM   27  N4  UNL     1       7.958 -18.804  30.324  1.00  0.00    -0.374 N 
HETATM   28  N5  UNL     1       7.220 -20.686  31.414  1.00  0.00    -0.064 NA
ATOM     29  H42 UNL     1       7.756 -18.028  29.694  1.00  0.00     0.158 HD
ATOM     30  H41 UNL     1       8.868 -18.957  30.760  1.00  0.00     0.158 HD
HETATM   31  C12 UNL     1       3.557 -18.540  30.609  1.00  0.00     0.292 C 
ENDBRANCH  20  21
ENDBRANCH  19  20
ENDBRANCH  16  19
ENDBRANCH  11  15
ENDBRANCH   8  11
ENDBRANCH   1   7
BRANCH   4  32
HETATM   32  C18 UNL     1      -3.070 -19.621  36.596  1.00  0.00     0.277 C 
BRANCH  32  33
HETATM   33  C19 UNL     1      -2.105 -20.121  37.670  1.00  0.00     0.017 C 
HETATM   34  C20 UNL     1      -2.319 -21.578  37.874  1.00  0.00     0.026 C 
HETATM   35  C21 UNL     1      -1.382 -22.057  39.001  1.00  0.00     0.127 C 
HETATM   36  N8  UNL     1      -1.753 -21.404  40.206  1.00  0.00    -0.347 N 
HETATM   37  C31 UNL     1      -2.761 -20.321  40.030  1.00  0.00     0.127 C 
HETATM   38  C32 UNL     1      -2.282 -19.379  38.951  1.00  0.00     0.026 C 
BRANCH  36  39
HETATM   39  C22 UNL     1      -1.303 -21.584  41.521  1.00  0.00     0.217 C 
BRANCH  39  40
HETATM   40  O3  UNL     1      -2.187 -22.123  42.322  1.00  0.00    -0.333 OA
ATOM     41  H3  UNL     1      -2.878 -21.530  42.594  1.00  0.00     0.220 HD
ENDBRANCH  39  40
BRANCH  39  42
HETATM   42  N9  UNL     1      -0.068 -21.284  42.126  1.00  0.00    -0.348 N 
HETATM   43  C23 UNL     1      -0.126 -20.467  43.358  1.00  0.00     0.126 C 
HETATM   44  C24 UNL     1       0.986 -19.465  43.463  1.00  0.00     0.020 C 
HETATM   45  C25 UNL     1       0.530 -18.067  43.156  1.00  0.00     0.002 C 
HETATM   46  C26 UNL     1       0.794 -17.553  41.805  1.00  0.00     0.000 C 
HETATM   47  C27 UNL     1       1.775 -18.349  40.986  1.00  0.00     0.000 C 
HETATM   48  C28 UNL     1       1.093 -19.533  40.309  1.00  0.00     0.002 C 
HETATM   49  C29 UNL     1       1.792 -20.823  40.550  1.00  0.00     0.020 C 
HETATM   50  C30 UNL     1       1.199 -21.706  41.610  1.00  0.00     0.126 C 
ENDBRANCH  39  42
ENDBRANCH  36  39
ENDBRANCH  32  33
ENDBRANCH   4  32
TORSDOF 12
ENDMDL
MODEL 4
REMARK VINA RESULT: -9.347411598      5.392      7.643
REMARK  12 active torsions:
REMARK  status: ('A' for Active; 'I' for Inactive)
REMARK    1  A    between atoms: C2_2  and  C4_4 
REMARK    2  A    between atoms: C4_4  and  N1_5 
REMARK    3  A    between atoms: C4_4  and  C13_22 
REMARK       I    between atoms: N1_5  and  C5_7 
REMARK    4  A    between atoms: C5_7  and  C6_9 
REMARK    5  A    between atoms: C6_9  and  C7_10 
REMARK    6  A    between atoms: C7_10  and  N2_11 
REMARK       I    between atoms: N3_14  and  C10_15 
REMARK       I    between atoms: C13_22  and  N6_24 
REMARK    7  A    between atoms: N6_24  and  C15_26 
REMARK    8  A    between atoms: N7_29  and  C18_30 
REMARK    9  A    between atoms: C18_30  and  C19_31 
REMARK   10  A    between atoms: N8_34  and  C22_35 
REMARK   11  A    between atoms: C22_35  and  O3_36 
REMARK   12  A    between atoms: C22_35  and  N9_38 
ROOT
HETATM    1  C15 UNL     1       2.848 -17.659  31.004  1.00  0.00     0.090 C 
HETATM    2  C16 UNL     1       3.517 -17.872  29.671  1.00  0.00     0.055 C 
HETATM    3  C17 UNL     1       4.989 -17.526  29.831  1.00  0.00     0.274 C 
HETATM    4  N7  UNL     1       5.551 -18.249  30.945  1.00  0.00     0.088 N 
HETATM    5  C33 UNL     1       4.633 -19.276  31.429  1.00  0.00     0.274 C 
HETATM    6  C34 UNL     1       3.379 -18.643  31.992  1.00  0.00     0.055 C 
ENDROOT
BRANCH   1   7
HETATM    7  N6  UNL     1       1.392 -17.646  30.907  1.00  0.00    -0.350 N 
HETATM    8  C13 UNL     1       0.559 -17.598  32.030  1.00  0.00     0.243 C 
HETATM    9  O2  UNL     1       1.166 -17.637  33.161  1.00  0.00    -0.271 OA
HETATM   10  C14 UNL     1       0.850 -17.675  29.567  1.00  0.00     0.153 C 
BRANCH   8  11
HETATM   11  C4  UNL     1      -0.890 -17.511  32.073  1.00  0.00     0.180 C 
BRANCH  11  12
HETATM   12  C2  UNL     1      -1.480 -16.202  32.517  1.00  0.00     0.009 C 
HETATM   13  C1  UNL     1      -2.976 -16.108  32.407  1.00  0.00     0.012 C 
HETATM   14  C3  UNL     1      -0.903 -15.146  31.522  1.00  0.00     0.012 C 
ENDBRANCH  11  12
BRANCH  11  15
HETATM   15  N1  UNL     1      -1.522 -18.608  32.766  1.00  0.00    -0.347 N 
HETATM   16  C5  UNL     1      -1.665 -18.845  34.126  1.00  0.00     0.220 C 
HETATM   17  O1  UNL     1      -1.262 -18.129  35.074  1.00  0.00    -0.274 OA
ATOM     18  H1  UNL     1      -1.929 -19.321  32.161  1.00  0.00     0.163 HD
BRANCH  16  19
HETATM   19  C6  UNL     1      -2.387 -20.100  34.562  1.00  0.00     0.133 C 
BRANCH  19  20
HETATM   20  C7  UNL     1      -1.957 -20.437  35.946  1.00  0.00     0.281 C 
BRANCH  20  21
HETATM   21  N2  UNL     1      -3.063 -20.479  36.885  1.00  0.00     0.092 N 
HETATM   22  C8  UNL     1      -3.172 -19.269  37.650  1.00  0.00     0.292 C 
HETATM   23  C9  UNL     1      -4.411 -19.353  38.527  1.00  0.00     0.156 C 
HETATM   24  N3  UNL     1      -4.220 -20.505  39.369  1.00  0.00    -0.353 N 
HETATM   25  C10 UNL     1      -5.205 -20.875  40.307  1.00  0.00     0.184 C 
HETATM   26  C11 UNL     1      -3.005 -21.266  39.227  1.00  0.00     0.156 C 
HETATM   27  N4  UNL     1      -6.485 -20.670  40.094  1.00  0.00    -0.374 N 
HETATM   28  N5  UNL     1      -4.914 -21.493  41.552  1.00  0.00    -0.064 NA
ATOM     29  H42 UNL     1      -6.694 -20.226  39.200  1.00  0.00     0.158 HD
ATOM     30  H41 UNL     1      -7.198 -20.938  40.772  1.00  0.00     0.158 HD
HETATM   31  C12 UNL     1      -2.860 -21.617  37.752  1.00  0.00     0.292 C 
ENDBRANCH  20  21
ENDBRANCH  19  20
ENDBRANCH  16  19
ENDBRANCH  11  15
ENDBRANCH   8  11
ENDBRANCH   1   7
BRANCH   4  32
HETATM   32  C18 UNL     1       6.012 -17.412  32.022  1.00  0.00     0.277 C 
BRANCH  32  33
HETATM   33  C19 UNL     1       7.409 -17.882  32.422  1.00  0.00     0.017 C 
HETATM   34  C20 UNL     1       8.125 -18.360  31.210  1.00  0.00     0.026 C 
HETATM   35  C21 UNL     1       9.510 -18.887  31.637  1.00  0.00     0.127 C 
HETATM   36  N8  UNL     1       9.326 -20.010  32.486  1.00  0.00    -0.347 N 
HETATM   37  C31 UNL     1       7.911 -20.241  32.896  1.00  0.00     0.127 C 
HETATM   38  C32 UNL     1       7.349 -18.956  33.455  1.00  0.00     0.026 C 
BRANCH  36  39
HETATM   39  C22 UNL     1      10.253 -20.909  33.030  1.00  0.00     0.217 C 
BRANCH  39  40
HETATM   40  O3  UNL     1      10.411 -22.004  32.332  1.00  0.00    -0.333 OA
ATOM     41  H3  UNL     1      10.927 -21.892  31.543  1.00  0.00     0.220 HD
ENDBRANCH  39  40
BRANCH  39  42
HETATM   42  N9  UNL     1      11.038 -20.836  34.196  1.00  0.00    -0.348 N 
HETATM   43  C23 UNL     1      11.709 -22.088  34.610  1.00  0.00     0.126 C 
HETATM   44  C24 UNL     1      11.733 -22.288  36.096  1.00  0.00     0.020 C 
HETATM   45  C25 UNL     1      10.729 -23.306  36.556  1.00  0.00     0.002 C 
HETATM   46  C26 UNL     1       9.456 -22.804  37.092  1.00  0.00     0.000 C 
HETATM   47  C27 UNL     1       9.427 -21.337  37.430  1.00  0.00     0.000 C 
HETATM   48  C28 UNL     1       9.138 -20.494  36.193  1.00  0.00     0.002 C 
HETATM   49  C29 UNL     1      10.120 -19.395  35.995  1.00  0.00     0.020 C 
HETATM   50  C30 UNL     1      11.198 -19.649  34.980  1.00  0.00     0.126 C 
ENDBRANCH  39  42
ENDBRANCH  36  39
ENDBRANCH  32  33
ENDBRANCH   4  32
TORSDOF 12
ENDMDL
MODEL 5
REMARK VINA RESULT: -9.345946988      3.871      6.930
REMARK  12 active torsions:
REMARK  status: ('A' for Active; 'I' for Inactive)
REMARK    1  A    between atoms: C2_2  and  C4_4 
REMARK    2  A    between atoms: C4_4  and  N1_5 
REMARK    3  A    between atoms: C4_4  and  C13_22 
REMARK       I    between atoms: N1_5  and  C5_7 
REMARK    4  A    between atoms: C5_7  and  C6_9 
REMARK    5  A    between atoms: C6_9  and  C7_10 
REMARK    6  A    between atoms: C7_10  and  N2_11 
REMARK       I    between atoms: N3_14  and  C10_15 
REMARK       I    between atoms: C13_22  and  N6_24 
REMARK    7  A    between atoms: N6_24  and  C15_26 
REMARK    8  A    between atoms: N7_29  and  C18_30 
REMARK    9  A    between atoms: C18_30  and  C19_31 
REMARK   10  A    between atoms: N8_34  and  C22_35 
REMARK   11  A    between atoms: C22_35  and  O3_36 
REMARK   12  A    between atoms: C22_35  and  N9_38 
ROOT
HETATM    1  C15 UNL     1       1.287 -16.224  29.316  1.00  0.00     0.090 C 
HETATM    2  C16 UNL     1       1.886 -15.806  27.999  1.00  0.00     0.055 C 
HETATM    3  C17 UNL     1       3.399 -15.828  28.151  1.00  0.00     0.274 C 
HETATM    4  N7  UNL     1       3.829 -17.104  28.667  1.00  0.00     0.088 N 
HETATM    5  C33 UNL     1       2.739 -18.076  28.652  1.00  0.00     0.274 C 
HETATM    6  C34 UNL     1       1.634 -17.647  29.595  1.00  0.00     0.055 C 
ENDROOT
BRANCH   1   7
HETATM    7  N6  UNL     1      -0.142 -15.937  29.401  1.00  0.00    -0.350 N 
HETATM    8  C13 UNL     1      -0.790 -15.671  30.612  1.00  0.00     0.243 C 
HETATM    9  O2  UNL     1      -0.051 -15.766  31.659  1.00  0.00    -0.271 OA
HETATM   10  C14 UNL     1      -0.858 -15.932  28.146  1.00  0.00     0.153 C 
BRANCH   8  11
HETATM   11  C4  UNL     1      -2.179 -15.307  30.829  1.00  0.00     0.180 C 
BRANCH  11  12
HETATM   12  C2  UNL     1      -2.442 -13.942  31.400  1.00  0.00     0.009 C 
HETATM   13  C1  UNL     1      -3.880 -13.506  31.370  1.00  0.00     0.012 C 
HETATM   14  C3  UNL     1      -1.671 -12.961  30.461  1.00  0.00     0.012 C 
ENDBRANCH  11  12
BRANCH  11  15
HETATM   15  N1  UNL     1      -2.943 -16.304  31.540  1.00  0.00    -0.347 N 
HETATM   16  C5  UNL     1      -2.867 -16.717  32.863  1.00  0.00     0.220 C 
HETATM   17  O1  UNL     1      -2.091 -16.292  33.752  1.00  0.00    -0.274 OA
ATOM     18  H1  UNL     1      -3.651 -16.780  30.981  1.00  0.00     0.163 HD
BRANCH  16  19
HETATM   19  C6  UNL     1      -3.812 -17.800  33.330  1.00  0.00     0.133 C 
BRANCH  19  20
HETATM   20  C7  UNL     1      -3.029 -19.044  33.562  1.00  0.00     0.281 C 
BRANCH  20  21
HETATM   21  N2  UNL     1      -3.186 -19.566  34.907  1.00  0.00     0.092 N 
HETATM   22  C8  UNL     1      -2.429 -18.818  35.870  1.00  0.00     0.292 C 
HETATM   23  C9  UNL     1      -2.731 -19.361  37.258  1.00  0.00     0.156 C 
HETATM   24  N3  UNL     1      -2.344 -20.747  37.232  1.00  0.00    -0.353 N 
HETATM   25  C10 UNL     1      -2.505 -21.555  38.376  1.00  0.00     0.184 C 
HETATM   26  C11 UNL     1      -1.796 -21.284  36.013  1.00  0.00     0.156 C 
HETATM   27  N4  UNL     1      -3.484 -21.368  39.232  1.00  0.00    -0.374 N 
HETATM   28  N5  UNL     1      -1.638 -22.629  38.708  1.00  0.00    -0.064 NA
ATOM     29  H42 UNL     1      -4.106 -20.596  38.993  1.00  0.00     0.158 HD
ATOM     30  H41 UNL     1      -3.600 -21.952  40.059  1.00  0.00     0.158 HD
HETATM   31  C12 UNL     1      -2.770 -20.950  34.892  1.00  0.00     0.292 C 
ENDBRANCH  20  21
ENDBRANCH  19  20
ENDBRANCH  16  19
ENDBRANCH  11  15
ENDBRANCH   8  11
ENDBRANCH   1   7
BRANCH   4  32
HETATM   32  C18 UNL     1       4.453 -17.039  29.962  1.00  0.00     0.277 C 
BRANCH  32  33
HETATM   33  C19 UNL     1       5.627 -18.016  29.970  1.00  0.00     0.017 C 
HETATM   34  C20 UNL     1       5.134 -19.363  30.360  1.00  0.00     0.026 C 
HETATM   35  C21 UNL     1       6.338 -20.325  30.423  1.00  0.00     0.127 C 
HETATM   36  N8  UNL     1       7.216 -19.885  31.449  1.00  0.00    -0.347 N 
HETATM   37  C31 UNL     1       6.869 -18.554  32.022  1.00  0.00     0.127 C 
HETATM   38  C32 UNL     1       6.707 -17.564  30.894  1.00  0.00     0.026 C 
BRANCH  36  39
HETATM   39  C22 UNL     1       8.370 -20.475  31.982  1.00  0.00     0.217 C 
BRANCH  39  40
HETATM   40  O3  UNL     1       8.164 -21.160  33.078  1.00  0.00    -0.333 OA
ATOM     41  H3  UNL     1       8.727 -20.914  33.802  1.00  0.00     0.220 HD
ENDBRANCH  39  40
BRANCH  39  42
HETATM   42  N9  UNL     1       9.707 -20.455  31.544  1.00  0.00    -0.348 N 
HETATM   43  C23 UNL     1      10.640 -21.359  32.251  1.00  0.00     0.126 C 
HETATM   44  C24 UNL     1      12.000 -20.765  32.466  1.00  0.00     0.020 C 
HETATM   45  C25 UNL     1      12.212 -20.311  33.881  1.00  0.00     0.002 C 
HETATM   46  C26 UNL     1      12.032 -18.880  34.166  1.00  0.00     0.000 C 
HETATM   47  C27 UNL     1      11.980 -17.980  32.961  1.00  0.00     0.000 C 
HETATM   48  C28 UNL     1      10.580 -17.948  32.358  1.00  0.00     0.002 C 
HETATM   49  C29 UNL     1      10.569 -18.221  30.896  1.00  0.00     0.020 C 
HETATM   50  C30 UNL     1      10.191 -19.616  30.490  1.00  0.00     0.126 C 
ENDBRANCH  39  42
ENDBRANCH  36  39
ENDBRANCH  32  33
ENDBRANCH   4  32
TORSDOF 12
ENDMDL
