MODEL 1
REMARK VINA RESULT: -9.890868698      0.000      0.000
REMARK  9 active torsions:
REMARK  status: ('A' for Active; 'I' for Inactive)
REMARK    1  A    between atoms: C2_2  and  N1_4 
REMARK       I    between atoms: N1_4  and  C4_5 
REMARK    2  A    between atoms: N1_4  and  C23_35 
REMARK    3  A    between atoms: C4_5  and  C5_7 
REMARK    4  A    between atoms: C7_9  and  N2_10 
REMARK       I    between atoms: N2_10  and  C8_12 
REMARK    5  A    between atoms: C8_12  and  C9_14 
REMARK       I    between atoms: N3_19  and  C14_20 
REMARK       I    between atoms: C14_20  and  N4_22 
REMARK    6  A    between atoms: N4_22  and  C15_24 
REMARK    7  A    between atoms: N5_26  and  C17_27 
REMARK    8  A    between atoms: C23_35  and  C25_37 
REMARK       I    between atoms: C25_37  and  N6_39 
REMARK    9  A    between atoms: N6_39  and  C26_41 
ROOT
HETATM    1  C5  UNL     1      -3.055 -20.183  39.441  1.00  0.00     0.183 C 
HETATM    2  C6  UNL     1      -4.374 -20.993  39.665  1.00  0.00     0.060 C 
HETATM    3  C7  UNL     1      -5.552 -20.085  39.823  1.00  0.00     0.088 C 
HETATM    4  C12 UNL     1      -5.282 -18.730  39.189  1.00  0.00     0.045 C 
HETATM    5  C13 UNL     1      -4.503 -18.922  37.898  1.00  0.00     0.130 C 
HETATM    6  N3  UNL     1      -3.221 -19.616  38.144  1.00  0.00    -0.321 N 
HETATM    7  C14 UNL     1      -2.323 -19.585  37.067  1.00  0.00     0.319 C 
HETATM    8  O3  UNL     1      -1.183 -20.072  37.160  1.00  0.00    -0.247 OA
HETATM    9  N4  UNL     1      -2.658 -19.002  35.816  1.00  0.00    -0.328 N 
ATOM     10  H4  UNL     1      -3.586 -18.591  35.711  1.00  0.00     0.165 HD
ENDROOT
BRANCH   1  11
HETATM   11  C4  UNL     1      -2.001 -21.168  39.597  1.00  0.00     0.244 C 
HETATM   12  N1  UNL     1      -0.803 -21.011  40.320  1.00  0.00    -0.333 N 
HETATM   13  O1  UNL     1      -2.161 -22.309  39.021  1.00  0.00    -0.271 OA
BRANCH  12  14
HETATM   14  C2  UNL     1      -0.504 -19.741  40.965  1.00  0.00     0.080 C 
HETATM   15  C1  UNL     1       0.845 -19.171  40.547  1.00  0.00     0.032 C 
HETATM   16  C3  UNL     1      -0.591 -19.742  42.449  1.00  0.00     0.032 C 
ENDBRANCH  12  14
BRANCH  12  17
HETATM   17  C23 UNL     1       0.140 -22.132  40.497  1.00  0.00     0.175 C 
HETATM   18  C24 UNL     1       0.842 -22.501  39.229  1.00  0.00     0.042 C 
BRANCH  17  19
HETATM   19  C25 UNL     1      -0.418 -23.265  41.238  1.00  0.00     0.240 C 
HETATM   20  O6  UNL     1      -0.411 -24.435  40.676  1.00  0.00    -0.271 OA
HETATM   21  N6  UNL     1      -0.981 -23.252  42.530  1.00  0.00    -0.354 N 
ATOM     22  H6  UNL     1      -1.007 -22.362  43.028  1.00  0.00     0.162 HD
BRANCH  21  23
HETATM   23  C26 UNL     1      -1.522 -24.405  43.195  1.00  0.00     0.092 C 
HETATM   24  C27 UNL     1      -0.500 -25.201  43.980  1.00  0.00     0.009 C 
HETATM   25  C28 UNL     1       0.057 -24.467  45.155  1.00  0.00     0.011 C 
HETATM   26  C32 UNL     1      -1.255 -26.448  44.459  1.00  0.00     0.011 C 
HETATM   27  C29 UNL     1      -1.097 -24.099  46.064  1.00  0.00    -0.013 C 
HETATM   28  C30 UNL     1      -1.813 -25.318  46.548  1.00  0.00     0.009 C 
HETATM   29  C35 UNL     1      -2.027 -23.176  45.302  1.00  0.00     0.011 C 
HETATM   30  C31 UNL     1      -2.406 -26.042  45.356  1.00  0.00    -0.013 C 
HETATM   31  C33 UNL     1      -3.372 -25.102  44.680  1.00  0.00     0.011 C 
HETATM   32  C34 UNL     1      -2.606 -23.930  44.127  1.00  0.00     0.009 C 
ENDBRANCH  21  23
ENDBRANCH  17  19
ENDBRANCH  12  17
ENDBRANCH   1  11
BRANCH   3  33
HETATM   33  N2  UNL     1      -5.915 -19.884  41.201  1.00  0.00    -0.356 N 
HETATM   34  C8  UNL     1      -5.746 -20.914  42.138  1.00  0.00     0.222 C 
HETATM   35  O2  UNL     1      -5.277 -22.031  41.777  1.00  0.00    -0.273 OA
ATOM     36  H2  UNL     1      -6.297 -18.987  41.498  1.00  0.00     0.162 HD
BRANCH  34  37
HETATM   37  C9  UNL     1      -6.103 -20.736  43.565  1.00  0.00     0.078 A 
HETATM   38  C10 UNL     1      -4.892 -20.937  44.502  1.00  0.00     0.015 A 
HETATM   39  C11 UNL     1      -6.012 -21.894  44.457  1.00  0.00     0.015 A 
ENDBRANCH  34  37
ENDBRANCH   3  33
BRANCH   9  40
HETATM   40  C15 UNL     1      -1.767 -18.957  34.693  1.00  0.00     0.196 C 
HETATM   41  C16 UNL     1      -1.287 -17.545  34.425  1.00  0.00     0.161 C 
HETATM   42  N5  UNL     1      -2.225 -17.494  33.324  1.00  0.00    -0.343 N 
HETATM   43  C22 UNL     1      -2.477 -18.908  33.391  1.00  0.00     0.244 C 
HETATM   44  O5  UNL     1      -3.053 -19.749  32.660  1.00  0.00    -0.271 OA
BRANCH  42  45
HETATM   45  C17 UNL     1      -2.760 -16.457  32.448  1.00  0.00     0.091 C 
HETATM   46  C18 UNL     1      -3.350 -15.307  33.194  1.00  0.00     0.051 C 
HETATM   47  C19 UNL     1      -3.596 -14.174  32.235  1.00  0.00     0.169 C 
HETATM   48  O4  UNL     1      -2.393 -13.740  31.707  1.00  0.00    -0.391 OA
HETATM   49  C20 UNL     1      -1.922 -14.732  30.844  1.00  0.00     0.169 C 
HETATM   50  C21 UNL     1      -1.536 -15.920  31.689  1.00  0.00     0.051 C 
ENDBRANCH  42  45
ENDBRANCH   9  40
TORSDOF 9
ENDMDL
MODEL 2
REMARK VINA RESULT: -9.048671664      2.189      4.631
REMARK  9 active torsions:
REMARK  status: ('A' for Active; 'I' for Inactive)
REMARK    1  A    between atoms: C2_2  and  N1_4 
REMARK       I    between atoms: N1_4  and  C4_5 
REMARK    2  A    between atoms: N1_4  and  C23_35 
REMARK    3  A    between atoms: C4_5  and  C5_7 
REMARK    4  A    between atoms: C7_9  and  N2_10 
REMARK       I    between atoms: N2_10  and  C8_12 
REMARK    5  A    between atoms: C8_12  and  C9_14 
REMARK       I    between atoms: N3_19  and  C14_20 
REMARK       I    between atoms: C14_20  and  N4_22 
REMARK    6  A    between atoms: N4_22  and  C15_24 
REMARK    7  A    between atoms: N5_26  and  C17_27 
REMARK    8  A    between atoms: C23_35  and  C25_37 
REMARK       I    between atoms: C25_37  and  N6_39 
REMARK    9  A    between atoms: N6_39  and  C26_41 
ROOT
HETATM    1  C5  UNL     1      -3.057 -20.185  39.472  1.00  0.00     0.183 C 
HETATM    2  C6  UNL     1      -4.345 -21.043  39.703  1.00  0.00     0.060 C 
HETATM    3  C7  UNL     1      -5.558 -20.180  39.846  1.00  0.00     0.088 C 
HETATM    4  C12 UNL     1      -5.339 -18.824  39.194  1.00  0.00     0.045 C 
HETATM    5  C13 UNL     1      -4.549 -19.002  37.908  1.00  0.00     0.130 C 
HETATM    6  N3  UNL     1      -3.241 -19.642  38.167  1.00  0.00    -0.321 N 
HETATM    7  C14 UNL     1      -2.341 -19.590  37.092  1.00  0.00     0.319 C 
HETATM    8  O3  UNL     1      -1.184 -20.032  37.195  1.00  0.00    -0.247 OA
HETATM    9  N4  UNL     1      -2.695 -19.038  35.833  1.00  0.00    -0.328 N 
ATOM     10  H4  UNL     1      -3.638 -18.665  35.719  1.00  0.00     0.165 HD
ENDROOT
BRANCH   1  11
HETATM   11  C4  UNL     1      -1.966 -21.126  39.644  1.00  0.00     0.244 C 
HETATM   12  N1  UNL     1      -0.893 -21.012  40.548  1.00  0.00    -0.333 N 
HETATM   13  O1  UNL     1      -1.964 -22.178  38.902  1.00  0.00    -0.271 OA
BRANCH  12  14
HETATM   14  C2  UNL     1      -0.778 -19.835  41.396  1.00  0.00     0.080 C 
HETATM   15  C1  UNL     1      -2.072 -19.508  42.128  1.00  0.00     0.032 C 
HETATM   16  C3  UNL     1      -0.278 -18.608  40.723  1.00  0.00     0.032 C 
ENDBRANCH  12  14
BRANCH  12  17
HETATM   17  C23 UNL     1       0.096 -22.097  40.706  1.00  0.00     0.175 C 
HETATM   18  C24 UNL     1       0.062 -22.715  42.067  1.00  0.00     0.042 C 
BRANCH  17  19
HETATM   19  C25 UNL     1       1.435 -21.752  40.224  1.00  0.00     0.240 C 
HETATM   20  O6  UNL     1       1.771 -22.116  39.024  1.00  0.00    -0.271 OA
HETATM   21  N6  UNL     1       2.442 -21.050  40.915  1.00  0.00    -0.354 N 
ATOM     22  H6  UNL     1       2.234 -20.729  41.860  1.00  0.00     0.162 HD
BRANCH  21  23
HETATM   23  C26 UNL     1       3.743 -20.755  40.381  1.00  0.00     0.092 C 
HETATM   24  C27 UNL     1       3.838 -19.407  39.698  1.00  0.00     0.009 C 
HETATM   25  C28 UNL     1       3.677 -18.250  40.629  1.00  0.00     0.011 C 
HETATM   26  C32 UNL     1       5.242 -19.378  39.076  1.00  0.00     0.011 C 
HETATM   27  C29 UNL     1       4.754 -18.352  41.689  1.00  0.00    -0.013 C 
HETATM   28  C30 UNL     1       6.117 -18.299  41.080  1.00  0.00     0.009 C 
HETATM   29  C35 UNL     1       4.542 -19.640  42.460  1.00  0.00     0.011 C 
HETATM   30  C31 UNL     1       6.290 -19.491  40.163  1.00  0.00    -0.013 C 
HETATM   31  C33 UNL     1       6.138 -20.739  40.995  1.00  0.00     0.011 C 
HETATM   32  C34 UNL     1       4.728 -20.808  41.519  1.00  0.00     0.009 C 
ENDBRANCH  21  23
ENDBRANCH  17  19
ENDBRANCH  12  17
ENDBRANCH   1  11
BRANCH   3  33
HETATM   33  N2  UNL     1      -5.933 -19.974  41.219  1.00  0.00    -0.356 N 
HETATM   34  C8  UNL     1      -5.718 -20.981  42.173  1.00  0.00     0.222 C 
HETATM   35  O2  UNL     1      -5.195 -22.080  41.830  1.00  0.00    -0.273 OA
ATOM     36  H2  UNL     1      -6.358 -19.092  41.502  1.00  0.00     0.162 HD
BRANCH  34  37
HETATM   37  C9  UNL     1      -6.086 -20.797  43.596  1.00  0.00     0.078 A 
HETATM   38  C10 UNL     1      -4.883 -20.999  44.544  1.00  0.00     0.015 A 
HETATM   39  C11 UNL     1      -6.006 -21.953  44.493  1.00  0.00     0.015 A 
ENDBRANCH  34  37
ENDBRANCH   3  33
BRANCH   9  40
HETATM   40  C15 UNL     1      -1.802 -18.973  34.712  1.00  0.00     0.196 C 
HETATM   41  C16 UNL     1      -1.337 -17.554  34.458  1.00  0.00     0.161 C 
HETATM   42  N5  UNL     1      -2.274 -17.503  33.355  1.00  0.00    -0.343 N 
HETATM   43  C22 UNL     1      -2.510 -18.920  33.409  1.00  0.00     0.244 C 
HETATM   44  O5  UNL     1      -3.076 -19.760  32.669  1.00  0.00    -0.271 OA
BRANCH  42  45
HETATM   45  C17 UNL     1      -2.818 -16.464  32.487  1.00  0.00     0.091 C 
HETATM   46  C18 UNL     1      -3.411 -15.321  33.242  1.00  0.00     0.051 C 
HETATM   47  C19 UNL     1      -3.668 -14.184  32.291  1.00  0.00     0.169 C 
HETATM   48  O4  UNL     1      -2.470 -13.741  31.760  1.00  0.00    -0.391 OA
HETATM   49  C20 UNL     1      -1.997 -14.725  30.890  1.00  0.00     0.169 C 
HETATM   50  C21 UNL     1      -1.601 -15.916  31.726  1.00  0.00     0.051 C 
ENDBRANCH  42  45
ENDBRANCH   9  40
TORSDOF 9
ENDMDL
MODEL 3
REMARK VINA RESULT: -8.648174219      1.380      1.985
REMARK  9 active torsions:
REMARK  status: ('A' for Active; 'I' for Inactive)
REMARK    1  A    between atoms: C2_2  and  N1_4 
REMARK       I    between atoms: N1_4  and  C4_5 
REMARK    2  A    between atoms: N1_4  and  C23_35 
REMARK    3  A    between atoms: C4_5  and  C5_7 
REMARK    4  A    between atoms: C7_9  and  N2_10 
REMARK       I    between atoms: N2_10  and  C8_12 
REMARK    5  A    between atoms: C8_12  and  C9_14 
REMARK       I    between atoms: N3_19  and  C14_20 
REMARK       I    between atoms: C14_20  and  N4_22 
REMARK    6  A    between atoms: N4_22  and  C15_24 
REMARK    7  A    between atoms: N5_26  and  C17_27 
REMARK    8  A    between atoms: C23_35  and  C25_37 
REMARK       I    between atoms: C25_37  and  N6_39 
REMARK    9  A    between atoms: N6_39  and  C26_41 
ROOT
HETATM    1  C5  UNL     1      -3.048 -20.128  39.653  1.00  0.00     0.183 C 
HETATM    2  C6  UNL     1      -4.308 -21.002  39.963  1.00  0.00     0.060 C 
HETATM    3  C7  UNL     1      -5.536 -20.158  40.101  1.00  0.00     0.088 C 
HETATM    4  C12 UNL     1      -5.367 -18.831  39.378  1.00  0.00     0.045 C 
HETATM    5  C13 UNL     1      -4.610 -19.055  38.079  1.00  0.00     0.130 C 
HETATM    6  N3  UNL     1      -3.282 -19.654  38.329  1.00  0.00    -0.321 N 
HETATM    7  C14 UNL     1      -2.414 -19.636  37.227  1.00  0.00     0.319 C 
HETATM    8  O3  UNL     1      -1.245 -20.047  37.316  1.00  0.00    -0.247 OA
HETATM    9  N4  UNL     1      -2.817 -19.153  35.953  1.00  0.00    -0.328 N 
ATOM     10  H4  UNL     1      -3.771 -18.806  35.850  1.00  0.00     0.165 HD
ENDROOT
BRANCH   1  11
HETATM   11  C4  UNL     1      -1.931 -21.037  39.838  1.00  0.00     0.244 C 
HETATM   12  N1  UNL     1      -0.710 -20.748  40.475  1.00  0.00    -0.333 N 
HETATM   13  O1  UNL     1      -2.054 -22.233  39.377  1.00  0.00    -0.271 OA
BRANCH  12  14
HETATM   14  C2  UNL     1      -0.453 -19.410  40.985  1.00  0.00     0.080 C 
HETATM   15  C1  UNL     1       0.966 -18.934  40.704  1.00  0.00     0.032 C 
HETATM   16  C3  UNL     1      -0.756 -19.206  42.426  1.00  0.00     0.032 C 
ENDBRANCH  12  14
BRANCH  12  17
HETATM   17  C23 UNL     1       0.306 -21.796  40.698  1.00  0.00     0.175 C 
HETATM   18  C24 UNL     1       0.631 -22.559  39.454  1.00  0.00     0.042 C 
BRANCH  17  19
HETATM   19  C25 UNL     1       0.050 -22.628  41.876  1.00  0.00     0.240 C 
HETATM   20  O6  UNL     1      -1.179 -22.784  42.265  1.00  0.00    -0.271 OA
HETATM   21  N6  UNL     1       0.995 -23.307  42.671  1.00  0.00    -0.354 N 
ATOM     22  H6  UNL     1       1.978 -23.230  42.409  1.00  0.00     0.162 HD
BRANCH  21  23
HETATM   23  C26 UNL     1       0.671 -24.099  43.824  1.00  0.00     0.092 C 
HETATM   24  C27 UNL     1       0.672 -25.592  43.567  1.00  0.00     0.009 C 
HETATM   25  C28 UNL     1       2.022 -26.145  43.249  1.00  0.00     0.011 C 
HETATM   26  C32 UNL     1       0.151 -26.216  44.869  1.00  0.00     0.011 C 
HETATM   27  C29 UNL     1       2.938 -25.837  44.415  1.00  0.00    -0.013 C 
HETATM   28  C30 UNL     1       2.439 -26.468  45.674  1.00  0.00     0.009 C 
HETATM   29  C35 UNL     1       3.041 -24.331  44.554  1.00  0.00     0.011 C 
HETATM   30  C31 UNL     1       1.085 -25.880  46.013  1.00  0.00    -0.013 C 
HETATM   31  C33 UNL     1       1.262 -24.395  46.206  1.00  0.00     0.011 C 
HETATM   32  C34 UNL     1       1.677 -23.779  44.898  1.00  0.00     0.009 C 
ENDBRANCH  21  23
ENDBRANCH  17  19
ENDBRANCH  12  17
ENDBRANCH   1  11
BRANCH   3  33
HETATM   33  N2  UNL     1      -5.876 -19.894  41.473  1.00  0.00    -0.356 N 
HETATM   34  C8  UNL     1      -5.752 -20.901  42.443  1.00  0.00     0.222 C 
HETATM   35  O2  UNL     1      -5.344 -22.052  42.115  1.00  0.00    -0.273 OA
ATOM     36  H2  UNL     1      -6.208 -18.969  41.744  1.00  0.00     0.162 HD
BRANCH  34  37
HETATM   37  C9  UNL     1      -6.087 -20.659  43.865  1.00  0.00     0.078 A 
HETATM   38  C10 UNL     1      -4.950 -21.091  44.817  1.00  0.00     0.015 A 
HETATM   39  C11 UNL     1      -6.234 -21.813  44.755  1.00  0.00     0.015 A 
ENDBRANCH  34  37
ENDBRANCH   3  33
BRANCH   9  40
HETATM   40  C15 UNL     1      -1.958 -19.125  34.804  1.00  0.00     0.196 C 
HETATM   41  C16 UNL     1      -1.224 -17.803  34.697  1.00  0.00     0.161 C 
HETATM   42  N5  UNL     1      -2.160 -17.431  33.657  1.00  0.00    -0.343 N 
HETATM   43  C22 UNL     1      -2.675 -18.770  33.554  1.00  0.00     0.244 C 
HETATM   44  O5  UNL     1      -3.416 -19.383  32.750  1.00  0.00    -0.271 OA
BRANCH  42  45
HETATM   45  C17 UNL     1      -2.507 -16.205  32.946  1.00  0.00     0.091 C 
HETATM   46  C18 UNL     1      -1.505 -15.827  31.906  1.00  0.00     0.051 C 
HETATM   47  C19 UNL     1      -2.083 -14.743  31.038  1.00  0.00     0.169 C 
HETATM   48  O4  UNL     1      -3.197 -15.222  30.373  1.00  0.00    -0.391 OA
HETATM   49  C20 UNL     1      -4.215 -15.394  31.312  1.00  0.00     0.169 C 
HETATM   50  C21 UNL     1      -3.815 -16.536  32.211  1.00  0.00     0.051 C 
ENDBRANCH  42  45
ENDBRANCH   9  40
TORSDOF 9
ENDMDL
MODEL 4
REMARK VINA RESULT: -8.139404683     12.054     16.459
REMARK  9 active torsions:
REMARK  status: ('A' for Active; 'I' for Inactive)
REMARK    1  A    between atoms: C2_2  and  N1_4 
REMARK       I    between atoms: N1_4  and  C4_5 
REMARK    2  A    between atoms: N1_4  and  C23_35 
REMARK    3  A    between atoms: C4_5  and  C5_7 
REMARK    4  A    between atoms: C7_9  and  N2_10 
REMARK       I    between atoms: N2_10  and  C8_12 
REMARK    5  A    between atoms: C8_12  and  C9_14 
REMARK       I    between atoms: N3_19  and  C14_20 
REMARK       I    between atoms: C14_20  and  N4_22 
REMARK    6  A    between atoms: N4_22  and  C15_24 
REMARK    7  A    between atoms: N5_26  and  C17_27 
REMARK    8  A    between atoms: C23_35  and  C25_37 
REMARK       I    between atoms: C25_37  and  N6_39 
REMARK    9  A    between atoms: N6_39  and  C26_41 
ROOT
HETATM    1  C5  UNL     1       5.549 -14.951  27.641  1.00  0.00     0.183 C 
HETATM    2  C6  UNL     1       6.137 -13.774  28.487  1.00  0.00     0.060 C 
HETATM    3  C7  UNL     1       6.067 -12.478  27.742  1.00  0.00     0.088 C 
HETATM    4  C12 UNL     1       4.989 -12.526  26.671  1.00  0.00     0.045 C 
HETATM    5  C13 UNL     1       3.785 -13.289  27.198  1.00  0.00     0.130 C 
HETATM    6  N3  UNL     1       4.153 -14.666  27.590  1.00  0.00    -0.321 N 
HETATM    7  C14 UNL     1       3.063 -15.520  27.820  1.00  0.00     0.319 C 
HETATM    8  O3  UNL     1       3.229 -16.721  28.092  1.00  0.00    -0.247 OA
HETATM    9  N4  UNL     1       1.719 -15.067  27.759  1.00  0.00    -0.328 N 
ATOM     10  H4  UNL     1       1.552 -14.085  27.536  1.00  0.00     0.165 HD
ENDROOT
BRANCH   1  11
HETATM   11  C4  UNL     1       5.949 -16.144  28.364  1.00  0.00     0.244 C 
HETATM   12  N1  UNL     1       6.488 -17.320  27.811  1.00  0.00    -0.333 N 
HETATM   13  O1  UNL     1       5.803 -16.143  29.644  1.00  0.00    -0.271 OA
BRANCH  12  14
HETATM   14  C2  UNL     1       6.646 -17.440  26.369  1.00  0.00     0.080 C 
HETATM   15  C1  UNL     1       5.384 -17.938  25.678  1.00  0.00     0.032 C 
HETATM   16  C3  UNL     1       7.801 -18.261  25.918  1.00  0.00     0.032 C 
ENDBRANCH  12  14
BRANCH  12  17
HETATM   17  C23 UNL     1       6.962 -18.425  28.668  1.00  0.00     0.175 C 
HETATM   18  C24 UNL     1       5.842 -19.184  29.303  1.00  0.00     0.042 C 
BRANCH  17  19
HETATM   19  C25 UNL     1       8.039 -18.044  29.584  1.00  0.00     0.240 C 
HETATM   20  O6  UNL     1       7.938 -18.387  30.832  1.00  0.00    -0.271 OA
HETATM   21  N6  UNL     1       9.214 -17.329  29.278  1.00  0.00    -0.354 N 
ATOM     22  H6  UNL     1       9.355 -17.039  28.310  1.00  0.00     0.162 HD
BRANCH  21  23
HETATM   23  C26 UNL     1      10.228 -16.979  30.235  1.00  0.00     0.092 C 
HETATM   24  C27 UNL     1      11.642 -17.081  29.701  1.00  0.00     0.009 C 
HETATM   25  C28 UNL     1      11.950 -16.089  28.628  1.00  0.00     0.011 C 
HETATM   26  C32 UNL     1      12.542 -16.823  30.917  1.00  0.00     0.011 C 
HETATM   27  C29 UNL     1      11.729 -14.703  29.196  1.00  0.00    -0.013 C 
HETATM   28  C30 UNL     1      12.624 -14.449  30.365  1.00  0.00     0.009 C 
HETATM   29  C35 UNL     1      10.268 -14.575  29.581  1.00  0.00     0.011 C 
HETATM   30  C31 UNL     1      12.286 -15.434  31.464  1.00  0.00    -0.013 C 
HETATM   31  C33 UNL     1      10.845 -15.214  31.852  1.00  0.00     0.011 C 
HETATM   32  C34 UNL     1       9.966 -15.565  30.683  1.00  0.00     0.009 C 
ENDBRANCH  21  23
ENDBRANCH  17  19
ENDBRANCH  12  17
ENDBRANCH   1  11
BRANCH   3  33
HETATM   33  N2  UNL     1       7.316 -12.128  27.122  1.00  0.00    -0.356 N 
HETATM   34  C8  UNL     1       8.251 -11.333  27.804  1.00  0.00     0.222 C 
HETATM   35  O2  UNL     1       7.998 -10.915  28.970  1.00  0.00    -0.273 OA
ATOM     36  H2  UNL     1       7.525 -12.459  26.181  1.00  0.00     0.162 HD
BRANCH  34  37
HETATM   37  C9  UNL     1       9.549 -10.961  27.196  1.00  0.00     0.078 A 
HETATM   38  C10 UNL     1      10.406 -12.196  26.841  1.00  0.00     0.015 A 
HETATM   39  C11 UNL     1      10.778 -11.273  27.928  1.00  0.00     0.015 A 
ENDBRANCH  34  37
ENDBRANCH   3  33
BRANCH   9  40
HETATM   40  C15 UNL     1       0.583 -15.911  27.994  1.00  0.00     0.196 C 
HETATM   41  C16 UNL     1      -0.708 -15.221  27.601  1.00  0.00     0.161 C 
HETATM   42  N5  UNL     1      -0.946 -14.984  29.009  1.00  0.00    -0.343 N 
HETATM   43  C22 UNL     1       0.114 -15.873  29.402  1.00  0.00     0.244 C 
HETATM   44  O5  UNL     1       0.488 -16.397  30.478  1.00  0.00    -0.271 OA
BRANCH  42  45
HETATM   45  C17 UNL     1      -1.871 -14.176  29.796  1.00  0.00     0.091 C 
HETATM   46  C18 UNL     1      -2.937 -14.983  30.460  1.00  0.00     0.051 C 
HETATM   47  C19 UNL     1      -3.646 -14.124  31.470  1.00  0.00     0.169 C 
HETATM   48  O4  UNL     1      -2.759 -13.734  32.457  1.00  0.00    -0.391 OA
HETATM   49  C20 UNL     1      -1.869 -12.818  31.895  1.00  0.00     0.169 C 
HETATM   50  C21 UNL     1      -1.006 -13.568  30.912  1.00  0.00     0.051 C 
ENDBRANCH  42  45
ENDBRANCH   9  40
TORSDOF 9
ENDMDL
MODEL 5
REMARK VINA RESULT: -8.104684244      8.290     13.257
REMARK  9 active torsions:
REMARK  status: ('A' for Active; 'I' for Inactive)
REMARK    1  A    between atoms: C2_2  and  N1_4 
REMARK       I    between atoms: N1_4  and  C4_5 
REMARK    2  A    between atoms: N1_4  and  C23_35 
REMARK    3  A    between atoms: C4_5  and  C5_7 
REMARK    4  A    between atoms: C7_9  and  N2_10 
REMARK       I    between atoms: N2_10  and  C8_12 
REMARK    5  A    between atoms: C8_12  and  C9_14 
REMARK       I    between atoms: N3_19  and  C14_20 
REMARK       I    between atoms: C14_20  and  N4_22 
REMARK    6  A    between atoms: N4_22  and  C15_24 
REMARK    7  A    between atoms: N5_26  and  C17_27 
REMARK    8  A    between atoms: C23_35  and  C25_37 
REMARK       I    between atoms: C25_37  and  N6_39 
REMARK    9  A    between atoms: N6_39  and  C26_41 
ROOT
HETATM    1  C5  UNL     1       3.117 -17.837  31.960  1.00  0.00     0.183 C 
HETATM    2  C6  UNL     1       1.929 -18.852  32.027  1.00  0.00     0.060 C 
HETATM    3  C7  UNL     1       0.609 -18.150  31.976  1.00  0.00     0.088 C 
HETATM    4  C12 UNL     1       0.745 -16.782  31.330  1.00  0.00     0.045 C 
HETATM    5  C13 UNL     1       1.727 -16.865  30.173  1.00  0.00     0.130 C 
HETATM    6  N3  UNL     1       3.054 -17.330  30.629  1.00  0.00    -0.321 N 
HETATM    7  C14 UNL     1       4.085 -17.169  29.690  1.00  0.00     0.319 C 
HETATM    8  O3  UNL     1       5.262 -17.458  29.966  1.00  0.00    -0.247 OA
HETATM    9  N4  UNL     1       3.848 -16.674  28.381  1.00  0.00    -0.328 N 
ATOM     10  H4  UNL     1       2.892 -16.426  28.126  1.00  0.00     0.165 HD
ENDROOT
BRANCH   1  11
HETATM   11  C4  UNL     1       4.283 -18.629  32.306  1.00  0.00     0.244 C 
HETATM   12  N1  UNL     1       5.410 -18.194  33.028  1.00  0.00    -0.333 N 
HETATM   13  O1  UNL     1       4.304 -19.858  31.922  1.00  0.00    -0.271 OA
BRANCH  12  14
HETATM   14  C2  UNL     1       5.505 -16.809  33.464  1.00  0.00     0.080 C 
HETATM   15  C1  UNL     1       6.370 -15.960  32.542  1.00  0.00     0.032 C 
HETATM   16  C3  UNL     1       5.952 -16.609  34.868  1.00  0.00     0.032 C 
ENDBRANCH  12  14
BRANCH  12  17
HETATM   17  C23 UNL     1       6.483 -19.132  33.415  1.00  0.00     0.175 C 
HETATM   18  C24 UNL     1       6.734 -19.146  34.889  1.00  0.00     0.042 C 
BRANCH  17  19
HETATM   19  C25 UNL     1       7.688 -19.025  32.590  1.00  0.00     0.240 C 
HETATM   20  O6  UNL     1       8.845 -19.101  33.175  1.00  0.00    -0.271 OA
HETATM   21  N6  UNL     1       7.761 -18.845  31.194  1.00  0.00    -0.354 N 
ATOM     22  H6  UNL     1       6.884 -18.788  30.677  1.00  0.00     0.162 HD
BRANCH  21  23
HETATM   23  C26 UNL     1       8.985 -18.737  30.449  1.00  0.00     0.092 C 
HETATM   24  C27 UNL     1       8.891 -19.258  29.030  1.00  0.00     0.009 C 
HETATM   25  C28 UNL     1       7.987 -18.453  28.154  1.00  0.00     0.011 C 
HETATM   26  C32 UNL     1      10.326 -19.193  28.490  1.00  0.00     0.011 C 
HETATM   27  C29 UNL     1       8.506 -17.030  28.133  1.00  0.00    -0.013 C 
HETATM   28  C30 UNL     1       9.894 -16.970  27.584  1.00  0.00     0.009 C 
HETATM   29  C35 UNL     1       8.444 -16.480  29.545  1.00  0.00     0.011 C 
HETATM   30  C31 UNL     1      10.814 -17.759  28.493  1.00  0.00    -0.013 C 
HETATM   31  C33 UNL     1      10.765 -17.126  29.861  1.00  0.00     0.011 C 
HETATM   32  C34 UNL     1       9.377 -17.284  30.421  1.00  0.00     0.009 C 
ENDBRANCH  21  23
ENDBRANCH  17  19
ENDBRANCH  12  17
ENDBRANCH   1  11
BRANCH   3  33
HETATM   33  N2  UNL     1       0.018 -17.987  33.278  1.00  0.00    -0.356 N 
HETATM   34  C8  UNL     1      -1.232 -18.554  33.569  1.00  0.00     0.222 C 
HETATM   35  O2  UNL     1      -1.852 -19.212  32.684  1.00  0.00    -0.273 OA
ATOM     36  H2  UNL     1       0.512 -17.455  33.995  1.00  0.00     0.162 HD
BRANCH  34  37
HETATM   37  C9  UNL     1      -1.862 -18.410  34.901  1.00  0.00     0.078 A 
HETATM   38  C10 UNL     1      -1.776 -19.708  35.734  1.00  0.00     0.015 A 
HETATM   39  C11 UNL     1      -3.055 -19.206  35.199  1.00  0.00     0.015 A 
ENDBRANCH  34  37
ENDBRANCH   3  33
BRANCH   9  40
HETATM   40  C15 UNL     1       4.877 -16.503  27.396  1.00  0.00     0.196 C 
HETATM   41  C16 UNL     1       5.497 -15.122  27.480  1.00  0.00     0.161 C 
HETATM   42  N5  UNL     1       4.714 -14.760  26.318  1.00  0.00    -0.343 N 
HETATM   43  C22 UNL     1       4.345 -16.126  26.062  1.00  0.00     0.244 C 
HETATM   44  O5  UNL     1       3.803 -16.743  25.115  1.00  0.00    -0.271 OA
BRANCH  42  45
HETATM   45  C17 UNL     1       4.379 -13.522  25.622  1.00  0.00     0.091 C 
HETATM   46  C18 UNL     1       3.350 -12.709  26.334  1.00  0.00     0.051 C 
HETATM   47  C19 UNL     1       3.291 -11.339  25.715  1.00  0.00     0.169 C 
HETATM   48  O4  UNL     1       4.504 -10.697  25.887  1.00  0.00    -0.391 OA
HETATM   49  C20 UNL     1       5.442 -11.328  25.067  1.00  0.00     0.169 C 
HETATM   50  C21 UNL     1       5.682 -12.705  25.631  1.00  0.00     0.051 C 
ENDBRANCH  42  45
ENDBRANCH   9  40
TORSDOF 9
ENDMDL
