MODEL 1
REMARK VINA RESULT: -9.301332890      0.000      0.000
REMARK  7 active torsions:
REMARK  status: ('A' for Active; 'I' for Inactive)
REMARK    1  A    between atoms: C3_3  and  O1_4 
REMARK    2  A    between atoms: O1_4  and  C4_5 
REMARK    3  A    between atoms: C7_8  and  O2_9 
REMARK    4  A    between atoms: O2_9  and  C8_10 
REMARK    5  A    between atoms: C8_10  and  C9_11 
REMARK    6  A    between atoms: C9_11  and  O3_12 
REMARK    7  A    between atoms: O3_12  and  C10_13 
ROOT
HETATM    1  C1  UNL     1     234.025 -26.592 352.741  1.00  0.00     0.014 C 
HETATM    2  C2  UNL     1     233.647 -27.713 352.510  1.00  0.00    -0.091 C 
HETATM    3  C3  UNL     1     233.215 -29.070 352.224  1.00  0.00     0.268 C 
ENDROOT
BRANCH   3   4
HETATM    4  O1  UNL     1     234.108 -29.823 351.465  1.00  0.00    -0.340 OA
BRANCH   4   5
HETATM    5  C4  UNL     1     235.458 -29.669 351.324  1.00  0.00     0.070 A 
HETATM    6  C5  UNL     1     236.293 -30.309 352.210  1.00  0.00     0.039 A 
HETATM    7  C6  UNL     1     237.683 -30.187 352.110  1.00  0.00     0.039 A 
HETATM    8  C7  UNL     1     238.271 -29.433 351.141  1.00  0.00     0.069 A 
HETATM    9  C16 UNL     1     237.393 -28.789 350.247  1.00  0.00     0.039 A 
HETATM   10  C17 UNL     1     236.021 -28.906 350.338  1.00  0.00     0.039 A 
BRANCH   8  11
HETATM   11  O2  UNL     1     239.583 -29.220 350.920  1.00  0.00    -0.349 OA
BRANCH  11  12
HETATM   12  C8  UNL     1     240.472 -28.215 351.172  1.00  0.00     0.202 C 
BRANCH  12  13
HETATM   13  C9  UNL     1     240.118 -27.228 352.246  1.00  0.00     0.202 C 
BRANCH  13  14
HETATM   14  O3  UNL     1     241.137 -26.679 352.965  1.00  0.00    -0.349 OA
BRANCH  14  15
HETATM   15  C10 UNL     1     241.564 -25.470 353.317  1.00  0.00     0.068 A 
HETATM   16  C11 UNL     1     242.496 -25.216 354.283  1.00  0.00     0.037 A 
HETATM   17  C12 UNL     1     242.909 -23.929 354.610  1.00  0.00     0.003 A 
HETATM   18  C13 UNL     1     242.377 -22.849 353.953  1.00  0.00     0.000 A 
HETATM   19  C14 UNL     1     241.436 -23.063 352.976  1.00  0.00     0.003 A 
HETATM   20  C15 UNL     1     241.055 -24.324 352.680  1.00  0.00     0.037 A 
ENDBRANCH  14  15
ENDBRANCH  13  14
ENDBRANCH  12  13
ENDBRANCH  11  12
ENDBRANCH   8  11
ENDBRANCH   4   5
ENDBRANCH   3   4
TORSDOF 7
ENDMDL
MODEL 2
REMARK VINA RESULT: -9.233683752      0.141      1.058
REMARK  7 active torsions:
REMARK  status: ('A' for Active; 'I' for Inactive)
REMARK    1  A    between atoms: C3_3  and  O1_4 
REMARK    2  A    between atoms: O1_4  and  C4_5 
REMARK    3  A    between atoms: C7_8  and  O2_9 
REMARK    4  A    between atoms: O2_9  and  C8_10 
REMARK    5  A    between atoms: C8_10  and  C9_11 
REMARK    6  A    between atoms: C9_11  and  O3_12 
REMARK    7  A    between atoms: O3_12  and  C10_13 
ROOT
HETATM    1  C1  UNL     1     233.936 -26.650 352.649  1.00  0.00     0.014 C 
HETATM    2  C2  UNL     1     233.583 -27.790 352.474  1.00  0.00    -0.091 C 
HETATM    3  C3  UNL     1     233.180 -29.168 352.256  1.00  0.00     0.268 C 
ENDROOT
BRANCH   3   4
HETATM    4  O1  UNL     1     234.064 -29.923 351.487  1.00  0.00    -0.340 OA
BRANCH   4   5
HETATM    5  C4  UNL     1     235.413 -29.778 351.338  1.00  0.00     0.070 A 
HETATM    6  C5  UNL     1     236.248 -30.399 352.239  1.00  0.00     0.039 A 
HETATM    7  C6  UNL     1     237.638 -30.285 352.132  1.00  0.00     0.039 A 
HETATM    8  C7  UNL     1     238.227 -29.558 351.143  1.00  0.00     0.069 A 
HETATM    9  C16 UNL     1     237.349 -28.933 350.236  1.00  0.00     0.039 A 
HETATM   10  C17 UNL     1     235.977 -29.042 350.332  1.00  0.00     0.039 A 
BRANCH   8  11
HETATM   11  O2  UNL     1     239.539 -29.355 350.914  1.00  0.00    -0.349 OA
BRANCH  11  12
HETATM   12  C8  UNL     1     240.434 -28.351 351.146  1.00  0.00     0.202 C 
BRANCH  12  13
HETATM   13  C9  UNL     1     240.031 -27.271 352.107  1.00  0.00     0.202 C 
BRANCH  13  14
HETATM   14  O3  UNL     1     241.006 -26.710 352.876  1.00  0.00    -0.349 OA
BRANCH  14  15
HETATM   15  C10 UNL     1     241.445 -25.495 353.192  1.00  0.00     0.068 A 
HETATM   16  C11 UNL     1     241.057 -24.335 352.586  1.00  0.00     0.037 A 
HETATM   17  C12 UNL     1     241.549 -23.089 352.959  1.00  0.00     0.003 A 
HETATM   18  C13 UNL     1     242.463 -22.988 353.975  1.00  0.00     0.000 A 
HETATM   19  C14 UNL     1     242.881 -24.132 354.610  1.00  0.00     0.003 A 
HETATM   20  C15 UNL     1     242.385 -25.328 354.226  1.00  0.00     0.037 A 
ENDBRANCH  14  15
ENDBRANCH  13  14
ENDBRANCH  12  13
ENDBRANCH  11  12
ENDBRANCH   8  11
ENDBRANCH   4   5
ENDBRANCH   3   4
TORSDOF 7
ENDMDL
MODEL 3
REMARK VINA RESULT: -9.099586766      3.655      8.839
REMARK  7 active torsions:
REMARK  status: ('A' for Active; 'I' for Inactive)
REMARK    1  A    between atoms: C3_3  and  O1_4 
REMARK    2  A    between atoms: O1_4  and  C4_5 
REMARK    3  A    between atoms: C7_8  and  O2_9 
REMARK    4  A    between atoms: O2_9  and  C8_10 
REMARK    5  A    between atoms: C8_10  and  C9_11 
REMARK    6  A    between atoms: C9_11  and  O3_12 
REMARK    7  A    between atoms: O3_12  and  C10_13 
ROOT
HETATM    1  C1  UNL     1     239.415 -16.469 357.627  1.00  0.00     0.014 C 
HETATM    2  C2  UNL     1     239.394 -17.436 356.908  1.00  0.00    -0.091 C 
HETATM    3  C3  UNL     1     239.392 -18.604 356.046  1.00  0.00     0.268 C 
ENDROOT
BRANCH   3   4
HETATM    4  O1  UNL     1     240.653 -19.049 355.656  1.00  0.00    -0.340 OA
BRANCH   4   5
HETATM    5  C4  UNL     1     240.981 -20.063 354.802  1.00  0.00     0.070 A 
HETATM    6  C5  UNL     1     240.357 -20.122 353.577  1.00  0.00     0.039 A 
HETATM    7  C6  UNL     1     240.656 -21.138 352.663  1.00  0.00     0.039 A 
HETATM    8  C7  UNL     1     241.568 -22.110 352.940  1.00  0.00     0.069 A 
HETATM    9  C16 UNL     1     242.192 -22.024 354.199  1.00  0.00     0.039 A 
HETATM   10  C17 UNL     1     241.904 -21.025 355.106  1.00  0.00     0.039 A 
BRANCH   8  11
HETATM   11  O2  UNL     1     241.957 -23.144 352.168  1.00  0.00    -0.349 OA
BRANCH  11  12
HETATM   12  C8  UNL     1     241.739 -24.491 352.147  1.00  0.00     0.202 C 
BRANCH  12  13
HETATM   13  C9  UNL     1     240.571 -25.017 352.930  1.00  0.00     0.202 C 
BRANCH  13  14
HETATM   14  O3  UNL     1     239.582 -25.655 352.244  1.00  0.00    -0.349 OA
BRANCH  14  15
HETATM   15  C10 UNL     1     239.255 -26.896 351.898  1.00  0.00     0.068 A 
HETATM   16  C11 UNL     1     239.712 -27.550 350.789  1.00  0.00     0.037 A 
HETATM   17  C12 UNL     1     239.337 -28.852 350.476  1.00  0.00     0.003 A 
HETATM   18  C13 UNL     1     238.475 -29.535 351.294  1.00  0.00     0.000 A 
HETATM   19  C14 UNL     1     237.992 -28.912 352.418  1.00  0.00     0.003 A 
HETATM   20  C15 UNL     1     238.373 -27.647 352.697  1.00  0.00     0.037 A 
ENDBRANCH  14  15
ENDBRANCH  13  14
ENDBRANCH  12  13
ENDBRANCH  11  12
ENDBRANCH   8  11
ENDBRANCH   4   5
ENDBRANCH   3   4
TORSDOF 7
ENDMDL
MODEL 4
REMARK VINA RESULT: -8.995153184      2.397      4.100
REMARK  7 active torsions:
REMARK  status: ('A' for Active; 'I' for Inactive)
REMARK    1  A    between atoms: C3_3  and  O1_4 
REMARK    2  A    between atoms: O1_4  and  C4_5 
REMARK    3  A    between atoms: C7_8  and  O2_9 
REMARK    4  A    between atoms: O2_9  and  C8_10 
REMARK    5  A    between atoms: C8_10  and  C9_11 
REMARK    6  A    between atoms: C9_11  and  O3_12 
REMARK    7  A    between atoms: O3_12  and  C10_13 
ROOT
HETATM    1  C1  UNL     1     237.106 -32.595 347.476  1.00  0.00     0.014 C 
HETATM    2  C2  UNL     1     237.054 -31.734 348.319  1.00  0.00    -0.091 C 
HETATM    3  C3  UNL     1     237.007 -30.683 349.320  1.00  0.00     0.268 C 
ENDROOT
BRANCH   3   4
HETATM    4  O1  UNL     1     237.963 -29.681 349.166  1.00  0.00    -0.340 OA
BRANCH   4   5
HETATM    5  C4  UNL     1     238.403 -28.766 350.079  1.00  0.00     0.070 A 
HETATM    6  C5  UNL     1     237.573 -28.417 351.118  1.00  0.00     0.039 A 
HETATM    7  C6  UNL     1     237.974 -27.486 352.082  1.00  0.00     0.039 A 
HETATM    8  C7  UNL     1     239.195 -26.884 352.037  1.00  0.00     0.069 A 
HETATM    9  C16 UNL     1     240.024 -27.260 350.963  1.00  0.00     0.039 A 
HETATM   10  C17 UNL     1     239.637 -28.179 350.009  1.00  0.00     0.039 A 
BRANCH   8  11
HETATM   11  O2  UNL     1     239.717 -25.976 352.884  1.00  0.00    -0.349 OA
BRANCH  11  12
HETATM   12  C8  UNL     1     240.968 -25.537 353.206  1.00  0.00     0.202 C 
BRANCH  12  13
HETATM   13  C9  UNL     1     241.467 -24.299 352.520  1.00  0.00     0.202 C 
BRANCH  13  14
HETATM   14  O3  UNL     1     242.516 -23.638 353.086  1.00  0.00    -0.349 OA
BRANCH  14  15
HETATM   15  C10 UNL     1     242.860 -23.155 354.276  1.00  0.00     0.068 A 
HETATM   16  C11 UNL     1     242.796 -21.841 354.641  1.00  0.00     0.037 A 
HETATM   17  C12 UNL     1     243.167 -21.391 355.903  1.00  0.00     0.003 A 
HETATM   18  C13 UNL     1     243.621 -22.280 356.843  1.00  0.00     0.000 A 
HETATM   19  C14 UNL     1     243.701 -23.610 356.515  1.00  0.00     0.003 A 
HETATM   20  C15 UNL     1     243.333 -24.019 355.282  1.00  0.00     0.037 A 
ENDBRANCH  14  15
ENDBRANCH  13  14
ENDBRANCH  12  13
ENDBRANCH  11  12
ENDBRANCH   8  11
ENDBRANCH   4   5
ENDBRANCH   3   4
TORSDOF 7
ENDMDL
MODEL 5
REMARK VINA RESULT: -8.949951637      1.763      8.281
REMARK  7 active torsions:
REMARK  status: ('A' for Active; 'I' for Inactive)
REMARK    1  A    between atoms: C3_3  and  O1_4 
REMARK    2  A    between atoms: O1_4  and  C4_5 
REMARK    3  A    between atoms: C7_8  and  O2_9 
REMARK    4  A    between atoms: O2_9  and  C8_10 
REMARK    5  A    between atoms: C8_10  and  C9_11 
REMARK    6  A    between atoms: C9_11  and  O3_12 
REMARK    7  A    between atoms: O3_12  and  C10_13 
ROOT
HETATM    1  C1  UNL     1     244.557 -22.827 357.135  1.00  0.00     0.014 C 
HETATM    2  C2  UNL     1     243.772 -22.415 356.318  1.00  0.00    -0.091 C 
HETATM    3  C3  UNL     1     242.831 -21.939 355.319  1.00  0.00     0.268 C 
ENDROOT
BRANCH   3   4
HETATM    4  O1  UNL     1     242.881 -22.608 354.098  1.00  0.00    -0.340 OA
BRANCH   4   5
HETATM    5  C4  UNL     1     242.202 -23.725 353.702  1.00  0.00     0.070 A 
HETATM    6  C5  UNL     1     242.672 -24.957 354.090  1.00  0.00     0.039 A 
HETATM    7  C6  UNL     1     242.014 -26.133 353.713  1.00  0.00     0.039 A 
HETATM    8  C7  UNL     1     240.889 -26.114 352.947  1.00  0.00     0.069 A 
HETATM    9  C16 UNL     1     240.430 -24.839 352.564  1.00  0.00     0.039 A 
HETATM   10  C17 UNL     1     241.071 -23.675 352.933  1.00  0.00     0.039 A 
BRANCH   8  11
HETATM   11  O2  UNL     1     240.153 -27.153 352.506  1.00  0.00    -0.349 OA
BRANCH  11  12
HETATM   12  C8  UNL     1     239.197 -27.346 351.551  1.00  0.00     0.202 C 
BRANCH  12  13
HETATM   13  C9  UNL     1     238.275 -28.518 351.720  1.00  0.00     0.202 C 
BRANCH  13  14
HETATM   14  O3  UNL     1     237.011 -28.408 351.225  1.00  0.00    -0.349 OA
BRANCH  14  15
HETATM   15  C10 UNL     1     235.791 -28.119 351.670  1.00  0.00     0.068 A 
HETATM   16  C11 UNL     1     234.711 -28.951 351.600  1.00  0.00     0.037 A 
HETATM   17  C12 UNL     1     233.456 -28.597 352.085  1.00  0.00     0.003 A 
HETATM   18  C13 UNL     1     233.264 -27.369 352.663  1.00  0.00     0.000 A 
HETATM   19  C14 UNL     1     234.326 -26.503 352.751  1.00  0.00     0.003 A 
HETATM   20  C15 UNL     1     235.533 -26.874 352.272  1.00  0.00     0.037 A 
ENDBRANCH  14  15
ENDBRANCH  13  14
ENDBRANCH  12  13
ENDBRANCH  11  12
ENDBRANCH   8  11
ENDBRANCH   4   5
ENDBRANCH   3   4
TORSDOF 7
ENDMDL
