MODEL 1
REMARK VINA RESULT: -8.523591030      0.000      0.000
REMARK  7 active torsions:
REMARK  status: ('A' for Active; 'I' for Inactive)
REMARK    1  A    between atoms: C4_6  and  C5_7 
REMARK    2  A    between atoms: C5_7  and  S1_8 
REMARK    3  A    between atoms: S1_8  and  C6_9 
REMARK    4  A    between atoms: C6_9  and  C7_10 
REMARK    5  A    between atoms: C7_10  and  C8_11 
REMARK    6  A    between atoms: C8_11  and  C9_12 
REMARK    7  A    between atoms: C9_12  and  C10_13 
ROOT
HETATM    1  C6  UNL     1     239.625 -26.698 351.871  1.00  0.00     0.074 C 
ENDROOT
BRANCH   1   2
HETATM    2  S1  UNL     1     238.438 -27.800 352.521  1.00  0.00    -0.164 SA
BRANCH   2   3
HETATM    3  C5  UNL     1     237.203 -28.478 351.467  1.00  0.00     0.113 C 
BRANCH   3   4
HETATM    4  C4  UNL     1     235.824 -28.102 351.802  1.00  0.00    -0.034 A 
HETATM    5  C3  UNL     1     234.824 -28.983 351.419  1.00  0.00     0.095 A 
HETATM    6  N1  UNL     1     233.550 -28.691 351.629  1.00  0.00    -0.375 N 
HETATM    7  C2  UNL     1     233.244 -27.527 352.221  1.00  0.00     0.087 A 
ATOM      8  H1  UNL     1     232.815 -29.339 351.346  1.00  0.00     0.164 HD
HETATM    9  C1  UNL     1     234.194 -26.619 352.619  1.00  0.00     0.018 A 
HETATM   10  C15 UNL     1     235.540 -26.925 352.397  1.00  0.00     0.011 A 
ENDBRANCH   3   4
ENDBRANCH   2   3
ENDBRANCH   1   2
BRANCH   1  11
HETATM   11  C7  UNL     1     239.917 -25.418 352.612  1.00  0.00     0.010 C 
BRANCH  11  12
HETATM   12  C8  UNL     1     241.397 -25.137 352.509  1.00  0.00     0.005 C 
BRANCH  12  13
HETATM   13  C9  UNL     1     242.115 -24.874 353.772  1.00  0.00     0.038 C 
BRANCH  13  14
HETATM   14  C10 UNL     1     242.501 -23.474 354.027  1.00  0.00    -0.056 A 
HETATM   15  C11 UNL     1     242.807 -22.920 355.242  1.00  0.00     0.024 A 
HETATM   16  C12 UNL     1     243.168 -21.584 355.387  1.00  0.00     0.088 A 
HETATM   17  N2  UNL     1     243.228 -20.780 354.312  1.00  0.00    -0.375 N 
HETATM   18  C13 UNL     1     242.939 -21.271 353.098  1.00  0.00     0.088 A 
ATOM     19  H2  UNL     1     243.493 -19.801 354.419  1.00  0.00     0.164 HD
HETATM   20  C14 UNL     1     242.579 -22.594 352.939  1.00  0.00     0.024 A 
ENDBRANCH  13  14
ENDBRANCH  12  13
ENDBRANCH  11  12
ENDBRANCH   1  11
TORSDOF 7
ENDMDL
MODEL 2
REMARK VINA RESULT: -8.512766350      0.931      1.217
REMARK  7 active torsions:
REMARK  status: ('A' for Active; 'I' for Inactive)
REMARK    1  A    between atoms: C4_6  and  C5_7 
REMARK    2  A    between atoms: C5_7  and  S1_8 
REMARK    3  A    between atoms: S1_8  and  C6_9 
REMARK    4  A    between atoms: C6_9  and  C7_10 
REMARK    5  A    between atoms: C7_10  and  C8_11 
REMARK    6  A    between atoms: C8_11  and  C9_12 
REMARK    7  A    between atoms: C9_12  and  C10_13 
ROOT
HETATM    1  C6  UNL     1     239.625 -27.427 351.118  1.00  0.00     0.074 C 
ENDROOT
BRANCH   1   2
HETATM    2  S1  UNL     1     238.371 -28.529 350.608  1.00  0.00    -0.164 SA
BRANCH   2   3
HETATM    3  C5  UNL     1     237.262 -29.201 351.796  1.00  0.00     0.113 C 
BRANCH   3   4
HETATM    4  C4  UNL     1     235.968 -28.514 351.898  1.00  0.00    -0.034 A 
HETATM    5  C3  UNL     1     234.846 -29.228 351.507  1.00  0.00     0.095 A 
HETATM    6  N1  UNL     1     233.649 -28.663 351.511  1.00  0.00    -0.375 N 
HETATM    7  C2  UNL     1     233.542 -27.384 351.902  1.00  0.00     0.087 A 
ATOM      8  H1  UNL     1     232.825 -29.189 351.222  1.00  0.00     0.164 HD
HETATM    9  C1  UNL     1     234.619 -26.631 352.298  1.00  0.00     0.018 A 
HETATM   10  C15 UNL     1     235.884 -27.227 352.293  1.00  0.00     0.011 A 
ENDBRANCH   3   4
ENDBRANCH   2   3
ENDBRANCH   1   2
BRANCH   1  11
HETATM   11  C7  UNL     1     239.657 -26.971 352.555  1.00  0.00     0.010 C 
BRANCH  11  12
HETATM   12  C8  UNL     1     239.842 -25.472 352.573  1.00  0.00     0.005 C 
BRANCH  12  13
HETATM   13  C9  UNL     1     241.194 -24.965 352.266  1.00  0.00     0.038 C 
BRANCH  13  14
HETATM   14  C10 UNL     1     241.733 -23.941 353.180  1.00  0.00    -0.056 A 
HETATM   15  C11 UNL     1     242.584 -24.153 354.233  1.00  0.00     0.024 A 
HETATM   16  C12 UNL     1     243.047 -23.119 355.041  1.00  0.00     0.088 A 
HETATM   17  N2  UNL     1     242.665 -21.853 354.805  1.00  0.00    -0.375 N 
HETATM   18  C13 UNL     1     241.833 -21.589 353.785  1.00  0.00     0.088 A 
ATOM     19  H2  UNL     1     243.005 -21.096 355.397  1.00  0.00     0.164 HD
HETATM   20  C14 UNL     1     241.365 -22.604 352.976  1.00  0.00     0.024 A 
ENDBRANCH  13  14
ENDBRANCH  12  13
ENDBRANCH  11  12
ENDBRANCH   1  11
TORSDOF 7
ENDMDL
MODEL 3
REMARK VINA RESULT: -8.483444061      1.620      2.205
REMARK  7 active torsions:
REMARK  status: ('A' for Active; 'I' for Inactive)
REMARK    1  A    between atoms: C4_6  and  C5_7 
REMARK    2  A    between atoms: C5_7  and  S1_8 
REMARK    3  A    between atoms: S1_8  and  C6_9 
REMARK    4  A    between atoms: C6_9  and  C7_10 
REMARK    5  A    between atoms: C7_10  and  C8_11 
REMARK    6  A    between atoms: C8_11  and  C9_12 
REMARK    7  A    between atoms: C9_12  and  C10_13 
ROOT
HETATM    1  C6  UNL     1     239.329 -28.466 351.347  1.00  0.00     0.074 C 
ENDROOT
BRANCH   1   2
HETATM    2  S1  UNL     1     238.255 -28.881 350.035  1.00  0.00    -0.164 SA
BRANCH   2   3
HETATM    3  C5  UNL     1     236.956 -30.038 350.301  1.00  0.00     0.113 C 
BRANCH   3   4
HETATM    4  C4  UNL     1     235.787 -29.508 351.013  1.00  0.00    -0.034 A 
HETATM    5  C3  UNL     1     235.095 -30.391 351.827  1.00  0.00     0.095 A 
HETATM    6  N1  UNL     1     233.995 -30.010 352.456  1.00  0.00    -0.375 N 
HETATM    7  C2  UNL     1     233.562 -28.751 352.293  1.00  0.00     0.087 A 
ATOM      8  H1  UNL     1     233.486 -30.661 353.054  1.00  0.00     0.164 HD
HETATM    9  C1  UNL     1     234.208 -27.836 351.500  1.00  0.00     0.018 A 
HETATM   10  C15 UNL     1     235.369 -28.237 350.833  1.00  0.00     0.011 A 
ENDBRANCH   3   4
ENDBRANCH   2   3
ENDBRANCH   1   2
BRANCH   1  11
HETATM   11  C7  UNL     1     238.781 -27.702 352.526  1.00  0.00     0.010 C 
BRANCH  11  12
HETATM   12  C8  UNL     1     239.121 -26.242 352.345  1.00  0.00     0.005 C 
BRANCH  12  13
HETATM   13  C9  UNL     1     240.502 -25.925 351.929  1.00  0.00     0.038 C 
BRANCH  13  14
HETATM   14  C10 UNL     1     241.273 -25.050 352.830  1.00  0.00    -0.056 A 
HETATM   15  C11 UNL     1     242.104 -25.450 353.843  1.00  0.00     0.024 A 
HETATM   16  C12 UNL     1     242.800 -24.547 354.643  1.00  0.00     0.088 A 
HETATM   17  N2  UNL     1     242.673 -23.226 354.436  1.00  0.00    -0.375 N 
HETATM   18  C13 UNL     1     241.873 -22.779 353.456  1.00  0.00     0.088 A 
ATOM     19  H2  UNL     1     243.184 -22.565 355.021  1.00  0.00     0.164 HD
HETATM   20  C14 UNL     1     241.177 -23.663 352.656  1.00  0.00     0.024 A 
ENDBRANCH  13  14
ENDBRANCH  12  13
ENDBRANCH  11  12
ENDBRANCH   1  11
TORSDOF 7
ENDMDL
MODEL 4
REMARK VINA RESULT: -8.467032745      1.506      2.532
REMARK  7 active torsions:
REMARK  status: ('A' for Active; 'I' for Inactive)
REMARK    1  A    between atoms: C4_6  and  C5_7 
REMARK    2  A    between atoms: C5_7  and  S1_8 
REMARK    3  A    between atoms: S1_8  and  C6_9 
REMARK    4  A    between atoms: C6_9  and  C7_10 
REMARK    5  A    between atoms: C7_10  and  C8_11 
REMARK    6  A    between atoms: C8_11  and  C9_12 
REMARK    7  A    between atoms: C9_12  and  C10_13 
ROOT
HETATM    1  C6  UNL     1     239.201 -29.422 350.946  1.00  0.00     0.074 C 
ENDROOT
BRANCH   1   2
HETATM    2  S1  UNL     1     238.094 -29.914 352.203  1.00  0.00    -0.164 SA
BRANCH   2   3
HETATM    3  C5  UNL     1     236.435 -30.329 351.793  1.00  0.00     0.113 C 
BRANCH   3   4
HETATM    4  C4  UNL     1     235.470 -29.228 351.910  1.00  0.00    -0.034 A 
HETATM    5  C3  UNL     1     234.126 -29.563 351.861  1.00  0.00     0.095 A 
HETATM    6  N1  UNL     1     233.193 -28.626 351.899  1.00  0.00    -0.375 N 
HETATM    7  C2  UNL     1     233.573 -27.342 351.987  1.00  0.00     0.087 A 
ATOM      8  H1  UNL     1     232.205 -28.874 351.862  1.00  0.00     0.164 HD
HETATM    9  C1  UNL     1     234.889 -26.954 352.037  1.00  0.00     0.018 A 
HETATM   10  C15 UNL     1     235.875 -27.944 351.996  1.00  0.00     0.011 A 
ENDBRANCH   3   4
ENDBRANCH   2   3
ENDBRANCH   1   2
BRANCH   1  11
HETATM   11  C7  UNL     1     239.513 -27.956 350.780  1.00  0.00     0.010 C 
BRANCH  11  12
HETATM   12  C8  UNL     1     239.704 -27.353 352.150  1.00  0.00     0.005 C 
BRANCH  12  13
HETATM   13  C9  UNL     1     239.519 -25.892 352.267  1.00  0.00     0.038 C 
BRANCH  13  14
HETATM   14  C10 UNL     1     240.639 -25.134 352.852  1.00  0.00    -0.056 A 
HETATM   15  C11 UNL     1     240.889 -23.796 352.695  1.00  0.00     0.024 A 
HETATM   16  C12 UNL     1     241.974 -23.161 353.293  1.00  0.00     0.088 A 
HETATM   17  N2  UNL     1     242.826 -23.860 354.061  1.00  0.00    -0.375 N 
HETATM   18  C13 UNL     1     242.628 -25.174 354.249  1.00  0.00     0.088 A 
ATOM     19  H2  UNL     1     243.621 -23.395 354.499  1.00  0.00     0.164 HD
HETATM   20  C14 UNL     1     241.557 -25.817 353.661  1.00  0.00     0.024 A 
ENDBRANCH  13  14
ENDBRANCH  12  13
ENDBRANCH  11  12
ENDBRANCH   1  11
TORSDOF 7
ENDMDL
MODEL 5
REMARK VINA RESULT: -8.453260829      1.718      8.634
REMARK  7 active torsions:
REMARK  status: ('A' for Active; 'I' for Inactive)
REMARK    1  A    between atoms: C4_6  and  C5_7 
REMARK    2  A    between atoms: C5_7  and  S1_8 
REMARK    3  A    between atoms: S1_8  and  C6_9 
REMARK    4  A    between atoms: C6_9  and  C7_10 
REMARK    5  A    between atoms: C7_10  and  C8_11 
REMARK    6  A    between atoms: C8_11  and  C9_12 
REMARK    7  A    between atoms: C9_12  and  C10_13 
ROOT
HETATM    1  C6  UNL     1     241.361 -25.290 352.492  1.00  0.00     0.074 C 
ENDROOT
BRANCH   1   2
HETATM    2  S1  UNL     1     242.275 -25.038 353.957  1.00  0.00    -0.164 SA
BRANCH   2   3
HETATM    3  C5  UNL     1     242.583 -23.402 354.526  1.00  0.00     0.113 C 
BRANCH   3   4
HETATM    4  C4  UNL     1     242.368 -22.346 353.528  1.00  0.00    -0.034 A 
HETATM    5  C3  UNL     1     243.459 -21.985 352.753  1.00  0.00     0.095 A 
HETATM    6  N1  UNL     1     243.367 -21.001 351.873  1.00  0.00    -0.375 N 
HETATM    7  C2  UNL     1     242.196 -20.359 351.744  1.00  0.00     0.087 A 
ATOM      8  H1  UNL     1     244.171 -20.736 351.303  1.00  0.00     0.164 HD
HETATM    9  C1  UNL     1     241.086 -20.675 352.486  1.00  0.00     0.018 A 
HETATM   10  C15 UNL     1     241.182 -21.713 353.417  1.00  0.00     0.011 A 
ENDBRANCH   3   4
ENDBRANCH   2   3
ENDBRANCH   1   2
BRANCH   1  11
HETATM   11  C7  UNL     1     239.864 -25.450 352.582  1.00  0.00     0.010 C 
BRANCH  11  12
HETATM   12  C8  UNL     1     239.483 -26.738 351.892  1.00  0.00     0.005 C 
BRANCH  12  13
HETATM   13  C9  UNL     1     238.509 -27.603 352.588  1.00  0.00     0.038 C 
BRANCH  13  14
HETATM   14  C10 UNL     1     237.258 -27.895 351.866  1.00  0.00    -0.056 A 
HETATM   15  C11 UNL     1     237.115 -28.715 350.778  1.00  0.00     0.024 A 
HETATM   16  C12 UNL     1     235.886 -28.936 350.162  1.00  0.00     0.088 A 
HETATM   17  N2  UNL     1     234.779 -28.338 350.631  1.00  0.00    -0.375 N 
HETATM   18  C13 UNL     1     234.861 -27.525 351.695  1.00  0.00     0.088 A 
ATOM     19  H2  UNL     1     233.878 -28.500 350.180  1.00  0.00     0.164 HD
HETATM   20  C14 UNL     1     236.073 -27.296 352.315  1.00  0.00     0.024 A 
ENDBRANCH  13  14
ENDBRANCH  12  13
ENDBRANCH  11  12
ENDBRANCH   1  11
TORSDOF 7
ENDMDL
