MODEL 1
REMARK VINA RESULT: -8.301103665      0.000      0.000
REMARK  7 active torsions:
REMARK  status: ('A' for Active; 'I' for Inactive)
REMARK    1  A    between atoms: C3_3  and  S1_4 
REMARK    2  A    between atoms: S1_4  and  C4_5 
REMARK    3  A    between atoms: C4_5  and  C5_6 
REMARK    4  A    between atoms: C5_6  and  C6_7 
REMARK    5  A    between atoms: C6_7  and  C7_8 
REMARK    6  A    between atoms: C7_8  and  C8_9 
REMARK    7  A    between atoms: C8_9  and  N1_10 
ROOT
HETATM    1  C5  UNL     1     241.408 -25.840 353.427  1.00  0.00     0.011 C 
ENDROOT
BRANCH   1   2
HETATM    2  C4  UNL     1     242.290 -24.679 353.792  1.00  0.00     0.079 C 
BRANCH   2   3
HETATM    3  S1  UNL     1     242.183 -23.269 352.710  1.00  0.00    -0.130 SA
BRANCH   3   4
HETATM    4  C3  UNL     1     241.666 -21.765 353.519  1.00  0.00     0.003 A 
HETATM    5  C2  UNL     1     242.254 -21.442 354.718  1.00  0.00     0.035 A 
HETATM    6  C1  UNL     1     241.924 -20.317 355.432  1.00  0.00     0.089 A 
HETATM    7  N2  UNL     1     240.982 -19.504 354.921  1.00  0.00    -0.375 N 
HETATM    8  C15 UNL     1     240.375 -19.788 353.735  1.00  0.00     0.089 A 
ATOM      9  H2  UNL     1     240.718 -18.661 355.431  1.00  0.00     0.164 HD
HETATM   10  C14 UNL     1     240.711 -20.914 353.030  1.00  0.00     0.035 A 
ENDBRANCH   3   4
ENDBRANCH   2   3
ENDBRANCH   1   2
BRANCH   1  11
HETATM   11  C6  UNL     1     240.326 -25.389 352.485  1.00  0.00     0.006 C 
BRANCH  11  12
HETATM   12  C7  UNL     1     239.249 -26.379 352.223  1.00  0.00     0.045 C 
BRANCH  12  13
HETATM   13  C8  UNL     1     239.558 -27.379 351.136  1.00  0.00     0.068 C 
BRANCH  13  14
HETATM   14  N1  UNL     1     238.569 -28.375 351.133  1.00  0.00    -0.354 N 
HETATM   15  C9  UNL     1     238.266 -29.056 349.961  1.00  0.00     0.068 C 
HETATM   16  C10 UNL     1     237.071 -29.941 349.968  1.00  0.00     0.045 C 
HETATM   17  C11 UNL     1     236.604 -30.409 351.301  1.00  0.00     0.010 C 
HETATM   18  C12 UNL     1     237.767 -30.315 352.274  1.00  0.00     0.045 C 
HETATM   19  C13 UNL     1     238.104 -28.849 352.372  1.00  0.00     0.068 C 
ENDBRANCH  13  14
ENDBRANCH  12  13
ENDBRANCH  11  12
ENDBRANCH   1  11
TORSDOF 7
ENDMDL
MODEL 2
REMARK VINA RESULT: -8.289013016      0.098      1.112
REMARK  7 active torsions:
REMARK  status: ('A' for Active; 'I' for Inactive)
REMARK    1  A    between atoms: C3_3  and  S1_4 
REMARK    2  A    between atoms: S1_4  and  C4_5 
REMARK    3  A    between atoms: C4_5  and  C5_6 
REMARK    4  A    between atoms: C5_6  and  C6_7 
REMARK    5  A    between atoms: C6_7  and  C7_8 
REMARK    6  A    between atoms: C7_8  and  C8_9 
REMARK    7  A    between atoms: C8_9  and  N1_10 
ROOT
HETATM    1  C5  UNL     1     241.376 -25.904 353.414  1.00  0.00     0.011 C 
ENDROOT
BRANCH   1   2
HETATM    2  C4  UNL     1     242.308 -24.785 353.789  1.00  0.00     0.079 C 
BRANCH   2   3
HETATM    3  S1  UNL     1     242.205 -23.330 352.767  1.00  0.00    -0.130 SA
BRANCH   3   4
HETATM    4  C3  UNL     1     241.735 -21.851 353.647  1.00  0.00     0.003 A 
HETATM    5  C2  UNL     1     240.809 -21.020 353.064  1.00  0.00     0.035 A 
HETATM    6  C1  UNL     1     240.384 -19.851 353.645  1.00  0.00     0.089 A 
HETATM    7  N2  UNL     1     240.907 -19.519 354.838  1.00  0.00    -0.375 N 
HETATM    8  C15 UNL     1     241.827 -20.315 355.450  1.00  0.00     0.089 A 
ATOM      9  H2  UNL     1     240.609 -18.656 355.293  1.00  0.00     0.164 HD
HETATM   10  C14 UNL     1     242.245 -21.480 354.862  1.00  0.00     0.035 A 
ENDBRANCH   3   4
ENDBRANCH   2   3
ENDBRANCH   1   2
BRANCH   1  11
HETATM   11  C6  UNL     1     240.248 -25.373 352.573  1.00  0.00     0.006 C 
BRANCH  11  12
HETATM   12  C7  UNL     1     239.177 -26.351 352.246  1.00  0.00     0.045 C 
BRANCH  12  13
HETATM   13  C8  UNL     1     239.557 -27.388 351.219  1.00  0.00     0.068 C 
BRANCH  13  14
HETATM   14  N1  UNL     1     238.562 -28.377 351.173  1.00  0.00    -0.354 N 
HETATM   15  C9  UNL     1     238.291 -29.041 349.983  1.00  0.00     0.068 C 
HETATM   16  C10 UNL     1     237.091 -29.917 349.942  1.00  0.00     0.045 C 
HETATM   17  C11 UNL     1     236.579 -30.398 351.254  1.00  0.00     0.010 C 
HETATM   18  C12 UNL     1     237.713 -30.325 352.263  1.00  0.00     0.045 C 
HETATM   19  C13 UNL     1     238.057 -28.863 352.391  1.00  0.00     0.068 C 
ENDBRANCH  13  14
ENDBRANCH  12  13
ENDBRANCH  11  12
ENDBRANCH   1  11
TORSDOF 7
ENDMDL
MODEL 3
REMARK VINA RESULT: -8.190080782      0.362      1.169
REMARK  7 active torsions:
REMARK  status: ('A' for Active; 'I' for Inactive)
REMARK    1  A    between atoms: C3_3  and  S1_4 
REMARK    2  A    between atoms: S1_4  and  C4_5 
REMARK    3  A    between atoms: C4_5  and  C5_6 
REMARK    4  A    between atoms: C5_6  and  C6_7 
REMARK    5  A    between atoms: C6_7  and  C7_8 
REMARK    6  A    between atoms: C7_8  and  C8_9 
REMARK    7  A    between atoms: C8_9  and  N1_10 
ROOT
HETATM    1  C5  UNL     1     241.361 -25.901 353.371  1.00  0.00     0.011 C 
ENDROOT
BRANCH   1   2
HETATM    2  C4  UNL     1     242.238 -24.741 353.749  1.00  0.00     0.079 C 
BRANCH   2   3
HETATM    3  S1  UNL     1     242.118 -23.316 352.687  1.00  0.00    -0.130 SA
BRANCH   3   4
HETATM    4  C3  UNL     1     241.635 -21.817 353.527  1.00  0.00     0.003 A 
HETATM    5  C2  UNL     1     242.280 -21.497 354.697  1.00  0.00     0.035 A 
HETATM    6  C1  UNL     1     241.981 -20.376 355.431  1.00  0.00     0.089 A 
HETATM    7  N2  UNL     1     241.011 -19.566 354.971  1.00  0.00    -0.375 N 
HETATM    8  C15 UNL     1     240.348 -19.847 353.815  1.00  0.00     0.089 A 
ATOM      9  H2  UNL     1     240.769 -18.726 355.497  1.00  0.00     0.164 HD
HETATM   10  C14 UNL     1     240.654 -20.969 353.089  1.00  0.00     0.035 A 
ENDBRANCH   3   4
ENDBRANCH   2   3
ENDBRANCH   1   2
BRANCH   1  11
HETATM   11  C6  UNL     1     240.163 -25.413 352.603  1.00  0.00     0.006 C 
BRANCH  11  12
HETATM   12  C7  UNL     1     239.148 -26.447 352.274  1.00  0.00     0.045 C 
BRANCH  12  13
HETATM   13  C8  UNL     1     239.660 -27.596 351.441  1.00  0.00     0.068 C 
BRANCH  13  14
HETATM   14  N1  UNL     1     238.642 -28.551 351.297  1.00  0.00    -0.354 N 
HETATM   15  C9  UNL     1     238.080 -29.148 352.418  1.00  0.00     0.068 C 
HETATM   16  C10 UNL     1     237.165 -30.299 352.199  1.00  0.00     0.045 C 
HETATM   17  C11 UNL     1     236.544 -30.402 350.851  1.00  0.00     0.010 C 
HETATM   18  C12 UNL     1     236.569 -29.025 350.209  1.00  0.00     0.045 C 
HETATM   19  C13 UNL     1     238.025 -28.675 350.040  1.00  0.00     0.068 C 
ENDBRANCH  13  14
ENDBRANCH  12  13
ENDBRANCH  11  12
ENDBRANCH   1  11
TORSDOF 7
ENDMDL
MODEL 4
REMARK VINA RESULT: -8.184423905      1.169      1.504
REMARK  7 active torsions:
REMARK  status: ('A' for Active; 'I' for Inactive)
REMARK    1  A    between atoms: C3_3  and  S1_4 
REMARK    2  A    between atoms: S1_4  and  C4_5 
REMARK    3  A    between atoms: C4_5  and  C5_6 
REMARK    4  A    between atoms: C5_6  and  C6_7 
REMARK    5  A    between atoms: C6_7  and  C7_8 
REMARK    6  A    between atoms: C7_8  and  C8_9 
REMARK    7  A    between atoms: C8_9  and  N1_10 
ROOT
HETATM    1  C5  UNL     1     241.422 -24.981 352.460  1.00  0.00     0.011 C 
ENDROOT
BRANCH   1   2
HETATM    2  C4  UNL     1     242.140 -25.074 353.777  1.00  0.00     0.079 C 
BRANCH   2   3
HETATM    3  S1  UNL     1     242.753 -23.531 354.423  1.00  0.00    -0.130 SA
BRANCH   3   4
HETATM    4  C3  UNL     1     242.322 -22.105 353.441  1.00  0.00     0.003 A 
HETATM    5  C2  UNL     1     241.170 -21.427 353.758  1.00  0.00     0.035 A 
HETATM    6  C1  UNL     1     240.737 -20.326 353.062  1.00  0.00     0.089 A 
HETATM    7  N2  UNL     1     241.485 -19.903 352.028  1.00  0.00    -0.375 N 
HETATM    8  C15 UNL     1     242.635 -20.547 351.681  1.00  0.00     0.089 A 
ATOM      9  H2  UNL     1     241.187 -19.087 351.494  1.00  0.00     0.164 HD
HETATM   10  C14 UNL     1     243.059 -21.646 352.382  1.00  0.00     0.035 A 
ENDBRANCH   3   4
ENDBRANCH   2   3
ENDBRANCH   1   2
BRANCH   1  11
HETATM   11  C6  UNL     1     239.980 -25.374 352.631  1.00  0.00     0.006 C 
BRANCH  11  12
HETATM   12  C7  UNL     1     239.703 -26.834 352.582  1.00  0.00     0.045 C 
BRANCH  12  13
HETATM   13  C8  UNL     1     239.611 -27.415 351.192  1.00  0.00     0.068 C 
BRANCH  13  14
HETATM   14  N1  UNL     1     238.598 -28.385 351.166  1.00  0.00    -0.354 N 
HETATM   15  C9  UNL     1     238.289 -29.041 349.981  1.00  0.00     0.068 C 
HETATM   16  C10 UNL     1     237.072 -29.895 349.964  1.00  0.00     0.045 C 
HETATM   17  C11 UNL     1     236.581 -30.371 351.285  1.00  0.00     0.010 C 
HETATM   18  C12 UNL     1     237.738 -30.321 352.270  1.00  0.00     0.045 C 
HETATM   19  C13 UNL     1     238.111 -28.866 352.393  1.00  0.00     0.068 C 
ENDBRANCH  13  14
ENDBRANCH  12  13
ENDBRANCH  11  12
ENDBRANCH   1  11
TORSDOF 7
ENDMDL
MODEL 5
REMARK VINA RESULT: -8.169006034      1.427      2.103
REMARK  7 active torsions:
REMARK  status: ('A' for Active; 'I' for Inactive)
REMARK    1  A    between atoms: C3_3  and  S1_4 
REMARK    2  A    between atoms: S1_4  and  C4_5 
REMARK    3  A    between atoms: C4_5  and  C5_6 
REMARK    4  A    between atoms: C5_6  and  C6_7 
REMARK    5  A    between atoms: C6_7  and  C7_8 
REMARK    6  A    between atoms: C7_8  and  C8_9 
REMARK    7  A    between atoms: C8_9  and  N1_10 
ROOT
HETATM    1  C5  UNL     1     240.291 -25.000 352.686  1.00  0.00     0.011 C 
ENDROOT
BRANCH   1   2
HETATM    2  C4  UNL     1     241.792 -25.026 352.743  1.00  0.00     0.079 C 
BRANCH   2   3
HETATM    3  S1  UNL     1     242.510 -24.419 354.257  1.00  0.00    -0.130 SA
BRANCH   3   4
HETATM    4  C3  UNL     1     242.789 -22.657 354.277  1.00  0.00     0.003 A 
HETATM    5  C2  UNL     1     242.859 -22.000 353.072  1.00  0.00     0.035 A 
HETATM    6  C1  UNL     1     243.083 -20.650 352.970  1.00  0.00     0.089 A 
HETATM    7  N2  UNL     1     243.237 -19.952 354.109  1.00  0.00    -0.375 N 
HETATM    8  C15 UNL     1     243.174 -20.565 355.324  1.00  0.00     0.089 A 
ATOM      9  H2  UNL     1     243.404 -18.947 354.062  1.00  0.00     0.164 HD
HETATM   10  C14 UNL     1     242.950 -21.913 355.416  1.00  0.00     0.035 A 
ENDBRANCH   3   4
ENDBRANCH   2   3
ENDBRANCH   1   2
BRANCH   1  11
HETATM   11  C6  UNL     1     239.755 -26.401 352.574  1.00  0.00     0.006 C 
BRANCH  11  12
HETATM   12  C7  UNL     1     239.812 -27.002 351.215  1.00  0.00     0.045 C 
BRANCH  12  13
HETATM   13  C8  UNL     1     239.931 -28.506 351.192  1.00  0.00     0.068 C 
BRANCH  13  14
HETATM   14  N1  UNL     1     238.645 -29.067 351.138  1.00  0.00    -0.354 N 
HETATM   15  C9  UNL     1     238.090 -29.651 352.269  1.00  0.00     0.068 C 
HETATM   16  C10 UNL     1     236.826 -30.416 352.098  1.00  0.00     0.045 C 
HETATM   17  C11 UNL     1     236.015 -30.091 350.893  1.00  0.00     0.010 C 
HETATM   18  C12 UNL     1     236.396 -28.696 350.424  1.00  0.00     0.045 C 
HETATM   19  C13 UNL     1     237.845 -28.779 350.019  1.00  0.00     0.068 C 
ENDBRANCH  13  14
ENDBRANCH  12  13
ENDBRANCH  11  12
ENDBRANCH   1  11
TORSDOF 7
ENDMDL
