MODEL 1
REMARK VINA RESULT: -8.160075963      0.000      0.000
REMARK  7 active torsions:
REMARK  status: ('A' for Active; 'I' for Inactive)
REMARK    1  A    between atoms: C2_3  and  C3_4 
REMARK    2  A    between atoms: C3_4  and  N2_5 
REMARK    3  A    between atoms: N2_5  and  C4_6 
REMARK    4  A    between atoms: N2_5  and  C12_14 
REMARK    5  A    between atoms: C4_6  and  C5_7 
REMARK    6  A    between atoms: C5_7  and  C6_8 
REMARK    7  A    between atoms: C12_14  and  C13_15 
ROOT
HETATM    1  N1  UNL     1     240.357 -19.349 354.558  1.00  0.00    -0.197 NA
HETATM    2  C1  UNL     1     240.765 -19.963 353.648  1.00  0.00     0.064 C 
HETATM    3  C2  UNL     1     241.259 -20.757 352.508  1.00  0.00     0.168 C 
ENDROOT
BRANCH   3   4
HETATM    4  C3  UNL     1     240.749 -22.167 352.743  1.00  0.00     0.082 C 
BRANCH   4   5
HETATM    5  N2  UNL     1     241.755 -23.145 352.768  1.00  0.00    -0.348 N 
BRANCH   5   6
HETATM    6  C4  UNL     1     241.478 -24.424 352.247  1.00  0.00     0.073 C 
BRANCH   6   7
HETATM    7  C5  UNL     1     240.313 -25.042 352.997  1.00  0.00     0.083 C 
BRANCH   7   8
HETATM    8  C6  UNL     1     239.796 -26.158 352.167  1.00  0.00    -0.053 A 
HETATM    9  C7  UNL     1     238.613 -26.810 352.494  1.00  0.00     0.007 A 
HETATM   10  C8  UNL     1     238.143 -27.856 351.710  1.00  0.00     0.001 A 
HETATM   11  C9  UNL     1     238.882 -28.229 350.598  1.00  0.00     0.000 A 
HETATM   12  C10 UNL     1     240.048 -27.585 350.276  1.00  0.00     0.001 A 
HETATM   13  C11 UNL     1     240.519 -26.538 351.064  1.00  0.00     0.007 A 
ENDBRANCH   7   8
ENDBRANCH   6   7
ENDBRANCH   5   6
BRANCH   5  14
HETATM   14  C12 UNL     1     243.063 -22.809 353.128  1.00  0.00     0.114 C 
BRANCH  14  15
HETATM   15  C13 UNL     1     243.251 -22.917 354.619  1.00  0.00     0.020 A 
HETATM   16  C14 UNL     1     243.351 -24.020 355.415  1.00  0.00     0.021 A 
HETATM   17  C15 UNL     1     243.524 -23.825 356.740  1.00  0.00     0.008 A 
HETATM   18  C16 UNL     1     243.585 -22.534 357.179  1.00  0.00     0.050 A 
HETATM   19  S1  UNL     1     243.404 -21.626 355.754  1.00  0.00    -0.101 SA
ENDBRANCH  14  15
ENDBRANCH   5  14
ENDBRANCH   4   5
ENDBRANCH   3   4
TORSDOF 7
ENDMDL
MODEL 2
REMARK VINA RESULT: -7.891899144      4.248      8.026
REMARK  7 active torsions:
REMARK  status: ('A' for Active; 'I' for Inactive)
REMARK    1  A    between atoms: C2_3  and  C3_4 
REMARK    2  A    between atoms: C3_4  and  N2_5 
REMARK    3  A    between atoms: N2_5  and  C4_6 
REMARK    4  A    between atoms: N2_5  and  C12_14 
REMARK    5  A    between atoms: C4_6  and  C5_7 
REMARK    6  A    between atoms: C5_7  and  C6_8 
REMARK    7  A    between atoms: C12_14  and  C13_15 
ROOT
HETATM    1  N1  UNL     1     240.965 -29.325 350.596  1.00  0.00    -0.197 NA
HETATM    2  C1  UNL     1     239.913 -29.762 350.868  1.00  0.00     0.064 C 
HETATM    3  C2  UNL     1     238.583 -30.289 351.226  1.00  0.00     0.168 C 
ENDROOT
BRANCH   3   4
HETATM    4  C3  UNL     1     238.181 -29.552 352.490  1.00  0.00     0.082 C 
BRANCH   4   5
HETATM    5  N2  UNL     1     238.022 -28.168 352.322  1.00  0.00    -0.348 N 
BRANCH   5   6
HETATM    6  C4  UNL     1     238.895 -27.292 352.997  1.00  0.00     0.073 C 
BRANCH   6   7
HETATM    7  C5  UNL     1     239.438 -26.262 352.025  1.00  0.00     0.083 C 
BRANCH   7   8
HETATM    8  C6  UNL     1     240.530 -25.534 352.718  1.00  0.00    -0.053 A 
HETATM    9  C7  UNL     1     240.650 -24.153 352.622  1.00  0.00     0.007 A 
HETATM   10  C8  UNL     1     241.680 -23.486 353.273  1.00  0.00     0.001 A 
HETATM   11  C9  UNL     1     242.580 -24.231 354.018  1.00  0.00     0.000 A 
HETATM   12  C10 UNL     1     242.461 -25.594 354.113  1.00  0.00     0.001 A 
HETATM   13  C11 UNL     1     241.429 -26.261 353.459  1.00  0.00     0.007 A 
ENDBRANCH   7   8
ENDBRANCH   6   7
ENDBRANCH   5   6
BRANCH   5  14
HETATM   14  C12 UNL     1     237.140 -27.667 351.362  1.00  0.00     0.114 C 
BRANCH  14  15
HETATM   15  C13 UNL     1     235.721 -27.704 351.867  1.00  0.00     0.020 A 
HETATM   16  C14 UNL     1     234.959 -26.718 352.423  1.00  0.00     0.021 A 
HETATM   17  C15 UNL     1     233.697 -27.031 352.789  1.00  0.00     0.008 A 
HETATM   18  C16 UNL     1     233.283 -28.314 352.573  1.00  0.00     0.050 A 
HETATM   19  S1  UNL     1     234.643 -29.052 351.871  1.00  0.00    -0.101 SA
ENDBRANCH  14  15
ENDBRANCH   5  14
ENDBRANCH   4   5
ENDBRANCH   3   4
TORSDOF 7
ENDMDL
MODEL 3
REMARK VINA RESULT: -7.878199220      4.269      8.023
REMARK  7 active torsions:
REMARK  status: ('A' for Active; 'I' for Inactive)
REMARK    1  A    between atoms: C2_3  and  C3_4 
REMARK    2  A    between atoms: C3_4  and  N2_5 
REMARK    3  A    between atoms: N2_5  and  C4_6 
REMARK    4  A    between atoms: N2_5  and  C12_14 
REMARK    5  A    between atoms: C4_6  and  C5_7 
REMARK    6  A    between atoms: C5_7  and  C6_8 
REMARK    7  A    between atoms: C12_14  and  C13_15 
ROOT
HETATM    1  N1  UNL     1     240.934 -29.281 350.575  1.00  0.00    -0.197 NA
HETATM    2  C1  UNL     1     239.896 -29.749 350.849  1.00  0.00     0.064 C 
HETATM    3  C2  UNL     1     238.584 -30.314 351.211  1.00  0.00     0.168 C 
ENDROOT
BRANCH   3   4
HETATM    4  C3  UNL     1     238.162 -29.587 352.475  1.00  0.00     0.082 C 
BRANCH   4   5
HETATM    5  N2  UNL     1     238.006 -28.203 352.316  1.00  0.00    -0.348 N 
BRANCH   5   6
HETATM    6  C4  UNL     1     238.876 -27.332 353.002  1.00  0.00     0.073 C 
BRANCH   6   7
HETATM    7  C5  UNL     1     239.389 -26.267 352.051  1.00  0.00     0.083 C 
BRANCH   7   8
HETATM    8  C6  UNL     1     240.512 -25.574 352.730  1.00  0.00    -0.053 A 
HETATM    9  C7  UNL     1     241.455 -26.280 353.466  1.00  0.00     0.007 A 
HETATM   10  C8  UNL     1     242.499 -25.616 354.099  1.00  0.00     0.001 A 
HETATM   11  C9  UNL     1     242.573 -24.238 353.976  1.00  0.00     0.000 A 
HETATM   12  C10 UNL     1     241.643 -23.542 353.250  1.00  0.00     0.001 A 
HETATM   13  C11 UNL     1     240.596 -24.209 352.617  1.00  0.00     0.007 A 
ENDBRANCH   7   8
ENDBRANCH   6   7
ENDBRANCH   5   6
BRANCH   5  14
HETATM   14  C12 UNL     1     237.129 -27.693 351.354  1.00  0.00     0.114 C 
BRANCH  14  15
HETATM   15  C13 UNL     1     235.711 -27.706 351.863  1.00  0.00     0.020 A 
HETATM   16  C14 UNL     1     234.970 -26.709 352.426  1.00  0.00     0.021 A 
HETATM   17  C15 UNL     1     233.703 -26.999 352.793  1.00  0.00     0.008 A 
HETATM   18  C16 UNL     1     233.263 -28.272 352.570  1.00  0.00     0.050 A 
HETATM   19  S1  UNL     1     234.607 -29.032 351.861  1.00  0.00    -0.101 SA
ENDBRANCH  14  15
ENDBRANCH   5  14
ENDBRANCH   4   5
ENDBRANCH   3   4
TORSDOF 7
ENDMDL
MODEL 4
REMARK VINA RESULT: -7.824382013      1.808      3.345
REMARK  7 active torsions:
REMARK  status: ('A' for Active; 'I' for Inactive)
REMARK    1  A    between atoms: C2_3  and  C3_4 
REMARK    2  A    between atoms: C3_4  and  N2_5 
REMARK    3  A    between atoms: N2_5  and  C4_6 
REMARK    4  A    between atoms: N2_5  and  C12_14 
REMARK    5  A    between atoms: C4_6  and  C5_7 
REMARK    6  A    between atoms: C5_7  and  C6_8 
REMARK    7  A    between atoms: C12_14  and  C13_15 
ROOT
HETATM    1  N1  UNL     1     244.682 -22.783 356.875  1.00  0.00    -0.197 NA
HETATM    2  C1  UNL     1     244.097 -23.573 356.239  1.00  0.00     0.064 C 
HETATM    3  C2  UNL     1     243.350 -24.546 355.422  1.00  0.00     0.168 C 
ENDROOT
BRANCH   3   4
HETATM    4  C3  UNL     1     242.329 -23.731 354.650  1.00  0.00     0.082 C 
BRANCH   4   5
HETATM    5  N2  UNL     1     242.012 -24.254 353.387  1.00  0.00    -0.348 N 
BRANCH   5   6
HETATM    6  C4  UNL     1     241.371 -25.506 353.306  1.00  0.00     0.073 C 
BRANCH   6   7
HETATM    7  C5  UNL     1     239.994 -25.338 352.695  1.00  0.00     0.083 C 
BRANCH   7   8
HETATM    8  C6  UNL     1     239.606 -26.646 352.111  1.00  0.00    -0.053 A 
HETATM    9  C7  UNL     1     238.705 -27.484 352.757  1.00  0.00     0.007 A 
HETATM   10  C8  UNL     1     238.356 -28.708 352.199  1.00  0.00     0.001 A 
HETATM   11  C9  UNL     1     238.926 -29.067 350.989  1.00  0.00     0.000 A 
HETATM   12  C10 UNL     1     239.814 -28.240 350.352  1.00  0.00     0.001 A 
HETATM   13  C11 UNL     1     240.165 -27.014 350.913  1.00  0.00     0.007 A 
ENDBRANCH   7   8
ENDBRANCH   6   7
ENDBRANCH   5   6
BRANCH   5  14
HETATM   14  C12 UNL     1     242.157 -23.472 352.238  1.00  0.00     0.114 C 
BRANCH  14  15
HETATM   15  C13 UNL     1     242.043 -22.007 352.571  1.00  0.00     0.020 A 
HETATM   16  C14 UNL     1     243.011 -21.051 352.678  1.00  0.00     0.021 A 
HETATM   17  C15 UNL     1     242.622 -19.796 352.989  1.00  0.00     0.008 A 
HETATM   18  C16 UNL     1     241.286 -19.582 353.172  1.00  0.00     0.050 A 
HETATM   19  S1  UNL     1     240.604 -21.116 352.909  1.00  0.00    -0.101 SA
ENDBRANCH  14  15
ENDBRANCH   5  14
ENDBRANCH   4   5
ENDBRANCH   3   4
TORSDOF 7
ENDMDL
MODEL 5
REMARK VINA RESULT: -7.796344760      0.784      1.452
REMARK  7 active torsions:
REMARK  status: ('A' for Active; 'I' for Inactive)
REMARK    1  A    between atoms: C2_3  and  C3_4 
REMARK    2  A    between atoms: C3_4  and  N2_5 
REMARK    3  A    between atoms: N2_5  and  C4_6 
REMARK    4  A    between atoms: N2_5  and  C12_14 
REMARK    5  A    between atoms: C4_6  and  C5_7 
REMARK    6  A    between atoms: C5_7  and  C6_8 
REMARK    7  A    between atoms: C12_14  and  C13_15 
ROOT
HETATM    1  N1  UNL     1     241.241 -19.374 354.416  1.00  0.00    -0.197 NA
HETATM    2  C1  UNL     1     241.203 -20.077 353.480  1.00  0.00     0.064 C 
HETATM    3  C2  UNL     1     241.138 -20.979 352.316  1.00  0.00     0.168 C 
ENDROOT
BRANCH   3   4
HETATM    4  C3  UNL     1     240.715 -22.327 352.870  1.00  0.00     0.082 C 
BRANCH   4   5
HETATM    5  N2  UNL     1     241.705 -23.318 352.789  1.00  0.00    -0.348 N 
BRANCH   5   6
HETATM    6  C4  UNL     1     241.386 -24.559 352.203  1.00  0.00     0.073 C 
BRANCH   6   7
HETATM    7  C5  UNL     1     240.154 -25.139 352.872  1.00  0.00     0.083 C 
BRANCH   7   8
HETATM    8  C6  UNL     1     239.707 -26.291 352.051  1.00  0.00    -0.053 A 
HETATM    9  C7  UNL     1     240.446 -26.726 350.957  1.00  0.00     0.007 A 
HETATM   10  C8  UNL     1     240.012 -27.804 350.196  1.00  0.00     0.001 A 
HETATM   11  C9  UNL     1     238.831 -28.432 350.556  1.00  0.00     0.000 A 
HETATM   12  C10 UNL     1     238.103 -28.003 351.635  1.00  0.00     0.001 A 
HETATM   13  C11 UNL     1     238.538 -26.921 352.397  1.00  0.00     0.007 A 
ENDBRANCH   7   8
ENDBRANCH   6   7
ENDBRANCH   5   6
BRANCH   5  14
HETATM   14  C12 UNL     1     243.033 -23.022 353.109  1.00  0.00     0.114 C 
BRANCH  14  15
HETATM   15  C13 UNL     1     243.250 -23.082 354.599  1.00  0.00     0.020 A 
HETATM   16  C14 UNL     1     243.530 -22.085 355.488  1.00  0.00     0.021 A 
HETATM   17  C15 UNL     1     243.673 -22.425 356.787  1.00  0.00     0.008 A 
HETATM   18  C16 UNL     1     243.525 -23.743 357.109  1.00  0.00     0.050 A 
HETATM   19  S1  UNL     1     243.193 -24.477 355.612  1.00  0.00    -0.101 SA
ENDBRANCH  14  15
ENDBRANCH   5  14
ENDBRANCH   4   5
ENDBRANCH   3   4
TORSDOF 7
ENDMDL
