MODEL 1
REMARK VINA RESULT: -6.177794141      0.000      0.000
REMARK  3 active torsions:
REMARK  status: ('A' for Active; 'I' for Inactive)
REMARK    1  A    between atoms: N1_2  and  N2_3 
REMARK       I    between atoms: N1_2  and  C6_10 
REMARK    2  A    between atoms: C6_10  and  O3_12 
REMARK    3  A    between atoms: O3_12  and  C7_13 
ROOT
HETATM    1  C1  UNL     1      15.391  24.774  -1.043  1.00  0.00     0.183 C 
HETATM    2  N1  UNL     1      15.031  23.749  -1.997  1.00  0.00    -0.239 N 
HETATM    3  C6  UNL     1      15.327  23.906  -3.389  1.00  0.00     0.382 C 
HETATM    4  O2  UNL     1      15.041  23.060  -4.244  1.00  0.00    -0.236 OA
ENDROOT
BRANCH   2   5
HETATM    5  N2  UNL     1      14.384  22.565  -1.620  1.00  0.00    -0.277 N 
HETATM    6  C2  UNL     1      13.107  22.532  -1.382  1.00  0.00     0.132 C 
HETATM    7  C3  UNL     1      12.338  21.346  -0.984  1.00  0.00     0.087 C 
HETATM    8  O1  UNL     1      12.280  23.618  -1.471  1.00  0.00    -0.338 OA
HETATM    9  C4  UNL     1      10.891  21.762  -1.157  1.00  0.00     0.035 C 
HETATM   10  C5  UNL     1      10.932  23.278  -1.207  1.00  0.00     0.177 C 
ATOM     11  H2  UNL     1      14.929  21.708  -1.530  1.00  0.00     0.189 HD
ENDBRANCH   2   5
BRANCH   3  12
HETATM   12  O3  UNL     1      15.967  25.062  -3.803  1.00  0.00    -0.293 OA
BRANCH  12  13
HETATM   13  C7  UNL     1      15.282  26.080  -4.548  1.00  0.00     0.061 C 
HETATM   14  C8  UNL     1      16.058  27.359  -4.304  1.00  0.00     0.046 C 
HETATM   15  C9  UNL     1      15.330  25.788  -6.028  1.00  0.00     0.046 C 
HETATM   16  C10 UNL     1      13.861  26.226  -4.094  1.00  0.00     0.046 C 
ENDBRANCH  12  13
ENDBRANCH   3  12
TORSDOF 3
ENDMDL
MODEL 2
REMARK VINA RESULT: -6.155712338      1.619      5.294
REMARK  3 active torsions:
REMARK  status: ('A' for Active; 'I' for Inactive)
REMARK    1  A    between atoms: N1_2  and  N2_3 
REMARK       I    between atoms: N1_2  and  C6_10 
REMARK    2  A    between atoms: C6_10  and  O3_12 
REMARK    3  A    between atoms: O3_12  and  C7_13 
ROOT
HETATM    1  C1  UNL     1      14.676  24.055  -0.283  1.00  0.00     0.183 C 
HETATM    2  N1  UNL     1      14.570  23.235  -1.469  1.00  0.00    -0.239 N 
HETATM    3  C6  UNL     1      13.875  21.983  -1.436  1.00  0.00     0.382 C 
HETATM    4  O2  UNL     1      13.756  21.245  -2.421  1.00  0.00    -0.236 OA
ENDROOT
BRANCH   2   5
HETATM    5  N2  UNL     1      15.132  23.611  -2.696  1.00  0.00    -0.277 N 
HETATM    6  C2  UNL     1      14.667  24.613  -3.380  1.00  0.00     0.132 C 
HETATM    7  C3  UNL     1      15.185  25.086  -4.671  1.00  0.00     0.087 C 
HETATM    8  O1  UNL     1      13.610  25.388  -2.988  1.00  0.00    -0.338 OA
HETATM    9  C4  UNL     1      14.530  26.439  -4.864  1.00  0.00     0.035 C 
HETATM   10  C5  UNL     1      13.357  26.438  -3.902  1.00  0.00     0.177 C 
ATOM     11  H2  UNL     1      15.925  23.085  -3.061  1.00  0.00     0.189 HD
ENDBRANCH   2   5
BRANCH   3  12
HETATM   12  O3  UNL     1      13.305  21.574  -0.243  1.00  0.00    -0.293 OA
BRANCH  12  13
HETATM   13  C7  UNL     1      11.889  21.652  -0.015  1.00  0.00     0.061 C 
HETATM   14  C8  UNL     1      11.730  22.127   1.415  1.00  0.00     0.046 C 
HETATM   15  C9  UNL     1      11.255  22.682  -0.916  1.00  0.00     0.046 C 
HETATM   16  C10 UNL     1      11.232  20.319  -0.208  1.00  0.00     0.046 C 
ENDBRANCH  12  13
ENDBRANCH   3  12
TORSDOF 3
ENDMDL
MODEL 3
REMARK VINA RESULT: -6.020348722      2.494      3.017
REMARK  3 active torsions:
REMARK  status: ('A' for Active; 'I' for Inactive)
REMARK    1  A    between atoms: N1_2  and  N2_3 
REMARK       I    between atoms: N1_2  and  C6_10 
REMARK    2  A    between atoms: C6_10  and  O3_12 
REMARK    3  A    between atoms: O3_12  and  C7_13 
ROOT
HETATM    1  C1  UNL     1      14.630  24.642   0.684  1.00  0.00     0.183 C 
HETATM    2  N1  UNL     1      13.522  23.992   0.021  1.00  0.00    -0.239 N 
HETATM    3  C6  UNL     1      13.656  23.497  -1.316  1.00  0.00     0.382 C 
HETATM    4  O2  UNL     1      12.740  22.935  -1.927  1.00  0.00    -0.236 OA
ENDROOT
BRANCH   2   5
HETATM    5  N2  UNL     1      12.278  23.813   0.638  1.00  0.00    -0.277 N 
HETATM    6  C2  UNL     1      12.002  22.741   1.320  1.00  0.00     0.132 C 
HETATM    7  C3  UNL     1      10.732  22.460   2.002  1.00  0.00     0.087 C 
HETATM    8  O1  UNL     1      12.872  21.702   1.504  1.00  0.00    -0.338 OA
HETATM    9  C4  UNL     1      11.042  21.276   2.897  1.00  0.00     0.035 C 
HETATM   10  C5  UNL     1      12.324  20.693   2.331  1.00  0.00     0.177 C 
ATOM     11  H2  UNL     1      11.570  24.541   0.550  1.00  0.00     0.189 HD
ENDBRANCH   2   5
BRANCH   3  12
HETATM   12  O3  UNL     1      14.870  23.654  -1.961  1.00  0.00    -0.293 OA
BRANCH  12  13
HETATM   13  C7  UNL     1      15.069  24.663  -2.964  1.00  0.00     0.061 C 
HETATM   14  C8  UNL     1      16.290  25.445  -2.522  1.00  0.00     0.046 C 
HETATM   15  C9  UNL     1      15.383  24.037  -4.301  1.00  0.00     0.046 C 
HETATM   16  C10 UNL     1      13.875  25.561  -3.080  1.00  0.00     0.046 C 
ENDBRANCH  12  13
ENDBRANCH   3  12
TORSDOF 3
ENDMDL
MODEL 4
REMARK VINA RESULT: -6.007859214      1.866      2.161
REMARK  3 active torsions:
REMARK  status: ('A' for Active; 'I' for Inactive)
REMARK    1  A    between atoms: N1_2  and  N2_3 
REMARK       I    between atoms: N1_2  and  C6_10 
REMARK    2  A    between atoms: C6_10  and  O3_12 
REMARK    3  A    between atoms: O3_12  and  C7_13 
ROOT
HETATM    1  C1  UNL     1      12.160  25.123  -1.183  1.00  0.00     0.183 C 
HETATM    2  N1  UNL     1      12.692  23.869  -1.668  1.00  0.00    -0.239 N 
HETATM    3  C6  UNL     1      13.998  23.803  -2.252  1.00  0.00     0.382 C 
HETATM    4  O2  UNL     1      14.498  22.757  -2.681  1.00  0.00    -0.236 OA
ENDROOT
BRANCH   2   5
HETATM    5  N2  UNL     1      11.972  22.670  -1.596  1.00  0.00    -0.277 N 
HETATM    6  C2  UNL     1      11.968  21.940  -0.521  1.00  0.00     0.132 C 
HETATM    7  C3  UNL     1      11.247  20.672  -0.346  1.00  0.00     0.087 C 
HETATM    8  O1  UNL     1      12.646  22.255   0.625  1.00  0.00    -0.338 OA
HETATM    9  C4  UNL     1      11.300  20.414   1.147  1.00  0.00     0.035 C 
HETATM   10  C5  UNL     1      12.419  21.307   1.651  1.00  0.00     0.177 C 
ATOM     11  H2  UNL     1      11.438  22.361  -2.408  1.00  0.00     0.189 HD
ENDBRANCH   2   5
BRANCH   3  12
HETATM   12  O3  UNL     1      14.742  24.966  -2.341  1.00  0.00    -0.293 OA
BRANCH  12  13
HETATM   13  C7  UNL     1      14.986  25.613  -3.600  1.00  0.00     0.061 C 
HETATM   14  C8  UNL     1      16.160  26.542  -3.362  1.00  0.00     0.046 C 
HETATM   15  C9  UNL     1      15.396  24.610  -4.650  1.00  0.00     0.046 C 
HETATM   16  C10 UNL     1      13.785  26.383  -4.059  1.00  0.00     0.046 C 
ENDBRANCH  12  13
ENDBRANCH   3  12
TORSDOF 3
ENDMDL
MODEL 5
REMARK VINA RESULT: -5.980066438      2.145      5.916
REMARK  3 active torsions:
REMARK  status: ('A' for Active; 'I' for Inactive)
REMARK    1  A    between atoms: N1_2  and  N2_3 
REMARK       I    between atoms: N1_2  and  C6_10 
REMARK    2  A    between atoms: C6_10  and  O3_12 
REMARK    3  A    between atoms: O3_12  and  C7_13 
ROOT
HETATM    1  C1  UNL     1      14.706  20.634  -0.241  1.00  0.00     0.183 C 
HETATM    2  N1  UNL     1      13.811  21.192  -1.229  1.00  0.00    -0.239 N 
HETATM    3  C6  UNL     1      12.397  21.226  -1.003  1.00  0.00     0.382 C 
HETATM    4  O2  UNL     1      11.590  21.692  -1.816  1.00  0.00    -0.236 OA
ENDROOT
BRANCH   2   5
HETATM    5  N2  UNL     1      14.268  21.721  -2.443  1.00  0.00    -0.277 N 
HETATM    6  C2  UNL     1      14.765  22.919  -2.521  1.00  0.00     0.132 C 
HETATM    7  C3  UNL     1      15.270  23.562  -3.741  1.00  0.00     0.087 C 
HETATM    8  O1  UNL     1      14.893  23.769  -1.457  1.00  0.00    -0.338 OA
HETATM    9  C4  UNL     1      16.021  24.779  -3.240  1.00  0.00     0.035 C 
HETATM   10  C5  UNL     1      15.515  24.986  -1.825  1.00  0.00     0.177 C 
ATOM     11  H2  UNL     1      14.208  21.152  -3.287  1.00  0.00     0.189 HD
ENDBRANCH   2   5
BRANCH   3  12
HETATM   12  O3  UNL     1      11.905  20.714   0.184  1.00  0.00    -0.293 OA
BRANCH  12  13
HETATM   13  C7  UNL     1      11.442  21.566   1.243  1.00  0.00     0.061 C 
HETATM   14  C8  UNL     1      11.975  20.956   2.523  1.00  0.00     0.046 C 
HETATM   15  C9  UNL     1      12.029  22.950   1.113  1.00  0.00     0.046 C 
HETATM   16  C10 UNL     1       9.945  21.638   1.271  1.00  0.00     0.046 C 
ENDBRANCH  12  13
ENDBRANCH   3  12
TORSDOF 3
ENDMDL
