MODEL 1
REMARK VINA RESULT: -6.022734223      0.000      0.000
REMARK  3 active torsions:
REMARK  status: ('A' for Active; 'I' for Inactive)
REMARK    1  A    between atoms: C2_2  and  S1_3 
REMARK    2  A    between atoms: S1_3  and  C3_4 
REMARK    3  A    between atoms: C4_5  and  C5_6 
ROOT
HETATM    1  C5  UNL     1      14.408  23.212  -1.829  1.00  0.00     0.272 C 
HETATM    2  O1  UNL     1      13.182  22.535  -1.839  1.00  0.00    -0.345 OA
HETATM    3  C6  UNL     1      13.069  21.817  -0.660  1.00  0.00     0.127 C 
HETATM    4  C7  UNL     1      14.167  20.772  -0.617  1.00  0.00     0.055 C 
HETATM    5  C8  UNL     1      11.736  21.108  -0.689  1.00  0.00     0.055 C 
HETATM    6  C9  UNL     1      13.214  22.722   0.482  1.00  0.00     0.223 C 
HETATM    7  O2  UNL     1      12.664  22.702   1.520  1.00  0.00    -0.282 OA
HETATM    8  S2  UNL     1      14.438  23.868  -0.099  1.00  0.00    -0.045 SA
ENDROOT
BRANCH   1   9
HETATM    9  C4  UNL     1      14.320  24.325  -2.748  1.00  0.00    -0.051 C 
HETATM   10  C3  UNL     1      14.223  25.262  -3.520  1.00  0.00    -0.031 C 
BRANCH  10  11
HETATM   11  S1  UNL     1      14.057  26.630  -4.628  1.00  0.00    -0.079 SA
BRANCH  11  12
HETATM   12  C2  UNL     1      15.602  26.938  -5.535  1.00  0.00     0.084 C 
HETATM   13  C1  UNL     1      15.513  26.247  -6.868  1.00  0.00     0.017 C 
ENDBRANCH  11  12
ENDBRANCH  10  11
ENDBRANCH   1   9
TORSDOF 3
ENDMDL
MODEL 2
REMARK VINA RESULT: -5.978974022      0.950      1.212
REMARK  3 active torsions:
REMARK  status: ('A' for Active; 'I' for Inactive)
REMARK    1  A    between atoms: C2_2  and  S1_3 
REMARK    2  A    between atoms: S1_3  and  C3_4 
REMARK    3  A    between atoms: C4_5  and  C5_6 
ROOT
HETATM    1  C5  UNL     1      14.694  23.337  -2.159  1.00  0.00     0.272 C 
HETATM    2  O1  UNL     1      13.401  22.803  -2.101  1.00  0.00    -0.345 OA
HETATM    3  C6  UNL     1      13.236  22.186  -0.872  1.00  0.00     0.127 C 
HETATM    4  C7  UNL     1      14.210  21.031  -0.771  1.00  0.00     0.055 C 
HETATM    5  C8  UNL     1      11.831  21.632  -0.829  1.00  0.00     0.055 C 
HETATM    6  C9  UNL     1      13.507  23.147   0.200  1.00  0.00     0.223 C 
HETATM    7  O2  UNL     1      12.983  23.262   1.245  1.00  0.00    -0.282 OA
HETATM    8  S2  UNL     1      14.837  24.104  -0.481  1.00  0.00    -0.045 SA
ENDROOT
BRANCH   1   9
HETATM    9  C4  UNL     1      14.709  24.385  -3.155  1.00  0.00    -0.051 C 
HETATM   10  C3  UNL     1      14.743  25.266  -3.995  1.00  0.00    -0.031 C 
BRANCH  10  11
HETATM   11  S1  UNL     1      14.818  26.531  -5.228  1.00  0.00    -0.079 SA
BRANCH  11  12
HETATM   12  C2  UNL     1      16.167  27.702  -4.893  1.00  0.00     0.084 C 
HETATM   13  C1  UNL     1      16.760  27.369  -3.551  1.00  0.00     0.017 C 
ENDBRANCH  11  12
ENDBRANCH  10  11
ENDBRANCH   1   9
TORSDOF 3
ENDMDL
MODEL 3
REMARK VINA RESULT: -5.610388006      1.798      2.319
REMARK  3 active torsions:
REMARK  status: ('A' for Active; 'I' for Inactive)
REMARK    1  A    between atoms: C2_2  and  S1_3 
REMARK    2  A    between atoms: S1_3  and  C3_4 
REMARK    3  A    between atoms: C4_5  and  C5_6 
ROOT
HETATM    1  C5  UNL     1      13.861  24.115  -2.423  1.00  0.00     0.272 C 
HETATM    2  O1  UNL     1      12.931  24.839  -1.668  1.00  0.00    -0.345 OA
HETATM    3  C6  UNL     1      12.866  24.282  -0.401  1.00  0.00     0.127 C 
HETATM    4  C7  UNL     1      12.353  22.861  -0.517  1.00  0.00     0.055 C 
HETATM    5  C8  UNL     1      11.868  25.087   0.396  1.00  0.00     0.055 C 
HETATM    6  C9  UNL     1      14.203  24.270   0.198  1.00  0.00     0.223 C 
HETATM    7  O2  UNL     1      14.518  24.444   1.316  1.00  0.00    -0.282 OA
HETATM    8  S2  UNL     1      15.238  23.925  -1.202  1.00  0.00    -0.045 SA
ENDROOT
BRANCH   1   9
HETATM    9  C4  UNL     1      14.315  24.954  -3.511  1.00  0.00    -0.051 C 
HETATM   10  C3  UNL     1      14.706  25.673  -4.412  1.00  0.00    -0.031 C 
BRANCH  10  11
HETATM   11  S1  UNL     1      15.296  26.729  -5.702  1.00  0.00    -0.079 SA
BRANCH  11  12
HETATM   12  C2  UNL     1      16.168  28.174  -5.028  1.00  0.00     0.084 C 
HETATM   13  C1  UNL     1      17.019  27.717  -3.875  1.00  0.00     0.017 C 
ENDBRANCH  11  12
ENDBRANCH  10  11
ENDBRANCH   1   9
TORSDOF 3
ENDMDL
MODEL 4
REMARK VINA RESULT: -5.537466396      1.187      1.457
REMARK  3 active torsions:
REMARK  status: ('A' for Active; 'I' for Inactive)
REMARK    1  A    between atoms: C2_2  and  S1_3 
REMARK    2  A    between atoms: S1_3  and  C3_4 
REMARK    3  A    between atoms: C4_5  and  C5_6 
ROOT
HETATM    1  C5  UNL     1      14.217  22.531  -1.740  1.00  0.00     0.272 C 
HETATM    2  O1  UNL     1      12.818  22.488  -1.749  1.00  0.00    -0.345 OA
HETATM    3  C6  UNL     1      12.386  22.006  -0.524  1.00  0.00     0.127 C 
HETATM    4  C7  UNL     1      12.884  20.585  -0.356  1.00  0.00     0.055 C 
HETATM    5  C8  UNL     1      10.876  21.983  -0.554  1.00  0.00     0.055 C 
HETATM    6  C9  UNL     1      12.926  22.843   0.550  1.00  0.00     0.223 C 
HETATM    7  O2  UNL     1      12.426  23.166   1.563  1.00  0.00    -0.282 OA
HETATM    8  S2  UNL     1      14.540  23.249  -0.066  1.00  0.00    -0.045 SA
ENDROOT
BRANCH   1   9
HETATM    9  C4  UNL     1      14.650  23.477  -2.745  1.00  0.00    -0.051 C 
HETATM   10  C3  UNL     1      14.992  24.279  -3.595  1.00  0.00    -0.031 C 
BRANCH  10  11
HETATM   11  S1  UNL     1      15.465  25.458  -4.825  1.00  0.00    -0.079 SA
BRANCH  11  12
HETATM   12  C2  UNL     1      14.183  26.727  -5.052  1.00  0.00     0.084 C 
HETATM   13  C1  UNL     1      13.263  26.688  -3.862  1.00  0.00     0.017 C 
ENDBRANCH  11  12
ENDBRANCH  10  11
ENDBRANCH   1   9
TORSDOF 3
ENDMDL
MODEL 5
REMARK VINA RESULT: -5.426458473      1.538      1.754
REMARK  3 active torsions:
REMARK  status: ('A' for Active; 'I' for Inactive)
REMARK    1  A    between atoms: C2_2  and  S1_3 
REMARK    2  A    between atoms: S1_3  and  C3_4 
REMARK    3  A    between atoms: C4_5  and  C5_6 
ROOT
HETATM    1  C5  UNL     1      14.514  23.998  -2.056  1.00  0.00     0.272 C 
HETATM    2  O1  UNL     1      14.311  22.630  -2.282  1.00  0.00    -0.345 OA
HETATM    3  C6  UNL     1      13.608  22.108  -1.208  1.00  0.00     0.127 C 
HETATM    4  C7  UNL     1      14.454  22.244   0.042  1.00  0.00     0.055 C 
HETATM    5  C8  UNL     1      13.391  20.639  -1.481  1.00  0.00     0.055 C 
HETATM    6  C9  UNL     1      12.358  22.851  -1.033  1.00  0.00     0.223 C 
HETATM    7  O2  UNL     1      11.300  22.458  -0.705  1.00  0.00    -0.282 OA
HETATM    8  S2  UNL     1      12.844  24.507  -1.444  1.00  0.00    -0.045 SA
ENDROOT
BRANCH   1   9
HETATM    9  C4  UNL     1      14.759  24.637  -3.330  1.00  0.00    -0.051 C 
HETATM   10  C3  UNL     1      14.984  25.184  -4.394  1.00  0.00    -0.031 C 
BRANCH  10  11
HETATM   11  S1  UNL     1      15.339  25.980  -5.933  1.00  0.00    -0.079 SA
BRANCH  11  12
HETATM   12  C2  UNL     1      15.902  27.690  -5.678  1.00  0.00     0.084 C 
HETATM   13  C1  UNL     1      16.625  27.758  -4.360  1.00  0.00     0.017 C 
ENDBRANCH  11  12
ENDBRANCH  10  11
ENDBRANCH   1   9
TORSDOF 3
ENDMDL
