MODEL 1
REMARK VINA RESULT: -6.234802265      0.000      0.000
REMARK  2 active torsions:
REMARK  status: ('A' for Active; 'I' for Inactive)
REMARK    1  A    between atoms: O1_2  and  C2_3 
REMARK    2  A    between atoms: C2_3  and  C3_5 
ROOT
HETATM    1  C3  UNL     1      13.871  24.055  -0.259  1.00  0.00     0.153 C 
HETATM    2  C4  UNL     1      12.455  23.543  -0.323  1.00  0.00     0.101 C 
HETATM    3  S1  UNL     1      11.773  25.022  -1.214  1.00  0.00    -0.131 SA
HETATM    4  C5  UNL     1      13.291  25.218  -2.203  1.00  0.00     0.008 C 
HETATM    5  C6  UNL     1      14.259  24.653  -1.543  1.00  0.00     0.074 C 
HETATM    6  O3  UNL     1      15.562  24.687  -2.146  1.00  0.00    -0.348 OA
HETATM    7  C7  UNL     1      15.754  25.240  -3.397  1.00  0.00     0.124 C 
HETATM    8  C8  UNL     1      15.633  24.275  -4.544  1.00  0.00     0.040 C 
HETATM    9  C9  UNL     1      14.805  26.395  -3.680  1.00  0.00     0.037 C 
HETATM   10  C10 UNL     1      13.395  25.892  -3.508  1.00  0.00     0.051 C 
ENDROOT
BRANCH   1  11
HETATM   11  C2  UNL     1      14.799  22.994   0.180  1.00  0.00     0.269 C 
HETATM   12  O2  UNL     1      15.668  23.287   1.037  1.00  0.00    -0.264 OA
BRANCH  11  13
HETATM   13  O1  UNL     1      14.763  21.712  -0.296  1.00  0.00    -0.326 OA
HETATM   14  C1  UNL     1      14.963  20.564   0.529  1.00  0.00     0.213 C 
ENDBRANCH  11  13
ENDBRANCH   1  11
TORSDOF 2
ENDMDL
MODEL 2
REMARK VINA RESULT: -6.131798480      1.209      1.572
REMARK  2 active torsions:
REMARK  status: ('A' for Active; 'I' for Inactive)
REMARK    1  A    between atoms: O1_2  and  C2_3 
REMARK    2  A    between atoms: C2_3  and  C3_5 
ROOT
HETATM    1  C3  UNL     1      13.511  22.994  -1.246  1.00  0.00     0.153 C 
HETATM    2  C4  UNL     1      12.006  22.991  -1.338  1.00  0.00     0.101 C 
HETATM    3  S1  UNL     1      11.829  24.838  -1.390  1.00  0.00    -0.131 SA
HETATM    4  C5  UNL     1      13.344  25.029  -2.384  1.00  0.00     0.008 C 
HETATM    5  C6  UNL     1      14.080  23.977  -2.176  1.00  0.00     0.074 C 
HETATM    6  O3  UNL     1      15.336  23.915  -2.871  1.00  0.00    -0.348 OA
HETATM    7  C7  UNL     1      15.704  24.901  -3.765  1.00  0.00     0.124 C 
HETATM    8  C8  UNL     1      15.302  24.649  -5.191  1.00  0.00     0.040 C 
HETATM    9  C9  UNL     1      15.166  26.272  -3.382  1.00  0.00     0.037 C 
HETATM   10  C10 UNL     1      13.668  26.166  -3.262  1.00  0.00     0.051 C 
ENDROOT
BRANCH   1  11
HETATM   11  C2  UNL     1      14.056  21.636  -1.447  1.00  0.00     0.269 C 
HETATM   12  O2  UNL     1      13.795  21.049  -2.525  1.00  0.00    -0.264 OA
BRANCH  11  13
HETATM   13  O1  UNL     1      14.830  20.987  -0.524  1.00  0.00    -0.326 OA
HETATM   14  C1  UNL     1      14.456  20.835   0.845  1.00  0.00     0.213 C 
ENDBRANCH  11  13
ENDBRANCH   1  11
TORSDOF 2
ENDMDL
MODEL 3
REMARK VINA RESULT: -5.894014805      2.391      2.995
REMARK  2 active torsions:
REMARK  status: ('A' for Active; 'I' for Inactive)
REMARK    1  A    between atoms: O1_2  and  C2_3 
REMARK    2  A    between atoms: C2_3  and  C3_5 
ROOT
HETATM    1  C3  UNL     1      13.270  23.377  -0.835  1.00  0.00     0.153 C 
HETATM    2  C4  UNL     1      13.365  24.056   0.508  1.00  0.00     0.101 C 
HETATM    3  S1  UNL     1      15.209  24.263   0.469  1.00  0.00    -0.131 SA
HETATM    4  C5  UNL     1      15.210  24.586  -1.324  1.00  0.00     0.008 C 
HETATM    5  C6  UNL     1      14.129  24.052  -1.815  1.00  0.00     0.074 C 
HETATM    6  O3  UNL     1      13.921  24.190  -3.229  1.00  0.00    -0.348 OA
HETATM    7  C7  UNL     1      14.802  24.912  -4.011  1.00  0.00     0.124 C 
HETATM    8  C8  UNL     1      14.460  26.367  -4.174  1.00  0.00     0.040 C 
HETATM    9  C9  UNL     1      16.234  24.840  -3.503  1.00  0.00     0.037 C 
HETATM   10  C10 UNL     1      16.244  25.318  -2.074  1.00  0.00     0.051 C 
ENDROOT
BRANCH   1  11
HETATM   11  C2  UNL     1      11.865  23.279  -1.281  1.00  0.00     0.269 C 
HETATM   12  O2  UNL     1      11.149  24.307  -1.205  1.00  0.00    -0.264 OA
BRANCH  11  13
HETATM   13  O1  UNL     1      11.304  22.131  -1.771  1.00  0.00    -0.326 OA
HETATM   14  C1  UNL     1      10.373  21.338  -1.035  1.00  0.00     0.213 C 
ENDBRANCH  11  13
ENDBRANCH   1  11
TORSDOF 2
ENDMDL
MODEL 4
REMARK VINA RESULT: -5.840970908      2.226      2.817
REMARK  2 active torsions:
REMARK  status: ('A' for Active; 'I' for Inactive)
REMARK    1  A    between atoms: O1_2  and  C2_3 
REMARK    2  A    between atoms: C2_3  and  C3_5 
ROOT
HETATM    1  C3  UNL     1      14.517  22.808  -1.176  1.00  0.00     0.153 C 
HETATM    2  C4  UNL     1      14.309  23.366   0.209  1.00  0.00     0.101 C 
HETATM    3  S1  UNL     1      15.789  24.485   0.171  1.00  0.00    -0.131 SA
HETATM    4  C5  UNL     1      15.552  24.861  -1.596  1.00  0.00     0.008 C 
HETATM    5  C6  UNL     1      14.874  23.879  -2.114  1.00  0.00     0.074 C 
HETATM    6  O3  UNL     1      14.567  23.969  -3.514  1.00  0.00    -0.348 OA
HETATM    7  C7  UNL     1      14.925  25.081  -4.252  1.00  0.00     0.124 C 
HETATM    8  C8  UNL     1      13.886  26.165  -4.313  1.00  0.00     0.040 C 
HETATM    9  C9  UNL     1      16.215  25.720  -3.760  1.00  0.00     0.037 C 
HETATM   10  C10 UNL     1      16.041  26.058  -2.302  1.00  0.00     0.051 C 
ENDROOT
BRANCH   1  11
HETATM   11  C2  UNL     1      13.339  22.033  -1.617  1.00  0.00     0.269 C 
HETATM   12  O2  UNL     1      13.517  20.842  -1.974  1.00  0.00    -0.264 OA
BRANCH  11  13
HETATM   13  O1  UNL     1      12.070  22.540  -1.656  1.00  0.00    -0.326 OA
HETATM   14  C1  UNL     1      10.916  21.795  -1.268  1.00  0.00     0.213 C 
ENDBRANCH  11  13
ENDBRANCH   1  11
TORSDOF 2
ENDMDL
MODEL 5
REMARK VINA RESULT: -5.827700106      2.015      2.833
REMARK  2 active torsions:
REMARK  status: ('A' for Active; 'I' for Inactive)
REMARK    1  A    between atoms: O1_2  and  C2_3 
REMARK    2  A    between atoms: C2_3  and  C3_5 
ROOT
HETATM    1  C3  UNL     1      13.437  23.382  -0.613  1.00  0.00     0.153 C 
HETATM    2  C4  UNL     1      14.110  22.098  -0.202  1.00  0.00     0.101 C 
HETATM    3  S1  UNL     1      14.347  21.463  -1.930  1.00  0.00    -0.131 SA
HETATM    4  C5  UNL     1      14.679  23.134  -2.577  1.00  0.00     0.008 C 
HETATM    5  C6  UNL     1      14.130  23.983  -1.758  1.00  0.00     0.074 C 
HETATM    6  O3  UNL     1      14.273  25.377  -2.076  1.00  0.00    -0.348 OA
HETATM    7  C7  UNL     1      15.013  25.785  -3.168  1.00  0.00     0.124 C 
HETATM    8  C8  UNL     1      16.463  26.063  -2.885  1.00  0.00     0.040 C 
HETATM    9  C9  UNL     1      14.961  24.791  -4.319  1.00  0.00     0.037 C 
HETATM   10  C10 UNL     1      15.431  23.457  -3.801  1.00  0.00     0.051 C 
ENDROOT
BRANCH   1  11
HETATM   11  C2  UNL     1      13.319  24.308   0.532  1.00  0.00     0.269 C 
HETATM   12  O2  UNL     1      14.321  24.462   1.272  1.00  0.00    -0.264 OA
BRANCH  11  13
HETATM   13  O1  UNL     1      12.179  25.005   0.829  1.00  0.00    -0.326 OA
HETATM   14  C1  UNL     1      10.931  24.377   1.122  1.00  0.00     0.213 C 
ENDBRANCH  11  13
ENDBRANCH   1  11
TORSDOF 2
ENDMDL
