MODEL 1
REMARK VINA RESULT: -8.210910390      0.000      0.000
REMARK  7 active torsions:
REMARK  status: ('A' for Active; 'I' for Inactive)
REMARK    1  A    between atoms: C9_10  and  C11_12 
REMARK    2  A    between atoms: C11_12  and  O1_13 
REMARK    3  A    between atoms: C11_12  and  C12_15 
REMARK    4  A    between atoms: C12_15  and  C13_16 
REMARK    5  A    between atoms: C13_16  and  C14_17 
REMARK    6  A    between atoms: C14_17  and  O2_18 
REMARK    7  A    between atoms: C18_24  and  O3_25 
ROOT
HETATM    1  C1  UNL     1      -2.332  20.922   7.648  1.00  0.00     0.015 C 
HETATM    2  C2  UNL     1      -1.663  20.071   6.527  1.00  0.00     0.017 A 
HETATM    3  C3  UNL     1      -2.581  20.277   5.379  1.00  0.00     0.058 A 
HETATM    4  C4  UNL     1      -3.159  19.083   4.822  1.00  0.00     0.023 A 
HETATM    5  C5  UNL     1      -4.122  19.233   3.736  1.00  0.00     0.095 C 
HETATM    6  N1  UNL     1      -4.869  19.360   2.864  1.00  0.00    -0.192 NA
HETATM    7  C6  UNL     1      -2.852  17.909   5.253  1.00  0.00     0.026 A 
HETATM    8  C7  UNL     1      -1.906  17.685   6.343  1.00  0.00    -0.048 A 
HETATM    9  C8  UNL     1      -1.339  18.718   6.941  1.00  0.00    -0.058 A 
HETATM   10  C9  UNL     1      -0.329  18.388   8.023  1.00  0.00     0.011 C 
HETATM   11  C10 UNL     1      -1.091  18.643   9.307  1.00  0.00     0.023 C 
HETATM   12  C16 UNL     1       0.248  17.031   7.913  1.00  0.00     0.011 C 
HETATM   13  C17 UNL     1      -0.060  16.083   9.051  1.00  0.00     0.038 C 
HETATM   14  C18 UNL     1      -1.406  15.477   9.075  1.00  0.00     0.119 C 
HETATM   15  C19 UNL     1      -2.261  15.735   7.866  1.00  0.00     0.042 C 
HETATM   16  C20 UNL     1      -1.601  16.246   6.675  1.00  0.00     0.029 C 
HETATM   17  C21 UNL     1      -0.087  16.227   6.669  1.00  0.00    -0.035 C 
HETATM   18  C22 UNL     1       0.489  14.826   6.741  1.00  0.00     0.016 C 
HETATM   19  C23 UNL     1       0.470  16.761   5.394  1.00  0.00     0.016 C 
ENDROOT
BRANCH  10  20
HETATM   20  C11 UNL     1       0.784  19.446   8.119  1.00  0.00     0.134 C 
BRANCH  20  21
HETATM   21  O1  UNL     1       1.671  18.770   9.039  1.00  0.00    -0.394 OA
ATOM     22  H1  UNL     1       2.503  18.978   8.631  1.00  0.00     0.210 HD
ENDBRANCH  20  21
BRANCH  20  23
HETATM   23  C12 UNL     1       1.547  19.772   6.937  1.00  0.00     0.063 C 
BRANCH  23  24
HETATM   24  C13 UNL     1       2.434  20.970   6.995  1.00  0.00     0.024 C 
BRANCH  24  25
HETATM   25  C14 UNL     1       3.841  20.891   7.370  1.00  0.00     0.143 C 
HETATM   26  C15 UNL     1       4.436  22.112   7.868  1.00  0.00     0.124 C 
HETATM   27  N2  UNL     1       4.938  23.103   8.254  1.00  0.00    -0.189 NA
BRANCH  25  28
HETATM   28  O2  UNL     1       4.269  19.728   8.000  1.00  0.00    -0.351 OA
ATOM     29  H2  UNL     1       4.852  19.825   8.743  1.00  0.00     0.218 HD
ENDBRANCH  25  28
ENDBRANCH  24  25
ENDBRANCH  23  24
ENDBRANCH  20  23
ENDBRANCH  10  20
BRANCH  14  30
HETATM   30  O3  UNL     1      -2.067  15.767  10.283  1.00  0.00    -0.396 OA
ATOM     31  H3  UNL     1      -1.604  15.393  11.022  1.00  0.00     0.210 HD
ENDBRANCH  14  30
TORSDOF 7
ENDMDL
MODEL 2
REMARK VINA RESULT: -7.848501601      2.775      5.390
REMARK  7 active torsions:
REMARK  status: ('A' for Active; 'I' for Inactive)
REMARK    1  A    between atoms: C9_10  and  C11_12 
REMARK    2  A    between atoms: C11_12  and  O1_13 
REMARK    3  A    between atoms: C11_12  and  C12_15 
REMARK    4  A    between atoms: C12_15  and  C13_16 
REMARK    5  A    between atoms: C13_16  and  C14_17 
REMARK    6  A    between atoms: C14_17  and  O2_18 
REMARK    7  A    between atoms: C18_24  and  O3_25 
ROOT
HETATM    1  C1  UNL     1       0.115  17.674   2.936  1.00  0.00     0.015 C 
HETATM    2  C2  UNL     1      -1.069  18.500   3.520  1.00  0.00     0.017 A 
HETATM    3  C3  UNL     1      -1.226  19.584   2.518  1.00  0.00     0.058 A 
HETATM    4  C4  UNL     1      -1.099  20.924   3.026  1.00  0.00     0.023 A 
HETATM    5  C5  UNL     1      -1.177  22.026   2.074  1.00  0.00     0.095 C 
HETATM    6  N1  UNL     1      -1.258  22.893   1.314  1.00  0.00    -0.192 NA
HETATM    7  C6  UNL     1      -0.921  21.167   4.279  1.00  0.00     0.026 A 
HETATM    8  C7  UNL     1      -0.822  20.115   5.286  1.00  0.00    -0.048 A 
HETATM    9  C8  UNL     1      -0.900  18.846   4.920  1.00  0.00    -0.058 A 
HETATM   10  C9  UNL     1      -0.844  17.825   6.039  1.00  0.00     0.011 C 
HETATM   11  C10 UNL     1       0.571  17.290   5.957  1.00  0.00     0.023 C 
HETATM   12  C16 UNL     1      -1.218  18.365   7.364  1.00  0.00     0.011 C 
HETATM   13  C17 UNL     1      -0.129  18.368   8.414  1.00  0.00     0.038 C 
HETATM   14  C18 UNL     1       0.901  19.420   8.310  1.00  0.00     0.119 C 
HETATM   15  C19 UNL     1       0.652  20.479   7.271  1.00  0.00     0.042 C 
HETATM   16  C20 UNL     1      -0.689  20.572   6.717  1.00  0.00     0.029 C 
HETATM   17  C21 UNL     1      -1.775  19.778   7.413  1.00  0.00    -0.035 C 
HETATM   18  C22 UNL     1      -2.019  20.230   8.839  1.00  0.00     0.016 C 
HETATM   19  C23 UNL     1      -3.103  19.964   6.762  1.00  0.00     0.016 C 
ENDROOT
BRANCH  10  20
HETATM   20  C11 UNL     1      -1.663  16.565   5.714  1.00  0.00     0.134 C 
BRANCH  20  21
HETATM   21  O1  UNL     1      -0.595  15.589   5.704  1.00  0.00    -0.394 OA
ATOM     22  H1  UNL     1      -0.477  15.501   4.765  1.00  0.00     0.210 HD
ENDBRANCH  20  21
BRANCH  20  23
HETATM   23  C12 UNL     1      -2.659  16.111   6.657  1.00  0.00     0.063 C 
BRANCH  23  24
HETATM   24  C13 UNL     1      -2.375  14.856   7.412  1.00  0.00     0.024 C 
BRANCH  24  25
HETATM   25  C14 UNL     1      -2.038  14.850   8.831  1.00  0.00     0.143 C 
HETATM   26  C15 UNL     1      -0.626  14.848   9.150  1.00  0.00     0.124 C 
HETATM   27  N2  UNL     1       0.517  14.823   9.423  1.00  0.00    -0.189 NA
BRANCH  25  28
HETATM   28  O2  UNL     1      -2.831  15.616   9.678  1.00  0.00    -0.351 OA
ATOM     29  H2  UNL     1      -2.848  15.373  10.596  1.00  0.00     0.218 HD
ENDBRANCH  25  28
ENDBRANCH  24  25
ENDBRANCH  23  24
ENDBRANCH  20  23
ENDBRANCH  10  20
BRANCH  14  30
HETATM   30  O3  UNL     1       2.187  18.857   8.217  1.00  0.00    -0.396 OA
ATOM     31  H3  UNL     1       2.357  18.542   7.337  1.00  0.00     0.210 HD
ENDBRANCH  14  30
TORSDOF 7
ENDMDL
MODEL 3
REMARK VINA RESULT: -7.749177468      5.282      6.796
REMARK  7 active torsions:
REMARK  status: ('A' for Active; 'I' for Inactive)
REMARK    1  A    between atoms: C9_10  and  C11_12 
REMARK    2  A    between atoms: C11_12  and  O1_13 
REMARK    3  A    between atoms: C11_12  and  C12_15 
REMARK    4  A    between atoms: C12_15  and  C13_16 
REMARK    5  A    between atoms: C13_16  and  C14_17 
REMARK    6  A    between atoms: C14_17  and  O2_18 
REMARK    7  A    between atoms: C18_24  and  O3_25 
ROOT
HETATM    1  C1  UNL     1      -0.956  18.694   0.049  1.00  0.00     0.015 C 
HETATM    2  C2  UNL     1       0.281  18.968   0.956  1.00  0.00     0.017 A 
HETATM    3  C3  UNL     1       1.137  17.784   0.693  1.00  0.00     0.058 A 
HETATM    4  C4  UNL     1       1.479  16.995   1.847  1.00  0.00     0.023 A 
HETATM    5  C5  UNL     1       2.262  15.782   1.637  1.00  0.00     0.095 C 
HETATM    6  N1  UNL     1       2.898  14.833   1.462  1.00  0.00    -0.192 NA
HETATM    7  C6  UNL     1       1.115  17.328   3.036  1.00  0.00     0.026 A 
HETATM    8  C7  UNL     1       0.322  18.521   3.320  1.00  0.00    -0.048 A 
HETATM    9  C8  UNL     1      -0.067  19.301   2.325  1.00  0.00    -0.058 A 
HETATM   10  C9  UNL     1      -0.838  20.546   2.719  1.00  0.00     0.011 C 
HETATM   11  C10 UNL     1      -2.275  20.188   2.397  1.00  0.00     0.023 C 
HETATM   12  C16 UNL     1      -0.613  20.976   4.116  1.00  0.00     0.011 C 
HETATM   13  C17 UNL     1      -1.818  20.931   5.028  1.00  0.00     0.038 C 
HETATM   14  C18 UNL     1      -2.230  19.606   5.534  1.00  0.00     0.119 C 
HETATM   15  C19 UNL     1      -1.296  18.470   5.224  1.00  0.00     0.042 C 
HETATM   16  C20 UNL     1       0.045  18.808   4.774  1.00  0.00     0.029 C 
HETATM   17  C21 UNL     1       0.467  20.256   4.904  1.00  0.00    -0.035 C 
HETATM   18  C22 UNL     1       0.516  20.733   6.343  1.00  0.00     0.016 C 
HETATM   19  C23 UNL     1       1.861  20.474   4.424  1.00  0.00     0.016 C 
ENDROOT
BRANCH  10  20
HETATM   20  C11 UNL     1      -0.593  21.711   1.745  1.00  0.00     0.134 C 
BRANCH  20  21
HETATM   21  O1  UNL     1      -1.886  21.751   1.098  1.00  0.00    -0.394 OA
ATOM     22  H1  UNL     1      -1.946  22.685   0.933  1.00  0.00     0.210 HD
ENDBRANCH  20  21
BRANCH  20  23
HETATM   23  C12 UNL     1      -0.330  23.028   2.276  1.00  0.00     0.063 C 
BRANCH  23  24
HETATM   24  C13 UNL     1      -0.932  24.193   1.565  1.00  0.00     0.024 C 
BRANCH  24  25
HETATM   25  C14 UNL     1      -0.197  25.427   1.312  1.00  0.00     0.143 C 
HETATM   26  C15 UNL     1       0.767  25.384   0.234  1.00  0.00     0.124 C 
HETATM   27  N2  UNL     1       1.571  25.356  -0.624  1.00  0.00    -0.189 NA
BRANCH  25  28
HETATM   28  O2  UNL     1      -0.900  26.622   1.425  1.00  0.00    -0.351 OA
ATOM     29  H2  UNL     1      -0.407  27.394   1.679  1.00  0.00     0.218 HD
ENDBRANCH  25  28
ENDBRANCH  24  25
ENDBRANCH  23  24
ENDBRANCH  20  23
ENDBRANCH  10  20
BRANCH  14  30
HETATM   30  O3  UNL     1      -3.564  19.327   5.184  1.00  0.00    -0.396 OA
ATOM     31  H3  UNL     1      -4.135  19.399   5.940  1.00  0.00     0.210 HD
ENDBRANCH  14  30
TORSDOF 7
ENDMDL
MODEL 4
REMARK VINA RESULT: -7.721454994      5.030      7.127
REMARK  7 active torsions:
REMARK  status: ('A' for Active; 'I' for Inactive)
REMARK    1  A    between atoms: C9_10  and  C11_12 
REMARK    2  A    between atoms: C11_12  and  O1_13 
REMARK    3  A    between atoms: C11_12  and  C12_15 
REMARK    4  A    between atoms: C12_15  and  C13_16 
REMARK    5  A    between atoms: C13_16  and  C14_17 
REMARK    6  A    between atoms: C14_17  and  O2_18 
REMARK    7  A    between atoms: C18_24  and  O3_25 
ROOT
HETATM    1  C1  UNL     1       2.337  20.053   1.078  1.00  0.00     0.015 C 
HETATM    2  C2  UNL     1       1.851  20.871   2.312  1.00  0.00     0.017 A 
HETATM    3  C3  UNL     1       3.086  20.977   3.130  1.00  0.00     0.058 A 
HETATM    4  C4  UNL     1       2.997  20.445   4.463  1.00  0.00     0.023 A 
HETATM    5  C5  UNL     1       4.201  20.462   5.287  1.00  0.00     0.095 C 
HETATM    6  N1  UNL     1       5.155  20.496   5.938  1.00  0.00    -0.192 NA
HETATM    7  C6  UNL     1       1.900  19.962   4.936  1.00  0.00     0.026 A 
HETATM    8  C7  UNL     1       0.661  19.903   4.166  1.00  0.00    -0.048 A 
HETATM    9  C8  UNL     1       0.642  20.343   2.919  1.00  0.00    -0.058 A 
HETATM   10  C9  UNL     1      -0.700  20.294   2.216  1.00  0.00     0.011 C 
HETATM   11  C10 UNL     1      -0.579  19.088   1.307  1.00  0.00     0.023 C 
HETATM   12  C16 UNL     1      -1.858  20.255   3.134  1.00  0.00     0.011 C 
HETATM   13  C17 UNL     1      -2.705  19.002   3.084  1.00  0.00     0.038 C 
HETATM   14  C18 UNL     1      -2.169  17.802   3.756  1.00  0.00     0.119 C 
HETATM   15  C19 UNL     1      -0.920  18.009   4.567  1.00  0.00     0.042 C 
HETATM   16  C20 UNL     1      -0.552  19.378   4.892  1.00  0.00     0.029 C 
HETATM   17  C21 UNL     1      -1.584  20.450   4.615  1.00  0.00    -0.035 C 
HETATM   18  C22 UNL     1      -2.846  20.286   5.440  1.00  0.00     0.016 C 
HETATM   19  C23 UNL     1      -1.097  21.805   5.001  1.00  0.00     0.016 C 
ENDROOT
BRANCH  10  20
HETATM   20  C11 UNL     1      -0.858  21.429   1.189  1.00  0.00     0.134 C 
BRANCH  20  21
HETATM   21  O1  UNL     1      -1.921  20.870   0.384  1.00  0.00    -0.394 OA
ATOM     22  H1  UNL     1      -2.547  21.582   0.440  1.00  0.00     0.210 HD
ENDBRANCH  20  21
BRANCH  20  23
HETATM   23  C12 UNL     1      -1.292  22.730   1.641  1.00  0.00     0.063 C 
BRANCH  23  24
HETATM   24  C13 UNL     1      -0.239  23.724   2.000  1.00  0.00     0.024 C 
BRANCH  24  25
HETATM   25  C14 UNL     1      -0.184  25.059   1.417  1.00  0.00     0.143 C 
HETATM   26  C15 UNL     1       0.711  25.227   0.293  1.00  0.00     0.124 C 
HETATM   27  N2  UNL     1       1.452  25.382  -0.607  1.00  0.00    -0.189 NA
BRANCH  25  28
HETATM   28  O2  UNL     1      -1.379  25.765   1.328  1.00  0.00    -0.351 OA
ATOM     29  H2  UNL     1      -1.338  26.647   0.976  1.00  0.00     0.218 HD
ENDBRANCH  25  28
ENDBRANCH  24  25
ENDBRANCH  23  24
ENDBRANCH  20  23
ENDBRANCH  10  20
BRANCH  14  30
HETATM   30  O3  UNL     1      -2.062  16.726   2.855  1.00  0.00    -0.396 OA
ATOM     31  H3  UNL     1      -1.168  16.413   2.805  1.00  0.00     0.210 HD
ENDBRANCH  14  30
TORSDOF 7
ENDMDL
MODEL 5
REMARK VINA RESULT: -7.707318705      3.174      5.914
REMARK  7 active torsions:
REMARK  status: ('A' for Active; 'I' for Inactive)
REMARK    1  A    between atoms: C9_10  and  C11_12 
REMARK    2  A    between atoms: C11_12  and  O1_13 
REMARK    3  A    between atoms: C11_12  and  C12_15 
REMARK    4  A    between atoms: C12_15  and  C13_16 
REMARK    5  A    between atoms: C13_16  and  C14_17 
REMARK    6  A    between atoms: C14_17  and  O2_18 
REMARK    7  A    between atoms: C18_24  and  O3_25 
ROOT
HETATM    1  C1  UNL     1       1.941  18.241   3.675  1.00  0.00     0.015 C 
HETATM    2  C2  UNL     1       1.430  19.580   4.285  1.00  0.00     0.017 A 
HETATM    3  C3  UNL     1       2.687  20.349   4.463  1.00  0.00     0.058 A 
HETATM    4  C4  UNL     1       2.967  20.780   5.807  1.00  0.00     0.023 A 
HETATM    5  C5  UNL     1       4.223  21.481   6.052  1.00  0.00     0.095 C 
HETATM    6  N1  UNL     1       5.211  22.052   6.232  1.00  0.00    -0.192 NA
HETATM    7  C6  UNL     1       2.151  20.564   6.780  1.00  0.00     0.026 A 
HETATM    8  C7  UNL     1       0.882  19.860   6.611  1.00  0.00    -0.048 A 
HETATM    9  C8  UNL     1       0.542  19.399   5.419  1.00  0.00    -0.058 A 
HETATM   10  C9  UNL     1      -0.816  18.731   5.327  1.00  0.00     0.011 C 
HETATM   11  C10 UNL     1      -0.482  17.254   5.299  1.00  0.00     0.023 C 
HETATM   12  C16 UNL     1      -1.754  19.126   6.399  1.00  0.00     0.011 C 
HETATM   13  C17 UNL     1      -2.186  18.027   7.345  1.00  0.00     0.038 C 
HETATM   14  C18 UNL     1      -1.220  17.615   8.383  1.00  0.00     0.119 C 
HETATM   15  C19 UNL     1       0.020  18.460   8.493  1.00  0.00     0.042 C 
HETATM   16  C20 UNL     1       0.008  19.757   7.836  1.00  0.00     0.029 C 
HETATM   17  C21 UNL     1      -1.327  20.254   7.323  1.00  0.00    -0.035 C 
HETATM   18  C22 UNL     1      -2.339  20.481   8.428  1.00  0.00     0.016 C 
HETATM   19  C23 UNL     1      -1.212  21.595   6.683  1.00  0.00     0.016 C 
ENDROOT
BRANCH  10  20
HETATM   20  C11 UNL     1      -1.461  18.919   3.943  1.00  0.00     0.134 C 
BRANCH  20  21
HETATM   21  O1  UNL     1      -2.348  17.777   3.941  1.00  0.00    -0.394 OA
ATOM     22  H1  UNL     1      -2.305  17.551   3.019  1.00  0.00     0.210 HD
ENDBRANCH  20  21
BRANCH  20  23
HETATM   23  C12 UNL     1      -2.264  20.094   3.695  1.00  0.00     0.063 C 
BRANCH  23  24
HETATM   24  C13 UNL     1      -1.643  21.203   2.915  1.00  0.00     0.024 C 
BRANCH  24  25
HETATM   25  C14 UNL     1      -1.357  21.099   1.488  1.00  0.00     0.143 C 
HETATM   26  C15 UNL     1       0.034  20.924   1.129  1.00  0.00     0.124 C 
HETATM   27  N2  UNL     1       1.163  20.805   0.822  1.00  0.00    -0.189 NA
BRANCH  25  28
HETATM   28  O2  UNL     1      -2.260  20.385   0.708  1.00  0.00    -0.351 OA
ATOM     29  H2  UNL     1      -1.947  19.586   0.300  1.00  0.00     0.218 HD
ENDBRANCH  25  28
ENDBRANCH  24  25
ENDBRANCH  23  24
ENDBRANCH  20  23
ENDBRANCH  10  20
BRANCH  14  30
HETATM   30  O3  UNL     1      -0.937  16.240   8.289  1.00  0.00    -0.396 OA
ATOM     31  H3  UNL     1      -0.025  16.096   8.066  1.00  0.00     0.210 HD
ENDBRANCH  14  30
TORSDOF 7
ENDMDL
