MODEL 1
REMARK VINA RESULT: -8.196668973      0.000      0.000
REMARK  6 active torsions:
REMARK  status: ('A' for Active; 'I' for Inactive)
REMARK    1  A    between atoms: C3_3  and  C4_4 
REMARK    2  A    between atoms: C4_4  and  C5_5 
REMARK    3  A    between atoms: C6_6  and  C7_7 
REMARK    4  A    between atoms: C9_10  and  O2_11 
REMARK    5  A    between atoms: C16_20  and  O4_21 
REMARK    6  A    between atoms: C19_25  and  C20_26 
ROOT
HETATM    1  C1  UNL     1      -2.401  20.851   7.441  1.00  0.00     0.015 C 
HETATM    2  C2  UNL     1      -1.964  19.738   6.507  1.00  0.00     0.016 C 
HETATM    3  C3  UNL     1      -3.133  19.114   5.926  1.00  0.00    -0.076 C 
HETATM    4  C10 UNL     1      -3.354  17.842   6.125  1.00  0.00    -0.022 C 
HETATM    5  C11 UNL     1      -2.490  17.001   6.899  1.00  0.00     0.041 C 
HETATM    6  C12 UNL     1      -1.595  17.659   7.936  1.00  0.00    -0.012 C 
HETATM    7  C13 UNL     1      -2.520  18.090   9.010  1.00  0.00     0.021 C 
HETATM    8  C14 UNL     1      -0.978  18.818   7.147  1.00  0.00     0.009 C 
HETATM    9  C15 UNL     1      -0.028  19.652   7.939  1.00  0.00     0.042 C 
HETATM   10  C16 UNL     1       1.357  19.110   7.943  1.00  0.00     0.141 C 
HETATM   11  C17 UNL     1       1.565  17.809   7.293  1.00  0.00     0.005 C 
HETATM   12  C18 UNL     1       0.660  16.707   7.434  1.00  0.00     0.003 C 
HETATM   13  C19 UNL     1      -0.526  16.687   8.356  1.00  0.00    -0.064 C 
ENDROOT
BRANCH   3  14
HETATM   14  C4  UNL     1      -4.087  19.883   5.082  1.00  0.00     0.061 C 
BRANCH  14  15
HETATM   15  C5  UNL     1      -4.347  19.278   3.764  1.00  0.00    -0.024 C 
HETATM   16  C6  UNL     1      -3.623  19.243   2.682  1.00  0.00     0.003 C 
BRANCH  16  17
HETATM   17  C7  UNL     1      -2.299  19.802   2.406  1.00  0.00     0.173 C 
HETATM   18  C8  UNL     1      -1.758  19.490   1.027  1.00  0.00     0.209 C 
HETATM   19  O1  UNL     1      -1.301  20.728   0.567  1.00  0.00    -0.336 OA
HETATM   20  C9  UNL     1      -1.158  21.518   1.707  1.00  0.00     0.411 C 
HETATM   21  O3  UNL     1      -2.162  21.145   2.577  1.00  0.00    -0.328 OA
BRANCH  20  22
HETATM   22  O2  UNL     1      -1.286  22.874   1.439  1.00  0.00    -0.349 OA
ATOM     23  H2  UNL     1      -0.504  23.245   1.045  1.00  0.00     0.215 HD
ENDBRANCH  20  22
ENDBRANCH  16  17
ENDBRANCH  14  15
ENDBRANCH   3  14
BRANCH  13  24
HETATM   24  C20 UNL     1      -0.328  16.302   9.761  1.00  0.00    -0.027 C 
HETATM   25  C21 UNL     1       0.648  15.094   9.708  1.00  0.00     0.019 C 
HETATM   26  C22 UNL     1      -1.573  15.625  10.401  1.00  0.00     0.019 C 
HETATM   27  C23 UNL     1       0.160  17.184  10.806  1.00  0.00     0.019 C 
ENDBRANCH  13  24
BRANCH  10  28
HETATM   28  O4  UNL     1       2.195  20.060   7.329  1.00  0.00    -0.392 OA
ATOM     29  H4  UNL     1       3.014  19.630   7.113  1.00  0.00     0.210 HD
ENDBRANCH  10  28
TORSDOF 6
ENDMDL
MODEL 2
REMARK VINA RESULT: -8.096690016      2.953      5.865
REMARK  6 active torsions:
REMARK  status: ('A' for Active; 'I' for Inactive)
REMARK    1  A    between atoms: C3_3  and  C4_4 
REMARK    2  A    between atoms: C4_4  and  C5_5 
REMARK    3  A    between atoms: C6_6  and  C7_7 
REMARK    4  A    between atoms: C9_10  and  O2_11 
REMARK    5  A    between atoms: C16_20  and  O4_21 
REMARK    6  A    between atoms: C19_25  and  C20_26 
ROOT
HETATM    1  C1  UNL     1      -0.928  19.830   1.196  1.00  0.00     0.015 C 
HETATM    2  C2  UNL     1      -1.785  20.775   2.018  1.00  0.00     0.016 C 
HETATM    3  C3  UNL     1      -1.070  22.016   2.221  1.00  0.00    -0.076 C 
HETATM    4  C10 UNL     1      -0.792  22.413   3.434  1.00  0.00    -0.022 C 
HETATM    5  C11 UNL     1      -1.162  21.680   4.609  1.00  0.00     0.041 C 
HETATM    6  C12 UNL     1      -1.411  20.187   4.471  1.00  0.00    -0.012 C 
HETATM    7  C13 UNL     1      -0.067  19.602   4.247  1.00  0.00     0.021 C 
HETATM    8  C14 UNL     1      -2.328  20.121   3.246  1.00  0.00     0.009 C 
HETATM    9  C15 UNL     1      -2.745  18.737   2.876  1.00  0.00     0.042 C 
HETATM   10  C16 UNL     1      -3.947  18.274   3.619  1.00  0.00     0.141 C 
HETATM   11  C17 UNL     1      -4.465  19.164   4.666  1.00  0.00     0.005 C 
HETATM   12  C18 UNL     1      -3.623  19.868   5.587  1.00  0.00     0.003 C 
HETATM   13  C19 UNL     1      -2.135  19.690   5.692  1.00  0.00    -0.064 C 
ENDROOT
BRANCH   3  14
HETATM   14  C4  UNL     1      -0.660  22.872   1.076  1.00  0.00     0.061 C 
BRANCH  14  15
HETATM   15  C5  UNL     1      -0.425  24.283   1.433  1.00  0.00    -0.024 C 
HETATM   16  C6  UNL     1       0.389  25.167   0.934  1.00  0.00     0.003 C 
BRANCH  16  17
HETATM   17  C7  UNL     1       1.359  25.056  -0.157  1.00  0.00     0.173 C 
HETATM   18  C8  UNL     1       2.794  25.315   0.248  1.00  0.00     0.209 C 
HETATM   19  O1  UNL     1       3.495  24.250  -0.327  1.00  0.00    -0.336 OA
HETATM   20  C9  UNL     1       2.651  23.743  -1.315  1.00  0.00     0.411 C 
HETATM   21  O3  UNL     1       1.362  23.883  -0.846  1.00  0.00    -0.328 OA
BRANCH  20  22
HETATM   22  O2  UNL     1       2.884  22.400  -1.579  1.00  0.00    -0.349 OA
ATOM     23  H2  UNL     1       2.139  21.850  -1.366  1.00  0.00     0.215 HD
ENDBRANCH  20  22
ENDBRANCH  16  17
ENDBRANCH  14  15
ENDBRANCH   3  14
BRANCH  13  24
HETATM   24  C20 UNL     1      -1.607  18.600   6.525  1.00  0.00    -0.027 C 
HETATM   25  C21 UNL     1      -2.661  18.415   7.652  1.00  0.00     0.019 C 
HETATM   26  C22 UNL     1      -0.367  19.009   7.370  1.00  0.00     0.019 C 
HETATM   27  C23 UNL     1      -1.275  17.270   6.045  1.00  0.00     0.019 C 
ENDBRANCH  13  24
BRANCH  10  28
HETATM   28  O4  UNL     1      -4.970  18.037   2.681  1.00  0.00    -0.392 OA
ATOM     29  H4  UNL     1      -5.800  18.061   3.143  1.00  0.00     0.210 HD
ENDBRANCH  10  28
TORSDOF 6
ENDMDL
MODEL 3
REMARK VINA RESULT: -8.071052321      2.377      4.437
REMARK  6 active torsions:
REMARK  status: ('A' for Active; 'I' for Inactive)
REMARK    1  A    between atoms: C3_3  and  C4_4 
REMARK    2  A    between atoms: C4_4  and  C5_5 
REMARK    3  A    between atoms: C6_6  and  C7_7 
REMARK    4  A    between atoms: C9_10  and  O2_11 
REMARK    5  A    between atoms: C16_20  and  O4_21 
REMARK    6  A    between atoms: C19_25  and  C20_26 
ROOT
HETATM    1  C1  UNL     1      -1.693  18.609   2.867  1.00  0.00     0.015 C 
HETATM    2  C2  UNL     1      -2.148  19.709   3.809  1.00  0.00     0.016 C 
HETATM    3  C3  UNL     1      -1.564  20.966   3.395  1.00  0.00    -0.076 C 
HETATM    4  C10 UNL     1      -0.783  21.619   4.214  1.00  0.00    -0.022 C 
HETATM    5  C11 UNL     1      -0.461  21.160   5.532  1.00  0.00     0.041 C 
HETATM    6  C12 UNL     1      -0.581  19.672   5.820  1.00  0.00    -0.012 C 
HETATM    7  C13 UNL     1       0.545  19.056   5.079  1.00  0.00     0.021 C 
HETATM    8  C14 UNL     1      -1.960  19.338   5.243  1.00  0.00     0.009 C 
HETATM    9  C15 UNL     1      -2.348  17.906   5.396  1.00  0.00     0.042 C 
HETATM   10  C16 UNL     1      -2.988  17.614   6.707  1.00  0.00     0.141 C 
HETATM   11  C17 UNL     1      -3.034  18.710   7.683  1.00  0.00     0.005 C 
HETATM   12  C18 UNL     1      -1.936  19.600   7.917  1.00  0.00     0.003 C 
HETATM   13  C19 UNL     1      -0.571  19.453   7.309  1.00  0.00    -0.064 C 
ENDROOT
BRANCH   3  14
HETATM   14  C4  UNL     1      -1.850  21.552   2.057  1.00  0.00     0.061 C 
BRANCH  14  15
HETATM   15  C5  UNL     1      -0.750  21.403   1.087  1.00  0.00    -0.024 C 
HETATM   16  C6  UNL     1       0.221  22.209   0.766  1.00  0.00     0.003 C 
BRANCH  16  17
HETATM   17  C7  UNL     1       0.548  23.547   1.260  1.00  0.00     0.173 C 
HETATM   18  C8  UNL     1       1.444  24.354   0.346  1.00  0.00     0.209 C 
HETATM   19  O1  UNL     1       0.809  25.599   0.279  1.00  0.00    -0.336 OA
HETATM   20  C9  UNL     1      -0.047  25.637   1.380  1.00  0.00     0.411 C 
HETATM   21  O3  UNL     1      -0.506  24.350   1.571  1.00  0.00    -0.328 OA
BRANCH  20  22
HETATM   22  O2  UNL     1      -1.137  26.472   1.180  1.00  0.00    -0.349 OA
ATOM     23  H2  UNL     1      -1.001  27.344   1.535  1.00  0.00     0.215 HD
ENDBRANCH  20  22
ENDBRANCH  16  17
ENDBRANCH  14  15
ENDBRANCH   3  14
BRANCH  13  24
HETATM   24  C20 UNL     1       0.408  18.572   7.962  1.00  0.00    -0.027 C 
HETATM   25  C21 UNL     1       0.067  18.655   9.476  1.00  0.00     0.019 C 
HETATM   26  C22 UNL     1       1.853  19.148   7.971  1.00  0.00     0.019 C 
HETATM   27  C23 UNL     1       0.599  17.166   7.656  1.00  0.00     0.019 C 
ENDBRANCH  13  24
BRANCH  10  28
HETATM   28  O4  UNL     1      -4.302  17.175   6.458  1.00  0.00    -0.392 OA
ATOM     29  H4  UNL     1      -4.717  17.008   7.296  1.00  0.00     0.210 HD
ENDBRANCH  10  28
TORSDOF 6
ENDMDL
MODEL 4
REMARK VINA RESULT: -8.023063258      2.828      4.408
REMARK  6 active torsions:
REMARK  status: ('A' for Active; 'I' for Inactive)
REMARK    1  A    between atoms: C3_3  and  C4_4 
REMARK    2  A    between atoms: C4_4  and  C5_5 
REMARK    3  A    between atoms: C6_6  and  C7_7 
REMARK    4  A    between atoms: C9_10  and  O2_11 
REMARK    5  A    between atoms: C16_20  and  O4_21 
REMARK    6  A    between atoms: C19_25  and  C20_26 
ROOT
HETATM    1  C1  UNL     1       1.478  20.738   4.063  1.00  0.00     0.015 C 
HETATM    2  C2  UNL     1       0.251  19.905   3.742  1.00  0.00     0.016 C 
HETATM    3  C3  UNL     1      -0.765  20.755   3.159  1.00  0.00    -0.076 C 
HETATM    4  C10 UNL     1      -1.925  20.875   3.748  1.00  0.00    -0.022 C 
HETATM    5  C11 UNL     1      -2.267  20.200   4.965  1.00  0.00     0.041 C 
HETATM    6  C12 UNL     1      -1.136  19.754   5.876  1.00  0.00    -0.012 C 
HETATM    7  C13 UNL     1      -0.601  21.011   6.452  1.00  0.00     0.021 C 
HETATM    8  C14 UNL     1      -0.180  19.064   4.898  1.00  0.00     0.009 C 
HETATM    9  C15 UNL     1       1.048  18.512   5.540  1.00  0.00     0.042 C 
HETATM   10  C16 UNL     1       0.853  17.143   6.087  1.00  0.00     0.141 C 
HETATM   11  C17 UNL     1      -0.508  16.592   6.031  1.00  0.00     0.005 C 
HETATM   12  C18 UNL     1      -1.679  17.359   6.336  1.00  0.00     0.003 C 
HETATM   13  C19 UNL     1      -1.666  18.762   6.875  1.00  0.00    -0.064 C 
ENDROOT
BRANCH   3  14
HETATM   14  C4  UNL     1      -0.531  21.483   1.883  1.00  0.00     0.061 C 
BRANCH  14  15
HETATM   15  C5  UNL     1      -0.827  22.926   1.951  1.00  0.00    -0.024 C 
HETATM   16  C6  UNL     1      -0.237  23.946   1.397  1.00  0.00     0.003 C 
BRANCH  16  17
HETATM   17  C7  UNL     1       0.931  24.006   0.517  1.00  0.00     0.173 C 
HETATM   18  C8  UNL     1       1.239  25.384  -0.028  1.00  0.00     0.209 C 
HETATM   19  O1  UNL     1       2.614  25.522   0.188  1.00  0.00    -0.336 OA
HETATM   20  C9  UNL     1       3.091  24.225   0.376  1.00  0.00     0.411 C 
HETATM   21  O3  UNL     1       2.097  23.527   1.029  1.00  0.00    -0.328 OA
BRANCH  20  22
HETATM   22  O2  UNL     1       4.243  24.186   1.149  1.00  0.00    -0.349 OA
ATOM     23  H2  UNL     1       4.775  23.419   0.976  1.00  0.00     0.215 HD
ENDBRANCH  20  22
ENDBRANCH  16  17
ENDBRANCH  14  15
ENDBRANCH   3  14
BRANCH  13  24
HETATM   24  C20 UNL     1      -1.533  18.965   8.325  1.00  0.00    -0.027 C 
HETATM   25  C21 UNL     1      -2.406  17.849   8.964  1.00  0.00     0.019 C 
HETATM   26  C22 UNL     1      -2.276  20.229   8.845  1.00  0.00     0.019 C 
HETATM   27  C23 UNL     1      -0.278  18.978   9.054  1.00  0.00     0.019 C 
ENDBRANCH  13  24
BRANCH  10  28
HETATM   28  O4  UNL     1       1.719  16.274   5.396  1.00  0.00    -0.392 OA
ATOM     29  H4  UNL     1       2.541  16.730   5.259  1.00  0.00     0.210 HD
ENDBRANCH  10  28
TORSDOF 6
ENDMDL
MODEL 5
REMARK VINA RESULT: -8.006434481      2.107      3.223
REMARK  6 active torsions:
REMARK  status: ('A' for Active; 'I' for Inactive)
REMARK    1  A    between atoms: C3_3  and  C4_4 
REMARK    2  A    between atoms: C4_4  and  C5_5 
REMARK    3  A    between atoms: C6_6  and  C7_7 
REMARK    4  A    between atoms: C9_10  and  O2_11 
REMARK    5  A    between atoms: C16_20  and  O4_21 
REMARK    6  A    between atoms: C19_25  and  C20_26 
ROOT
HETATM    1  C1  UNL     1      -0.092  17.886   5.453  1.00  0.00     0.015 C 
HETATM    2  C2  UNL     1      -1.459  17.721   6.091  1.00  0.00     0.016 C 
HETATM    3  C3  UNL     1      -2.023  19.026   6.359  1.00  0.00    -0.076 C 
HETATM    4  C10 UNL     1      -2.321  19.364   7.586  1.00  0.00    -0.022 C 
HETATM    5  C11 UNL     1      -2.123  18.502   8.713  1.00  0.00     0.041 C 
HETATM    6  C12 UNL     1      -1.087  17.396   8.593  1.00  0.00    -0.012 C 
HETATM    7  C13 UNL     1       0.217  18.101   8.609  1.00  0.00     0.021 C 
HETATM    8  C14 UNL     1      -1.435  16.767   7.240  1.00  0.00     0.009 C 
HETATM    9  C15 UNL     1      -0.556  15.622   6.861  1.00  0.00     0.042 C 
HETATM   10  C16 UNL     1      -1.021  14.324   7.419  1.00  0.00     0.141 C 
HETATM   11  C17 UNL     1      -2.168  14.366   8.335  1.00  0.00     0.005 C 
HETATM   12  C18 UNL     1      -2.326  15.363   9.351  1.00  0.00     0.003 C 
HETATM   13  C19 UNL     1      -1.295  16.399   9.700  1.00  0.00    -0.064 C 
ENDROOT
BRANCH   3  14
HETATM   14  C4  UNL     1      -2.297  19.994   5.263  1.00  0.00     0.061 C 
BRANCH  14  15
HETATM   15  C5  UNL     1      -1.598  21.284   5.411  1.00  0.00    -0.024 C 
HETATM   16  C6  UNL     1      -0.921  21.991   4.553  1.00  0.00     0.003 C 
BRANCH  16  17
HETATM   17  C7  UNL     1      -0.617  21.740   3.143  1.00  0.00     0.173 C 
HETATM   18  C8  UNL     1       0.268  20.539   2.894  1.00  0.00     0.209 C 
HETATM   19  O1  UNL     1      -0.386  19.857   1.864  1.00  0.00    -0.336 OA
HETATM   20  C9  UNL     1      -1.246  20.792   1.288  1.00  0.00     0.411 C 
HETATM   21  O3  UNL     1      -1.684  21.609   2.310  1.00  0.00    -0.328 OA
BRANCH  20  22
HETATM   22  O2  UNL     1      -2.349  20.205   0.685  1.00  0.00    -0.349 OA
ATOM     23  H2  UNL     1      -3.130  20.744   0.746  1.00  0.00     0.215 HD
ENDBRANCH  20  22
ENDBRANCH  16  17
ENDBRANCH  14  15
ENDBRANCH   3  14
BRANCH  13  24
HETATM   24  C20 UNL     1      -0.227  16.048  10.648  1.00  0.00    -0.027 C 
HETATM   25  C21 UNL     1      -0.961  15.387  11.847  1.00  0.00     0.019 C 
HETATM   26  C22 UNL     1       0.406  17.281  11.354  1.00  0.00     0.019 C 
HETATM   27  C23 UNL     1       0.913  15.202  10.342  1.00  0.00     0.019 C 
ENDBRANCH  13  24
BRANCH  10  28
HETATM   28  O4  UNL     1      -1.336  13.478   6.339  1.00  0.00    -0.392 OA
ATOM     29  H4  UNL     1      -2.232  13.183   6.452  1.00  0.00     0.210 HD
ENDBRANCH  10  28
TORSDOF 6
ENDMDL
