MODEL 1
REMARK VINA RESULT: -7.943347814      0.000      0.000
REMARK  5 active torsions:
REMARK  status: ('A' for Active; 'I' for Inactive)
REMARK    1  A    between atoms: C2_2  and  C3_3 
REMARK    2  A    between atoms: C3_3  and  C4_4 
REMARK    3  A    between atoms: C9_11  and  N2_12 
REMARK       I    between atoms: N2_12  and  C10_14 
REMARK    4  A    between atoms: C10_14  and  C11_16 
REMARK    5  A    between atoms: C17_22  and  C18_23 
ROOT
HETATM    1  C3  UNL     1       5.617  30.135   7.338  1.00  0.00     0.082 C 
HETATM    2  O1  UNL     1       6.747  29.333   7.602  1.00  0.00    -0.337 OA
HETATM    3  C6  UNL     1       6.766  28.323   6.668  1.00  0.00     0.101 A 
HETATM    4  C7  UNL     1       7.804  27.459   6.324  1.00  0.00     0.082 A 
HETATM    5  N1  UNL     1       9.065  27.553   6.974  1.00  0.00    -0.099 NA
HETATM    6  C8  UNL     1       7.571  26.524   5.348  1.00  0.00     0.059 A 
HETATM    7  C9  UNL     1       6.357  26.387   4.678  1.00  0.00     0.037 A 
HETATM    8  C15 UNL     1       5.366  27.254   5.047  1.00  0.00     0.040 A 
HETATM    9  C16 UNL     1       5.555  28.218   6.031  1.00  0.00    -0.006 A 
HETATM   10  C17 UNL     1       4.643  29.259   6.603  1.00  0.00     0.125 C 
ENDROOT
BRANCH  10  11
HETATM   11  C18 UNL     1       3.594  28.633   7.394  1.00  0.00     0.109 A 
HETATM   12  N3  UNL     1       3.633  27.353   7.818  1.00  0.00    -0.333 N 
HETATM   13  C19 UNL     1       2.536  27.107   8.534  1.00  0.00     0.093 A 
ATOM     14  H3  UNL     1       4.378  26.685   7.623  1.00  0.00     0.168 HD
HETATM   15  C20 UNL     1       2.141  25.838   9.205  1.00  0.00     0.090 C 
HETATM   16  N4  UNL     1       1.825  28.240   8.547  1.00  0.00    -0.288 N 
HETATM   17  N5  UNL     1       2.463  29.164   7.858  1.00  0.00    -0.287 N 
ATOM     18  H4  UNL     1       0.928  28.369   9.016  1.00  0.00     0.188 HD
ATOM     19  H5  UNL     1       2.146  30.121   7.705  1.00  0.00     0.188 HD
ENDBRANCH  10  11
BRANCH   1  20
HETATM   20  C2  UNL     1       5.081  30.582   8.704  1.00  0.00     0.035 C 
HETATM   21  C1  UNL     1       6.292  30.580   9.629  1.00  0.00     0.008 C 
ENDBRANCH   1  20
BRANCH   1  22
HETATM   22  C4  UNL     1       5.920  31.348   6.490  1.00  0.00     0.035 C 
HETATM   23  C5  UNL     1       7.155  32.041   6.935  1.00  0.00     0.008 C 
ENDBRANCH   1  22
BRANCH   7  24
HETATM   24  N2  UNL     1       6.261  25.387   3.692  1.00  0.00    -0.326 N 
HETATM   25  C10 UNL     1       5.896  24.048   3.834  1.00  0.00     0.229 C 
HETATM   26  O2  UNL     1       5.594  23.546   4.924  1.00  0.00    -0.272 OA
ATOM     27  H2  UNL     1       6.489  25.682   2.743  1.00  0.00     0.169 HD
BRANCH  25  28
HETATM   28  C11 UNL     1       5.855  23.145   2.647  1.00  0.00     0.030 C 
HETATM   29  C12 UNL     1       5.253  23.872   1.449  1.00  0.00     0.025 C 
HETATM   30  C13 UNL     1       7.242  22.711   2.229  1.00  0.00     0.025 C 
HETATM   31  C14 UNL     1       5.003  21.922   2.892  1.00  0.00     0.025 C 
ENDBRANCH  25  28
ENDBRANCH   7  24
TORSDOF 5
ENDMDL
MODEL 2
REMARK VINA RESULT: -7.877900917      3.609      7.454
REMARK  5 active torsions:
REMARK  status: ('A' for Active; 'I' for Inactive)
REMARK    1  A    between atoms: C2_2  and  C3_3 
REMARK    2  A    between atoms: C3_3  and  C4_4 
REMARK    3  A    between atoms: C9_11  and  N2_12 
REMARK       I    between atoms: N2_12  and  C10_14 
REMARK    4  A    between atoms: C10_14  and  C11_16 
REMARK    5  A    between atoms: C17_22  and  C18_23 
ROOT
HETATM    1  C3  UNL     1       7.033  21.468   6.319  1.00  0.00     0.082 C 
HETATM    2  O1  UNL     1       6.873  22.213   5.132  1.00  0.00    -0.337 OA
HETATM    3  C6  UNL     1       6.291  23.413   5.470  1.00  0.00     0.101 A 
HETATM    4  C7  UNL     1       6.189  24.586   4.725  1.00  0.00     0.082 A 
HETATM    5  N1  UNL     1       6.734  24.655   3.413  1.00  0.00    -0.099 NA
HETATM    6  C8  UNL     1       5.553  25.660   5.292  1.00  0.00     0.059 A 
HETATM    7  C9  UNL     1       5.002  25.650   6.572  1.00  0.00     0.037 A 
HETATM    8  C15 UNL     1       5.123  24.479   7.268  1.00  0.00     0.040 A 
HETATM    9  C16 UNL     1       5.759  23.363   6.735  1.00  0.00    -0.006 A 
HETATM   10  C17 UNL     1       6.011  21.994   7.286  1.00  0.00     0.125 C 
ENDROOT
BRANCH  10  11
HETATM   11  C18 UNL     1       4.762  21.253   7.391  1.00  0.00     0.109 A 
HETATM   12  N3  UNL     1       3.669  21.511   6.644  1.00  0.00    -0.333 N 
HETATM   13  C19 UNL     1       2.715  20.639   6.968  1.00  0.00     0.093 A 
ATOM     14  H3  UNL     1       3.587  22.251   5.946  1.00  0.00     0.168 HD
HETATM   15  C20 UNL     1       1.339  20.532   6.412  1.00  0.00     0.090 C 
HETATM   16  N4  UNL     1       3.227  19.847   7.917  1.00  0.00    -0.288 N 
HETATM   17  N5  UNL     1       4.465  20.216   8.174  1.00  0.00    -0.287 N 
ATOM     18  H4  UNL     1       2.736  19.076   8.371  1.00  0.00     0.188 HD
ATOM     19  H5  UNL     1       5.089  19.784   8.855  1.00  0.00     0.188 HD
ENDBRANCH  10  11
BRANCH   1  20
HETATM   20  C2  UNL     1       6.780  20.003   5.943  1.00  0.00     0.035 C 
HETATM   21  C1  UNL     1       6.537  20.013   4.439  1.00  0.00     0.008 C 
ENDBRANCH   1  20
BRANCH   1  22
HETATM   22  C4  UNL     1       8.405  21.604   6.937  1.00  0.00     0.035 C 
HETATM   23  C5  UNL     1       9.475  21.650   5.909  1.00  0.00     0.008 C 
ENDBRANCH   1  22
BRANCH   7  24
HETATM   24  N2  UNL     1       4.384  26.828   7.030  1.00  0.00    -0.326 N 
HETATM   25  C10 UNL     1       4.813  28.150   6.901  1.00  0.00     0.229 C 
HETATM   26  O2  UNL     1       5.865  28.462   6.329  1.00  0.00    -0.272 OA
ATOM     27  H2  UNL     1       3.501  26.699   7.523  1.00  0.00     0.169 HD
BRANCH  25  28
HETATM   28  C11 UNL     1       3.999  29.267   7.463  1.00  0.00     0.030 C 
HETATM   29  C12 UNL     1       3.676  30.286   6.377  1.00  0.00     0.025 C 
HETATM   30  C13 UNL     1       2.672  28.776   7.996  1.00  0.00     0.025 C 
HETATM   31  C14 UNL     1       4.730  30.008   8.558  1.00  0.00     0.025 C 
ENDBRANCH  25  28
ENDBRANCH   7  24
TORSDOF 5
ENDMDL
MODEL 3
REMARK VINA RESULT: -7.765157530      2.421      7.897
REMARK  5 active torsions:
REMARK  status: ('A' for Active; 'I' for Inactive)
REMARK    1  A    between atoms: C2_2  and  C3_3 
REMARK    2  A    between atoms: C3_3  and  C4_4 
REMARK    3  A    between atoms: C9_11  and  N2_12 
REMARK       I    between atoms: N2_12  and  C10_14 
REMARK    4  A    between atoms: C10_14  and  C11_16 
REMARK    5  A    between atoms: C17_22  and  C18_23 
ROOT
HETATM    1  C3  UNL     1       6.407  22.536   3.971  1.00  0.00     0.082 C 
HETATM    2  O1  UNL     1       5.911  22.425   5.287  1.00  0.00    -0.337 OA
HETATM    3  C6  UNL     1       5.617  23.695   5.727  1.00  0.00     0.101 A 
HETATM    4  C7  UNL     1       4.852  24.095   6.821  1.00  0.00     0.082 A 
HETATM    5  N1  UNL     1       4.244  23.127   7.667  1.00  0.00    -0.099 NA
HETATM    6  C8  UNL     1       4.706  25.439   7.052  1.00  0.00     0.059 A 
HETATM    7  C9  UNL     1       5.278  26.431   6.257  1.00  0.00     0.037 A 
HETATM    8  C15 UNL     1       6.021  25.995   5.196  1.00  0.00     0.040 A 
HETATM    9  C16 UNL     1       6.198  24.643   4.921  1.00  0.00    -0.006 A 
HETATM   10  C17 UNL     1       6.953  23.929   3.843  1.00  0.00     0.125 C 
ENDROOT
BRANCH  10  11
HETATM   11  C18 UNL     1       8.386  24.095   4.036  1.00  0.00     0.109 A 
HETATM   12  N3  UNL     1       9.274  24.207   3.025  1.00  0.00    -0.333 N 
HETATM   13  C19 UNL     1      10.491  24.371   3.543  1.00  0.00     0.093 A 
ATOM     14  H3  UNL     1       9.049  24.172   2.031  1.00  0.00     0.168 HD
HETATM   15  C20 UNL     1      11.782  24.538   2.821  1.00  0.00     0.090 C 
HETATM   16  N4  UNL     1      10.346  24.358   4.873  1.00  0.00    -0.288 N 
HETATM   17  N5  UNL     1       9.074  24.191   5.173  1.00  0.00    -0.287 N 
ATOM     18  H4  UNL     1      11.102  24.462   5.550  1.00  0.00     0.188 HD
ATOM     19  H5  UNL     1       8.683  24.144   6.114  1.00  0.00     0.188 HD
ENDBRANCH  10  11
BRANCH   1  20
HETATM   20  C2  UNL     1       7.499  21.468   3.834  1.00  0.00     0.035 C 
HETATM   21  C1  UNL     1       7.111  20.370   4.817  1.00  0.00     0.008 C 
ENDBRANCH   1  20
BRANCH   1  22
HETATM   22  C4  UNL     1       5.354  22.324   2.908  1.00  0.00     0.035 C 
HETATM   23  C5  UNL     1       5.694  23.022   1.643  1.00  0.00     0.008 C 
ENDBRANCH   1  22
BRANCH   7  24
HETATM   24  N2  UNL     1       5.038  27.772   6.608  1.00  0.00    -0.326 N 
HETATM   25  C10 UNL     1       5.955  28.811   6.776  1.00  0.00     0.229 C 
HETATM   26  O2  UNL     1       7.174  28.663   6.626  1.00  0.00    -0.272 OA
ATOM     27  H2  UNL     1       4.061  28.019   6.762  1.00  0.00     0.169 HD
BRANCH  25  28
HETATM   28  C11 UNL     1       5.488  30.178   7.152  1.00  0.00     0.030 C 
HETATM   29  C12 UNL     1       4.276  30.572   6.316  1.00  0.00     0.025 C 
HETATM   30  C13 UNL     1       5.047  30.237   8.597  1.00  0.00     0.025 C 
HETATM   31  C14 UNL     1       6.549  31.227   6.913  1.00  0.00     0.025 C 
ENDBRANCH  25  28
ENDBRANCH   7  24
TORSDOF 5
ENDMDL
MODEL 4
REMARK VINA RESULT: -7.760254912      4.293      6.846
REMARK  5 active torsions:
REMARK  status: ('A' for Active; 'I' for Inactive)
REMARK    1  A    between atoms: C2_2  and  C3_3 
REMARK    2  A    between atoms: C3_3  and  C4_4 
REMARK    3  A    between atoms: C9_11  and  N2_12 
REMARK       I    between atoms: N2_12  and  C10_14 
REMARK    4  A    between atoms: C10_14  and  C11_16 
REMARK    5  A    between atoms: C17_22  and  C18_23 
ROOT
HETATM    1  C3  UNL     1      10.750  26.724   7.968  1.00  0.00     0.082 C 
HETATM    2  O1  UNL     1      10.169  26.940   6.700  1.00  0.00    -0.337 OA
HETATM    3  C6  UNL     1       9.178  26.000   6.532  1.00  0.00     0.101 A 
HETATM    4  C7  UNL     1       8.142  25.967   5.601  1.00  0.00     0.082 A 
HETATM    5  N1  UNL     1       8.002  27.007   4.642  1.00  0.00    -0.099 NA
HETATM    6  C8  UNL     1       7.271  24.908   5.640  1.00  0.00     0.059 A 
HETATM    7  C9  UNL     1       7.359  23.862   6.556  1.00  0.00     0.037 A 
HETATM    8  C15 UNL     1       8.390  23.934   7.451  1.00  0.00     0.040 A 
HETATM    9  C16 UNL     1       9.299  24.987   7.451  1.00  0.00    -0.006 A 
HETATM   10  C17 UNL     1      10.490  25.284   8.309  1.00  0.00     0.125 C 
ENDROOT
BRANCH  10  11
HETATM   11  C18 UNL     1      11.561  24.338   8.032  1.00  0.00     0.109 A 
HETATM   12  N3  UNL     1      11.980  24.017   6.790  1.00  0.00    -0.333 N 
HETATM   13  C19 UNL     1      12.986  23.149   6.890  1.00  0.00     0.093 A 
ATOM     14  H3  UNL     1      11.590  24.379   5.920  1.00  0.00     0.168 HD
HETATM   15  C20 UNL     1      13.765  22.514   5.793  1.00  0.00     0.090 C 
HETATM   16  N4  UNL     1      13.182  22.939   8.198  1.00  0.00    -0.288 N 
HETATM   17  N5  UNL     1      12.321  23.657   8.889  1.00  0.00    -0.287 N 
ATOM     18  H4  UNL     1      13.887  22.320   8.596  1.00  0.00     0.188 HD
ATOM     19  H5  UNL     1      12.249  23.687   9.906  1.00  0.00     0.188 HD
ENDBRANCH  10  11
BRANCH   1  20
HETATM   20  C2  UNL     1      12.245  27.023   7.809  1.00  0.00     0.035 C 
HETATM   21  C1  UNL     1      12.745  27.317   9.219  1.00  0.00     0.008 C 
ENDBRANCH   1  20
BRANCH   1  22
HETATM   22  C4  UNL     1      10.169  27.596   9.055  1.00  0.00     0.035 C 
HETATM   23  C5  UNL     1       9.696  28.901   8.527  1.00  0.00     0.008 C 
ENDBRANCH   1  22
BRANCH   7  24
HETATM   24  N2  UNL     1       6.392  22.843   6.485  1.00  0.00    -0.326 N 
HETATM   25  C10 UNL     1       5.303  22.608   7.325  1.00  0.00     0.229 C 
HETATM   26  O2  UNL     1       5.044  23.318   8.304  1.00  0.00    -0.272 OA
ATOM     27  H2  UNL     1       6.500  22.186   5.712  1.00  0.00     0.169 HD
BRANCH  25  28
HETATM   28  C11 UNL     1       4.385  21.459   7.069  1.00  0.00     0.030 C 
HETATM   29  C12 UNL     1       4.378  21.106   5.586  1.00  0.00     0.025 C 
HETATM   30  C13 UNL     1       4.832  20.215   7.802  1.00  0.00     0.025 C 
HETATM   31  C14 UNL     1       2.958  21.776   7.452  1.00  0.00     0.025 C 
ENDBRANCH  25  28
ENDBRANCH   7  24
TORSDOF 5
ENDMDL
MODEL 5
REMARK VINA RESULT: -7.617861775      3.087      7.486
REMARK  5 active torsions:
REMARK  status: ('A' for Active; 'I' for Inactive)
REMARK    1  A    between atoms: C2_2  and  C3_3 
REMARK    2  A    between atoms: C3_3  and  C4_4 
REMARK    3  A    between atoms: C9_11  and  N2_12 
REMARK       I    between atoms: N2_12  and  C10_14 
REMARK    4  A    between atoms: C10_14  and  C11_16 
REMARK    5  A    between atoms: C17_22  and  C18_23 
ROOT
HETATM    1  C3  UNL     1       9.817  23.963   4.683  1.00  0.00     0.082 C 
HETATM    2  O1  UNL     1       8.571  23.351   4.937  1.00  0.00    -0.337 OA
HETATM    3  C6  UNL     1       7.686  24.343   5.290  1.00  0.00     0.101 A 
HETATM    4  C7  UNL     1       6.295  24.302   5.355  1.00  0.00     0.082 A 
HETATM    5  N1  UNL     1       5.594  23.109   5.031  1.00  0.00    -0.099 NA
HETATM    6  C8  UNL     1       5.631  25.440   5.740  1.00  0.00     0.059 A 
HETATM    7  C9  UNL     1       6.266  26.636   6.068  1.00  0.00     0.037 A 
HETATM    8  C15 UNL     1       7.631  26.632   5.991  1.00  0.00     0.040 A 
HETATM    9  C16 UNL     1       8.348  25.504   5.607  1.00  0.00    -0.006 A 
HETATM   10  C17 UNL     1       9.816  25.253   5.452  1.00  0.00     0.125 C 
ENDROOT
BRANCH  10  11
HETATM   11  C18 UNL     1      10.467  25.244   6.754  1.00  0.00     0.109 A 
HETATM   12  N3  UNL     1      11.532  26.011   7.068  1.00  0.00    -0.333 N 
HETATM   13  C19 UNL     1      11.863  25.781   8.338  1.00  0.00     0.093 A 
ATOM     14  H3  UNL     1      12.004  26.659   6.438  1.00  0.00     0.168 HD
HETATM   15  C20 UNL     1      12.969  26.392   9.125  1.00  0.00     0.090 C 
HETATM   16  N4  UNL     1      10.998  24.870   8.800  1.00  0.00    -0.288 N 
HETATM   17  N5  UNL     1      10.153  24.545   7.844  1.00  0.00    -0.287 N 
ATOM     18  H4  UNL     1      10.994  24.488   9.746  1.00  0.00     0.188 HD
ATOM     19  H5  UNL     1       9.390  23.873   7.924  1.00  0.00     0.188 HD
ENDBRANCH  10  11
BRANCH   1  20
HETATM   20  C2  UNL     1      10.885  22.985   5.188  1.00  0.00     0.035 C 
HETATM   21  C1  UNL     1      10.142  21.680   5.444  1.00  0.00     0.008 C 
ENDBRANCH   1  20
BRANCH   1  22
HETATM   22  C4  UNL     1      10.056  24.265   3.222  1.00  0.00     0.035 C 
HETATM   23  C5  UNL     1      11.491  24.509   2.933  1.00  0.00     0.008 C 
ENDBRANCH   1  22
BRANCH   7  24
HETATM   24  N2  UNL     1       5.458  27.727   6.439  1.00  0.00    -0.326 N 
HETATM   25  C10 UNL     1       4.262  27.727   7.158  1.00  0.00     0.229 C 
HETATM   26  O2  UNL     1       3.732  26.692   7.582  1.00  0.00    -0.272 OA
ATOM     27  H2  UNL     1       5.793  28.643   6.143  1.00  0.00     0.169 HD
BRANCH  25  28
HETATM   28  C11 UNL     1       3.556  29.009   7.450  1.00  0.00     0.030 C 
HETATM   29  C12 UNL     1       4.144  29.666   8.694  1.00  0.00     0.025 C 
HETATM   30  C13 UNL     1       3.720  30.004   6.324  1.00  0.00     0.025 C 
HETATM   31  C14 UNL     1       2.084  28.799   7.718  1.00  0.00     0.025 C 
ENDBRANCH  25  28
ENDBRANCH   7  24
TORSDOF 5
ENDMDL
