MODEL 1
REMARK VINA RESULT: -9.235999982      0.000      0.000
REMARK  6 active torsions:
REMARK  status: ('A' for Active; 'I' for Inactive)
REMARK    1  A    between atoms: C9_9  and  C10_10 
REMARK    2  A    between atoms: C12_12  and  C13_13 
REMARK    3  A    between atoms: C13_13  and  C14_14 
REMARK    4  A    between atoms: C14_14  and  C15_15 
REMARK    5  A    between atoms: C18_20  and  O3_21 
REMARK    6  A    between atoms: C21_25  and  O4_26 
ROOT
HETATM    1  C15 UNL     1       6.096  22.222   5.644  1.00  0.00     0.139 C 
HETATM    2  O1  UNL     1       5.570  21.043   6.171  1.00  0.00    -0.315 OA
HETATM    3  C16 UNL     1       4.282  21.020   6.683  1.00  0.00     0.262 C 
HETATM    4  O2  UNL     1       3.485  20.062   6.499  1.00  0.00    -0.265 OA
HETATM    5  C17 UNL     1       3.772  22.176   7.505  1.00  0.00     0.149 C 
HETATM    6  C18 UNL     1       4.746  23.362   7.314  1.00  0.00     0.073 C 
HETATM    7  C19 UNL     1       3.988  24.561   7.790  1.00  0.00     0.041 C 
HETATM    8  C20 UNL     1       4.378  25.858   7.196  1.00  0.00     0.034 C 
HETATM    9  C21 UNL     1       5.557  25.815   6.292  1.00  0.00     0.118 C 
HETATM   10  C22 UNL     1       5.621  24.663   5.352  1.00  0.00     0.042 C 
HETATM   11  C23 UNL     1       5.127  23.354   5.881  1.00  0.00     0.052 C 
ENDROOT
BRANCH   1  12
HETATM   12  C14 UNL     1       6.498  22.076   4.195  1.00  0.00     0.037 C 
BRANCH  12  13
HETATM   13  C13 UNL     1       5.368  21.269   3.524  1.00  0.00     0.030 C 
BRANCH  13  14
HETATM   14  C12 UNL     1       4.593  22.192   2.699  1.00  0.00    -0.020 C 
HETATM   15  C10 UNL     1       3.586  21.793   1.838  1.00  0.00    -0.065 C 
HETATM   16  C11 UNL     1       3.383  20.356   1.818  1.00  0.00     0.048 C 
BRANCH  15  17
HETATM   17  C9  UNL     1       2.964  22.872   1.136  1.00  0.00     0.014 C 
HETATM   18  C8  UNL     1       1.754  23.283   0.937  1.00  0.00    -0.048 C 
HETATM   19  C2  UNL     1       1.547  24.494   0.111  1.00  0.00    -0.061 C 
HETATM   20  C6  UNL     1       0.559  22.617   1.494  1.00  0.00     0.015 C 
HETATM   21  C1  UNL     1       2.334  24.700  -0.914  1.00  0.00     0.019 C 
HETATM   22  C3  UNL     1       0.466  25.442   0.446  1.00  0.00     0.038 C 
HETATM   23  C4  UNL     1      -0.158  24.982   1.750  1.00  0.00     0.005 C 
HETATM   24  C5  UNL     1      -0.638  23.576   1.583  1.00  0.00     0.009 C 
HETATM   25  C7  UNL     1       0.193  21.498   0.521  1.00  0.00     0.015 C 
ENDBRANCH  15  17
ENDBRANCH  13  14
ENDBRANCH  12  13
ENDBRANCH   1  12
BRANCH   6  26
HETATM   26  O3  UNL     1       5.824  23.072   8.159  1.00  0.00    -0.389 OA
ATOM     27  H3  UNL     1       6.438  22.600   7.609  1.00  0.00     0.210 HD
ENDBRANCH   6  26
BRANCH   9  28
HETATM   28  O4  UNL     1       5.526  27.001   5.520  1.00  0.00    -0.396 OA
ATOM     29  H4  UNL     1       5.636  26.743   4.612  1.00  0.00     0.210 HD
ENDBRANCH   9  28
TORSDOF 6
ENDMDL
MODEL 2
REMARK VINA RESULT: -9.166269199      1.080      1.193
REMARK  6 active torsions:
REMARK  status: ('A' for Active; 'I' for Inactive)
REMARK    1  A    between atoms: C9_9  and  C10_10 
REMARK    2  A    between atoms: C12_12  and  C13_13 
REMARK    3  A    between atoms: C13_13  and  C14_14 
REMARK    4  A    between atoms: C14_14  and  C15_15 
REMARK    5  A    between atoms: C18_20  and  O3_21 
REMARK    6  A    between atoms: C21_25  and  O4_26 
ROOT
HETATM    1  C15 UNL     1       5.607  21.709   5.815  1.00  0.00     0.139 C 
HETATM    2  O1  UNL     1       4.858  20.985   6.743  1.00  0.00    -0.315 OA
HETATM    3  C16 UNL     1       3.727  21.544   7.317  1.00  0.00     0.262 C 
HETATM    4  O2  UNL     1       2.667  20.895   7.521  1.00  0.00    -0.265 OA
HETATM    5  C17 UNL     1       3.724  22.993   7.731  1.00  0.00     0.149 C 
HETATM    6  C18 UNL     1       4.953  23.675   7.086  1.00  0.00     0.073 C 
HETATM    7  C19 UNL     1       4.669  25.142   7.177  1.00  0.00     0.041 C 
HETATM    8  C20 UNL     1       5.312  25.995   6.155  1.00  0.00     0.034 C 
HETATM    9  C21 UNL     1       6.254  25.297   5.243  1.00  0.00     0.118 C 
HETATM   10  C22 UNL     1       5.819  23.963   4.746  1.00  0.00     0.042 C 
HETATM   11  C23 UNL     1       5.064  23.113   5.719  1.00  0.00     0.052 C 
ENDROOT
BRANCH   1  12
HETATM   12  C14 UNL     1       5.695  21.011   4.478  1.00  0.00     0.037 C 
BRANCH  12  13
HETATM   13  C13 UNL     1       4.260  20.554   4.146  1.00  0.00     0.030 C 
BRANCH  13  14
HETATM   14  C12 UNL     1       3.795  21.345   3.009  1.00  0.00    -0.020 C 
HETATM   15  C10 UNL     1       2.542  21.205   2.436  1.00  0.00    -0.065 C 
HETATM   16  C11 UNL     1       1.735  20.178   3.067  1.00  0.00     0.048 C 
BRANCH  15  17
HETATM   17  C9  UNL     1       2.308  22.087   1.336  1.00  0.00     0.014 C 
HETATM   18  C8  UNL     1       1.379  22.914   0.983  1.00  0.00    -0.048 C 
HETATM   19  C2  UNL     1       1.538  23.655  -0.289  1.00  0.00    -0.061 C 
HETATM   20  C6  UNL     1       0.161  23.170   1.781  1.00  0.00     0.015 C 
HETATM   21  C1  UNL     1       2.100  23.051  -1.304  1.00  0.00     0.019 C 
HETATM   22  C3  UNL     1       1.064  25.050  -0.396  1.00  0.00     0.038 C 
HETATM   23  C4  UNL     1       0.596  25.482   0.980  1.00  0.00     0.005 C 
HETATM   24  C5  UNL     1      -0.461  24.534   1.447  1.00  0.00     0.009 C 
HETATM   25  C7  UNL     1      -0.844  22.087   1.397  1.00  0.00     0.015 C 
ENDBRANCH  15  17
ENDBRANCH  13  14
ENDBRANCH  12  13
ENDBRANCH   1  12
BRANCH   6  26
HETATM   26  O3  UNL     1       6.027  23.313   7.906  1.00  0.00    -0.389 OA
ATOM     27  H3  UNL     1       5.858  23.752   8.730  1.00  0.00     0.210 HD
ENDBRANCH   6  26
BRANCH   9  28
HETATM   28  O4  UNL     1       6.438  26.137   4.118  1.00  0.00    -0.396 OA
ATOM     29  H4  UNL     1       5.580  26.464   3.874  1.00  0.00     0.210 HD
ENDBRANCH   9  28
TORSDOF 6
ENDMDL
MODEL 3
REMARK VINA RESULT: -9.011794175      4.196      6.802
REMARK  6 active torsions:
REMARK  status: ('A' for Active; 'I' for Inactive)
REMARK    1  A    between atoms: C9_9  and  C10_10 
REMARK    2  A    between atoms: C12_12  and  C13_13 
REMARK    3  A    between atoms: C13_13  and  C14_14 
REMARK    4  A    between atoms: C14_14  and  C15_15 
REMARK    5  A    between atoms: C18_20  and  O3_21 
REMARK    6  A    between atoms: C21_25  and  O4_26 
ROOT
HETATM    1  C15 UNL     1       5.359  22.483   7.105  1.00  0.00     0.139 C 
HETATM    2  O1  UNL     1       4.736  23.134   8.169  1.00  0.00    -0.315 OA
HETATM    3  C16 UNL     1       4.052  24.321   7.957  1.00  0.00     0.262 C 
HETATM    4  O2  UNL     1       2.955  24.592   8.514  1.00  0.00    -0.265 OA
HETATM    5  C17 UNL     1       4.613  25.364   7.026  1.00  0.00     0.149 C 
HETATM    6  C18 UNL     1       5.743  24.706   6.200  1.00  0.00     0.073 C 
HETATM    7  C19 UNL     1       5.961  25.630   5.042  1.00  0.00     0.041 C 
HETATM    8  C20 UNL     1       6.501  25.016   3.810  1.00  0.00     0.034 C 
HETATM    9  C21 UNL     1       6.871  23.581   3.922  1.00  0.00     0.118 C 
HETATM   10  C22 UNL     1       5.922  22.716   4.676  1.00  0.00     0.042 C 
HETATM   11  C23 UNL     1       5.268  23.341   5.868  1.00  0.00     0.052 C 
ENDROOT
BRANCH   1  12
HETATM   12  C14 UNL     1       4.830  21.082   6.898  1.00  0.00     0.037 C 
BRANCH  12  13
HETATM   13  C13 UNL     1       3.324  21.240   6.608  1.00  0.00     0.030 C 
BRANCH  13  14
HETATM   14  C12 UNL     1       2.605  20.306   7.472  1.00  0.00    -0.020 C 
HETATM   15  C10 UNL     1       1.284  19.941   7.279  1.00  0.00    -0.065 C 
HETATM   16  C11 UNL     1       0.670  20.593   6.138  1.00  0.00     0.048 C 
BRANCH  15  17
HETATM   17  C9  UNL     1       0.794  19.012   8.249  1.00  0.00     0.014 C 
HETATM   18  C8  UNL     1      -0.364  18.568   8.616  1.00  0.00    -0.048 C 
HETATM   19  C2  UNL     1      -0.424  17.572   9.709  1.00  0.00    -0.061 C 
HETATM   20  C6  UNL     1      -1.639  18.992   8.000  1.00  0.00     0.015 C 
HETATM   21  C1  UNL     1       0.424  17.672  10.700  1.00  0.00     0.019 C 
HETATM   22  C3  UNL     1      -1.431  16.492   9.671  1.00  0.00     0.038 C 
HETATM   23  C4  UNL     1      -2.152  16.585   8.341  1.00  0.00     0.005 C 
HETATM   24  C5  UNL     1      -2.748  17.950   8.212  1.00  0.00     0.009 C 
HETATM   25  C7  UNL     1      -2.057  20.277   8.712  1.00  0.00     0.015 C 
ENDBRANCH  15  17
ENDBRANCH  13  14
ENDBRANCH  12  13
ENDBRANCH   1  12
BRANCH   6  26
HETATM   26  O3  UNL     1       6.848  24.696   7.059  1.00  0.00    -0.389 OA
ATOM     27  H3  UNL     1       7.364  25.447   6.793  1.00  0.00     0.210 HD
ENDBRANCH   6  26
BRANCH   9  28
HETATM   28  O4  UNL     1       6.960  23.075   2.604  1.00  0.00    -0.396 OA
ATOM     29  H4  UNL     1       7.803  22.642   2.530  1.00  0.00     0.210 HD
ENDBRANCH   9  28
TORSDOF 6
ENDMDL
MODEL 4
REMARK VINA RESULT: -8.863953964      3.146      7.087
REMARK  6 active torsions:
REMARK  status: ('A' for Active; 'I' for Inactive)
REMARK    1  A    between atoms: C9_9  and  C10_10 
REMARK    2  A    between atoms: C12_12  and  C13_13 
REMARK    3  A    between atoms: C13_13  and  C14_14 
REMARK    4  A    between atoms: C14_14  and  C15_15 
REMARK    5  A    between atoms: C18_20  and  O3_21 
REMARK    6  A    between atoms: C21_25  and  O4_26 
ROOT
HETATM    1  C15 UNL     1       2.618  23.519   0.124  1.00  0.00     0.139 C 
HETATM    2  O1  UNL     1       2.827  22.201  -0.282  1.00  0.00    -0.315 OA
HETATM    3  C16 UNL     1       1.770  21.439  -0.755  1.00  0.00     0.262 C 
HETATM    4  O2  UNL     1       1.872  20.655  -1.735  1.00  0.00    -0.265 OA
HETATM    5  C17 UNL     1       0.419  21.523  -0.093  1.00  0.00     0.149 C 
HETATM    6  C18 UNL     1       0.416  22.766   0.827  1.00  0.00     0.073 C 
HETATM    7  C19 UNL     1      -1.030  23.029   1.112  1.00  0.00     0.041 C 
HETATM    8  C20 UNL     1      -1.388  24.428   1.428  1.00  0.00     0.034 C 
HETATM    9  C21 UNL     1      -0.243  25.369   1.541  1.00  0.00     0.118 C 
HETATM   10  C22 UNL     1       0.828  25.225   0.518  1.00  0.00     0.042 C 
HETATM   11  C23 UNL     1       1.142  23.826   0.087  1.00  0.00     0.052 C 
ENDROOT
BRANCH   1  12
HETATM   12  C14 UNL     1       3.451  24.502  -0.665  1.00  0.00     0.037 C 
BRANCH  12  13
HETATM   13  C13 UNL     1       4.906  24.288  -0.201  1.00  0.00     0.030 C 
BRANCH  13  14
HETATM   14  C12 UNL     1       4.911  24.292   1.260  1.00  0.00    -0.020 C 
HETATM   15  C10 UNL     1       5.735  23.488   2.028  1.00  0.00    -0.065 C 
HETATM   16  C11 UNL     1       6.588  22.620   1.239  1.00  0.00     0.048 C 
BRANCH  15  17
HETATM   17  C9  UNL     1       5.568  23.667   3.437  1.00  0.00     0.014 C 
HETATM   18  C8  UNL     1       6.031  24.469   4.338  1.00  0.00    -0.048 C 
HETATM   19  C2  UNL     1       5.578  24.296   5.737  1.00  0.00    -0.061 C 
HETATM   20  C6  UNL     1       6.986  25.560   4.054  1.00  0.00     0.015 C 
HETATM   21  C1  UNL     1       5.369  23.086   6.187  1.00  0.00     0.019 C 
HETATM   22  C3  UNL     1       5.374  25.478   6.600  1.00  0.00     0.038 C 
HETATM   23  C4  UNL     1       5.571  26.712   5.741  1.00  0.00     0.005 C 
HETATM   24  C5  UNL     1       6.933  26.658   5.127  1.00  0.00     0.009 C 
HETATM   25  C7  UNL     1       8.380  24.936   4.087  1.00  0.00     0.015 C 
ENDBRANCH  15  17
ENDBRANCH  13  14
ENDBRANCH  12  13
ENDBRANCH   1  12
BRANCH   6  26
HETATM   26  O3  UNL     1       1.095  22.353   1.979  1.00  0.00    -0.389 OA
ATOM     27  H3  UNL     1       0.410  22.200   2.618  1.00  0.00     0.210 HD
ENDBRANCH   6  26
BRANCH   9  28
HETATM   28  O4  UNL     1      -0.773  26.677   1.429  1.00  0.00    -0.396 OA
ATOM     29  H4  UNL     1      -0.186  27.255   1.903  1.00  0.00     0.210 HD
ENDBRANCH   9  28
TORSDOF 6
ENDMDL
MODEL 5
REMARK VINA RESULT: -8.824781477      5.954      8.656
REMARK  6 active torsions:
REMARK  status: ('A' for Active; 'I' for Inactive)
REMARK    1  A    between atoms: C9_9  and  C10_10 
REMARK    2  A    between atoms: C12_12  and  C13_13 
REMARK    3  A    between atoms: C13_13  and  C14_14 
REMARK    4  A    between atoms: C14_14  and  C15_15 
REMARK    5  A    between atoms: C18_20  and  O3_21 
REMARK    6  A    between atoms: C21_25  and  O4_26 
ROOT
HETATM    1  C15 UNL     1       9.622  28.372   8.552  1.00  0.00     0.139 C 
HETATM    2  O1  UNL     1      10.731  28.414   9.397  1.00  0.00    -0.315 OA
HETATM    3  C16 UNL     1      11.839  27.624   9.135  1.00  0.00     0.262 C 
HETATM    4  O2  UNL     1      13.023  28.029   9.281  1.00  0.00    -0.265 OA
HETATM    5  C17 UNL     1      11.664  26.208   8.651  1.00  0.00     0.149 C 
HETATM    6  C18 UNL     1      10.192  26.034   8.210  1.00  0.00     0.073 C 
HETATM    7  C19 UNL     1      10.186  24.793   7.373  1.00  0.00     0.041 C 
HETATM    8  C20 UNL     1       9.124  24.702   6.349  1.00  0.00     0.034 C 
HETATM    9  C21 UNL     1       8.126  25.803   6.366  1.00  0.00     0.118 C 
HETATM   10  C22 UNL     1       8.667  27.174   6.571  1.00  0.00     0.042 C 
HETATM   11  C23 UNL     1       9.820  27.292   7.518  1.00  0.00     0.052 C 
ENDROOT
BRANCH   1  12
HETATM   12  C14 UNL     1       9.308  29.723   7.950  1.00  0.00     0.037 C 
BRANCH  12  13
HETATM   13  C13 UNL     1       8.491  30.479   9.016  1.00  0.00     0.030 C 
BRANCH  13  14
HETATM   14  C12 UNL     1       7.087  30.114   8.842  1.00  0.00    -0.020 C 
HETATM   15  C10 UNL     1       6.257  30.686   7.894  1.00  0.00    -0.065 C 
HETATM   16  C11 UNL     1       6.913  31.704   7.095  1.00  0.00     0.048 C 
BRANCH  15  17
HETATM   17  C9  UNL     1       4.924  30.169   7.906  1.00  0.00     0.014 C 
HETATM   18  C8  UNL     1       4.340  29.081   7.524  1.00  0.00    -0.048 C 
HETATM   19  C2  UNL     1       2.880  28.953   7.729  1.00  0.00    -0.061 C 
HETATM   20  C6  UNL     1       5.050  27.946   6.897  1.00  0.00     0.015 C 
HETATM   21  C1  UNL     1       2.128  30.014   7.588  1.00  0.00     0.019 C 
HETATM   22  C3  UNL     1       2.295  27.643   8.084  1.00  0.00     0.038 C 
HETATM   23  C4  UNL     1       3.441  26.673   8.299  1.00  0.00     0.005 C 
HETATM   24  C5  UNL     1       4.273  26.630   7.058  1.00  0.00     0.009 C 
HETATM   25  C7  UNL     1       5.138  28.261   5.405  1.00  0.00     0.015 C 
ENDBRANCH  15  17
ENDBRANCH  13  14
ENDBRANCH  12  13
ENDBRANCH   1  12
BRANCH   6  26
HETATM   26  O3  UNL     1       9.486  25.848   9.404  1.00  0.00    -0.389 OA
ATOM     27  H3  UNL     1       8.589  25.700   9.130  1.00  0.00     0.210 HD
ENDBRANCH   6  26
BRANCH   9  28
HETATM   28  O4  UNL     1       7.469  25.782   5.112  1.00  0.00    -0.396 OA
ATOM     29  H4  UNL     1       8.145  25.805   4.445  1.00  0.00     0.210 HD
ENDBRANCH   9  28
TORSDOF 6
ENDMDL
