MODEL 1
REMARK VINA RESULT: -9.456553634      0.000      0.000
REMARK  5 active torsions:
REMARK  status: ('A' for Active; 'I' for Inactive)
REMARK    1  A    between atoms: C4_4  and  C5_5 
REMARK    2  A    between atoms: C7_8  and  C8_9 
REMARK    3  A    between atoms: C8_9  and  C9_10 
REMARK    4  A    between atoms: C9_10  and  C10_11 
REMARK       I    between atoms: N3_17  and  C12_19 
REMARK       I    between atoms: C12_19  and  N4_21 
REMARK       I    between atoms: N4_21  and  C13_23 
REMARK       I    between atoms: C13_23  and  N5_25 
REMARK    5  A    between atoms: N5_25  and  C14_27 
ROOT
HETATM    1  C10 UNL     1      10.750  24.450   8.331  1.00  0.00     0.142 A 
HETATM    2  N1  UNL     1      12.062  24.303   8.564  1.00  0.00    -0.280 N 
ATOM      3  H1  UNL     1      12.577  23.424   8.515  1.00  0.00     0.189 HD
HETATM    4  N2  UNL     1      12.581  25.477   8.868  1.00  0.00    -0.263 N 
ATOM      5  H2  UNL     1      13.557  25.670   9.093  1.00  0.00     0.190 HD
HETATM    6  C11 UNL     1      11.562  26.384   8.823  1.00  0.00     0.248 A 
HETATM    7  N3  UNL     1      11.658  27.640   9.058  1.00  0.00    -0.273 N 
ATOM      8  H3  UNL     1      12.550  28.069   9.308  1.00  0.00     0.174 HD
HETATM    9  C12 UNL     1      10.446  28.425   8.955  1.00  0.00     0.331 C 
HETATM   10  O1  UNL     1      10.112  29.166   9.889  1.00  0.00    -0.246 OA
HETATM   11  N4  UNL     1       9.707  28.297   7.782  1.00  0.00    -0.261 N 
ATOM     12  H4  UNL     1      10.080  27.655   7.082  1.00  0.00     0.175 HD
HETATM   13  C13 UNL     1       8.508  28.946   7.449  1.00  0.00     0.324 C 
HETATM   14  O2  UNL     1       7.950  28.714   6.314  1.00  0.00    -0.247 OA
HETATM   15  N5  UNL     1       7.851  29.850   8.270  1.00  0.00    -0.335 N 
ATOM     16  H5  UNL     1       8.247  30.075   9.183  1.00  0.00     0.165 HD
HETATM   17  O3  UNL     1      10.508  25.728   8.503  1.00  0.00    -0.264 OA
ENDROOT
BRANCH   1  18
HETATM   18  C9  UNL     1       9.708  23.467   7.957  1.00  0.00     0.091 C 
BRANCH  18  19
HETATM   19  C8  UNL     1       9.559  23.341   6.488  1.00  0.00     0.054 C 
BRANCH  19  20
HETATM   20  C7  UNL     1       8.212  23.824   6.054  1.00  0.00    -0.016 A 
HETATM   21  S1  UNL     1       7.322  23.274   4.678  1.00  0.00    -0.106 SA
HETATM   22  C6  UNL     1       5.960  24.286   4.816  1.00  0.00     0.061 A 
HETATM   23  C5  UNL     1       6.230  25.028   5.929  1.00  0.00    -0.029 A 
HETATM   24  C18 UNL     1       7.393  24.785   6.562  1.00  0.00     0.026 A 
BRANCH  23  25
HETATM   25  C4  UNL     1       5.279  26.071   6.417  1.00  0.00     0.014 C 
HETATM   26  C2  UNL     1       4.292  25.835   7.235  1.00  0.00    -0.087 C 
HETATM   27  C1  UNL     1       3.931  24.527   7.822  1.00  0.00     0.043 C 
HETATM   28  C3  UNL     1       3.412  26.977   7.649  1.00  0.00     0.043 C 
ENDBRANCH  23  25
ENDBRANCH  19  20
ENDBRANCH  18  19
ENDBRANCH   1  18
BRANCH  15  29
HETATM   29  C14 UNL     1       6.601  30.488   7.853  1.00  0.00     0.023 C 
HETATM   30  C15 UNL     1       5.721  30.730   9.041  1.00  0.00     0.037 C 
HETATM   31  C16 UNL     1       6.959  31.779   7.161  1.00  0.00     0.037 C 
HETATM   32  C17 UNL     1       5.844  29.625   6.861  1.00  0.00     0.037 C 
ENDBRANCH  15  29
TORSDOF 5
ENDMDL
MODEL 2
REMARK VINA RESULT: -9.331481641      1.248      1.909
REMARK  5 active torsions:
REMARK  status: ('A' for Active; 'I' for Inactive)
REMARK    1  A    between atoms: C4_4  and  C5_5 
REMARK    2  A    between atoms: C7_8  and  C8_9 
REMARK    3  A    between atoms: C8_9  and  C9_10 
REMARK    4  A    between atoms: C9_10  and  C10_11 
REMARK       I    between atoms: N3_17  and  C12_19 
REMARK       I    between atoms: C12_19  and  N4_21 
REMARK       I    between atoms: N4_21  and  C13_23 
REMARK       I    between atoms: C13_23  and  N5_25 
REMARK    5  A    between atoms: N5_25  and  C14_27 
ROOT
HETATM    1  C10 UNL     1       9.604  24.367   7.639  1.00  0.00     0.142 A 
HETATM    2  N1  UNL     1      10.855  23.912   7.480  1.00  0.00    -0.280 N 
ATOM      3  H1  UNL     1      11.109  22.961   7.211  1.00  0.00     0.189 HD
HETATM    4  N2  UNL     1      11.705  24.890   7.728  1.00  0.00    -0.263 N 
ATOM      5  H2  UNL     1      12.723  24.835   7.687  1.00  0.00     0.190 HD
HETATM    6  C11 UNL     1      10.962  25.988   8.051  1.00  0.00     0.248 A 
HETATM    7  N3  UNL     1      11.420  27.145   8.359  1.00  0.00    -0.273 N 
ATOM      8  H3  UNL     1      12.422  27.332   8.386  1.00  0.00     0.174 HD
HETATM    9  C12 UNL     1      10.451  28.175   8.669  1.00  0.00     0.331 C 
HETATM   10  O1  UNL     1      10.556  28.821   9.721  1.00  0.00    -0.246 OA
HETATM   11  N4  UNL     1       9.431  28.385   7.745  1.00  0.00    -0.261 N 
ATOM     12  H4  UNL     1       9.447  27.793   6.915  1.00  0.00     0.175 HD
HETATM   13  C13 UNL     1       8.385  29.317   7.820  1.00  0.00     0.324 C 
HETATM   14  O2  UNL     1       7.519  29.383   6.871  1.00  0.00    -0.247 OA
HETATM   15  N5  UNL     1       8.198  30.204   8.868  1.00  0.00    -0.335 N 
ATOM     16  H5  UNL     1       8.854  30.200   9.649  1.00  0.00     0.165 HD
HETATM   17  O3  UNL     1       9.734  25.626   7.983  1.00  0.00    -0.264 OA
ENDROOT
BRANCH   1  18
HETATM   18  C9  UNL     1       8.294  23.695   7.487  1.00  0.00     0.091 C 
BRANCH  18  19
HETATM   19  C8  UNL     1       7.777  23.783   6.101  1.00  0.00     0.054 C 
BRANCH  19  20
HETATM   20  C7  UNL     1       6.840  24.940   5.963  1.00  0.00    -0.016 A 
HETATM   21  S1  UNL     1       6.836  26.106   4.686  1.00  0.00    -0.106 SA
HETATM   22  C6  UNL     1       5.559  27.093   5.228  1.00  0.00     0.061 A 
HETATM   23  C5  UNL     1       5.166  26.493   6.388  1.00  0.00    -0.029 A 
HETATM   24  C18 UNL     1       5.831  25.384   6.762  1.00  0.00     0.026 A 
BRANCH  23  25
HETATM   25  C4  UNL     1       4.053  27.050   7.214  1.00  0.00     0.014 C 
HETATM   26  C2  UNL     1       3.670  28.295   7.179  1.00  0.00    -0.087 C 
HETATM   27  C1  UNL     1       4.246  29.369   6.341  1.00  0.00     0.043 C 
HETATM   28  C3  UNL     1       2.534  28.724   8.061  1.00  0.00     0.043 C 
ENDBRANCH  23  25
ENDBRANCH  19  20
ENDBRANCH  18  19
ENDBRANCH   1  18
BRANCH  15  29
HETATM   29  C14 UNL     1       7.079  31.148   8.877  1.00  0.00     0.023 C 
HETATM   30  C15 UNL     1       5.824  30.462   9.323  1.00  0.00     0.037 C 
HETATM   31  C16 UNL     1       7.446  32.280   9.805  1.00  0.00     0.037 C 
HETATM   32  C17 UNL     1       6.842  31.737   7.499  1.00  0.00     0.037 C 
ENDBRANCH  15  29
TORSDOF 5
ENDMDL
MODEL 3
REMARK VINA RESULT: -9.311785027      1.473      2.272
REMARK  5 active torsions:
REMARK  status: ('A' for Active; 'I' for Inactive)
REMARK    1  A    between atoms: C4_4  and  C5_5 
REMARK    2  A    between atoms: C7_8  and  C8_9 
REMARK    3  A    between atoms: C8_9  and  C9_10 
REMARK    4  A    between atoms: C9_10  and  C10_11 
REMARK       I    between atoms: N3_17  and  C12_19 
REMARK       I    between atoms: C12_19  and  N4_21 
REMARK       I    between atoms: N4_21  and  C13_23 
REMARK       I    between atoms: C13_23  and  N5_25 
REMARK    5  A    between atoms: N5_25  and  C14_27 
ROOT
HETATM    1  C10 UNL     1       9.978  25.138   6.097  1.00  0.00     0.142 A 
HETATM    2  N1  UNL     1      11.198  24.600   6.235  1.00  0.00    -0.280 N 
ATOM      3  H1  UNL     1      11.555  23.800   5.711  1.00  0.00     0.189 HD
HETATM    4  N2  UNL     1      11.865  25.270   7.155  1.00  0.00    -0.263 N 
ATOM      5  H2  UNL     1      12.817  25.086   7.470  1.00  0.00     0.190 HD
HETATM    6  C11 UNL     1      11.036  26.256   7.606  1.00  0.00     0.248 A 
HETATM    7  N3  UNL     1      11.314  27.124   8.507  1.00  0.00    -0.273 N 
ATOM      8  H3  UNL     1      12.222  27.136   8.972  1.00  0.00     0.174 HD
HETATM    9  C12 UNL     1      10.284  28.086   8.835  1.00  0.00     0.331 C 
HETATM   10  O1  UNL     1       9.955  28.253  10.018  1.00  0.00    -0.246 OA
HETATM   11  N4  UNL     1       9.707  28.784   7.778  1.00  0.00    -0.261 N 
ATOM     12  H4  UNL     1      10.059  28.561   6.847  1.00  0.00     0.175 HD
HETATM   13  C13 UNL     1       8.699  29.758   7.842  1.00  0.00     0.324 C 
HETATM   14  O2  UNL     1       8.276  30.311   6.760  1.00  0.00    -0.247 OA
HETATM   15  N5  UNL     1       8.100  30.190   9.015  1.00  0.00    -0.335 N 
ATOM     16  H5  UNL     1       8.395  29.789   9.905  1.00  0.00     0.165 HD
HETATM   17  O3  UNL     1       9.940  26.133   6.951  1.00  0.00    -0.264 OA
ENDROOT
BRANCH   1  18
HETATM   18  C9  UNL     1       8.845  24.778   5.215  1.00  0.00     0.091 C 
BRANCH  18  19
HETATM   19  C8  UNL     1       7.946  25.927   4.960  1.00  0.00     0.054 C 
BRANCH  19  20
HETATM   20  C7  UNL     1       6.683  25.791   5.750  1.00  0.00    -0.016 A 
HETATM   21  S1  UNL     1       5.944  24.310   6.249  1.00  0.00    -0.106 SA
HETATM   22  C6  UNL     1       4.574  24.946   7.035  1.00  0.00     0.061 A 
HETATM   23  C5  UNL     1       4.724  26.294   6.891  1.00  0.00    -0.029 A 
HETATM   24  C18 UNL     1       5.813  26.723   6.227  1.00  0.00     0.026 A 
BRANCH  23  25
HETATM   25  C4  UNL     1       3.716  27.251   7.438  1.00  0.00     0.014 C 
HETATM   26  C2  UNL     1       3.690  28.523   7.158  1.00  0.00    -0.087 C 
HETATM   27  C1  UNL     1       4.626  29.247   6.270  1.00  0.00     0.043 C 
HETATM   28  C3  UNL     1       2.620  29.375   7.775  1.00  0.00     0.043 C 
ENDBRANCH  23  25
ENDBRANCH  19  20
ENDBRANCH  18  19
ENDBRANCH   1  18
BRANCH  15  29
HETATM   29  C14 UNL     1       7.051  31.212   9.002  1.00  0.00     0.023 C 
HETATM   30  C15 UNL     1       5.748  30.624   9.449  1.00  0.00     0.037 C 
HETATM   31  C16 UNL     1       7.493  32.328   9.915  1.00  0.00     0.037 C 
HETATM   32  C17 UNL     1       6.865  31.795   7.614  1.00  0.00     0.037 C 
ENDBRANCH  15  29
TORSDOF 5
ENDMDL
MODEL 4
REMARK VINA RESULT: -9.186794801      0.575      1.222
REMARK  5 active torsions:
REMARK  status: ('A' for Active; 'I' for Inactive)
REMARK    1  A    between atoms: C4_4  and  C5_5 
REMARK    2  A    between atoms: C7_8  and  C8_9 
REMARK    3  A    between atoms: C8_9  and  C9_10 
REMARK    4  A    between atoms: C9_10  and  C10_11 
REMARK       I    between atoms: N3_17  and  C12_19 
REMARK       I    between atoms: C12_19  and  N4_21 
REMARK       I    between atoms: N4_21  and  C13_23 
REMARK       I    between atoms: C13_23  and  N5_25 
REMARK    5  A    between atoms: N5_25  and  C14_27 
ROOT
HETATM    1  C10 UNL     1      10.996  24.539   8.188  1.00  0.00     0.142 A 
HETATM    2  N1  UNL     1      12.284  24.425   8.542  1.00  0.00    -0.280 N 
ATOM      3  H1  UNL     1      12.846  23.577   8.467  1.00  0.00     0.189 HD
HETATM    4  N2  UNL     1      12.709  25.586   9.003  1.00  0.00    -0.263 N 
ATOM      5  H2  UNL     1      13.646  25.797   9.345  1.00  0.00     0.190 HD
HETATM    6  C11 UNL     1      11.655  26.450   8.934  1.00  0.00     0.248 A 
HETATM    7  N3  UNL     1      11.663  27.681   9.291  1.00  0.00    -0.273 N 
ATOM      8  H3  UNL     1      12.502  28.121   9.670  1.00  0.00     0.174 HD
HETATM    9  C12 UNL     1      10.428  28.420   9.132  1.00  0.00     0.331 C 
HETATM   10  O1  UNL     1       9.965  29.055  10.090  1.00  0.00    -0.246 OA
HETATM   11  N4  UNL     1       9.817  28.373   7.882  1.00  0.00    -0.261 N 
ATOM     12  H4  UNL     1      10.291  27.817   7.170  1.00  0.00     0.175 HD
HETATM   13  C13 UNL     1       8.627  29.001   7.486  1.00  0.00     0.324 C 
HETATM   14  O2  UNL     1       8.197  28.854   6.282  1.00  0.00    -0.247 OA
HETATM   15  N5  UNL     1       7.845  29.794   8.312  1.00  0.00    -0.335 N 
ATOM     16  H5  UNL     1       8.136  29.948   9.278  1.00  0.00     0.165 HD
HETATM   17  O3  UNL     1      10.673  25.783   8.448  1.00  0.00    -0.264 OA
ENDROOT
BRANCH   1  18
HETATM   18  C9  UNL     1      10.049  23.553   7.620  1.00  0.00     0.091 C 
BRANCH  18  19
HETATM   19  C8  UNL     1       9.675  23.875   6.223  1.00  0.00     0.054 C 
BRANCH  19  20
HETATM   20  C7  UNL     1       8.200  23.729   6.027  1.00  0.00    -0.016 A 
HETATM   21  S1  UNL     1       7.389  23.459   4.524  1.00  0.00    -0.106 SA
HETATM   22  C6  UNL     1       5.782  23.449   5.084  1.00  0.00     0.061 A 
HETATM   23  C5  UNL     1       5.913  23.656   6.426  1.00  0.00    -0.029 A 
HETATM   24  C18 UNL     1       7.163  23.800   6.905  1.00  0.00     0.026 A 
BRANCH  23  25
HETATM   25  C4  UNL     1       4.721  23.729   7.322  1.00  0.00     0.014 C 
HETATM   26  C2  UNL     1       4.072  24.827   7.587  1.00  0.00    -0.087 C 
HETATM   27  C1  UNL     1       4.381  26.177   7.068  1.00  0.00     0.043 C 
HETATM   28  C3  UNL     1       2.887  24.760   8.505  1.00  0.00     0.043 C 
ENDBRANCH  23  25
ENDBRANCH  19  20
ENDBRANCH  18  19
ENDBRANCH   1  18
BRANCH  15  29
HETATM   29  C14 UNL     1       6.612  30.416   7.826  1.00  0.00     0.023 C 
HETATM   30  C15 UNL     1       5.894  29.487   6.896  1.00  0.00     0.037 C 
HETATM   31  C16 UNL     1       5.767  30.749   9.031  1.00  0.00     0.037 C 
HETATM   32  C17 UNL     1       6.899  31.710   7.089  1.00  0.00     0.037 C 
ENDBRANCH  15  29
TORSDOF 5
ENDMDL
MODEL 5
REMARK VINA RESULT: -9.108160167      2.155      5.662
REMARK  5 active torsions:
REMARK  status: ('A' for Active; 'I' for Inactive)
REMARK    1  A    between atoms: C4_4  and  C5_5 
REMARK    2  A    between atoms: C7_8  and  C8_9 
REMARK    3  A    between atoms: C8_9  and  C9_10 
REMARK    4  A    between atoms: C9_10  and  C10_11 
REMARK       I    between atoms: N3_17  and  C12_19 
REMARK       I    between atoms: C12_19  and  N4_21 
REMARK       I    between atoms: N4_21  and  C13_23 
REMARK       I    between atoms: C13_23  and  N5_25 
REMARK    5  A    between atoms: N5_25  and  C14_27 
ROOT
HETATM    1  C10 UNL     1       7.431  30.894   7.792  1.00  0.00     0.142 A 
HETATM    2  N1  UNL     1       7.361  31.738   8.831  1.00  0.00    -0.280 N 
ATOM      3  H1  UNL     1       6.741  32.546   8.897  1.00  0.00     0.189 HD
HETATM    4  N2  UNL     1       8.222  31.357   9.755  1.00  0.00    -0.263 N 
ATOM      5  H2  UNL     1       8.388  31.809  10.654  1.00  0.00     0.190 HD
HETATM    6  C11 UNL     1       8.848  30.242   9.278  1.00  0.00     0.248 A 
HETATM    7  N3  UNL     1       9.757  29.570   9.882  1.00  0.00    -0.273 N 
ATOM      8  H3  UNL     1      10.092  29.838  10.808  1.00  0.00     0.174 HD
HETATM    9  C12 UNL     1      10.290  28.415   9.191  1.00  0.00     0.331 C 
HETATM   10  O1  UNL     1      11.515  28.289   9.060  1.00  0.00    -0.246 OA
HETATM   11  N4  UNL     1       9.371  27.489   8.702  1.00  0.00    -0.261 N 
ATOM     12  H4  UNL     1       8.388  27.700   8.871  1.00  0.00     0.175 HD
HETATM   13  C13 UNL     1       9.640  26.301   8.006  1.00  0.00     0.324 C 
HETATM   14  O2  UNL     1       8.667  25.552   7.622  1.00  0.00    -0.247 OA
HETATM   15  N5  UNL     1      10.911  25.850   7.685  1.00  0.00    -0.335 N 
ATOM     16  H5  UNL     1      11.722  26.402   7.964  1.00  0.00     0.165 HD
HETATM   17  O3  UNL     1       8.346  30.013   8.121  1.00  0.00    -0.264 OA
ENDROOT
BRANCH   1  18
HETATM   18  C9  UNL     1       6.693  30.862   6.509  1.00  0.00     0.091 C 
BRANCH  18  19
HETATM   19  C8  UNL     1       5.229  30.742   6.708  1.00  0.00     0.054 C 
BRANCH  19  20
HETATM   20  C7  UNL     1       4.834  29.306   6.843  1.00  0.00    -0.016 A 
HETATM   21  S1  UNL     1       3.503  28.694   7.762  1.00  0.00    -0.106 SA
HETATM   22  C6  UNL     1       3.720  27.030   7.472  1.00  0.00     0.061 A 
HETATM   23  C5  UNL     1       4.821  26.990   6.668  1.00  0.00    -0.029 A 
HETATM   24  C18 UNL     1       5.391  28.167   6.349  1.00  0.00     0.026 A 
BRANCH  23  25
HETATM   25  C4  UNL     1       5.376  25.695   6.174  1.00  0.00     0.014 C 
HETATM   26  C2  UNL     1       5.073  24.531   6.675  1.00  0.00    -0.087 C 
HETATM   27  C1  UNL     1       4.148  24.272   7.799  1.00  0.00     0.043 C 
HETATM   28  C3  UNL     1       5.702  23.305   6.081  1.00  0.00     0.043 C 
ENDBRANCH  23  25
ENDBRANCH  19  20
ENDBRANCH  18  19
ENDBRANCH   1  18
BRANCH  15  29
HETATM   29  C14 UNL     1      11.112  24.598   6.953  1.00  0.00     0.023 C 
HETATM   30  C15 UNL     1      10.619  24.735   5.545  1.00  0.00     0.037 C 
HETATM   31  C16 UNL     1      12.586  24.282   6.991  1.00  0.00     0.037 C 
HETATM   32  C17 UNL     1      10.374  23.448   7.612  1.00  0.00     0.037 C 
ENDBRANCH  15  29
TORSDOF 5
ENDMDL
