MODEL 1
REMARK VINA RESULT: -7.021166429      0.000      0.000
REMARK  6 active torsions:
REMARK  status: ('A' for Active; 'I' for Inactive)
REMARK    1  A    between atoms: O1_2  and  C2_3 
REMARK    2  A    between atoms: C4_5  and  O2_6 
REMARK    3  A    between atoms: O2_6  and  C5_7 
REMARK    4  A    between atoms: C5_7  and  C6_8 
REMARK    5  A    between atoms: C11_14  and  C12_15 
REMARK    6  A    between atoms: C16_22  and  O4_23 
ROOT
HETATM    1  C6  UNL     1     -21.501   5.888 103.570  1.00  0.00     0.152 C 
HETATM    2  O3  UNL     1     -20.842   5.325 102.477  1.00  0.00    -0.377 OA
HETATM    3  C7  UNL     1     -22.052   4.812 101.947  1.00  0.00     0.134 C 
HETATM    4  C8  UNL     1     -22.740   5.917 102.739  1.00  0.00     0.046 C 
HETATM    5  C9  UNL     1     -22.888   7.008 101.730  1.00  0.00     0.010 C 
HETATM    6  C10 UNL     1     -23.342   6.220 100.505  1.00  0.00     0.010 C 
HETATM    7  C11 UNL     1     -22.282   5.109 100.504  1.00  0.00     0.048 C 
ENDROOT
BRANCH   7   8
HETATM    8  C12 UNL     1     -22.879   3.951  99.744  1.00  0.00     0.220 C 
HETATM    9  N1  UNL     1     -23.876   4.369  98.789  1.00  0.00    -0.068 N 
HETATM   10  C13 UNL     1     -24.403   3.152  98.173  1.00  0.00     0.233 C 
ATOM     11  H12 UNL     1     -24.600   4.961  99.196  1.00  0.00     0.277 HD
ATOM     12  H11 UNL     1     -23.525   5.045  98.110  1.00  0.00     0.277 HD
HETATM   13  C14 UNL     1     -25.414   2.574  99.106  1.00  0.00     0.030 C 
HETATM   14  C15 UNL     1     -25.061   2.994 100.529  1.00  0.00     0.035 C 
HETATM   15  C16 UNL     1     -23.539   3.012 100.720  1.00  0.00     0.149 C 
BRANCH  15  16
HETATM   16  O4  UNL     1     -23.023   1.730 100.544  1.00  0.00    -0.393 OA
ATOM     17  H4  UNL     1     -23.238   1.200 101.301  1.00  0.00     0.210 HD
ENDBRANCH  15  16
ENDBRANCH   7   8
BRANCH   1  18
HETATM   18  C5  UNL     1     -20.986   7.230 104.030  1.00  0.00     0.200 C 
BRANCH  18  19
HETATM   19  O2  UNL     1     -20.031   6.993 105.008  1.00  0.00    -0.381 OA
BRANCH  19  20
HETATM   20  C4  UNL     1     -19.486   8.138 105.544  1.00  0.00     0.150 C 
HETATM   21  C3  UNL     1     -18.694   8.947 104.565  1.00  0.00     0.094 C 
HETATM   22  C2  UNL     1     -17.456   9.289 105.368  1.00  0.00     0.261 C 
HETATM   23  O5  UNL     1     -17.234   8.097 106.058  1.00  0.00    -0.359 OA
HETATM   24  C17 UNL     1     -18.498   7.884 106.648  1.00  0.00     0.203 C 
BRANCH  22  25
HETATM   25  O1  UNL     1     -16.377   9.604 104.550  1.00  0.00    -0.366 OA
HETATM   26  C1  UNL     1     -16.825   9.835 103.255  1.00  0.00     0.204 C 
ENDBRANCH  22  25
ENDBRANCH  19  20
ENDBRANCH  18  19
ENDBRANCH   1  18
TORSDOF 6
ENDMDL
MODEL 2
REMARK VINA RESULT: -7.009040345      1.688      2.048
REMARK  6 active torsions:
REMARK  status: ('A' for Active; 'I' for Inactive)
REMARK    1  A    between atoms: O1_2  and  C2_3 
REMARK    2  A    between atoms: C4_5  and  O2_6 
REMARK    3  A    between atoms: O2_6  and  C5_7 
REMARK    4  A    between atoms: C5_7  and  C6_8 
REMARK    5  A    between atoms: C11_14  and  C12_15 
REMARK    6  A    between atoms: C16_22  and  O4_23 
ROOT
HETATM    1  C6  UNL     1     -22.091   6.327 102.693  1.00  0.00     0.152 C 
HETATM    2  O3  UNL     1     -21.968   5.841 101.392  1.00  0.00    -0.377 OA
HETATM    3  C7  UNL     1     -23.373   5.764 101.232  1.00  0.00     0.134 C 
HETATM    4  C8  UNL     1     -23.445   6.830 102.318  1.00  0.00     0.046 C 
HETATM    5  C9  UNL     1     -23.533   8.100 101.534  1.00  0.00     0.010 C 
HETATM    6  C10 UNL     1     -24.528   7.708 100.446  1.00  0.00     0.010 C 
HETATM    7  C11 UNL     1     -23.898   6.386  99.983  1.00  0.00     0.048 C 
ENDROOT
BRANCH   7   8
HETATM    8  C12 UNL     1     -25.005   5.590  99.338  1.00  0.00     0.220 C 
HETATM    9  N1  UNL     1     -25.560   4.595 100.222  1.00  0.00    -0.068 N 
HETATM   10  C13 UNL     1     -26.571   3.870  99.455  1.00  0.00     0.233 C 
ATOM     11  H12 UNL     1     -24.854   3.985 100.635  1.00  0.00     0.277 HD
ATOM     12  H11 UNL     1     -25.918   4.985 101.093  1.00  0.00     0.277 HD
HETATM   13  C14 UNL     1     -25.864   2.857  98.617  1.00  0.00     0.030 C 
HETATM   14  C15 UNL     1     -24.453   3.359  98.332  1.00  0.00     0.035 C 
HETATM   15  C16 UNL     1     -24.456   4.880  98.128  1.00  0.00     0.149 C 
BRANCH  15  16
HETATM   16  O4  UNL     1     -25.228   5.207  97.015  1.00  0.00    -0.393 OA
ATOM     17  H4  UNL     1     -25.498   6.115  97.079  1.00  0.00     0.210 HD
ENDBRANCH  15  16
ENDBRANCH   7   8
BRANCH   1  18
HETATM   18  C5  UNL     1     -21.089   7.378 103.103  1.00  0.00     0.200 C 
BRANCH  18  19
HETATM   19  O2  UNL     1     -20.440   6.911 104.237  1.00  0.00    -0.381 OA
BRANCH  19  20
HETATM   20  C4  UNL     1     -20.013   7.908 105.086  1.00  0.00     0.150 C 
HETATM   21  C3  UNL     1     -18.733   8.557 104.661  1.00  0.00     0.094 C 
HETATM   22  C2  UNL     1     -17.965   8.619 105.964  1.00  0.00     0.261 C 
HETATM   23  O5  UNL     1     -18.295   7.393 106.541  1.00  0.00    -0.359 OA
HETATM   24  C17 UNL     1     -19.704   7.432 106.477  1.00  0.00     0.203 C 
BRANCH  22  25
HETATM   25  O1  UNL     1     -16.595   8.723 105.756  1.00  0.00    -0.366 OA
HETATM   26  C1  UNL     1     -16.323   9.850 104.988  1.00  0.00     0.204 C 
ENDBRANCH  22  25
ENDBRANCH  19  20
ENDBRANCH  18  19
ENDBRANCH   1  18
TORSDOF 6
ENDMDL
MODEL 3
REMARK VINA RESULT: -7.003775178      3.800      6.032
REMARK  6 active torsions:
REMARK  status: ('A' for Active; 'I' for Inactive)
REMARK    1  A    between atoms: O1_2  and  C2_3 
REMARK    2  A    between atoms: C4_5  and  O2_6 
REMARK    3  A    between atoms: O2_6  and  C5_7 
REMARK    4  A    between atoms: C5_7  and  C6_8 
REMARK    5  A    between atoms: C11_14  and  C12_15 
REMARK    6  A    between atoms: C16_22  and  O4_23 
ROOT
HETATM    1  C6  UNL     1     -21.797   6.136 102.295  1.00  0.00     0.152 C 
HETATM    2  O3  UNL     1     -22.777   6.789 103.041  1.00  0.00    -0.377 OA
HETATM    3  C7  UNL     1     -23.275   7.458 101.896  1.00  0.00     0.134 C 
HETATM    4  C8  UNL     1     -22.668   6.312 101.097  1.00  0.00     0.046 C 
HETATM    5  C9  UNL     1     -23.823   5.380 100.921  1.00  0.00     0.010 C 
HETATM    6  C10 UNL     1     -24.944   6.357 100.580  1.00  0.00     0.010 C 
HETATM    7  C11 UNL     1     -24.753   7.376 101.713  1.00  0.00     0.048 C 
ENDROOT
BRANCH   7   8
HETATM    8  C12 UNL     1     -25.369   8.666 101.234  1.00  0.00     0.220 C 
HETATM    9  N1  UNL     1     -26.299   8.469 100.149  1.00  0.00    -0.068 N 
HETATM   10  C13 UNL     1     -26.769   9.795  99.754  1.00  0.00     0.233 C 
ATOM     11  H12 UNL     1     -25.907   7.933  99.375  1.00  0.00     0.277 HD
ATOM     12  H11 UNL     1     -27.055   7.825 100.380  1.00  0.00     0.277 HD
HETATM   13  C14 UNL     1     -25.731  10.399  98.868  1.00  0.00     0.030 C 
HETATM   14  C15 UNL     1     -24.375   9.801  99.230  1.00  0.00     0.035 C 
HETATM   15  C16 UNL     1     -24.274   9.579 100.744  1.00  0.00     0.149 C 
BRANCH  15  16
HETATM   16  O4  UNL     1     -24.362  10.799 101.411  1.00  0.00    -0.393 OA
ATOM     17  H4  UNL     1     -23.763  11.418 101.010  1.00  0.00     0.210 HD
ENDBRANCH  15  16
ENDBRANCH   7   8
BRANCH   1  18
HETATM   18  C5  UNL     1     -21.506   4.710 102.693  1.00  0.00     0.200 C 
BRANCH  18  19
HETATM   19  O2  UNL     1     -20.967   4.739 103.971  1.00  0.00    -0.381 OA
BRANCH  19  20
HETATM   20  C4  UNL     1     -21.690   4.021 104.898  1.00  0.00     0.150 C 
HETATM   21  C3  UNL     1     -22.901   3.349 104.332  1.00  0.00     0.094 C 
HETATM   22  C2  UNL     1     -23.953   3.668 105.373  1.00  0.00     0.261 C 
HETATM   23  O5  UNL     1     -23.630   4.984 105.701  1.00  0.00    -0.359 OA
HETATM   24  C17 UNL     1     -22.258   4.860 106.008  1.00  0.00     0.203 C 
BRANCH  22  25
HETATM   25  O1  UNL     1     -25.240   3.581 104.855  1.00  0.00    -0.366 OA
HETATM   26  C1  UNL     1     -25.494   4.685 104.049  1.00  0.00     0.204 C 
ENDBRANCH  22  25
ENDBRANCH  19  20
ENDBRANCH  18  19
ENDBRANCH   1  18
TORSDOF 6
ENDMDL
MODEL 4
REMARK VINA RESULT: -6.983239033      1.422      1.704
REMARK  6 active torsions:
REMARK  status: ('A' for Active; 'I' for Inactive)
REMARK    1  A    between atoms: O1_2  and  C2_3 
REMARK    2  A    between atoms: C4_5  and  O2_6 
REMARK    3  A    between atoms: O2_6  and  C5_7 
REMARK    4  A    between atoms: C5_7  and  C6_8 
REMARK    5  A    between atoms: C11_14  and  C12_15 
REMARK    6  A    between atoms: C16_22  and  O4_23 
ROOT
HETATM    1  C6  UNL     1     -21.779   7.118 103.027  1.00  0.00     0.152 C 
HETATM    2  O3  UNL     1     -23.119   6.842 102.758  1.00  0.00    -0.377 OA
HETATM    3  C7  UNL     1     -22.801   6.256 101.508  1.00  0.00     0.134 C 
HETATM    4  C8  UNL     1     -21.420   6.005 102.101  1.00  0.00     0.046 C 
HETATM    5  C9  UNL     1     -21.525   4.603 102.609  1.00  0.00     0.010 C 
HETATM    6  C10 UNL     1     -22.261   3.924 101.458  1.00  0.00     0.010 C 
HETATM    7  C11 UNL     1     -23.416   4.919 101.266  1.00  0.00     0.048 C 
ENDROOT
BRANCH   7   8
HETATM    8  C12 UNL     1     -23.906   4.734  99.852  1.00  0.00     0.220 C 
HETATM    9  N1  UNL     1     -25.227   4.159  99.793  1.00  0.00    -0.068 N 
HETATM   10  C13 UNL     1     -25.548   3.987  98.378  1.00  0.00     0.233 C 
ATOM     11  H12 UNL     1     -25.316   3.298 100.334  1.00  0.00     0.277 HD
ATOM     12  H11 UNL     1     -25.926   4.701 100.302  1.00  0.00     0.277 HD
HETATM   13  C14 UNL     1     -24.886   2.733  97.912  1.00  0.00     0.030 C 
HETATM   14  C15 UNL     1     -23.654   2.483  98.776  1.00  0.00     0.035 C 
HETATM   15  C16 UNL     1     -22.966   3.809  99.124  1.00  0.00     0.149 C 
BRANCH  15  16
HETATM   16  O4  UNL     1     -22.519   4.432  97.961  1.00  0.00    -0.393 OA
ATOM     17  H4  UNL     1     -22.752   3.898  97.211  1.00  0.00     0.210 HD
ENDBRANCH  15  16
ENDBRANCH   7   8
BRANCH   1  18
HETATM   18  C5  UNL     1     -21.345   6.947 104.462  1.00  0.00     0.200 C 
BRANCH  18  19
HETATM   19  O2  UNL     1     -19.967   7.098 104.498  1.00  0.00    -0.381 OA
BRANCH  19  20
HETATM   20  C4  UNL     1     -19.541   8.141 105.291  1.00  0.00     0.150 C 
HETATM   21  C3  UNL     1     -18.457   8.967 104.672  1.00  0.00     0.094 C 
HETATM   22  C2  UNL     1     -17.489   9.130 105.825  1.00  0.00     0.261 C 
HETATM   23  O5  UNL     1     -17.540   7.867 106.413  1.00  0.00    -0.359 OA
HETATM   24  C17 UNL     1     -18.930   7.706 106.593  1.00  0.00     0.203 C 
BRANCH  22  25
HETATM   25  O1  UNL     1     -16.204   9.429 105.387  1.00  0.00    -0.366 OA
HETATM   26  C1  UNL     1     -16.248   9.847 104.061  1.00  0.00     0.204 C 
ENDBRANCH  22  25
ENDBRANCH  19  20
ENDBRANCH  18  19
ENDBRANCH   1  18
TORSDOF 6
ENDMDL
MODEL 5
REMARK VINA RESULT: -6.823492389      4.475      7.198
REMARK  6 active torsions:
REMARK  status: ('A' for Active; 'I' for Inactive)
REMARK    1  A    between atoms: O1_2  and  C2_3 
REMARK    2  A    between atoms: C4_5  and  O2_6 
REMARK    3  A    between atoms: O2_6  and  C5_7 
REMARK    4  A    between atoms: C5_7  and  C6_8 
REMARK    5  A    between atoms: C11_14  and  C12_15 
REMARK    6  A    between atoms: C16_22  and  O4_23 
ROOT
HETATM    1  C6  UNL     1     -22.302   6.333 102.746  1.00  0.00     0.152 C 
HETATM    2  O3  UNL     1     -23.309   5.855 103.583  1.00  0.00    -0.377 OA
HETATM    3  C7  UNL     1     -22.414   4.976 104.243  1.00  0.00     0.134 C 
HETATM    4  C8  UNL     1     -21.316   5.931 103.791  1.00  0.00     0.046 C 
HETATM    5  C9  UNL     1     -21.142   6.824 104.977  1.00  0.00     0.010 C 
HETATM    6  C10 UNL     1     -21.185   5.812 106.119  1.00  0.00     0.010 C 
HETATM    7  C11 UNL     1     -22.455   5.039 105.732  1.00  0.00     0.048 C 
ENDROOT
BRANCH   7   8
HETATM    8  C12 UNL     1     -22.346   3.686 106.390  1.00  0.00     0.220 C 
HETATM    9  N1  UNL     1     -21.890   3.768 107.755  1.00  0.00    -0.068 N 
HETATM   10  C13 UNL     1     -21.779   2.395 108.244  1.00  0.00     0.233 C 
ATOM     11  H12 UNL     1     -21.028   4.303 107.861  1.00  0.00     0.277 HD
ATOM     12  H11 UNL     1     -22.480   4.358 108.342  1.00  0.00     0.277 HD
HETATM   13  C14 UNL     1     -20.484   1.842 107.752  1.00  0.00     0.030 C 
HETATM   14  C15 UNL     1     -20.107   2.558 106.459  1.00  0.00     0.035 C 
HETATM   15  C16 UNL     1     -21.360   2.845 105.622  1.00  0.00     0.149 C 
BRANCH  15  16
HETATM   16  O4  UNL     1     -21.969   1.648 105.251  1.00  0.00    -0.393 OA
ATOM     17  H4  UNL     1     -21.427   1.209 104.607  1.00  0.00     0.210 HD
ENDBRANCH  15  16
ENDBRANCH   7   8
BRANCH   1  18
HETATM   18  C5  UNL     1     -22.355   7.806 102.424  1.00  0.00     0.200 C 
BRANCH  18  19
HETATM   19  O2  UNL     1     -23.683   8.200 102.508  1.00  0.00    -0.381 OA
BRANCH  19  20
HETATM   20  C4  UNL     1     -24.013   9.234 101.661  1.00  0.00     0.150 C 
HETATM   21  C3  UNL     1     -25.254   9.970 102.060  1.00  0.00     0.094 C 
HETATM   22  C2  UNL     1     -25.980  10.102 100.737  1.00  0.00     0.261 C 
HETATM   23  O5  UNL     1     -25.724   8.862 100.153  1.00  0.00    -0.359 OA
HETATM   24  C17 UNL     1     -24.318   8.798 100.256  1.00  0.00     0.203 C 
BRANCH  22  25
HETATM   25  O1  UNL     1     -27.344  10.304 100.911  1.00  0.00    -0.366 OA
HETATM   26  C1  UNL     1     -27.795   9.545 101.984  1.00  0.00     0.204 C 
ENDBRANCH  22  25
ENDBRANCH  19  20
ENDBRANCH  18  19
ENDBRANCH   1  18
TORSDOF 6
ENDMDL
