MODEL 1
REMARK VINA RESULT: -5.654881399      0.000      0.000
REMARK  6 active torsions:
REMARK  status: ('A' for Active; 'I' for Inactive)
REMARK    1  A    between atoms: O1_2  and  C2_3 
REMARK    2  A    between atoms: C3_5  and  C4_6 
REMARK    3  A    between atoms: C4_6  and  N1_8 
REMARK    4  A    between atoms: C9_12  and  O3_13 
REMARK    5  A    between atoms: C10_15  and  O4_16 
REMARK    6  A    between atoms: C11_18  and  O5_19 
ROOT
HETATM    1  C2  UNL     1     -20.696   4.836 103.350  1.00  0.00     0.290 C 
HETATM    2  O2  UNL     1     -21.671   5.738 103.224  1.00  0.00    -0.348 OA
HETATM    3  C3  UNL     1     -22.610   5.726 102.262  1.00  0.00     0.189 C 
HETATM    4  C9  UNL     1     -22.976   4.408 101.659  1.00  0.00     0.180 C 
HETATM    5  C10 UNL     1     -21.942   3.353 101.734  1.00  0.00     0.183 C 
HETATM    6  C11 UNL     1     -20.910   3.464 102.793  1.00  0.00     0.204 C 
ENDROOT
BRANCH   3   7
HETATM    7  C4  UNL     1     -22.463   6.859 101.247  1.00  0.00     0.250 C 
HETATM    8  C5  UNL     1     -23.442   6.664 100.091  1.00  0.00     0.045 C 
BRANCH   7   9
HETATM    9  N1  UNL     1     -22.757   8.124 101.787  1.00  0.00     0.095 N 
HETATM   10  C6  UNL     1     -23.962   8.419 102.468  1.00  0.00     0.275 C 
HETATM   11  C7  UNL     1     -23.878   9.845 101.926  1.00  0.00     0.060 C 
HETATM   12  C8  UNL     1     -23.004   9.209 100.880  1.00  0.00     0.275 C 
ENDBRANCH   7   9
ENDBRANCH   3   7
BRANCH   4  13
HETATM   13  O3  UNL     1     -24.205   3.945 102.191  1.00  0.00    -0.390 OA
ATOM     14  H3  UNL     1     -24.429   3.100 101.820  1.00  0.00     0.210 HD
ENDBRANCH   4  13
BRANCH   1  15
HETATM   15  O1  UNL     1     -20.481   4.665 104.752  1.00  0.00    -0.363 OA
HETATM   16  C1  UNL     1     -21.312   3.674 105.241  1.00  0.00     0.204 C 
ENDBRANCH   1  15
BRANCH   5  17
HETATM   17  O4  UNL     1     -22.598   2.112 101.940  1.00  0.00    -0.390 OA
ATOM     18  H4  UNL     1     -21.956   1.420 101.837  1.00  0.00     0.210 HD
ENDBRANCH   5  17
BRANCH   6  19
HETATM   19  O5  UNL     1     -19.659   3.049 102.267  1.00  0.00    -0.388 OA
ATOM     20  H5  UNL     1     -19.153   2.729 103.004  1.00  0.00     0.210 HD
ENDBRANCH   6  19
TORSDOF 6
ENDMDL
MODEL 2
REMARK VINA RESULT: -5.605947503      3.102      5.407
REMARK  6 active torsions:
REMARK  status: ('A' for Active; 'I' for Inactive)
REMARK    1  A    between atoms: O1_2  and  C2_3 
REMARK    2  A    between atoms: C3_5  and  C4_6 
REMARK    3  A    between atoms: C4_6  and  N1_8 
REMARK    4  A    between atoms: C9_12  and  O3_13 
REMARK    5  A    between atoms: C10_15  and  O4_16 
REMARK    6  A    between atoms: C11_18  and  O5_19 
ROOT
HETATM    1  C2  UNL     1     -20.390   6.359 103.905  1.00  0.00     0.290 C 
HETATM    2  O2  UNL     1     -20.139   5.217 104.546  1.00  0.00    -0.348 OA
HETATM    3  C3  UNL     1     -20.566   4.004 104.151  1.00  0.00     0.189 C 
HETATM    4  C9  UNL     1     -20.817   3.793 102.693  1.00  0.00     0.180 C 
HETATM    5  C10 UNL     1     -21.126   5.007 101.907  1.00  0.00     0.183 C 
HETATM    6  C11 UNL     1     -20.665   6.314 102.436  1.00  0.00     0.204 C 
ENDROOT
BRANCH   3   7
HETATM    7  C4  UNL     1     -21.633   3.402 105.065  1.00  0.00     0.250 C 
HETATM    8  C5  UNL     1     -22.624   2.577 104.246  1.00  0.00     0.045 C 
BRANCH   7   9
HETATM    9  N1  UNL     1     -21.103   2.521 106.024  1.00  0.00     0.095 N 
HETATM   10  C6  UNL     1     -20.532   2.951 107.245  1.00  0.00     0.275 C 
HETATM   11  C7  UNL     1     -19.573   1.764 107.175  1.00  0.00     0.060 C 
HETATM   12  C8  UNL     1     -19.893   1.818 105.706  1.00  0.00     0.275 C 
ENDBRANCH   7   9
ENDBRANCH   3   7
BRANCH   4  13
HETATM   13  O3  UNL     1     -19.747   3.073 102.106  1.00  0.00    -0.390 OA
ATOM     14  H3  UNL     1     -19.968   2.817 101.219  1.00  0.00     0.210 HD
ENDBRANCH   4  13
BRANCH   1  15
HETATM   15  O1  UNL     1     -19.229   7.177 104.066  1.00  0.00    -0.363 OA
HETATM   16  C1  UNL     1     -19.019   7.442 105.407  1.00  0.00     0.204 C 
ENDBRANCH   1  15
BRANCH   5  17
HETATM   17  O4  UNL     1     -20.535   4.860 100.626  1.00  0.00    -0.390 OA
ATOM     18  H4  UNL     1     -20.856   5.562 100.073  1.00  0.00     0.210 HD
ENDBRANCH   5  17
BRANCH   6  19
HETATM   19  O5  UNL     1     -21.661   7.292 102.186  1.00  0.00    -0.388 OA
ATOM     20  H5  UNL     1     -22.330   6.865 101.665  1.00  0.00     0.210 HD
ENDBRANCH   6  19
TORSDOF 6
ENDMDL
MODEL 3
REMARK VINA RESULT: -5.605896921      1.187      1.520
REMARK  6 active torsions:
REMARK  status: ('A' for Active; 'I' for Inactive)
REMARK    1  A    between atoms: O1_2  and  C2_3 
REMARK    2  A    between atoms: C3_5  and  C4_6 
REMARK    3  A    between atoms: C4_6  and  N1_8 
REMARK    4  A    between atoms: C9_12  and  O3_13 
REMARK    5  A    between atoms: C10_15  and  O4_16 
REMARK    6  A    between atoms: C11_18  and  O5_19 
ROOT
HETATM    1  C2  UNL     1     -20.468   5.585 103.485  1.00  0.00     0.290 C 
HETATM    2  O2  UNL     1     -21.404   6.497 103.221  1.00  0.00    -0.348 OA
HETATM    3  C3  UNL     1     -22.545   6.256 102.550  1.00  0.00     0.189 C 
HETATM    4  C9  UNL     1     -23.100   4.869 102.591  1.00  0.00     0.180 C 
HETATM    5  C10 UNL     1     -22.125   3.789 102.857  1.00  0.00     0.183 C 
HETATM    6  C11 UNL     1     -20.867   4.145 103.557  1.00  0.00     0.204 C 
ENDROOT
BRANCH   3   7
HETATM    7  C4  UNL     1     -22.594   6.910 101.169  1.00  0.00     0.250 C 
HETATM    8  C5  UNL     1     -23.218   5.954 100.154  1.00  0.00     0.045 C 
BRANCH   7   9
HETATM    9  N1  UNL     1     -23.385   8.071 101.137  1.00  0.00     0.095 N 
HETATM   10  C6  UNL     1     -22.848   9.379 101.086  1.00  0.00     0.275 C 
HETATM   11  C7  UNL     1     -24.043   9.866 101.902  1.00  0.00     0.060 C 
HETATM   12  C8  UNL     1     -24.124   8.422 102.317  1.00  0.00     0.275 C 
ENDBRANCH   7   9
ENDBRANCH   3   7
BRANCH   4  13
HETATM   13  O3  UNL     1     -24.187   4.799 103.498  1.00  0.00    -0.390 OA
ATOM     14  H3  UNL     1     -23.919   4.373 104.304  1.00  0.00     0.210 HD
ENDBRANCH   4  13
BRANCH   1  15
HETATM   15  O1  UNL     1     -19.933   5.913 104.768  1.00  0.00    -0.363 OA
HETATM   16  C1  UNL     1     -19.484   7.221 104.773  1.00  0.00     0.204 C 
ENDBRANCH   1  15
BRANCH   5  17
HETATM   17  O4  UNL     1     -22.767   2.808 103.655  1.00  0.00    -0.390 OA
ATOM     18  H4  UNL     1     -22.190   2.598 104.380  1.00  0.00     0.210 HD
ENDBRANCH   5  17
BRANCH   6  19
HETATM   19  O5  UNL     1     -19.796   3.406 102.991  1.00  0.00    -0.388 OA
ATOM     20  H5  UNL     1     -20.189   2.788 102.386  1.00  0.00     0.210 HD
ENDBRANCH   6  19
TORSDOF 6
ENDMDL
MODEL 4
REMARK VINA RESULT: -5.526522198      3.356      5.900
REMARK  6 active torsions:
REMARK  status: ('A' for Active; 'I' for Inactive)
REMARK    1  A    between atoms: O1_2  and  C2_3 
REMARK    2  A    between atoms: C3_5  and  C4_6 
REMARK    3  A    between atoms: C4_6  and  N1_8 
REMARK    4  A    between atoms: C9_12  and  O3_13 
REMARK    5  A    between atoms: C10_15  and  O4_16 
REMARK    6  A    between atoms: C11_18  and  O5_19 
ROOT
HETATM    1  C2  UNL     1     -23.843   8.746  99.530  1.00  0.00     0.290 C 
HETATM    2  O2  UNL     1     -24.288   7.509  99.306  1.00  0.00    -0.348 OA
HETATM    3  C3  UNL     1     -24.016   6.442 100.078  1.00  0.00     0.189 C 
HETATM    4  C9  UNL     1     -23.713   6.684 101.522  1.00  0.00     0.180 C 
HETATM    5  C10 UNL     1     -23.191   8.026 101.858  1.00  0.00     0.183 C 
HETATM    6  C11 UNL     1     -23.493   9.142 100.929  1.00  0.00     0.204 C 
ENDROOT
BRANCH   3   7
HETATM    7  C4  UNL     1     -23.098   5.419  99.409  1.00  0.00     0.250 C 
HETATM    8  C5  UNL     1     -21.955   5.041 100.348  1.00  0.00     0.045 C 
BRANCH   7   9
HETATM    9  N1  UNL     1     -23.751   4.214  99.097  1.00  0.00     0.095 N 
HETATM   10  C6  UNL     1     -23.098   3.102  98.516  1.00  0.00     0.275 C 
HETATM   11  C7  UNL     1     -24.398   2.761  97.789  1.00  0.00     0.060 C 
HETATM   12  C8  UNL     1     -24.703   4.216  98.022  1.00  0.00     0.275 C 
ENDBRANCH   7   9
ENDBRANCH   3   7
BRANCH   4  13
HETATM   13  O3  UNL     1     -24.839   6.367 102.322  1.00  0.00    -0.390 OA
ATOM     14  H3  UNL     1     -25.324   7.155 102.538  1.00  0.00     0.210 HD
ENDBRANCH   4  13
BRANCH   1  15
HETATM   15  O1  UNL     1     -24.884   9.632  99.115  1.00  0.00    -0.363 OA
HETATM   16  C1  UNL     1     -25.962   9.532  99.976  1.00  0.00     0.204 C 
ENDBRANCH   1  15
BRANCH   5  17
HETATM   17  O4  UNL     1     -23.723   8.398 103.120  1.00  0.00    -0.390 OA
ATOM     18  H4  UNL     1     -24.573   7.984 103.212  1.00  0.00     0.210 HD
ENDBRANCH   5  17
BRANCH   6  19
HETATM   19  O5  UNL     1     -22.356   9.985 100.832  1.00  0.00    -0.388 OA
ATOM     20  H5  UNL     1     -22.666  10.870 100.978  1.00  0.00     0.210 HD
ENDBRANCH   6  19
TORSDOF 6
ENDMDL
MODEL 5
REMARK VINA RESULT: -5.497441749      2.810      5.737
REMARK  6 active torsions:
REMARK  status: ('A' for Active; 'I' for Inactive)
REMARK    1  A    between atoms: O1_2  and  C2_3 
REMARK    2  A    between atoms: C3_5  and  C4_6 
REMARK    3  A    between atoms: C4_6  and  N1_8 
REMARK    4  A    between atoms: C9_12  and  O3_13 
REMARK    5  A    between atoms: C10_15  and  O4_16 
REMARK    6  A    between atoms: C11_18  and  O5_19 
ROOT
HETATM    1  C2  UNL     1     -23.812   7.231  99.704  1.00  0.00     0.290 C 
HETATM    2  O2  UNL     1     -23.476   6.409 100.699  1.00  0.00    -0.348 OA
HETATM    3  C3  UNL     1     -22.780   6.770 101.793  1.00  0.00     0.189 C 
HETATM    4  C9  UNL     1     -22.867   8.193 102.238  1.00  0.00     0.180 C 
HETATM    5  C10 UNL     1     -23.213   9.179 101.191  1.00  0.00     0.183 C 
HETATM    6  C11 UNL     1     -23.937   8.694  99.991  1.00  0.00     0.204 C 
ENDROOT
BRANCH   3   7
HETATM    7  C4  UNL     1     -21.370   6.182 101.843  1.00  0.00     0.250 C 
HETATM    8  C5  UNL     1     -20.531   6.913 102.890  1.00  0.00     0.045 C 
BRANCH   7   9
HETATM    9  N1  UNL     1     -21.351   4.827 102.217  1.00  0.00     0.095 N 
HETATM   10  C6  UNL     1     -20.792   4.362 103.431  1.00  0.00     0.275 C 
HETATM   11  C7  UNL     1     -20.394   3.073 102.713  1.00  0.00     0.060 C 
HETATM   12  C8  UNL     1     -20.502   3.932 101.483  1.00  0.00     0.275 C 
ENDBRANCH   7   9
ENDBRANCH   3   7
BRANCH   4  13
HETATM   13  O3  UNL     1     -23.741   8.312 103.348  1.00  0.00    -0.390 OA
ATOM     14  H3  UNL     1     -23.855   9.225 103.584  1.00  0.00     0.210 HD
ENDBRANCH   4  13
BRANCH   1  15
HETATM   15  O1  UNL     1     -25.095   6.806  99.243  1.00  0.00    -0.363 OA
HETATM   16  C1  UNL     1     -26.084   7.304 100.073  1.00  0.00     0.204 C 
ENDBRANCH   1  15
BRANCH   5  17
HETATM   17  O4  UNL     1     -24.034  10.174 101.782  1.00  0.00    -0.390 OA
ATOM     18  H4  UNL     1     -23.965  10.961 101.256  1.00  0.00     0.210 HD
ENDBRANCH   5  17
BRANCH   6  19
HETATM   19  O5  UNL     1     -23.440   9.368  98.846  1.00  0.00    -0.388 OA
ATOM     20  H5  UNL     1     -22.782   9.977  99.160  1.00  0.00     0.210 HD
ENDBRANCH   6  19
TORSDOF 6
ENDMDL
