MODEL 1
REMARK VINA RESULT: -6.123940078      0.000      0.000
REMARK  6 active torsions:
REMARK  status: ('A' for Active; 'I' for Inactive)
REMARK    1  A    between atoms: O1_1  and  C1_3 
REMARK    2  A    between atoms: C1_3  and  C2_4 
REMARK    3  A    between atoms: C3_6  and  C4_7 
REMARK    4  A    between atoms: C4_7  and  N1_8 
REMARK    5  A    between atoms: C9_14  and  O3_15 
REMARK    6  A    between atoms: C11_18  and  O4_19 
ROOT
HETATM    1  C2  UNL     1     -19.819   1.552 106.675  1.00  0.00     0.174 C 
HETATM    2  O2  UNL     1     -19.551   2.125 105.464  1.00  0.00    -0.371 OA
HETATM    3  C3  UNL     1     -20.682   2.532 104.751  1.00  0.00     0.179 C 
HETATM    4  C9  UNL     1     -21.268   3.684 105.530  1.00  0.00     0.151 C 
HETATM    5  C10 UNL     1     -21.643   3.289 106.919  1.00  0.00     0.068 C 
HETATM    6  C11 UNL     1     -20.798   2.255 107.545  1.00  0.00     0.151 C 
ENDROOT
BRANCH   3   7
HETATM    7  C4  UNL     1     -20.234   2.885 103.385  1.00  0.00     0.306 C 
BRANCH   7   8
HETATM    8  N1  UNL     1     -21.227   3.298 102.461  1.00  0.00     0.092 N 
HETATM    9  C5  UNL     1     -21.948   2.214 101.838  1.00  0.00     0.282 C 
HETATM   10  C6  UNL     1     -22.734   2.701 100.639  1.00  0.00     0.104 C 
HETATM   11  S1  UNL     1     -23.056   4.504 100.757  1.00  0.00    -0.166 SA
HETATM   12  C7  UNL     1     -21.388   5.232 100.998  1.00  0.00     0.104 C 
HETATM   13  C8  UNL     1     -20.528   4.049 101.407  1.00  0.00     0.282 C 
ENDBRANCH   7   8
ENDBRANCH   3   7
BRANCH   4  14
HETATM   14  O3  UNL     1     -20.313   4.704 105.588  1.00  0.00    -0.393 OA
ATOM     15  H3  UNL     1     -20.037   4.801 106.493  1.00  0.00     0.210 HD
ENDBRANCH   4  14
BRANCH   1  16
HETATM   16  C1  UNL     1     -18.470   1.389 107.379  1.00  0.00     0.198 C 
BRANCH  16  17
HETATM   17  O1  UNL     1     -17.428   1.885 106.629  1.00  0.00    -0.398 OA
ATOM     18  H1  UNL     1     -16.717   2.207 107.170  1.00  0.00     0.209 HD
ENDBRANCH  16  17
ENDBRANCH   1  16
BRANCH   6  19
HETATM   19  O4  UNL     1     -21.586   1.296 108.213  1.00  0.00    -0.393 OA
ATOM     20  H4  UNL     1     -21.168   1.074 109.037  1.00  0.00     0.210 HD
ENDBRANCH   6  19
TORSDOF 6
ENDMDL
MODEL 2
REMARK VINA RESULT: -5.639443409      3.132      5.708
REMARK  6 active torsions:
REMARK  status: ('A' for Active; 'I' for Inactive)
REMARK    1  A    between atoms: O1_1  and  C1_3 
REMARK    2  A    between atoms: C1_3  and  C2_4 
REMARK    3  A    between atoms: C3_6  and  C4_7 
REMARK    4  A    between atoms: C4_7  and  N1_8 
REMARK    5  A    between atoms: C9_14  and  O3_15 
REMARK    6  A    between atoms: C11_18  and  O4_19 
ROOT
HETATM    1  C2  UNL     1     -20.672   6.276 103.422  1.00  0.00     0.174 C 
HETATM    2  O2  UNL     1     -20.224   5.025 103.736  1.00  0.00    -0.371 OA
HETATM    3  C3  UNL     1     -21.019   3.984 103.249  1.00  0.00     0.179 C 
HETATM    4  C9  UNL     1     -20.864   4.014 101.748  1.00  0.00     0.151 C 
HETATM    5  C10 UNL     1     -21.298   5.317 101.166  1.00  0.00     0.068 C 
HETATM    6  C11 UNL     1     -21.079   6.506 102.011  1.00  0.00     0.151 C 
ENDROOT
BRANCH   3   7
HETATM    7  C4  UNL     1     -20.543   2.736 103.886  1.00  0.00     0.306 C 
BRANCH   7   8
HETATM    8  N1  UNL     1     -20.443   2.726 105.301  1.00  0.00     0.092 N 
HETATM    9  C5  UNL     1     -19.635   1.654 105.832  1.00  0.00     0.282 C 
HETATM   10  C6  UNL     1     -19.847   1.500 107.324  1.00  0.00     0.104 C 
HETATM   11  S1  UNL     1     -20.489   3.055 108.057  1.00  0.00    -0.166 SA
HETATM   12  C7  UNL     1     -21.976   3.432 107.049  1.00  0.00     0.104 C 
HETATM   13  C8  UNL     1     -21.812   2.563 105.814  1.00  0.00     0.282 C 
ENDBRANCH   7   8
ENDBRANCH   3   7
BRANCH   4  14
HETATM   14  O3  UNL     1     -19.515   3.806 101.444  1.00  0.00    -0.393 OA
ATOM     15  H3  UNL     1     -19.364   4.094 100.551  1.00  0.00     0.210 HD
ENDBRANCH   4  14
BRANCH   1  16
HETATM   16  C1  UNL     1     -19.565   7.245 103.843  1.00  0.00     0.198 C 
BRANCH  16  17
HETATM   17  O1  UNL     1     -18.801   7.657 102.774  1.00  0.00    -0.398 OA
ATOM     18  H1  UNL     1     -18.787   7.016 102.074  1.00  0.00     0.209 HD
ENDBRANCH  16  17
ENDBRANCH   1  16
BRANCH   6  19
HETATM   19  O4  UNL     1     -22.206   7.352 101.993  1.00  0.00    -0.393 OA
ATOM     20  H4  UNL     1     -22.988   6.821 101.897  1.00  0.00     0.210 HD
ENDBRANCH   6  19
TORSDOF 6
ENDMDL
MODEL 3
REMARK VINA RESULT: -5.612489239      4.699      7.522
REMARK  6 active torsions:
REMARK  status: ('A' for Active; 'I' for Inactive)
REMARK    1  A    between atoms: O1_1  and  C1_3 
REMARK    2  A    between atoms: C1_3  and  C2_4 
REMARK    3  A    between atoms: C3_6  and  C4_7 
REMARK    4  A    between atoms: C4_7  and  N1_8 
REMARK    5  A    between atoms: C9_14  and  O3_15 
REMARK    6  A    between atoms: C11_18  and  O4_19 
ROOT
HETATM    1  C2  UNL     1     -23.801   7.914  99.806  1.00  0.00     0.174 C 
HETATM    2  O2  UNL     1     -23.115   7.112 100.672  1.00  0.00    -0.371 OA
HETATM    3  C3  UNL     1     -22.575   7.778 101.776  1.00  0.00     0.179 C 
HETATM    4  C9  UNL     1     -23.754   8.218 102.610  1.00  0.00     0.151 C 
HETATM    5  C10 UNL     1     -24.669   9.121 101.854  1.00  0.00     0.068 C 
HETATM    6  C11 UNL     1     -24.772   8.869 100.404  1.00  0.00     0.151 C 
ENDROOT
BRANCH   3   7
HETATM    7  C4  UNL     1     -21.667   6.829 102.457  1.00  0.00     0.306 C 
BRANCH   7   8
HETATM    8  N1  UNL     1     -21.784   5.457 102.115  1.00  0.00     0.092 N 
HETATM    9  C5  UNL     1     -21.822   4.562 103.247  1.00  0.00     0.282 C 
HETATM   10  C6  UNL     1     -21.605   3.127 102.814  1.00  0.00     0.104 C 
HETATM   11  S1  UNL     1     -22.022   2.909 101.041  1.00  0.00    -0.166 SA
HETATM   12  C7  UNL     1     -21.012   4.186 100.193  1.00  0.00     0.104 C 
HETATM   13  C8  UNL     1     -20.596   5.127 101.311  1.00  0.00     0.282 C 
ENDBRANCH   7   8
ENDBRANCH   3   7
BRANCH   4  14
HETATM   14  O3  UNL     1     -24.461   7.077 103.002  1.00  0.00    -0.393 OA
ATOM     15  H3  UNL     1     -23.886   6.540 103.535  1.00  0.00     0.210 HD
ENDBRANCH   4  14
BRANCH   1  16
HETATM   16  C1  UNL     1     -24.490   6.978  98.810  1.00  0.00     0.198 C 
BRANCH  16  17
HETATM   17  O1  UNL     1     -24.882   7.634  97.665  1.00  0.00    -0.398 OA
ATOM     18  H1  UNL     1     -25.822   7.767  97.632  1.00  0.00     0.209 HD
ENDBRANCH  16  17
ENDBRANCH   1  16
BRANCH   6  19
HETATM   19  O4  UNL     1     -24.730  10.076  99.678  1.00  0.00    -0.393 OA
ATOM     20  H4  UNL     1     -25.614  10.309  99.417  1.00  0.00     0.210 HD
ENDBRANCH   6  19
TORSDOF 6
ENDMDL
MODEL 4
REMARK VINA RESULT: -5.559886561      4.937      7.671
REMARK  6 active torsions:
REMARK  status: ('A' for Active; 'I' for Inactive)
REMARK    1  A    between atoms: O1_1  and  C1_3 
REMARK    2  A    between atoms: C1_3  and  C2_4 
REMARK    3  A    between atoms: C3_6  and  C4_7 
REMARK    4  A    between atoms: C4_7  and  N1_8 
REMARK    5  A    between atoms: C9_14  and  O3_15 
REMARK    6  A    between atoms: C11_18  and  O4_19 
ROOT
HETATM    1  C2  UNL     1     -23.454   8.824 100.137  1.00  0.00     0.174 C 
HETATM    2  O2  UNL     1     -23.295   7.470 100.042  1.00  0.00    -0.371 OA
HETATM    3  C3  UNL     1     -22.911   6.847 101.232  1.00  0.00     0.179 C 
HETATM    4  C9  UNL     1     -24.094   6.967 102.162  1.00  0.00     0.151 C 
HETATM    5  C10 UNL     1     -24.463   8.390 102.416  1.00  0.00     0.068 C 
HETATM    6  C11 UNL     1     -24.232   9.326 101.300  1.00  0.00     0.151 C 
ENDROOT
BRANCH   3   7
HETATM    7  C4  UNL     1     -22.541   5.454 100.894  1.00  0.00     0.306 C 
BRANCH   7   8
HETATM    8  N1  UNL     1     -21.909   4.686 101.906  1.00  0.00     0.092 N 
HETATM    9  C5  UNL     1     -20.640   4.119 101.516  1.00  0.00     0.282 C 
HETATM   10  C6  UNL     1     -20.195   3.054 102.498  1.00  0.00     0.104 C 
HETATM   11  S1  UNL     1     -21.007   3.286 104.126  1.00  0.00    -0.166 SA
HETATM   12  C7  UNL     1     -22.797   3.335 103.720  1.00  0.00     0.104 C 
HETATM   13  C8  UNL     1     -22.826   3.579 102.221  1.00  0.00     0.282 C 
ENDBRANCH   7   8
ENDBRANCH   3   7
BRANCH   4  14
HETATM   14  O3  UNL     1     -25.181   6.312 101.574  1.00  0.00    -0.393 OA
ATOM     15  H3  UNL     1     -24.853   5.766 100.869  1.00  0.00     0.210 HD
ENDBRANCH   4  14
BRANCH   1  16
HETATM   16  C1  UNL     1     -24.083   9.274  98.816  1.00  0.00     0.198 C 
BRANCH  16  17
HETATM   17  O1  UNL     1     -25.129  10.148  99.010  1.00  0.00    -0.398 OA
ATOM     18  H1  UNL     1     -25.814   9.773  99.553  1.00  0.00     0.209 HD
ENDBRANCH  16  17
ENDBRANCH   1  16
BRANCH   6  19
HETATM   19  O4  UNL     1     -23.644  10.522 101.759  1.00  0.00    -0.393 OA
ATOM     20  H4  UNL     1     -22.901  10.308 102.311  1.00  0.00     0.210 HD
ENDBRANCH   6  19
TORSDOF 6
ENDMDL
MODEL 5
REMARK VINA RESULT: -5.535207385      1.865      2.867
REMARK  6 active torsions:
REMARK  status: ('A' for Active; 'I' for Inactive)
REMARK    1  A    between atoms: O1_1  and  C1_3 
REMARK    2  A    between atoms: C1_3  and  C2_4 
REMARK    3  A    between atoms: C3_6  and  C4_7 
REMARK    4  A    between atoms: C4_7  and  N1_8 
REMARK    5  A    between atoms: C9_14  and  O3_15 
REMARK    6  A    between atoms: C11_18  and  O4_19 
ROOT
HETATM    1  C2  UNL     1     -21.821   2.612 106.855  1.00  0.00     0.174 C 
HETATM    2  O2  UNL     1     -22.264   2.625 105.563  1.00  0.00    -0.371 OA
HETATM    3  C3  UNL     1     -21.367   3.180 104.647  1.00  0.00     0.179 C 
HETATM    4  C9  UNL     1     -20.202   2.222 104.578  1.00  0.00     0.151 C 
HETATM    5  C10 UNL     1     -19.546   2.042 105.905  1.00  0.00     0.068 C 
HETATM    6  C11 UNL     1     -20.432   2.131 107.081  1.00  0.00     0.151 C 
ENDROOT
BRANCH   3   7
HETATM    7  C4  UNL     1     -22.095   3.347 103.369  1.00  0.00     0.306 C 
BRANCH   7   8
HETATM    8  N1  UNL     1     -22.232   4.666 102.866  1.00  0.00     0.092 N 
HETATM    9  C5  UNL     1     -23.054   4.770 101.685  1.00  0.00     0.282 C 
HETATM   10  C6  UNL     1     -22.880   6.119 101.018  1.00  0.00     0.104 C 
HETATM   11  S1  UNL     1     -22.255   7.363 102.212  1.00  0.00    -0.166 SA
HETATM   12  C7  UNL     1     -20.743   6.586 102.903  1.00  0.00     0.104 C 
HETATM   13  C8  UNL     1     -20.876   5.122 102.521  1.00  0.00     0.282 C 
ENDBRANCH   7   8
ENDBRANCH   3   7
BRANCH   4  14
HETATM   14  O3  UNL     1     -20.679   0.985 104.134  1.00  0.00    -0.393 OA
ATOM     15  H3  UNL     1     -19.932   0.445 103.901  1.00  0.00     0.210 HD
ENDBRANCH   4  14
BRANCH   1  16
HETATM   16  C1  UNL     1     -22.830   1.777 107.646  1.00  0.00     0.198 C 
BRANCH  16  17
HETATM   17  O1  UNL     1     -22.232   1.056 108.654  1.00  0.00    -0.398 OA
ATOM     18  H1  UNL     1     -22.056   0.158 108.399  1.00  0.00     0.209 HD
ENDBRANCH  16  17
ENDBRANCH   1  16
BRANCH   6  19
HETATM   19  O4  UNL     1     -19.842   2.905 108.100  1.00  0.00    -0.393 OA
ATOM     20  H4  UNL     1     -19.639   2.340 108.837  1.00  0.00     0.210 HD
ENDBRANCH   6  19
TORSDOF 6
ENDMDL
