MODEL 1
REMARK VINA RESULT: -5.819483072      0.000      0.000
REMARK  6 active torsions:
REMARK  status: ('A' for Active; 'I' for Inactive)
REMARK    1  A    between atoms: C2_2  and  C3_3 
REMARK    2  A    between atoms: C3_3  and  O1_5 
REMARK    3  A    between atoms: O1_5  and  C5_6 
REMARK    4  A    between atoms: C7_9  and  O3_10 
REMARK    5  A    between atoms: C8_12  and  O4_13 
REMARK    6  A    between atoms: N1_16  and  O5_17 
ROOT
HETATM    1  C5  UNL     1     -22.727   5.211 101.393  1.00  0.00     0.295 C 
HETATM    2  O2  UNL     1     -21.895   5.161 102.484  1.00  0.00    -0.314 OA
HETATM    3  C6  UNL     1     -21.817   3.876 102.948  1.00  0.00     0.341 A 
HETATM    4  C7  UNL     1     -22.500   2.974 101.965  1.00  0.00     0.222 C 
HETATM    5  C8  UNL     1     -22.485   3.875 100.720  1.00  0.00     0.207 C 
HETATM    6  C9  UNL     1     -21.713   3.618 104.352  1.00  0.00     0.399 A 
HETATM    7  N1  UNL     1     -21.541   2.237 104.769  1.00  0.00    -0.131 NA
HETATM    8  C11 UNL     1     -20.308   2.210 104.052  1.00  0.00     0.401 C 
HETATM    9  N2  UNL     1     -20.532   3.445 103.390  1.00  0.00     0.170 N 
ENDROOT
BRANCH   4  10
HETATM   10  O3  UNL     1     -21.837   1.792 101.741  1.00  0.00    -0.388 OA
ATOM     11  H3  UNL     1     -22.382   1.110 101.366  1.00  0.00     0.210 HD
ENDBRANCH   4  10
BRANCH   1  12
HETATM   12  O1  UNL     1     -22.455   6.278 100.551  1.00  0.00    -0.350 OA
BRANCH  12  13
HETATM   13  C3  UNL     1     -23.435   7.256 100.789  1.00  0.00     0.142 C 
HETATM   14  C4  UNL     1     -24.077   7.694  99.493  1.00  0.00     0.044 C 
BRANCH  13  15
HETATM   15  C2  UNL     1     -22.855   8.431 101.498  1.00  0.00    -0.006 C 
HETATM   16  C1  UNL     1     -22.920   9.627 100.939  1.00  0.00     0.009 C 
ENDBRANCH  13  15
ENDBRANCH  12  13
ENDBRANCH   1  12
BRANCH   5  17
HETATM   17  O4  UNL     1     -23.511   3.523  99.851  1.00  0.00    -0.388 OA
ATOM     18  H4  UNL     1     -23.911   2.692 100.079  1.00  0.00     0.210 HD
ENDBRANCH   5  17
BRANCH   7  19
HETATM   19  O5  UNL     1     -21.435   2.085 106.128  1.00  0.00    -0.305 OA
HETATM   20  C10 UNL     1     -22.293   3.011 106.726  1.00  0.00     0.230 C 
ENDBRANCH   7  19
TORSDOF 6
ENDMDL
MODEL 2
REMARK VINA RESULT: -5.815972365      3.252      4.612
REMARK  6 active torsions:
REMARK  status: ('A' for Active; 'I' for Inactive)
REMARK    1  A    between atoms: C2_2  and  C3_3 
REMARK    2  A    between atoms: C3_3  and  O1_5 
REMARK    3  A    between atoms: O1_5  and  C5_6 
REMARK    4  A    between atoms: C7_9  and  O3_10 
REMARK    5  A    between atoms: C8_12  and  O4_13 
REMARK    6  A    between atoms: N1_16  and  O5_17 
ROOT
HETATM    1  C5  UNL     1     -24.825   6.654  98.383  1.00  0.00     0.295 C 
HETATM    2  O2  UNL     1     -23.696   6.039  98.867  1.00  0.00    -0.314 OA
HETATM    3  C6  UNL     1     -23.806   4.683  98.713  1.00  0.00     0.341 A 
HETATM    4  C7  UNL     1     -25.021   4.397  97.883  1.00  0.00     0.222 C 
HETATM    5  C8  UNL     1     -25.221   5.769  97.219  1.00  0.00     0.207 C 
HETATM    6  C9  UNL     1     -23.267   3.796  99.698  1.00  0.00     0.399 A 
HETATM    7  N1  UNL     1     -23.336   2.370  99.425  1.00  0.00    -0.131 NA
HETATM    8  C11 UNL     1     -22.511   2.584  98.281  1.00  0.00     0.401 C 
HETATM    9  N2  UNL     1     -22.618   3.998  98.323  1.00  0.00     0.170 N 
ENDROOT
BRANCH   4  10
HETATM   10  O3  UNL     1     -24.836   3.406  96.949  1.00  0.00    -0.388 OA
ATOM     11  H3  UNL     1     -25.324   2.611  97.131  1.00  0.00     0.210 HD
ENDBRANCH   4  10
BRANCH   1  12
HETATM   12  O1  UNL     1     -24.603   7.965  97.993  1.00  0.00    -0.350 OA
BRANCH  12  13
HETATM   13  C3  UNL     1     -24.758   8.771  99.133  1.00  0.00     0.142 C 
HETATM   14  C4  UNL     1     -25.838   9.805  98.912  1.00  0.00     0.044 C 
BRANCH  13  15
HETATM   15  C2  UNL     1     -23.476   9.438  99.494  1.00  0.00    -0.006 C 
HETATM   16  C1  UNL     1     -23.123   9.528 100.765  1.00  0.00     0.009 C 
ENDBRANCH  13  15
ENDBRANCH  12  13
ENDBRANCH   1  12
BRANCH   5  17
HETATM   17  O4  UNL     1     -26.550   5.941  96.848  1.00  0.00    -0.388 OA
ATOM     18  H4  UNL     1     -26.964   5.125  96.593  1.00  0.00     0.210 HD
ENDBRANCH   5  17
BRANCH   7  19
HETATM   19  O5  UNL     1     -22.782   1.597 100.413  1.00  0.00    -0.305 OA
HETATM   20  C10 UNL     1     -22.646   2.396 101.551  1.00  0.00     0.230 C 
ENDBRANCH   7  19
TORSDOF 6
ENDMDL
MODEL 3
REMARK VINA RESULT: -5.810464769      3.503      6.049
REMARK  6 active torsions:
REMARK  status: ('A' for Active; 'I' for Inactive)
REMARK    1  A    between atoms: C2_2  and  C3_3 
REMARK    2  A    between atoms: C3_3  and  O1_5 
REMARK    3  A    between atoms: O1_5  and  C5_6 
REMARK    4  A    between atoms: C7_9  and  O3_10 
REMARK    5  A    between atoms: C8_12  and  O4_13 
REMARK    6  A    between atoms: N1_16  and  O5_17 
ROOT
HETATM    1  C5  UNL     1     -20.442   6.382 103.274  1.00  0.00     0.295 C 
HETATM    2  O2  UNL     1     -21.527   7.222 103.328  1.00  0.00    -0.314 OA
HETATM    3  C6  UNL     1     -22.276   7.083 102.191  1.00  0.00     0.341 A 
HETATM    4  C7  UNL     1     -21.746   5.917 101.413  1.00  0.00     0.222 C 
HETATM    5  C8  UNL     1     -20.979   5.181 102.523  1.00  0.00     0.207 C 
HETATM    6  C9  UNL     1     -22.930   8.217 101.613  1.00  0.00     0.399 A 
HETATM    7  N1  UNL     1     -23.784   7.982 100.461  1.00  0.00    -0.131 NA
HETATM    8  C11 UNL     1     -24.609   7.157 101.283  1.00  0.00     0.401 C 
HETATM    9  N2  UNL     1     -23.690   7.118 102.364  1.00  0.00     0.170 N 
ENDROOT
BRANCH   4  10
HETATM   10  O3  UNL     1     -22.725   5.124 100.865  1.00  0.00    -0.388 OA
ATOM     11  H3  UNL     1     -22.405   4.521 100.203  1.00  0.00     0.210 HD
ENDBRANCH   4  10
BRANCH   1  12
HETATM   12  O1  UNL     1     -19.956   6.042 104.528  1.00  0.00    -0.350 OA
BRANCH  12  13
HETATM   13  C3  UNL     1     -19.495   7.224 105.130  1.00  0.00     0.142 C 
HETATM   14  C4  UNL     1     -18.456   7.895 104.261  1.00  0.00     0.044 C 
BRANCH  13  15
HETATM   15  C2  UNL     1     -18.934   6.951 106.482  1.00  0.00    -0.006 C 
HETATM   16  C1  UNL     1     -17.696   7.319 106.763  1.00  0.00     0.009 C 
ENDBRANCH  13  15
ENDBRANCH  12  13
ENDBRANCH   1  12
BRANCH   5  17
HETATM   17  O4  UNL     1     -19.968   4.398 101.979  1.00  0.00    -0.388 OA
ATOM     18  H4  UNL     1     -19.159   4.453 102.474  1.00  0.00     0.210 HD
ENDBRANCH   5  17
BRANCH   7  19
HETATM   19  O5  UNL     1     -24.383   9.120  99.983  1.00  0.00    -0.305 OA
HETATM   20  C10 UNL     1     -24.021   9.257  98.640  1.00  0.00     0.230 C 
ENDBRANCH   7  19
TORSDOF 6
ENDMDL
MODEL 4
REMARK VINA RESULT: -5.796054583      0.853      1.049
REMARK  6 active torsions:
REMARK  status: ('A' for Active; 'I' for Inactive)
REMARK    1  A    between atoms: C2_2  and  C3_3 
REMARK    2  A    between atoms: C3_3  and  O1_5 
REMARK    3  A    between atoms: O1_5  and  C5_6 
REMARK    4  A    between atoms: C7_9  and  O3_10 
REMARK    5  A    between atoms: C8_12  and  O4_13 
REMARK    6  A    between atoms: N1_16  and  O5_17 
ROOT
HETATM    1  C5  UNL     1     -22.745   5.830 102.155  1.00  0.00     0.295 C 
HETATM    2  O2  UNL     1     -21.790   5.544 103.099  1.00  0.00    -0.314 OA
HETATM    3  C6  UNL     1     -21.809   4.206 103.386  1.00  0.00     0.341 A 
HETATM    4  C7  UNL     1     -22.720   3.525 102.409  1.00  0.00     0.222 C 
HETATM    5  C8  UNL     1     -22.758   4.583 101.295  1.00  0.00     0.207 C 
HETATM    6  C9  UNL     1     -21.555   3.747 104.717  1.00  0.00     0.399 A 
HETATM    7  N1  UNL     1     -21.499   2.311 104.932  1.00  0.00    -0.131 NA
HETATM    8  C11 UNL     1     -20.382   2.256 104.045  1.00  0.00     0.401 C 
HETATM    9  N2  UNL     1     -20.539   3.587 103.580  1.00  0.00     0.170 N 
ENDROOT
BRANCH   4  10
HETATM   10  O3  UNL     1     -22.241   2.322 101.948  1.00  0.00    -0.388 OA
ATOM     11  H3  UNL     1     -22.639   2.036 101.134  1.00  0.00     0.210 HD
ENDBRANCH   4  10
BRANCH   1  12
HETATM   12  O1  UNL     1     -22.457   6.970 101.420  1.00  0.00    -0.350 OA
BRANCH  12  13
HETATM   13  C3  UNL     1     -23.075   8.051 102.070  1.00  0.00     0.142 C 
HETATM   14  C4  UNL     1     -24.532   7.749 102.339  1.00  0.00     0.044 C 
BRANCH  13  15
HETATM   15  C2  UNL     1     -22.950   9.299 101.267  1.00  0.00    -0.006 C 
HETATM   16  C1  UNL     1     -23.413   9.329 100.030  1.00  0.00     0.009 C 
ENDBRANCH  13  15
ENDBRANCH  12  13
ENDBRANCH   1  12
BRANCH   5  17
HETATM   17  O4  UNL     1     -23.924   4.462 100.549  1.00  0.00    -0.388 OA
ATOM     18  H4  UNL     1     -23.776   4.590  99.620  1.00  0.00     0.210 HD
ENDBRANCH   5  17
BRANCH   7  19
HETATM   19  O5  UNL     1     -21.235   1.962 106.232  1.00  0.00    -0.305 OA
HETATM   20  C10 UNL     1     -21.940   2.841 107.058  1.00  0.00     0.230 C 
ENDBRANCH   7  19
TORSDOF 6
ENDMDL
MODEL 5
REMARK VINA RESULT: -5.757431039      1.950      3.263
REMARK  6 active torsions:
REMARK  status: ('A' for Active; 'I' for Inactive)
REMARK    1  A    between atoms: C2_2  and  C3_3 
REMARK    2  A    between atoms: C3_3  and  O1_5 
REMARK    3  A    between atoms: O1_5  and  C5_6 
REMARK    4  A    between atoms: C7_9  and  O3_10 
REMARK    5  A    between atoms: C8_12  and  O4_13 
REMARK    6  A    between atoms: N1_16  and  O5_17 
ROOT
HETATM    1  C5  UNL     1     -22.215   6.512 102.133  1.00  0.00     0.295 C 
HETATM    2  O2  UNL     1     -22.971   5.372 102.248  1.00  0.00    -0.314 OA
HETATM    3  C6  UNL     1     -22.155   4.273 102.253  1.00  0.00     0.341 A 
HETATM    4  C7  UNL     1     -20.733   4.740 102.346  1.00  0.00     0.222 C 
HETATM    5  C8  UNL     1     -20.952   6.159 102.893  1.00  0.00     0.207 C 
HETATM    6  C9  UNL     1     -22.573   3.057 101.625  1.00  0.00     0.399 A 
HETATM    7  N1  UNL     1     -21.698   1.904 101.749  1.00  0.00    -0.131 NA
HETATM    8  C11 UNL     1     -21.887   1.955 103.163  1.00  0.00     0.401 C 
HETATM    9  N2  UNL     1     -22.520   3.225 103.148  1.00  0.00     0.170 N 
ENDROOT
BRANCH   4  10
HETATM   10  O3  UNL     1     -19.955   3.986 103.192  1.00  0.00    -0.388 OA
ATOM     11  H3  UNL     1     -19.464   4.501 103.822  1.00  0.00     0.210 HD
ENDBRANCH   4  10
BRANCH   1  12
HETATM   12  O1  UNL     1     -22.842   7.634 102.653  1.00  0.00    -0.350 OA
BRANCH  12  13
HETATM   13  C3  UNL     1     -22.902   8.590 101.625  1.00  0.00     0.142 C 
HETATM   14  C4  UNL     1     -23.858   9.703 101.988  1.00  0.00     0.044 C 
BRANCH  13  15
HETATM   15  C2  UNL     1     -23.310   7.964 100.337  1.00  0.00    -0.006 C 
HETATM   16  C1  UNL     1     -23.904   8.699  99.413  1.00  0.00     0.009 C 
ENDBRANCH  13  15
ENDBRANCH  12  13
ENDBRANCH   1  12
BRANCH   5  17
HETATM   17  O4  UNL     1     -19.882   6.980 102.557  1.00  0.00    -0.388 OA
ATOM     18  H4  UNL     1     -20.139   7.889 102.456  1.00  0.00     0.210 HD
ENDBRANCH   5  17
BRANCH   7  19
HETATM   19  O5  UNL     1     -22.184   0.780 101.132  1.00  0.00    -0.305 OA
HETATM   20  C10 UNL     1     -23.031   1.195 100.101  1.00  0.00     0.230 C 
ENDBRANCH   7  19
TORSDOF 6
ENDMDL
