MODEL 1
REMARK VINA RESULT: -6.307944493      0.000      0.000
REMARK  4 active torsions:
REMARK  status: ('A' for Active; 'I' for Inactive)
REMARK    1  A    between atoms: S1_2  and  O4_5 
REMARK    2  A    between atoms: O4_5  and  C1_6 
REMARK    3  A    between atoms: C2_7  and  O5_8 
REMARK    4  A    between atoms: C7_15  and  O7_16 
ROOT
HETATM    1  C1  UNL     1     -22.150   3.994 103.456  1.00  0.00     0.238 C 
HETATM    2  C2  UNL     1     -20.736   4.439 103.640  1.00  0.00     0.290 C 
HETATM    3  O6  UNL     1     -20.321   5.466 102.871  1.00  0.00    -0.358 OA
HETATM    4  C3  UNL     1     -21.297   6.286 102.351  1.00  0.00     0.179 C 
HETATM    5  C4  UNL     1     -21.928   5.721 101.095  1.00  0.00     0.035 C 
HETATM    6  C5  UNL     1     -21.019   4.630 100.605  1.00  0.00    -0.021 C 
HETATM    7  C6  UNL     1     -21.367   3.474 101.152  1.00  0.00     0.010 C 
HETATM    8  C7  UNL     1     -22.512   3.661 102.043  1.00  0.00     0.108 C 
HETATM    9  C8  UNL     1     -23.179   4.905 101.440  1.00  0.00     0.055 C 
ENDROOT
BRANCH   1  10
HETATM   10  O4  UNL     1     -22.322   2.823 104.212  1.00  0.00    -0.243 OA
BRANCH  10  11
HETATM   11  S1  UNL     1     -23.376   3.047 105.484  1.00  0.00     0.252 S 
HETATM   12  O1  UNL     1     -22.594   3.697 106.602  1.00  0.00    -0.572 OA
HETATM   13  O2  UNL     1     -23.872   1.712 105.978  1.00  0.00    -0.572 OA
HETATM   14  O3  UNL     1     -24.640   4.078 105.104  1.00  0.00    -0.572 OA
ENDBRANCH  10  11
ENDBRANCH   1  10
BRANCH   2  15
HETATM   15  O5  UNL     1     -19.889   3.327 103.443  1.00  0.00    -0.368 OA
ATOM     16  H5  UNL     1     -19.300   3.522 102.724  1.00  0.00     0.212 HD
ENDBRANCH   2  15
BRANCH   8  17
HETATM   17  O7  UNL     1     -23.444   2.616 101.957  1.00  0.00    -0.383 OA
ATOM     18  H7  UNL     1     -23.773   2.492 101.074  1.00  0.00     0.211 HD
ENDBRANCH   8  17
TORSDOF 4
ENDMDL
MODEL 2
REMARK VINA RESULT: -6.118709430      5.241      6.726
REMARK  4 active torsions:
REMARK  status: ('A' for Active; 'I' for Inactive)
REMARK    1  A    between atoms: S1_2  and  O4_5 
REMARK    2  A    between atoms: O4_5  and  C1_6 
REMARK    3  A    between atoms: C2_7  and  O5_8 
REMARK    4  A    between atoms: C7_15  and  O7_16 
ROOT
HETATM    1  C1  UNL     1     -24.721   7.366  99.716  1.00  0.00     0.238 C 
HETATM    2  C2  UNL     1     -23.912   6.641 100.742  1.00  0.00     0.290 C 
HETATM    3  O6  UNL     1     -23.925   7.151 101.991  1.00  0.00    -0.358 OA
HETATM    4  C3  UNL     1     -24.986   7.963 102.319  1.00  0.00     0.179 C 
HETATM    5  C4  UNL     1     -24.802   9.389 101.839  1.00  0.00     0.035 C 
HETATM    6  C5  UNL     1     -23.348   9.547 101.496  1.00  0.00    -0.021 C 
HETATM    7  C6  UNL     1     -23.146   9.223 100.226  1.00  0.00     0.010 C 
HETATM    8  C7  UNL     1     -24.407   8.823  99.601  1.00  0.00     0.108 C 
HETATM    9  C8  UNL     1     -25.434   9.578 100.455  1.00  0.00     0.055 C 
ENDROOT
BRANCH   1  10
HETATM   10  O4  UNL     1     -24.436   6.783  98.470  1.00  0.00    -0.243 OA
BRANCH  10  11
HETATM   11  S1  UNL     1     -25.798   6.152  97.746  1.00  0.00     0.252 S 
HETATM   12  O1  UNL     1     -26.738   7.306  97.481  1.00  0.00    -0.572 OA
HETATM   13  O2  UNL     1     -26.485   5.200  98.691  1.00  0.00    -0.572 OA
HETATM   14  O3  UNL     1     -25.471   5.434  96.269  1.00  0.00    -0.572 OA
ENDBRANCH  10  11
ENDBRANCH   1  10
BRANCH   2  15
HETATM   15  O5  UNL     1     -22.581   6.552 100.279  1.00  0.00    -0.368 OA
ATOM     16  H5  UNL     1     -22.566   5.986  99.517  1.00  0.00     0.212 HD
ENDBRANCH   2  15
BRANCH   8  17
HETATM   17  O7  UNL     1     -24.538   9.302  98.288  1.00  0.00    -0.383 OA
ATOM     18  H7  UNL     1     -24.072  10.118  98.149  1.00  0.00     0.211 HD
ENDBRANCH   8  17
TORSDOF 4
ENDMDL
MODEL 3
REMARK VINA RESULT: -6.091626411      1.671      2.318
REMARK  4 active torsions:
REMARK  status: ('A' for Active; 'I' for Inactive)
REMARK    1  A    between atoms: S1_2  and  O4_5 
REMARK    2  A    between atoms: O4_5  and  C1_6 
REMARK    3  A    between atoms: C2_7  and  O5_8 
REMARK    4  A    between atoms: C7_15  and  O7_16 
ROOT
HETATM    1  C1  UNL     1     -21.152   4.366 103.087  1.00  0.00     0.238 C 
HETATM    2  C2  UNL     1     -21.256   5.819 102.757  1.00  0.00     0.290 C 
HETATM    3  O6  UNL     1     -21.976   6.140 101.663  1.00  0.00    -0.358 OA
HETATM    4  C3  UNL     1     -22.898   5.213 101.232  1.00  0.00     0.179 C 
HETATM    5  C4  UNL     1     -22.276   4.119 100.388  1.00  0.00     0.035 C 
HETATM    6  C5  UNL     1     -20.918   4.609  99.973  1.00  0.00    -0.021 C 
HETATM    7  C6  UNL     1     -20.015   4.256 100.877  1.00  0.00     0.010 C 
HETATM    8  C7  UNL     1     -20.653   3.514 101.964  1.00  0.00     0.108 C 
HETATM    9  C8  UNL     1     -21.882   2.922 101.262  1.00  0.00     0.055 C 
ENDROOT
BRANCH   1  10
HETATM   10  O4  UNL     1     -20.232   4.240 104.140  1.00  0.00    -0.243 OA
BRANCH  10  11
HETATM   11  S1  UNL     1     -20.902   3.497 105.473  1.00  0.00     0.252 S 
HETATM   12  O1  UNL     1     -20.081   3.910 106.674  1.00  0.00    -0.572 OA
HETATM   13  O2  UNL     1     -20.797   2.000 105.331  1.00  0.00    -0.572 OA
HETATM   14  O3  UNL     1     -22.478   3.985 105.763  1.00  0.00    -0.572 OA
ENDBRANCH  10  11
ENDBRANCH   1  10
BRANCH   2  15
HETATM   15  O5  UNL     1     -19.950   6.343 102.636  1.00  0.00    -0.368 OA
ATOM     16  H5  UNL     1     -19.912   6.874 101.849  1.00  0.00     0.212 HD
ENDBRANCH   2  15
BRANCH   8  17
HETATM   17  O7  UNL     1     -19.878   2.432 102.411  1.00  0.00    -0.383 OA
ATOM     18  H7  UNL     1     -19.133   2.707 102.932  1.00  0.00     0.211 HD
ENDBRANCH   8  17
TORSDOF 4
ENDMDL
MODEL 4
REMARK VINA RESULT: -6.074980673      1.598      3.233
REMARK  4 active torsions:
REMARK  status: ('A' for Active; 'I' for Inactive)
REMARK    1  A    between atoms: S1_2  and  O4_5 
REMARK    2  A    between atoms: O4_5  and  C1_6 
REMARK    3  A    between atoms: C2_7  and  O5_8 
REMARK    4  A    between atoms: C7_15  and  O7_16 
ROOT
HETATM    1  C1  UNL     1     -22.087   4.381 102.931  1.00  0.00     0.238 C 
HETATM    2  C2  UNL     1     -23.574   4.367 102.789  1.00  0.00     0.290 C 
HETATM    3  O6  UNL     1     -24.062   4.478 101.537  1.00  0.00    -0.358 OA
HETATM    4  C3  UNL     1     -23.214   4.138 100.507  1.00  0.00     0.179 C 
HETATM    5  C4  UNL     1     -22.264   5.260 100.138  1.00  0.00     0.035 C 
HETATM    6  C5  UNL     1     -22.813   6.515 100.755  1.00  0.00    -0.021 C 
HETATM    7  C6  UNL     1     -22.322   6.667 101.978  1.00  0.00     0.010 C 
HETATM    8  C7  UNL     1     -21.420   5.562 102.301  1.00  0.00     0.108 C 
HETATM    9  C8  UNL     1     -20.946   5.126 100.909  1.00  0.00     0.055 C 
ENDROOT
BRANCH   1  10
HETATM   10  O4  UNL     1     -21.799   4.429 104.305  1.00  0.00    -0.243 OA
BRANCH  10  11
HETATM   11  S1  UNL     1     -20.847   3.150 104.791  1.00  0.00     0.252 S 
HETATM   12  O1  UNL     1     -19.734   3.011 103.777  1.00  0.00    -0.572 OA
HETATM   13  O2  UNL     1     -21.653   1.877 104.774  1.00  0.00    -0.572 OA
HETATM   14  O3  UNL     1     -20.126   3.409 106.280  1.00  0.00    -0.572 OA
ENDBRANCH  10  11
ENDBRANCH   1  10
BRANCH   2  15
HETATM   15  O5  UNL     1     -24.110   5.391 103.599  1.00  0.00    -0.368 OA
ATOM     16  H5  UNL     1     -24.503   4.992 104.366  1.00  0.00     0.212 HD
ENDBRANCH   2  15
BRANCH   8  17
HETATM   17  O7  UNL     1     -20.282   5.979 103.008  1.00  0.00    -0.383 OA
ATOM     18  H7  UNL     1     -19.479   5.852 102.516  1.00  0.00     0.211 HD
ENDBRANCH   8  17
TORSDOF 4
ENDMDL
MODEL 5
REMARK VINA RESULT: -6.045781263      3.905      5.643
REMARK  4 active torsions:
REMARK  status: ('A' for Active; 'I' for Inactive)
REMARK    1  A    between atoms: S1_2  and  O4_5 
REMARK    2  A    between atoms: O4_5  and  C1_6 
REMARK    3  A    between atoms: C2_7  and  O5_8 
REMARK    4  A    between atoms: C7_15  and  O7_16 
ROOT
HETATM    1  C1  UNL     1     -23.162   7.679 101.071  1.00  0.00     0.238 C 
HETATM    2  C2  UNL     1     -24.306   6.992 101.741  1.00  0.00     0.290 C 
HETATM    3  O6  UNL     1     -25.494   7.035 101.103  1.00  0.00    -0.358 OA
HETATM    4  C3  UNL     1     -25.464   7.278  99.749  1.00  0.00     0.179 C 
HETATM    5  C4  UNL     1     -25.339   8.752  99.422  1.00  0.00     0.035 C 
HETATM    6  C5  UNL     1     -25.676   9.506 100.677  1.00  0.00    -0.021 C 
HETATM    7  C6  UNL     1     -24.579   9.698 101.396  1.00  0.00     0.010 C 
HETATM    8  C7  UNL     1     -23.423   9.110 100.721  1.00  0.00     0.108 C 
HETATM    9  C8  UNL     1     -23.866   9.144  99.252  1.00  0.00     0.055 C 
ENDROOT
BRANCH   1  10
HETATM   10  O4  UNL     1     -22.082   7.665 101.967  1.00  0.00    -0.243 OA
BRANCH  10  11
HETATM   11  S1  UNL     1     -21.420   6.144 102.128  1.00  0.00     0.252 S 
HETATM   12  O1  UNL     1     -19.968   6.327 102.508  1.00  0.00    -0.572 OA
HETATM   13  O2  UNL     1     -21.467   5.422 100.806  1.00  0.00    -0.572 OA
HETATM   14  O3  UNL     1     -22.139   5.251 103.349  1.00  0.00    -0.572 OA
ENDBRANCH  10  11
ENDBRANCH   1  10
BRANCH   2  15
HETATM   15  O5  UNL     1     -24.447   7.523 103.041  1.00  0.00    -0.368 OA
ATOM     16  H5  UNL     1     -24.820   6.852 103.601  1.00  0.00     0.212 HD
ENDBRANCH   2  15
BRANCH   8  17
HETATM   17  O7  UNL     1     -22.273   9.908 100.818  1.00  0.00    -0.383 OA
ATOM     18  H7  UNL     1     -22.424  10.708 101.308  1.00  0.00     0.211 HD
ENDBRANCH   8  17
TORSDOF 4
ENDMDL
