MODEL 1
REMARK VINA RESULT: -7.909738724      0.000      0.000
REMARK  5 active torsions:
REMARK  status: ('A' for Active; 'I' for Inactive)
REMARK    1  A    between atoms: C2_2  and  O1_3 
REMARK    2  A    between atoms: O1_3  and  C3_4 
REMARK    3  A    between atoms: C3_4  and  C4_6 
REMARK    4  A    between atoms: C7_10  and  N1_11 
REMARK       I    between atoms: N2_13  and  C8_15 
REMARK    5  A    between atoms: C8_15  and  C9_17 
REMARK       I    between atoms: C9_17  and  N3_19 
ROOT
HETATM    1  N1  UNL     1     -21.430  33.901   3.599  1.00  0.00    -0.294 N 
ATOM      2  H1  UNL     1     -20.656  33.768   4.250  1.00  0.00     0.187 HD
HETATM    3  N2  UNL     1     -22.396  34.659   3.899  1.00  0.00    -0.261 N 
ATOM      4  H2  UNL     1     -22.400  35.139   4.799  1.00  0.00     0.190 HD
HETATM    5  C8  UNL     1     -23.494  34.852   2.985  1.00  0.00     0.328 C 
HETATM    6  O3  UNL     1     -24.227  33.900   2.697  1.00  0.00    -0.261 OA
ENDROOT
BRANCH   1   7
HETATM    7  C7  UNL     1     -21.437  33.244   2.352  1.00  0.00     0.091 A 
HETATM    8  C6  UNL     1     -21.206  33.991   1.206  1.00  0.00     0.060 A 
HETATM    9  C5  UNL     1     -21.209  33.379  -0.009  1.00  0.00     0.069 A 
HETATM   10  C4  UNL     1     -21.446  31.993  -0.079  1.00  0.00     0.133 A 
HETATM   11 CL1  UNL     1     -20.917  34.305  -1.493  1.00  0.00    -0.082 Cl
HETATM   12  N5  UNL     1     -21.665  31.303   1.049  1.00  0.00    -0.332 N 
HETATM   13  C16 UNL     1     -21.669  31.891   2.282  1.00  0.00     0.147 A 
HETATM   14  C17 UNL     1     -21.909  29.865   0.948  1.00  0.00     0.158 C 
HETATM   15  N4  UNL     1     -21.908  31.095   3.428  1.00  0.00    -0.080 NA
BRANCH  10  16
HETATM   16  C3  UNL     1     -21.433  31.409  -1.399  1.00  0.00     0.311 C 
HETATM   17  O2  UNL     1     -20.674  30.481  -1.700  1.00  0.00    -0.258 OA
BRANCH  16  18
HETATM   18  O1  UNL     1     -22.283  31.880  -2.376  1.00  0.00    -0.317 OA
BRANCH  18  19
HETATM   19  C2  UNL     1     -21.931  31.923  -3.751  1.00  0.00     0.175 C 
HETATM   20  C1  UNL     1     -22.680  33.058  -4.384  1.00  0.00     0.034 C 
ENDBRANCH  18  19
ENDBRANCH  16  18
ENDBRANCH  10  16
ENDBRANCH   1   7
BRANCH   5  21
HETATM   21  C9  UNL     1     -23.692  36.167   2.433  1.00  0.00     0.313 C 
HETATM   22  O4  UNL     1     -23.432  36.407   1.200  1.00  0.00    -0.262 OA
HETATM   23  N3  UNL     1     -24.171  37.247   3.203  1.00  0.00    -0.344 N 
HETATM   24  C10 UNL     1     -24.485  37.059   4.599  1.00  0.00     0.126 C 
HETATM   25  C15 UNL     1     -24.304  38.497   2.466  1.00  0.00     0.126 C 
HETATM   26  C11 UNL     1     -25.023  38.361   5.157  1.00  0.00     0.020 C 
HETATM   27  C12 UNL     1     -23.892  39.303   5.403  1.00  0.00     0.002 C 
HETATM   28  C13 UNL     1     -22.817  39.230   4.353  1.00  0.00     0.002 C 
HETATM   29  C14 UNL     1     -23.343  39.526   2.969  1.00  0.00     0.020 C 
ENDBRANCH   5  21
TORSDOF 5
ENDMDL
MODEL 2
REMARK VINA RESULT: -7.845367526      4.519      7.033
REMARK  5 active torsions:
REMARK  status: ('A' for Active; 'I' for Inactive)
REMARK    1  A    between atoms: C2_2  and  O1_3 
REMARK    2  A    between atoms: O1_3  and  C3_4 
REMARK    3  A    between atoms: C3_4  and  C4_6 
REMARK    4  A    between atoms: C7_10  and  N1_11 
REMARK       I    between atoms: N2_13  and  C8_15 
REMARK    5  A    between atoms: C8_15  and  C9_17 
REMARK       I    between atoms: C9_17  and  N3_19 
ROOT
HETATM    1  N1  UNL     1     -23.850  32.156   4.240  1.00  0.00    -0.294 N 
ATOM      2  H1  UNL     1     -24.815  31.933   4.488  1.00  0.00     0.187 HD
HETATM    3  N2  UNL     1     -23.557  32.511   3.063  1.00  0.00    -0.261 N 
ATOM      4  H2  UNL     1     -24.291  32.575   2.358  1.00  0.00     0.190 HD
HETATM    5  C8  UNL     1     -22.196  32.827   2.706  1.00  0.00     0.328 C 
HETATM    6  O3  UNL     1     -21.333  31.943   2.739  1.00  0.00    -0.261 OA
ENDROOT
BRANCH   1   7
HETATM    7  C7  UNL     1     -22.827  32.073   5.206  1.00  0.00     0.091 A 
HETATM    8  C6  UNL     1     -22.424  33.234   5.849  1.00  0.00     0.060 A 
HETATM    9  C5  UNL     1     -21.437  33.178   6.784  1.00  0.00     0.069 A 
HETATM   10  C4  UNL     1     -20.843  31.937   7.082  1.00  0.00     0.133 A 
HETATM   11 CL1  UNL     1     -20.898  34.645   7.624  1.00  0.00    -0.082 Cl
HETATM   12  N5  UNL     1     -21.258  30.836   6.442  1.00  0.00    -0.332 N 
HETATM   13  C16 UNL     1     -22.245  30.862   5.498  1.00  0.00     0.147 A 
HETATM   14  C17 UNL     1     -20.623  29.560   6.770  1.00  0.00     0.158 C 
HETATM   15  N4  UNL     1     -22.630  29.655   4.864  1.00  0.00    -0.080 NA
BRANCH  10  16
HETATM   16  C3  UNL     1     -19.804  31.951   8.085  1.00  0.00     0.311 C 
HETATM   17  O2  UNL     1     -20.035  31.706   9.274  1.00  0.00    -0.258 OA
BRANCH  16  18
HETATM   18  O1  UNL     1     -18.504  32.243   7.735  1.00  0.00    -0.317 OA
BRANCH  18  19
HETATM   19  C2  UNL     1     -17.505  32.583   8.686  1.00  0.00     0.175 C 
HETATM   20  C1  UNL     1     -17.445  34.079   8.778  1.00  0.00     0.034 C 
ENDBRANCH  18  19
ENDBRANCH  16  18
ENDBRANCH  10  16
ENDBRANCH   1   7
BRANCH   5  21
HETATM   21  C9  UNL     1     -21.894  34.180   2.322  1.00  0.00     0.313 C 
HETATM   22  O4  UNL     1     -21.816  35.111   3.202  1.00  0.00    -0.262 OA
HETATM   23  N3  UNL     1     -21.673  34.556   0.980  1.00  0.00    -0.344 N 
HETATM   24  C10 UNL     1     -21.744  33.568  -0.069  1.00  0.00     0.126 C 
HETATM   25  C15 UNL     1     -21.382  35.971   0.794  1.00  0.00     0.126 C 
HETATM   26  C11 UNL     1     -21.415  34.236  -1.390  1.00  0.00     0.020 C 
HETATM   27  C12 UNL     1     -22.598  35.014  -1.863  1.00  0.00     0.002 C 
HETATM   28  C13 UNL     1     -23.345  35.696  -0.749  1.00  0.00     0.002 C 
HETATM   29  C14 UNL     1     -22.472  36.652   0.029  1.00  0.00     0.020 C 
ENDBRANCH   5  21
TORSDOF 5
ENDMDL
MODEL 3
REMARK VINA RESULT: -7.789261243      4.519      7.113
REMARK  5 active torsions:
REMARK  status: ('A' for Active; 'I' for Inactive)
REMARK    1  A    between atoms: C2_2  and  O1_3 
REMARK    2  A    between atoms: O1_3  and  C3_4 
REMARK    3  A    between atoms: C3_4  and  C4_6 
REMARK    4  A    between atoms: C7_10  and  N1_11 
REMARK       I    between atoms: N2_13  and  C8_15 
REMARK    5  A    between atoms: C8_15  and  C9_17 
REMARK       I    between atoms: C9_17  and  N3_19 
ROOT
HETATM    1  N1  UNL     1     -23.859  32.183   4.253  1.00  0.00    -0.294 N 
ATOM      2  H1  UNL     1     -24.817  31.956   4.522  1.00  0.00     0.187 HD
HETATM    3  N2  UNL     1     -23.591  32.531   3.068  1.00  0.00    -0.261 N 
ATOM      4  H2  UNL     1     -24.340  32.584   2.377  1.00  0.00     0.190 HD
HETATM    5  C8  UNL     1     -22.240  32.853   2.681  1.00  0.00     0.328 C 
HETATM    6  O3  UNL     1     -21.370  31.975   2.704  1.00  0.00    -0.261 OA
ENDROOT
BRANCH   1   7
HETATM    7  C7  UNL     1     -22.816  32.114   5.198  1.00  0.00     0.091 A 
HETATM    8  C6  UNL     1     -22.410  33.283   5.825  1.00  0.00     0.060 A 
HETATM    9  C5  UNL     1     -21.404  33.241   6.741  1.00  0.00     0.069 A 
HETATM   10  C4  UNL     1     -20.795  32.007   7.036  1.00  0.00     0.133 A 
HETATM   11 CL1  UNL     1     -20.860  34.718   7.560  1.00  0.00    -0.082 Cl
HETATM   12  N5  UNL     1     -21.213  30.898   6.411  1.00  0.00    -0.332 N 
HETATM   13  C16 UNL     1     -22.220  30.910   5.488  1.00  0.00     0.147 A 
HETATM   14  C17 UNL     1     -20.563  29.629   6.736  1.00  0.00     0.158 C 
HETATM   15  N4  UNL     1     -22.607  29.696   4.869  1.00  0.00    -0.080 NA
BRANCH  10  16
HETATM   16  C3  UNL     1     -19.736  32.036   8.018  1.00  0.00     0.311 C 
HETATM   17  O2  UNL     1     -18.553  32.212   7.704  1.00  0.00    -0.258 OA
BRANCH  16  18
HETATM   18  O1  UNL     1     -20.022  31.864   9.354  1.00  0.00    -0.317 OA
BRANCH  18  19
HETATM   19  C2  UNL     1     -21.316  31.523   9.830  1.00  0.00     0.175 C 
HETATM   20  C1  UNL     1     -21.884  32.724  10.526  1.00  0.00     0.034 C 
ENDBRANCH  18  19
ENDBRANCH  16  18
ENDBRANCH  10  16
ENDBRANCH   1   7
BRANCH   5  21
HETATM   21  C9  UNL     1     -21.955  34.205   2.280  1.00  0.00     0.313 C 
HETATM   22  O4  UNL     1     -21.928  35.154   3.144  1.00  0.00    -0.262 OA
HETATM   23  N3  UNL     1     -21.697  34.561   0.940  1.00  0.00    -0.344 N 
HETATM   24  C10 UNL     1     -21.711  33.551  -0.092  1.00  0.00     0.126 C 
HETATM   25  C15 UNL     1     -21.431  35.978   0.735  1.00  0.00     0.126 C 
HETATM   26  C11 UNL     1     -21.352  34.201  -1.414  1.00  0.00     0.020 C 
HETATM   27  C12 UNL     1     -22.535  34.943  -1.941  1.00  0.00     0.002 C 
HETATM   28  C13 UNL     1     -23.334  35.629  -0.867  1.00  0.00     0.002 C 
HETATM   29  C14 UNL     1     -22.509  36.619  -0.079  1.00  0.00     0.020 C 
ENDBRANCH   5  21
TORSDOF 5
ENDMDL
MODEL 4
REMARK VINA RESULT: -7.751719435      2.654      6.735
REMARK  5 active torsions:
REMARK  status: ('A' for Active; 'I' for Inactive)
REMARK    1  A    between atoms: C2_2  and  O1_3 
REMARK    2  A    between atoms: O1_3  and  C3_4 
REMARK    3  A    between atoms: C3_4  and  C4_6 
REMARK    4  A    between atoms: C7_10  and  N1_11 
REMARK       I    between atoms: N2_13  and  C8_15 
REMARK    5  A    between atoms: C8_15  and  C9_17 
REMARK       I    between atoms: C9_17  and  N3_19 
ROOT
HETATM    1  N1  UNL     1     -22.146  37.747  -0.310  1.00  0.00    -0.294 N 
ATOM      2  H1  UNL     1     -21.899  38.736  -0.285  1.00  0.00     0.187 HD
HETATM    3  N2  UNL     1     -22.417  37.182  -1.407  1.00  0.00    -0.261 N 
ATOM      4  H2  UNL     1     -22.388  37.721  -2.273  1.00  0.00     0.190 HD
HETATM    5  C8  UNL     1     -22.767  35.784  -1.450  1.00  0.00     0.328 C 
HETATM    6  O3  UNL     1     -23.805  35.395  -0.903  1.00  0.00    -0.261 OA
ENDROOT
BRANCH   1   7
HETATM    7  C7  UNL     1     -22.189  36.991   0.879  1.00  0.00     0.091 A 
HETATM    8  C6  UNL     1     -21.138  36.130   1.158  1.00  0.00     0.060 A 
HETATM    9  C5  UNL     1     -21.158  35.389   2.299  1.00  0.00     0.069 A 
HETATM   10  C4  UNL     1     -22.250  35.512   3.178  1.00  0.00     0.133 A 
HETATM   11 CL1  UNL     1     -19.829  34.280   2.684  1.00  0.00    -0.082 Cl
HETATM   12  N5  UNL     1     -23.248  36.353   2.877  1.00  0.00    -0.332 N 
HETATM   13  C16 UNL     1     -23.255  37.109   1.739  1.00  0.00     0.147 A 
HETATM   14  C17 UNL     1     -24.371  36.462   3.807  1.00  0.00     0.158 C 
HETATM   15  N4  UNL     1     -24.347  37.976   1.489  1.00  0.00    -0.080 NA
BRANCH  10  16
HETATM   16  C3  UNL     1     -22.205  34.698   4.370  1.00  0.00     0.311 C 
HETATM   17  O2  UNL     1     -21.681  35.094   5.417  1.00  0.00    -0.258 OA
BRANCH  16  18
HETATM   18  O1  UNL     1     -22.757  33.436   4.371  1.00  0.00    -0.317 OA
BRANCH  18  19
HETATM   19  C2  UNL     1     -23.201  32.786   3.188  1.00  0.00     0.175 C 
HETATM   20  C1  UNL     1     -22.797  31.344   3.275  1.00  0.00     0.034 C 
ENDBRANCH  18  19
ENDBRANCH  16  18
ENDBRANCH  10  16
ENDBRANCH   1   7
BRANCH   5  21
HETATM   21  C9  UNL     1     -21.879  34.884  -2.137  1.00  0.00     0.313 C 
HETATM   22  O4  UNL     1     -21.535  35.103  -3.354  1.00  0.00    -0.262 OA
HETATM   23  N3  UNL     1     -21.346  33.730  -1.525  1.00  0.00    -0.344 N 
HETATM   24  C10 UNL     1     -21.685  33.414  -0.158  1.00  0.00     0.126 C 
HETATM   25  C15 UNL     1     -20.468  32.947  -2.383  1.00  0.00     0.126 C 
HETATM   26  C11 UNL     1     -20.936  32.161   0.251  1.00  0.00     0.020 C 
HETATM   27  C12 UNL     1     -21.611  30.964  -0.332  1.00  0.00     0.002 C 
HETATM   28  C13 UNL     1     -22.144  31.198  -1.719  1.00  0.00     0.002 C 
HETATM   29  C14 UNL     1     -21.062  31.610  -2.689  1.00  0.00     0.020 C 
ENDBRANCH   5  21
TORSDOF 5
ENDMDL
MODEL 5
REMARK VINA RESULT: -7.595383012      1.374      1.993
REMARK  5 active torsions:
REMARK  status: ('A' for Active; 'I' for Inactive)
REMARK    1  A    between atoms: C2_2  and  O1_3 
REMARK    2  A    between atoms: O1_3  and  C3_4 
REMARK    3  A    between atoms: C3_4  and  C4_6 
REMARK    4  A    between atoms: C7_10  and  N1_11 
REMARK       I    between atoms: N2_13  and  C8_15 
REMARK    5  A    between atoms: C8_15  and  C9_17 
REMARK       I    between atoms: C9_17  and  N3_19 
ROOT
HETATM    1  N1  UNL     1     -21.081  34.153   3.417  1.00  0.00    -0.294 N 
ATOM      2  H1  UNL     1     -20.210  34.111   3.947  1.00  0.00     0.187 HD
HETATM    3  N2  UNL     1     -22.086  34.760   3.882  1.00  0.00    -0.261 N 
ATOM      4  H2  UNL     1     -22.025  35.212   4.794  1.00  0.00     0.190 HD
HETATM    5  C8  UNL     1     -23.320  34.823   3.138  1.00  0.00     0.328 C 
HETATM    6  O3  UNL     1     -23.952  33.785   2.911  1.00  0.00    -0.261 OA
ENDROOT
BRANCH   1   7
HETATM    7  C7  UNL     1     -21.178  33.534   2.154  1.00  0.00     0.091 A 
HETATM    8  C6  UNL     1     -21.373  32.161   2.101  1.00  0.00     0.060 A 
HETATM    9  C5  UNL     1     -21.469  31.541   0.893  1.00  0.00     0.069 A 
HETATM   10  C4  UNL     1     -21.369  32.309  -0.283  1.00  0.00     0.133 A 
HETATM   11 CL1  UNL     1     -21.717  29.788   0.790  1.00  0.00    -0.082 Cl
HETATM   12  N5  UNL     1     -21.181  33.632  -0.193  1.00  0.00    -0.332 N 
HETATM   13  C16 UNL     1     -21.081  34.281   1.005  1.00  0.00     0.147 A 
HETATM   14  C17 UNL     1     -21.080  34.405  -1.430  1.00  0.00     0.158 C 
HETATM   15  N4  UNL     1     -20.882  35.683   1.018  1.00  0.00    -0.080 NA
BRANCH  10  16
HETATM   16  C3  UNL     1     -21.481  31.586  -1.528  1.00  0.00     0.311 C 
HETATM   17  O2  UNL     1     -20.815  30.571  -1.762  1.00  0.00    -0.258 OA
BRANCH  16  18
HETATM   18  O1  UNL     1     -22.349  32.018  -2.507  1.00  0.00    -0.317 OA
BRANCH  18  19
HETATM   19  C2  UNL     1     -22.011  32.038  -3.886  1.00  0.00     0.175 C 
HETATM   20  C1  UNL     1     -22.764  33.164  -4.529  1.00  0.00     0.034 C 
ENDBRANCH  18  19
ENDBRANCH  16  18
ENDBRANCH  10  16
ENDBRANCH   1   7
BRANCH   5  21
HETATM   21  C9  UNL     1     -23.769  36.111   2.679  1.00  0.00     0.313 C 
HETATM   22  O4  UNL     1     -23.778  36.395   1.428  1.00  0.00    -0.262 OA
HETATM   23  N3  UNL     1     -24.215  37.117   3.562  1.00  0.00    -0.344 N 
HETATM   24  C10 UNL     1     -24.234  36.874   4.985  1.00  0.00     0.126 C 
HETATM   25  C15 UNL     1     -24.628  38.350   2.907  1.00  0.00     0.126 C 
HETATM   26  C11 UNL     1     -24.802  38.096   5.679  1.00  0.00     0.020 C 
HETATM   27  C12 UNL     1     -23.761  39.163   5.742  1.00  0.00     0.002 C 
HETATM   28  C13 UNL     1     -22.904  39.232   4.507  1.00  0.00     0.002 C 
HETATM   29  C14 UNL     1     -23.715  39.481   3.257  1.00  0.00     0.020 C 
ENDBRANCH   5  21
TORSDOF 5
ENDMDL
