MODEL 1
REMARK VINA RESULT: -4.934091504      0.000      0.000
REMARK  5 active torsions:
REMARK  status: ('A' for Active; 'I' for Inactive)
REMARK    1  A    between atoms: C2_2  and  N1_3 
REMARK       I    between atoms: N1_3  and  C3_5 
REMARK       I    between atoms: C3_5  and  N5_18 
REMARK    2  A    between atoms: N2_6  and  C4_8 
REMARK    3  A    between atoms: C4_8  and  N3_10 
REMARK    4  A    between atoms: N3_10  and  C5_12 
REMARK    5  A    between atoms: C5_12  and  C6_13 
ROOT
HETATM    1  N1  UNL     1      19.890  -4.022   7.027  1.00  0.00    -0.226 N 
ATOM      2  H1  UNL     1      20.502  -3.235   6.816  1.00  0.00     0.177 HD
HETATM    3  C3  UNL     1      20.121  -5.292   6.410  1.00  0.00     0.677 C 
HETATM    4  N2  UNL     1      19.996  -6.305   7.140  1.00  0.00    -0.166 N 
ATOM      5  H2  UNL     1      19.737  -6.089   8.102  1.00  0.00     0.186 HD
HETATM    6  N5  UNL     1      20.466  -5.233   5.037  1.00  0.00    -0.227 N 
HETATM    7  C9  UNL     1      19.523  -5.391   3.956  1.00  0.00     0.168 C 
HETATM    8  C10 UNL     1      21.855  -4.998   4.703  1.00  0.00     0.168 C 
ENDROOT
BRANCH   4   9
HETATM    9  C4  UNL     1      20.140  -7.660   6.892  1.00  0.00     0.191 C 
HETATM   10  S1  UNL     1      18.862  -8.571   6.459  1.00  0.00    -0.040 SA
BRANCH   9  11
HETATM   11  N3  UNL     1      21.405  -8.295   7.009  1.00  0.00    -0.323 N 
ATOM     12  H3  UNL     1      22.178  -7.739   7.375  1.00  0.00     0.169 HD
BRANCH  11  13
HETATM   13  C5  UNL     1      21.677  -9.639   6.658  1.00  0.00     0.078 C 
HETATM   14  N4  UNL     1      22.148  -9.850   5.472  1.00  0.00    -0.384 N 
HETATM   15  C8  UNL     1      22.389  -8.768   4.531  1.00  0.00     0.147 C 
ATOM     16  H4  UNL     1      22.357 -10.807   5.187  1.00  0.00     0.160 HD
BRANCH  13  17
HETATM   17  C6  UNL     1      21.427 -10.731   7.619  1.00  0.00     0.072 C 
HETATM   18  C7  UNL     1      22.738 -11.306   8.119  1.00  0.00     0.013 C 
ENDBRANCH  13  17
ENDBRANCH  11  13
ENDBRANCH   9  11
ENDBRANCH   4   9
BRANCH   1  19
HETATM   19  C2  UNL     1      18.792  -3.853   7.947  1.00  0.00     0.133 C 
HETATM   20  C1  UNL     1      18.038  -2.571   7.732  1.00  0.00     0.027 C 
ENDBRANCH   1  19
TORSDOF 5
ENDMDL
MODEL 2
REMARK VINA RESULT: -4.742903727      2.152      3.402
REMARK  5 active torsions:
REMARK  status: ('A' for Active; 'I' for Inactive)
REMARK    1  A    between atoms: C2_2  and  N1_3 
REMARK       I    between atoms: N1_3  and  C3_5 
REMARK       I    between atoms: C3_5  and  N5_18 
REMARK    2  A    between atoms: N2_6  and  C4_8 
REMARK    3  A    between atoms: C4_8  and  N3_10 
REMARK    4  A    between atoms: N3_10  and  C5_12 
REMARK    5  A    between atoms: C5_12  and  C6_13 
ROOT
HETATM    1  N1  UNL     1      22.265  -3.176   5.465  1.00  0.00    -0.226 N 
ATOM      2  H1  UNL     1      21.874  -2.366   4.985  1.00  0.00     0.177 HD
HETATM    3  C3  UNL     1      21.514  -4.391   5.543  1.00  0.00     0.677 C 
HETATM    4  N2  UNL     1      22.149  -5.459   5.367  1.00  0.00    -0.166 N 
ATOM      5  H2  UNL     1      23.144  -5.321   5.188  1.00  0.00     0.186 HD
HETATM    6  N5  UNL     1      20.134  -4.222   5.812  1.00  0.00    -0.227 N 
HETATM    7  C9  UNL     1      19.547  -4.309   7.128  1.00  0.00     0.168 C 
HETATM    8  C10 UNL     1      19.260  -3.942   4.692  1.00  0.00     0.168 C 
ENDROOT
BRANCH   4   9
HETATM    9  C4  UNL     1      21.762  -6.789   5.368  1.00  0.00     0.191 C 
HETATM   10  S1  UNL     1      21.572  -7.605   3.972  1.00  0.00    -0.040 SA
BRANCH   9  11
HETATM   11  N3  UNL     1      21.519  -7.479   6.586  1.00  0.00    -0.323 N 
ATOM     12  H3  UNL     1      22.179  -7.331   7.350  1.00  0.00     0.169 HD
BRANCH  11  13
HETATM   13  C5  UNL     1      20.433  -8.355   6.822  1.00  0.00     0.078 C 
HETATM   14  N4  UNL     1      20.721  -9.592   7.064  1.00  0.00    -0.384 N 
HETATM   15  C8  UNL     1      22.091 -10.077   7.092  1.00  0.00     0.147 C 
ATOM     16  H4  UNL     1      19.961 -10.250   7.240  1.00  0.00     0.160 HD
BRANCH  13  17
HETATM   17  C6  UNL     1      19.045  -7.854   6.789  1.00  0.00     0.072 C 
HETATM   18  C7  UNL     1      18.085  -8.977   6.448  1.00  0.00     0.013 C 
ENDBRANCH  13  17
ENDBRANCH  11  13
ENDBRANCH   9  11
ENDBRANCH   4   9
BRANCH   1  19
HETATM   19  C2  UNL     1      23.575  -3.093   6.065  1.00  0.00     0.133 C 
HETATM   20  C1  UNL     1      23.808  -1.798   6.789  1.00  0.00     0.027 C 
ENDBRANCH   1  19
TORSDOF 5
ENDMDL
MODEL 3
REMARK VINA RESULT: -4.725759226      0.564      1.882
REMARK  5 active torsions:
REMARK  status: ('A' for Active; 'I' for Inactive)
REMARK    1  A    between atoms: C2_2  and  N1_3 
REMARK       I    between atoms: N1_3  and  C3_5 
REMARK       I    between atoms: C3_5  and  N5_18 
REMARK    2  A    between atoms: N2_6  and  C4_8 
REMARK    3  A    between atoms: C4_8  and  N3_10 
REMARK    4  A    between atoms: N3_10  and  C5_12 
REMARK    5  A    between atoms: C5_12  and  C6_13 
ROOT
HETATM    1  N1  UNL     1      19.947  -4.183   7.018  1.00  0.00    -0.226 N 
ATOM      2  H1  UNL     1      20.568  -3.403   6.800  1.00  0.00     0.177 HD
HETATM    3  C3  UNL     1      20.156  -5.455   6.399  1.00  0.00     0.677 C 
HETATM    4  N2  UNL     1      20.026  -6.466   7.131  1.00  0.00    -0.166 N 
ATOM      5  H2  UNL     1      19.781  -6.246   8.096  1.00  0.00     0.186 HD
HETATM    6  N5  UNL     1      20.487  -5.402   5.023  1.00  0.00    -0.227 N 
HETATM    7  C9  UNL     1      19.530  -5.548   3.952  1.00  0.00     0.168 C 
HETATM    8  C10 UNL     1      21.875  -5.184   4.673  1.00  0.00     0.168 C 
ENDROOT
BRANCH   4   9
HETATM    9  C4  UNL     1      20.150  -7.823   6.883  1.00  0.00     0.191 C 
HETATM   10  S1  UNL     1      18.851  -8.724   6.496  1.00  0.00    -0.040 SA
BRANCH   9  11
HETATM   11  N3  UNL     1      21.414  -8.468   6.960  1.00  0.00    -0.323 N 
ATOM     12  H3  UNL     1      21.985  -8.287   7.786  1.00  0.00     0.169 HD
BRANCH  11  13
HETATM   13  C5  UNL     1      21.942  -9.343   5.980  1.00  0.00     0.078 C 
HETATM   14  N4  UNL     1      22.150 -10.567   6.340  1.00  0.00    -0.384 N 
HETATM   15  C8  UNL     1      21.862 -11.038   7.685  1.00  0.00     0.147 C 
ATOM     16  H4  UNL     1      22.528 -11.225   5.658  1.00  0.00     0.160 HD
BRANCH  13  17
HETATM   17  C6  UNL     1      22.233  -8.855   4.618  1.00  0.00     0.072 C 
HETATM   18  C7  UNL     1      21.248  -9.439   3.625  1.00  0.00     0.013 C 
ENDBRANCH  13  17
ENDBRANCH  11  13
ENDBRANCH   9  11
ENDBRANCH   4   9
BRANCH   1  19
HETATM   19  C2  UNL     1      18.862  -3.998   7.950  1.00  0.00     0.133 C 
HETATM   20  C1  UNL     1      18.101  -2.724   7.721  1.00  0.00     0.027 C 
ENDBRANCH   1  19
TORSDOF 5
ENDMDL
MODEL 4
REMARK VINA RESULT: -4.697688425      2.443      6.328
REMARK  5 active torsions:
REMARK  status: ('A' for Active; 'I' for Inactive)
REMARK    1  A    between atoms: C2_2  and  N1_3 
REMARK       I    between atoms: N1_3  and  C3_5 
REMARK       I    between atoms: C3_5  and  N5_18 
REMARK    2  A    between atoms: N2_6  and  C4_8 
REMARK    3  A    between atoms: C4_8  and  N3_10 
REMARK    4  A    between atoms: N3_10  and  C5_12 
REMARK    5  A    between atoms: C5_12  and  C6_13 
ROOT
HETATM    1  N1  UNL     1      23.724 -12.248   6.566  1.00  0.00    -0.226 N 
ATOM      2  H1  UNL     1      24.081 -13.162   6.288  1.00  0.00     0.177 HD
HETATM    3  C3  UNL     1      23.581 -11.211   5.592  1.00  0.00     0.677 C 
HETATM    4  N2  UNL     1      22.540 -10.513   5.661  1.00  0.00    -0.166 N 
ATOM      5  H2  UNL     1      21.916 -10.780   6.423  1.00  0.00     0.186 HD
HETATM    6  N5  UNL     1      24.648 -11.110   4.667  1.00  0.00    -0.227 N 
HETATM    7  C9  UNL     1      25.759 -10.200   4.806  1.00  0.00     0.168 C 
HETATM    8  C10 UNL     1      24.618 -11.980   3.509  1.00  0.00     0.168 C 
ENDROOT
BRANCH   4   9
HETATM    9  C4  UNL     1      22.075  -9.450   4.905  1.00  0.00     0.191 C 
HETATM   10  S1  UNL     1      21.688  -9.647   3.336  1.00  0.00    -0.040 SA
BRANCH   9  11
HETATM   11  N3  UNL     1      21.922  -8.158   5.475  1.00  0.00    -0.323 N 
ATOM     12  H3  UNL     1      22.685  -7.493   5.344  1.00  0.00     0.169 HD
BRANCH  11  13
HETATM   13  C5  UNL     1      20.795  -7.720   6.211  1.00  0.00     0.078 C 
HETATM   14  N4  UNL     1      20.616  -6.443   6.304  1.00  0.00    -0.384 N 
HETATM   15  C8  UNL     1      21.523  -5.488   5.688  1.00  0.00     0.147 C 
ATOM     16  H4  UNL     1      19.812  -6.094   6.826  1.00  0.00     0.160 HD
BRANCH  13  17
HETATM   17  C6  UNL     1      19.881  -8.698   6.835  1.00  0.00     0.072 C 
HETATM   18  C7  UNL     1      18.446  -8.405   6.443  1.00  0.00     0.013 C 
ENDBRANCH  13  17
ENDBRANCH  11  13
ENDBRANCH   9  11
ENDBRANCH   4   9
BRANCH   1  19
HETATM   19  C2  UNL     1      23.366 -12.006   7.943  1.00  0.00     0.133 C 
HETATM   20  C1  UNL     1      22.182 -12.813   8.392  1.00  0.00     0.027 C 
ENDBRANCH   1  19
TORSDOF 5
ENDMDL
MODEL 5
REMARK VINA RESULT: -4.695479538      1.817      2.561
REMARK  5 active torsions:
REMARK  status: ('A' for Active; 'I' for Inactive)
REMARK    1  A    between atoms: C2_2  and  N1_3 
REMARK       I    between atoms: N1_3  and  C3_5 
REMARK       I    between atoms: C3_5  and  N5_18 
REMARK    2  A    between atoms: N2_6  and  C4_8 
REMARK    3  A    between atoms: C4_8  and  N3_10 
REMARK    4  A    between atoms: N3_10  and  C5_12 
REMARK    5  A    between atoms: C5_12  and  C6_13 
ROOT
HETATM    1  N1  UNL     1      20.387  -2.983   6.116  1.00  0.00    -0.226 N 
ATOM      2  H1  UNL     1      20.482  -2.096   5.624  1.00  0.00     0.177 HD
HETATM    3  C3  UNL     1      20.594  -4.213   5.415  1.00  0.00     0.677 C 
HETATM    4  N2  UNL     1      21.237  -5.106   6.020  1.00  0.00    -0.166 N 
ATOM      5  H2  UNL     1      21.536  -4.834   6.956  1.00  0.00     0.186 HD
HETATM    6  N5  UNL     1      20.036  -4.259   4.114  1.00  0.00    -0.227 N 
HETATM    7  C9  UNL     1      18.746  -4.826   3.804  1.00  0.00     0.168 C 
HETATM    8  C10 UNL     1      20.814  -3.697   3.030  1.00  0.00     0.168 C 
ENDROOT
BRANCH   4   9
HETATM    9  C4  UNL     1      21.620  -6.388   5.662  1.00  0.00     0.191 C 
HETATM   10  S1  UNL     1      22.159  -6.711   4.160  1.00  0.00    -0.040 SA
BRANCH   9  11
HETATM   11  N3  UNL     1      21.552  -7.458   6.594  1.00  0.00    -0.323 N 
ATOM     12  H3  UNL     1      22.349  -7.590   7.217  1.00  0.00     0.169 HD
BRANCH  11  13
HETATM   13  C5  UNL     1      20.465  -8.355   6.726  1.00  0.00     0.078 C 
HETATM   14  N4  UNL     1      20.751  -9.613   6.806  1.00  0.00    -0.384 N 
HETATM   15  C8  UNL     1      22.120 -10.100   6.760  1.00  0.00     0.147 C 
ATOM     16  H4  UNL     1      19.991 -10.287   6.903  1.00  0.00     0.160 HD
BRANCH  13  17
HETATM   17  C6  UNL     1      19.078  -7.851   6.769  1.00  0.00     0.072 C 
HETATM   18  C7  UNL     1      18.099  -8.972   6.480  1.00  0.00     0.013 C 
ENDBRANCH  13  17
ENDBRANCH  11  13
ENDBRANCH   9  11
ENDBRANCH   4   9
BRANCH   1  19
HETATM   19  C2  UNL     1      20.044  -2.996   7.517  1.00  0.00     0.133 C 
HETATM   20  C1  UNL     1      18.687  -3.582   7.785  1.00  0.00     0.027 C 
ENDBRANCH   1  19
TORSDOF 5
ENDMDL
