MODEL 1
REMARK VINA RESULT: -5.392425764      0.000      0.000
REMARK  3 active torsions:
REMARK  status: ('A' for Active; 'I' for Inactive)
REMARK    1  A    between atoms: C2_2  and  C3_3 
REMARK    2  A    between atoms: C3_3  and  C4_4 
REMARK    3  A    between atoms: C4_4  and  N1_5 
REMARK       I    between atoms: N1_5  and  C5_7 
REMARK       I    between atoms: C5_7  and  N2_9 
ROOT
HETATM    1  N1  UNL     1      21.067  -9.078   7.178  1.00  0.00    -0.343 N 
ATOM      2  H1  UNL     1      20.631  -9.455   8.020  1.00  0.00     0.164 HD
HETATM    3  C5  UNL     1      22.027  -9.840   6.457  1.00  0.00     0.318 C 
HETATM    4  O1  UNL     1      22.546  -9.339   5.417  1.00  0.00    -0.247 OA
HETATM    5  N2  UNL     1      22.369 -11.124   6.920  1.00  0.00    -0.331 N 
HETATM    6  C6  UNL     1      23.342 -11.905   6.185  1.00  0.00     0.155 C 
HETATM    7  C7  UNL     1      22.907 -13.346   6.324  1.00  0.00     0.257 C 
HETATM    8  N3  UNL     1      22.906 -13.861   7.646  1.00  0.00    -0.064 N 
HETATM    9  C8  UNL     1      21.915 -14.954   7.674  1.00  0.00     0.237 C 
HETATM   10  C9  UNL     1      22.594 -16.056   6.925  1.00  0.00     0.029 C 
HETATM   11  C10 UNL     1      24.070 -15.839   7.151  1.00  0.00     0.029 C 
HETATM   12  C11 UNL     1      24.124 -14.570   7.989  1.00  0.00     0.237 C 
HETATM   13  C12 UNL     1      22.575 -12.874   8.611  1.00  0.00     0.257 C 
HETATM   14  C13 UNL     1      21.790 -11.688   8.093  1.00  0.00     0.155 C 
ENDROOT
BRANCH   1  15
HETATM   15  C4  UNL     1      20.720  -7.760   6.696  1.00  0.00     0.124 C 
BRANCH  15  16
HETATM   16  C3  UNL     1      19.224  -7.525   6.737  1.00  0.00     0.019 C 
BRANCH  16  17
HETATM   17  C2  UNL     1      18.504  -8.632   5.998  1.00  0.00    -0.003 C 
HETATM   18  C1  UNL     1      18.938  -8.636   4.549  1.00  0.00     0.005 C 
ENDBRANCH  16  17
ENDBRANCH  15  16
ENDBRANCH   1  15
TORSDOF 3
ENDMDL
MODEL 2
REMARK VINA RESULT: -5.390331848      1.041      1.172
REMARK  3 active torsions:
REMARK  status: ('A' for Active; 'I' for Inactive)
REMARK    1  A    between atoms: C2_2  and  C3_3 
REMARK    2  A    between atoms: C3_3  and  C4_4 
REMARK    3  A    between atoms: C4_4  and  N1_5 
REMARK       I    between atoms: N1_5  and  C5_7 
REMARK       I    between atoms: C5_7  and  N2_9 
ROOT
HETATM    1  N1  UNL     1      21.467  -8.307   6.302  1.00  0.00    -0.343 N 
ATOM      2  H1  UNL     1      21.266  -8.432   7.295  1.00  0.00     0.164 HD
HETATM    3  C5  UNL     1      22.171  -9.304   5.575  1.00  0.00     0.318 C 
HETATM    4  O1  UNL     1      22.401  -9.114   4.345  1.00  0.00    -0.247 OA
HETATM    5  N2  UNL     1      22.589 -10.470   6.242  1.00  0.00    -0.331 N 
HETATM    6  C6  UNL     1      23.303 -11.491   5.503  1.00  0.00     0.155 C 
HETATM    7  C7  UNL     1      22.881 -12.812   6.108  1.00  0.00     0.257 C 
HETATM    8  N3  UNL     1      23.226 -12.998   7.471  1.00  0.00    -0.064 N 
HETATM    9  C8  UNL     1      22.249 -13.955   8.027  1.00  0.00     0.237 C 
HETATM   10  C9  UNL     1      22.667 -15.261   7.431  1.00  0.00     0.029 C 
HETATM   11  C10 UNL     1      24.154 -15.139   7.208  1.00  0.00     0.029 C 
HETATM   12  C11 UNL     1      24.471 -13.720   7.656  1.00  0.00     0.237 C 
HETATM   13  C12 UNL     1      23.199 -11.786   8.208  1.00  0.00     0.257 C 
HETATM   14  C13 UNL     1      22.336 -10.685   7.628  1.00  0.00     0.155 C 
ENDROOT
BRANCH   1  15
HETATM   15  C4  UNL     1      21.040  -7.112   5.610  1.00  0.00     0.124 C 
BRANCH  15  16
HETATM   16  C3  UNL     1      19.543  -7.107   5.372  1.00  0.00     0.019 C 
BRANCH  16  17
HETATM   17  C2  UNL     1      18.814  -7.499   6.640  1.00  0.00    -0.003 C 
HETATM   18  C1  UNL     1      18.227  -8.883   6.477  1.00  0.00     0.005 C 
ENDBRANCH  16  17
ENDBRANCH  15  16
ENDBRANCH   1  15
TORSDOF 3
ENDMDL
MODEL 3
REMARK VINA RESULT: -5.277073063      3.124      3.950
REMARK  3 active torsions:
REMARK  status: ('A' for Active; 'I' for Inactive)
REMARK    1  A    between atoms: C2_2  and  C3_3 
REMARK    2  A    between atoms: C3_3  and  C4_4 
REMARK    3  A    between atoms: C4_4  and  N1_5 
REMARK       I    between atoms: N1_5  and  C5_7 
REMARK       I    between atoms: C5_7  and  N2_9 
ROOT
HETATM    1  N1  UNL     1      22.277 -10.512   6.552  1.00  0.00    -0.343 N 
ATOM      2  H1  UNL     1      22.454 -10.492   5.547  1.00  0.00     0.164 HD
HETATM    3  C5  UNL     1      23.172 -11.180   7.431  1.00  0.00     0.318 C 
HETATM    4  O1  UNL     1      22.918 -11.183   8.672  1.00  0.00    -0.247 OA
HETATM    5  N2  UNL     1      24.308 -11.815   6.899  1.00  0.00    -0.331 N 
HETATM    6  C6  UNL     1      25.224 -12.492   7.792  1.00  0.00     0.155 C 
HETATM    7  C7  UNL     1      26.601 -12.308   7.193  1.00  0.00     0.257 C 
HETATM    8  N3  UNL     1      26.794 -12.890   5.914  1.00  0.00    -0.064 N 
HETATM    9  C8  UNL     1      27.865 -12.118   5.254  1.00  0.00     0.237 C 
HETATM   10  C9  UNL     1      29.101 -12.556   5.973  1.00  0.00     0.029 C 
HETATM   11  C10 UNL     1      28.817 -13.967   6.428  1.00  0.00     0.029 C 
HETATM   12  C11 UNL     1      27.387 -14.213   5.967  1.00  0.00     0.237 C 
HETATM   13  C12 UNL     1      25.615 -12.867   5.124  1.00  0.00     0.257 C 
HETATM   14  C13 UNL     1      24.593 -11.817   5.502  1.00  0.00     0.155 C 
ENDROOT
BRANCH   1  15
HETATM   15  C4  UNL     1      21.111  -9.861   7.107  1.00  0.00     0.124 C 
BRANCH  15  16
HETATM   16  C3  UNL     1      20.212  -9.304   6.022  1.00  0.00     0.019 C 
BRANCH  16  17
HETATM   17  C2  UNL     1      18.835  -9.020   6.584  1.00  0.00    -0.003 C 
HETATM   18  C1  UNL     1      18.613  -7.524   6.642  1.00  0.00     0.005 C 
ENDBRANCH  16  17
ENDBRANCH  15  16
ENDBRANCH   1  15
TORSDOF 3
ENDMDL
MODEL 4
REMARK VINA RESULT: -5.253436300      1.625      2.487
REMARK  3 active torsions:
REMARK  status: ('A' for Active; 'I' for Inactive)
REMARK    1  A    between atoms: C2_2  and  C3_3 
REMARK    2  A    between atoms: C3_3  and  C4_4 
REMARK    3  A    between atoms: C4_4  and  N1_5 
REMARK       I    between atoms: N1_5  and  C5_7 
REMARK       I    between atoms: C5_7  and  N2_9 
ROOT
HETATM    1  N1  UNL     1      21.400  -9.699   5.214  1.00  0.00    -0.343 N 
ATOM      2  H1  UNL     1      21.625 -10.237   4.376  1.00  0.00     0.164 HD
HETATM    3  C5  UNL     1      21.897 -10.096   6.485  1.00  0.00     0.318 C 
HETATM    4  O1  UNL     1      21.597  -9.403   7.501  1.00  0.00    -0.247 OA
HETATM    5  N2  UNL     1      22.706 -11.243   6.575  1.00  0.00    -0.331 N 
HETATM    6  C6  UNL     1      23.218 -11.648   7.868  1.00  0.00     0.155 C 
HETATM    7  C7  UNL     1      24.582 -12.247   7.605  1.00  0.00     0.257 C 
HETATM    8  N3  UNL     1      24.593 -13.411   6.794  1.00  0.00    -0.064 N 
HETATM    9  C8  UNL     1      25.920 -13.466   6.150  1.00  0.00     0.237 C 
HETATM   10  C9  UNL     1      26.830 -13.869   7.266  1.00  0.00     0.029 C 
HETATM   11  C10 UNL     1      25.974 -14.688   8.201  1.00  0.00     0.029 C 
HETATM   12  C11 UNL     1      24.595 -14.645   7.559  1.00  0.00     0.237 C 
HETATM   13  C12 UNL     1      23.570 -13.396   5.811  1.00  0.00     0.257 C 
HETATM   14  C13 UNL     1      23.042 -12.029   5.434  1.00  0.00     0.155 C 
ENDROOT
BRANCH   1  15
HETATM   15  C4  UNL     1      20.570  -8.519   5.128  1.00  0.00     0.124 C 
BRANCH  15  16
HETATM   16  C3  UNL     1      19.097  -8.872   5.097  1.00  0.00     0.019 C 
BRANCH  16  17
HETATM   17  C2  UNL     1      18.444  -8.495   6.410  1.00  0.00    -0.003 C 
HETATM   18  C1  UNL     1      18.780  -7.059   6.746  1.00  0.00     0.005 C 
ENDBRANCH  16  17
ENDBRANCH  15  16
ENDBRANCH   1  15
TORSDOF 3
ENDMDL
MODEL 5
REMARK VINA RESULT: -5.200071829      2.577      3.413
REMARK  3 active torsions:
REMARK  status: ('A' for Active; 'I' for Inactive)
REMARK    1  A    between atoms: C2_2  and  C3_3 
REMARK    2  A    between atoms: C3_3  and  C4_4 
REMARK    3  A    between atoms: C4_4  and  N1_5 
REMARK       I    between atoms: N1_5  and  C5_7 
REMARK       I    between atoms: C5_7  and  N2_9 
ROOT
HETATM    1  N1  UNL     1      22.023  -9.473   6.453  1.00  0.00    -0.343 N 
ATOM      2  H1  UNL     1      22.548  -9.156   5.638  1.00  0.00     0.164 HD
HETATM    3  C5  UNL     1      22.452 -10.609   7.193  1.00  0.00     0.318 C 
HETATM    4  O1  UNL     1      21.775 -10.972   8.199  1.00  0.00    -0.247 OA
HETATM    5  N2  UNL     1      23.613 -11.292   6.786  1.00  0.00    -0.331 N 
HETATM    6  C6  UNL     1      24.055 -12.446   7.539  1.00  0.00     0.155 C 
HETATM    7  C7  UNL     1      25.566 -12.428   7.477  1.00  0.00     0.257 C 
HETATM    8  N3  UNL     1      26.127 -12.565   6.181  1.00  0.00    -0.064 N 
HETATM    9  C8  UNL     1      27.452 -11.917   6.222  1.00  0.00     0.237 C 
HETATM   10  C9  UNL     1      28.283 -12.877   7.011  1.00  0.00     0.029 C 
HETATM   11  C10 UNL     1      27.677 -14.235   6.749  1.00  0.00     0.029 C 
HETATM   12  C11 UNL     1      26.487 -13.931   5.851  1.00  0.00     0.237 C 
HETATM   13  C12 UNL     1      25.320 -11.970   5.176  1.00  0.00     0.257 C 
HETATM   14  C13 UNL     1      24.374 -10.888   5.651  1.00  0.00     0.155 C 
ENDROOT
BRANCH   1  15
HETATM   15  C4  UNL     1      20.831  -8.776   6.878  1.00  0.00     0.124 C 
BRANCH  15  16
HETATM   16  C3  UNL     1      19.594  -9.305   6.179  1.00  0.00     0.019 C 
BRANCH  16  17
HETATM   17  C2  UNL     1      18.392  -8.459   6.540  1.00  0.00    -0.003 C 
HETATM   18  C1  UNL     1      18.816  -7.015   6.684  1.00  0.00     0.005 C 
ENDBRANCH  16  17
ENDBRANCH  15  16
ENDBRANCH   1  15
TORSDOF 3
ENDMDL
