MODEL 1
REMARK VINA RESULT: -6.251308671      0.000      0.000
REMARK  6 active torsions:
REMARK  status: ('A' for Active; 'I' for Inactive)
REMARK    1  A    between atoms: C3_3  and  C4_4 
REMARK    2  A    between atoms: C5_5  and  C6_6 
REMARK    3  A    between atoms: C8_12  and  N3_13 
REMARK       I    between atoms: N3_13  and  C9_15 
REMARK    4  A    between atoms: C9_15  and  C10_17 
REMARK    5  A    between atoms: C10_17  and  C11_18 
REMARK    6  A    between atoms: C11_18  and  C12_19 
ROOT
HETATM    1  C1  UNL     1      18.180  -9.026   6.731  1.00  0.00     0.017 C 
HETATM    2  C2  UNL     1      18.611  -8.097   6.093  1.00  0.00    -0.088 C 
HETATM    3  C3  UNL     1      19.101  -6.997   5.317  1.00  0.00     0.081 C 
ENDROOT
BRANCH   3   4
HETATM    4  C4  UNL     1      20.183  -6.307   5.598  1.00  0.00     0.045 A 
HETATM    5  C5  UNL     1      20.243  -5.040   6.122  1.00  0.00     0.058 A 
HETATM    6  N1  UNL     1      21.541  -4.707   6.254  1.00  0.00    -0.299 N 
HETATM    7  N2  UNL     1      22.307  -5.710   5.835  1.00  0.00    -0.284 N 
ATOM      8  H1  UNL     1      21.884  -3.819   6.619  1.00  0.00     0.187 HD
HETATM    9  C8  UNL     1      21.518  -6.720   5.420  1.00  0.00     0.135 A 
ATOM     10  H2  UNL     1      23.327  -5.714   5.828  1.00  0.00     0.188 HD
BRANCH   5  11
HETATM   11  C6  UNL     1      19.191  -4.296   6.437  1.00  0.00     0.001 C 
HETATM   12  C7  UNL     1      18.727  -4.171   7.843  1.00  0.00     0.038 C 
ENDBRANCH   5  11
BRANCH   9  13
HETATM   13  N3  UNL     1      21.806  -7.865   4.944  1.00  0.00    -0.311 N 
HETATM   14  C9  UNL     1      21.946  -9.097   5.550  1.00  0.00     0.223 C 
HETATM   15  O1  UNL     1      22.158 -10.097   4.767  1.00  0.00    -0.273 OA
ATOM     16  H3  UNL     1      21.961  -7.872   3.936  1.00  0.00     0.170 HD
BRANCH  14  17
HETATM   17  C10 UNL     1      21.884  -9.427   6.982  1.00  0.00     0.103 C 
BRANCH  17  18
HETATM   18  C11 UNL     1      21.477 -10.888   7.206  1.00  0.00     0.013 C 
BRANCH  18  19
HETATM   19  C12 UNL     1      22.463 -11.567   8.136  1.00  0.00    -0.022 C 
HETATM   20  C13 UNL     1      21.937 -12.886   8.627  1.00  0.00     0.009 C 
HETATM   21  C14 UNL     1      23.807 -11.765   7.491  1.00  0.00     0.009 C 
ENDBRANCH  18  19
ENDBRANCH  17  18
ENDBRANCH  14  17
ENDBRANCH   9  13
ENDBRANCH   3   4
TORSDOF 6
ENDMDL
MODEL 2
REMARK VINA RESULT: -6.110648408      3.263      7.379
REMARK  6 active torsions:
REMARK  status: ('A' for Active; 'I' for Inactive)
REMARK    1  A    between atoms: C3_3  and  C4_4 
REMARK    2  A    between atoms: C5_5  and  C6_6 
REMARK    3  A    between atoms: C8_12  and  N3_13 
REMARK       I    between atoms: N3_13  and  C9_15 
REMARK    4  A    between atoms: C9_15  and  C10_17 
REMARK    5  A    between atoms: C10_17  and  C11_18 
REMARK    6  A    between atoms: C11_18  and  C12_19 
ROOT
HETATM    1  C1  UNL     1      22.212 -15.045   3.904  1.00  0.00     0.017 C 
HETATM    2  C2  UNL     1      22.753 -14.614   4.893  1.00  0.00    -0.088 C 
HETATM    3  C3  UNL     1      23.418 -14.106   6.055  1.00  0.00     0.081 C 
ENDROOT
BRANCH   3   4
HETATM    4  C4  UNL     1      22.811 -13.678   7.139  1.00  0.00     0.045 A 
HETATM    5  C5  UNL     1      22.367 -14.437   8.193  1.00  0.00     0.058 A 
HETATM    6  N1  UNL     1      21.804 -13.608   9.091  1.00  0.00    -0.299 N 
HETATM    7  N2  UNL     1      21.873 -12.354   8.652  1.00  0.00    -0.284 N 
ATOM      8  H1  UNL     1      21.387 -13.897   9.976  1.00  0.00     0.187 HD
HETATM    9  C8  UNL     1      22.485 -12.344   7.452  1.00  0.00     0.135 A 
ATOM     10  H2  UNL     1      21.519 -11.534   9.143  1.00  0.00     0.188 HD
BRANCH   5  11
HETATM   11  C6  UNL     1      22.486 -15.754   8.285  1.00  0.00     0.001 C 
HETATM   12  C7  UNL     1      21.422 -16.662   7.784  1.00  0.00     0.038 C 
ENDBRANCH   5  11
BRANCH   9  13
HETATM   13  N3  UNL     1      22.766 -11.384   6.665  1.00  0.00    -0.311 N 
HETATM   14  C9  UNL     1      22.101 -10.207   6.387  1.00  0.00     0.223 C 
HETATM   15  O1  UNL     1      22.700  -9.386   5.595  1.00  0.00    -0.273 OA
ATOM     16  H3  UNL     1      23.636 -11.507   6.148  1.00  0.00     0.170 HD
BRANCH  14  17
HETATM   17  C10 UNL     1      20.790  -9.757   6.877  1.00  0.00     0.103 C 
BRANCH  17  18
HETATM   18  C11 UNL     1      20.677  -8.228   6.864  1.00  0.00     0.013 C 
BRANCH  18  19
HETATM   19  C12 UNL     1      19.339  -7.808   6.291  1.00  0.00    -0.022 C 
HETATM   20  C13 UNL     1      18.281  -8.844   6.546  1.00  0.00     0.009 C 
HETATM   21  C14 UNL     1      18.885  -6.477   6.825  1.00  0.00     0.009 C 
ENDBRANCH  18  19
ENDBRANCH  17  18
ENDBRANCH  14  17
ENDBRANCH   9  13
ENDBRANCH   3   4
TORSDOF 6
ENDMDL
MODEL 3
REMARK VINA RESULT: -5.972700237      2.653      5.803
REMARK  6 active torsions:
REMARK  status: ('A' for Active; 'I' for Inactive)
REMARK    1  A    between atoms: C3_3  and  C4_4 
REMARK    2  A    between atoms: C5_5  and  C6_6 
REMARK    3  A    between atoms: C8_12  and  N3_13 
REMARK       I    between atoms: N3_13  and  C9_15 
REMARK    4  A    between atoms: C9_15  and  C10_17 
REMARK    5  A    between atoms: C10_17  and  C11_18 
REMARK    6  A    between atoms: C11_18  and  C12_19 
ROOT
HETATM    1  C1  UNL     1      18.362  -8.903   6.436  1.00  0.00     0.017 C 
HETATM    2  C2  UNL     1      19.538  -8.902   6.707  1.00  0.00    -0.088 C 
HETATM    3  C3  UNL     1      20.929  -8.878   7.044  1.00  0.00     0.081 C 
ENDROOT
BRANCH   3   4
HETATM    4  C4  UNL     1      21.834  -9.693   6.550  1.00  0.00     0.045 A 
HETATM    5  C5  UNL     1      22.221 -10.907   7.060  1.00  0.00     0.058 A 
HETATM    6  N1  UNL     1      23.170 -11.414   6.251  1.00  0.00    -0.299 N 
HETATM    7  N2  UNL     1      23.401 -10.571   5.248  1.00  0.00    -0.284 N 
ATOM      8  H1  UNL     1      23.640 -12.308   6.386  1.00  0.00     0.187 HD
HETATM    9  C8  UNL     1      22.603  -9.495   5.386  1.00  0.00     0.135 A 
ATOM     10  H2  UNL     1      24.074 -10.716   4.496  1.00  0.00     0.188 HD
BRANCH   5  11
HETATM   11  C6  UNL     1      21.728 -11.462   8.159  1.00  0.00     0.001 C 
HETATM   12  C7  UNL     1      22.008 -12.881   8.500  1.00  0.00     0.038 C 
ENDBRANCH   5  11
BRANCH   9  13
HETATM   13  N3  UNL     1      22.481  -8.447   4.674  1.00  0.00    -0.311 N 
HETATM   14  C9  UNL     1      21.603  -8.133   3.656  1.00  0.00     0.223 C 
HETATM   15  O1  UNL     1      21.679  -6.936   3.187  1.00  0.00    -0.273 OA
ATOM     16  H3  UNL     1      23.149  -7.710   4.895  1.00  0.00     0.170 HD
BRANCH  14  17
HETATM   17  C10 UNL     1      20.582  -8.986   3.029  1.00  0.00     0.103 C 
BRANCH  17  18
HETATM   18  C11 UNL     1      19.197  -8.333   3.073  1.00  0.00     0.013 C 
BRANCH  18  19
HETATM   19  C12 UNL     1      18.705  -8.057   1.666  1.00  0.00    -0.022 C 
HETATM   20  C13 UNL     1      18.610  -6.582   1.395  1.00  0.00     0.009 C 
HETATM   21  C14 UNL     1      19.571  -8.709   0.624  1.00  0.00     0.009 C 
ENDBRANCH  18  19
ENDBRANCH  17  18
ENDBRANCH  14  17
ENDBRANCH   9  13
ENDBRANCH   3   4
TORSDOF 6
ENDMDL
MODEL 4
REMARK VINA RESULT: -5.964615554      2.811      4.771
REMARK  6 active torsions:
REMARK  status: ('A' for Active; 'I' for Inactive)
REMARK    1  A    between atoms: C3_3  and  C4_4 
REMARK    2  A    between atoms: C5_5  and  C6_6 
REMARK    3  A    between atoms: C8_12  and  N3_13 
REMARK       I    between atoms: N3_13  and  C9_15 
REMARK    4  A    between atoms: C9_15  and  C10_17 
REMARK    5  A    between atoms: C10_17  and  C11_18 
REMARK    6  A    between atoms: C11_18  and  C12_19 
ROOT
HETATM    1  C1  UNL     1      17.790  -3.698   3.060  1.00  0.00     0.017 C 
HETATM    2  C2  UNL     1      18.309  -3.158   4.007  1.00  0.00    -0.088 C 
HETATM    3  C3  UNL     1      18.941  -2.505   5.113  1.00  0.00     0.081 C 
ENDROOT
BRANCH   3   4
HETATM    4  C4  UNL     1      18.619  -2.686   6.374  1.00  0.00     0.045 A 
HETATM    5  C5  UNL     1      17.623  -2.051   7.073  1.00  0.00     0.058 A 
HETATM    6  N1  UNL     1      17.630  -2.528   8.331  1.00  0.00    -0.299 N 
HETATM    7  N2  UNL     1      18.590  -3.441   8.460  1.00  0.00    -0.284 N 
ATOM      8  H1  UNL     1      16.996  -2.234   9.074  1.00  0.00     0.187 HD
HETATM    9  C8  UNL     1      19.228  -3.575   7.282  1.00  0.00     0.135 A 
ATOM     10  H2  UNL     1      18.806  -3.955   9.314  1.00  0.00     0.188 HD
BRANCH   5  11
HETATM   11  C6  UNL     1      16.809  -1.132   6.571  1.00  0.00     0.001 C 
HETATM   12  C7  UNL     1      15.354  -1.144   6.868  1.00  0.00     0.038 C 
ENDBRANCH   5  11
BRANCH   9  13
HETATM   13  N3  UNL     1      20.200  -4.320   6.938  1.00  0.00    -0.311 N 
HETATM   14  C9  UNL     1      20.236  -5.506   6.231  1.00  0.00     0.223 C 
HETATM   15  O1  UNL     1      21.405  -5.976   5.965  1.00  0.00    -0.273 OA
ATOM     16  H3  UNL     1      21.115  -3.982   7.237  1.00  0.00     0.170 HD
BRANCH  14  17
HETATM   17  C10 UNL     1      19.111  -6.312   5.736  1.00  0.00     0.103 C 
BRANCH  17  18
HETATM   18  C11 UNL     1      18.688  -7.377   6.755  1.00  0.00     0.013 C 
BRANCH  18  19
HETATM   19  C12 UNL     1      18.868  -8.762   6.168  1.00  0.00    -0.022 C 
HETATM   20  C13 UNL     1      19.041  -8.710   4.676  1.00  0.00     0.009 C 
HETATM   21  C14 UNL     1      20.025  -9.495   6.788  1.00  0.00     0.009 C 
ENDBRANCH  18  19
ENDBRANCH  17  18
ENDBRANCH  14  17
ENDBRANCH   9  13
ENDBRANCH   3   4
TORSDOF 6
ENDMDL
MODEL 5
REMARK VINA RESULT: -5.953592677      2.549      5.530
REMARK  6 active torsions:
REMARK  status: ('A' for Active; 'I' for Inactive)
REMARK    1  A    between atoms: C3_3  and  C4_4 
REMARK    2  A    between atoms: C5_5  and  C6_6 
REMARK    3  A    between atoms: C8_12  and  N3_13 
REMARK       I    between atoms: N3_13  and  C9_15 
REMARK    4  A    between atoms: C9_15  and  C10_17 
REMARK    5  A    between atoms: C10_17  and  C11_18 
REMARK    6  A    between atoms: C11_18  and  C12_19 
ROOT
HETATM    1  C1  UNL     1      18.748  -6.124   7.084  1.00  0.00     0.017 C 
HETATM    2  C2  UNL     1      18.849  -7.225   6.600  1.00  0.00    -0.088 C 
HETATM    3  C3  UNL     1      18.944  -8.538   6.036  1.00  0.00     0.081 C 
ENDROOT
BRANCH   3   4
HETATM    4  C4  UNL     1      19.962  -8.979   5.332  1.00  0.00     0.045 A 
HETATM    5  C5  UNL     1      21.129  -9.517   5.813  1.00  0.00     0.058 A 
HETATM    6  N1  UNL     1      21.903  -9.838   4.759  1.00  0.00    -0.299 N 
HETATM    7  N2  UNL     1      21.274  -9.526   3.629  1.00  0.00    -0.284 N 
ATOM      8  H1  UNL     1      22.831 -10.257   4.818  1.00  0.00     0.187 HD
HETATM    9  C8  UNL     1      20.074  -8.992   3.928  1.00  0.00     0.135 A 
ATOM     10  H2  UNL     1      21.642  -9.667   2.689  1.00  0.00     0.188 HD
BRANCH   5  11
HETATM   11  C6  UNL     1      21.419  -9.682   7.097  1.00  0.00     0.001 C 
HETATM   12  C7  UNL     1      21.863 -10.997   7.625  1.00  0.00     0.038 C 
ENDBRANCH   5  11
BRANCH   9  13
HETATM   13  N3  UNL     1      19.144  -8.553   3.178  1.00  0.00    -0.311 N 
HETATM   14  C9  UNL     1      19.030  -7.381   2.458  1.00  0.00     0.223 C 
HETATM   15  O1  UNL     1      17.985  -7.269   1.713  1.00  0.00    -0.273 OA
ATOM     16  H3  UNL     1      18.342  -9.177   3.096  1.00  0.00     0.170 HD
BRANCH  14  17
HETATM   17  C10 UNL     1      19.948  -6.233   2.423  1.00  0.00     0.103 C 
BRANCH  17  18
HETATM   18  C11 UNL     1      19.673  -5.256   3.573  1.00  0.00     0.013 C 
BRANCH  18  19
HETATM   19  C12 UNL     1      20.979  -4.733   4.137  1.00  0.00    -0.022 C 
HETATM   20  C13 UNL     1      20.745  -3.650   5.150  1.00  0.00     0.009 C 
HETATM   21  C14 UNL     1      21.812  -5.827   4.745  1.00  0.00     0.009 C 
ENDBRANCH  18  19
ENDBRANCH  17  18
ENDBRANCH  14  17
ENDBRANCH   9  13
ENDBRANCH   3   4
TORSDOF 6
ENDMDL
