MODEL 1
REMARK VINA RESULT: -5.874537644      0.000      0.000
REMARK  5 active torsions:
REMARK  status: ('A' for Active; 'I' for Inactive)
REMARK    1  A    between atoms: C4_4  and  C5_5 
REMARK       I    between atoms: C5_5  and  N1_7 
REMARK    2  A    between atoms: N1_7  and  C6_9 
REMARK    3  A    between atoms: C6_9  and  C7_10 
REMARK    4  A    between atoms: C8_11  and  C9_12 
REMARK    5  A    between atoms: C9_12  and  N2_13 
ROOT
HETATM    1  C5  UNL     1      22.642 -10.874   7.487  1.00  0.00     0.268 C 
HETATM    2  O1  UNL     1      23.041 -10.952   8.666  1.00  0.00    -0.266 OA
HETATM    3  N1  UNL     1      23.117 -11.791   6.534  1.00  0.00    -0.345 N 
ATOM      4  H1  UNL     1      22.783 -11.716   5.573  1.00  0.00     0.163 HD
ENDROOT
BRANCH   1   5
HETATM    5  C4  UNL     1      21.698  -9.848   7.112  1.00  0.00     0.101 A 
HETATM    6  C3  UNL     1      20.309  -9.979   7.070  1.00  0.00     0.044 A 
HETATM    7  C2  UNL     1      19.736  -8.791   6.667  1.00  0.00    -0.037 A 
HETATM    8  C1  UNL     1      18.266  -8.516   6.494  1.00  0.00     0.050 C 
HETATM    9  C13 UNL     1      20.784  -7.928   6.460  1.00  0.00     0.011 A 
HETATM   10  N3  UNL     1      21.925  -8.569   6.727  1.00  0.00    -0.355 N 
HETATM   11  C14 UNL     1      20.634  -6.519   6.012  1.00  0.00     0.068 C 
ATOM     12  H3  UNL     1      22.851  -8.148   6.651  1.00  0.00     0.166 HD
ENDBRANCH   1   5
BRANCH   3  13
HETATM   13  C6  UNL     1      24.062 -12.838   6.861  1.00  0.00     0.217 C 
BRANCH  13  14
HETATM   14  C7  UNL     1      23.382 -14.019   7.394  1.00  0.00    -0.085 C 
HETATM   15  C8  UNL     1      22.815 -14.982   7.850  1.00  0.00    -0.077 C 
BRANCH  15  16
HETATM   16  C9  UNL     1      22.127 -16.156   8.432  1.00  0.00     0.329 C 
BRANCH  16  17
HETATM   17  N2  UNL     1      21.606 -16.986   7.352  1.00  0.00    -0.069 N 
HETATM   18  C10 UNL     1      22.734 -17.677   6.746  1.00  0.00     0.272 C 
HETATM   19  C11 UNL     1      20.783 -18.009   7.977  1.00  0.00     0.272 C 
HETATM   20  C12 UNL     1      20.876 -16.199   6.402  1.00  0.00     0.272 C 
ENDBRANCH  16  17
ENDBRANCH  15  16
ENDBRANCH  13  14
ENDBRANCH   3  13
TORSDOF 5
ENDMDL
MODEL 2
REMARK VINA RESULT: -5.830724283      0.961      1.487
REMARK  5 active torsions:
REMARK  status: ('A' for Active; 'I' for Inactive)
REMARK    1  A    between atoms: C4_4  and  C5_5 
REMARK       I    between atoms: C5_5  and  N1_7 
REMARK    2  A    between atoms: N1_7  and  C6_9 
REMARK    3  A    between atoms: C6_9  and  C7_10 
REMARK    4  A    between atoms: C8_11  and  C9_12 
REMARK    5  A    between atoms: C9_12  and  N2_13 
ROOT
HETATM    1  C5  UNL     1      22.722 -10.561   7.461  1.00  0.00     0.268 C 
HETATM    2  O1  UNL     1      22.962 -10.900   8.637  1.00  0.00    -0.266 OA
HETATM    3  N1  UNL     1      23.516 -11.070   6.419  1.00  0.00    -0.345 N 
ATOM      4  H1  UNL     1      23.309 -10.784   5.462  1.00  0.00     0.163 HD
ENDROOT
BRANCH   1   5
HETATM    5  C4  UNL     1      21.636  -9.652   7.180  1.00  0.00     0.101 A 
HETATM    6  C3  UNL     1      20.304 -10.003   6.955  1.00  0.00     0.044 A 
HETATM    7  C2  UNL     1      19.552  -8.871   6.720  1.00  0.00    -0.037 A 
HETATM    8  C1  UNL     1      18.075  -8.817   6.435  1.00  0.00     0.050 C 
HETATM    9  C13 UNL     1      20.433  -7.821   6.801  1.00  0.00     0.011 A 
HETATM   10  N3  UNL     1      21.649  -8.302   7.072  1.00  0.00    -0.355 N 
HETATM   11  C14 UNL     1      20.057  -6.395   6.613  1.00  0.00     0.068 C 
ATOM     12  H3  UNL     1      22.483  -7.725   7.183  1.00  0.00     0.166 HD
ENDBRANCH   1   5
BRANCH   3  13
HETATM   13  C6  UNL     1      24.615 -11.984   6.649  1.00  0.00     0.217 C 
BRANCH  13  14
HETATM   14  C7  UNL     1      24.211 -13.370   6.408  1.00  0.00    -0.085 C 
HETATM   15  C8  UNL     1      23.877 -14.509   6.190  1.00  0.00    -0.077 C 
BRANCH  15  16
HETATM   16  C9  UNL     1      23.450 -15.897   5.906  1.00  0.00     0.329 C 
BRANCH  16  17
HETATM   17  N2  UNL     1      22.739 -16.422   7.067  1.00  0.00    -0.069 N 
HETATM   18  C10 UNL     1      21.503 -15.668   7.204  1.00  0.00     0.272 C 
HETATM   19  C11 UNL     1      22.355 -17.785   6.733  1.00  0.00     0.272 C 
HETATM   20  C12 UNL     1      23.552 -16.354   8.245  1.00  0.00     0.272 C 
ENDBRANCH  16  17
ENDBRANCH  15  16
ENDBRANCH  13  14
ENDBRANCH   3  13
TORSDOF 5
ENDMDL
MODEL 3
REMARK VINA RESULT: -5.806859495      1.111      1.360
REMARK  5 active torsions:
REMARK  status: ('A' for Active; 'I' for Inactive)
REMARK    1  A    between atoms: C4_4  and  C5_5 
REMARK       I    between atoms: C5_5  and  N1_7 
REMARK    2  A    between atoms: N1_7  and  C6_9 
REMARK    3  A    between atoms: C6_9  and  C7_10 
REMARK    4  A    between atoms: C8_11  and  C9_12 
REMARK    5  A    between atoms: C9_12  and  N2_13 
ROOT
HETATM    1  C5  UNL     1      22.777 -10.616   7.515  1.00  0.00     0.268 C 
HETATM    2  O1  UNL     1      22.985 -10.961   8.695  1.00  0.00    -0.266 OA
HETATM    3  N1  UNL     1      23.611 -11.106   6.496  1.00  0.00    -0.345 N 
ATOM      4  H1  UNL     1      23.432 -10.816   5.534  1.00  0.00     0.163 HD
ENDROOT
BRANCH   1   5
HETATM    5  C4  UNL     1      21.687  -9.722   7.206  1.00  0.00     0.101 A 
HETATM    6  C3  UNL     1      20.356 -10.085   6.995  1.00  0.00     0.044 A 
HETATM    7  C2  UNL     1      19.599  -8.965   6.723  1.00  0.00    -0.037 A 
HETATM    8  C1  UNL     1      18.122  -8.926   6.438  1.00  0.00     0.050 C 
HETATM    9  C13 UNL     1      20.477  -7.909   6.767  1.00  0.00     0.011 A 
HETATM   10  N3  UNL     1      21.695  -8.376   7.052  1.00  0.00    -0.355 N 
HETATM   11  C14 UNL     1      20.095  -6.492   6.532  1.00  0.00     0.068 C 
ATOM     12  H3  UNL     1      22.527  -7.793   7.143  1.00  0.00     0.166 HD
ENDBRANCH   1   5
BRANCH   3  13
HETATM   13  C6  UNL     1      24.716 -12.005   6.755  1.00  0.00     0.217 C 
BRANCH  13  14
HETATM   14  C7  UNL     1      24.319 -13.402   6.568  1.00  0.00    -0.085 C 
HETATM   15  C8  UNL     1      24.003 -14.558   6.429  1.00  0.00    -0.077 C 
BRANCH  15  16
HETATM   16  C9  UNL     1      23.639 -15.983   6.263  1.00  0.00     0.329 C 
BRANCH  16  17
HETATM   17  N2  UNL     1      22.234 -16.074   5.885  1.00  0.00    -0.069 N 
HETATM   18  C10 UNL     1      21.890 -17.486   5.805  1.00  0.00     0.272 C 
HETATM   19  C11 UNL     1      21.471 -15.526   6.995  1.00  0.00     0.272 C 
HETATM   20  C12 UNL     1      21.984 -15.384   4.654  1.00  0.00     0.272 C 
ENDBRANCH  16  17
ENDBRANCH  15  16
ENDBRANCH  13  14
ENDBRANCH   3  13
TORSDOF 5
ENDMDL
MODEL 4
REMARK VINA RESULT: -5.688600685      1.275      1.347
REMARK  5 active torsions:
REMARK  status: ('A' for Active; 'I' for Inactive)
REMARK    1  A    between atoms: C4_4  and  C5_5 
REMARK       I    between atoms: C5_5  and  N1_7 
REMARK    2  A    between atoms: N1_7  and  C6_9 
REMARK    3  A    between atoms: C6_9  and  C7_10 
REMARK    4  A    between atoms: C8_11  and  C9_12 
REMARK    5  A    between atoms: C9_12  and  N2_13 
ROOT
HETATM    1  C5  UNL     1      22.881 -10.908   7.352  1.00  0.00     0.268 C 
HETATM    2  O1  UNL     1      22.968 -10.842   8.594  1.00  0.00    -0.266 OA
HETATM    3  N1  UNL     1      23.835 -11.645   6.630  1.00  0.00    -0.345 N 
ATOM      4  H1  UNL     1      23.752 -11.691   5.615  1.00  0.00     0.163 HD
ENDROOT
BRANCH   1   5
HETATM    5  C4  UNL     1      21.805 -10.232   6.668  1.00  0.00     0.101 A 
HETATM    6  C3  UNL     1      20.567  -9.887   7.213  1.00  0.00     0.044 A 
HETATM    7  C2  UNL     1      19.794  -9.252   6.264  1.00  0.00    -0.037 A 
HETATM    8  C1  UNL     1      18.397  -8.723   6.450  1.00  0.00     0.050 C 
HETATM    9  C13 UNL     1      20.566  -9.210   5.129  1.00  0.00     0.011 A 
HETATM   10  N3  UNL     1      21.741  -9.790   5.389  1.00  0.00    -0.355 N 
HETATM   11  C14 UNL     1      20.132  -8.608   3.841  1.00  0.00     0.068 C 
ATOM     12  H3  UNL     1      22.495  -9.888   4.709  1.00  0.00     0.166 HD
ENDBRANCH   1   5
BRANCH   3  13
HETATM   13  C6  UNL     1      24.931 -12.342   7.270  1.00  0.00     0.217 C 
BRANCH  13  14
HETATM   14  C7  UNL     1      24.544 -13.699   7.657  1.00  0.00    -0.085 C 
HETATM   15  C8  UNL     1      24.205 -14.811   7.981  1.00  0.00    -0.077 C 
BRANCH  15  16
HETATM   16  C9  UNL     1      23.778 -16.166   8.397  1.00  0.00     0.329 C 
BRANCH  16  17
HETATM   17  N2  UNL     1      22.785 -16.663   7.452  1.00  0.00    -0.069 N 
HETATM   18  C10 UNL     1      23.438 -16.798   6.159  1.00  0.00     0.272 C 
HETATM   19  C11 UNL     1      22.442 -18.009   7.883  1.00  0.00     0.272 C 
HETATM   20  C12 UNL     1      21.644 -15.797   7.398  1.00  0.00     0.272 C 
ENDBRANCH  16  17
ENDBRANCH  15  16
ENDBRANCH  13  14
ENDBRANCH   3  13
TORSDOF 5
ENDMDL
MODEL 5
REMARK VINA RESULT: -5.544236981      1.036      1.515
REMARK  5 active torsions:
REMARK  status: ('A' for Active; 'I' for Inactive)
REMARK    1  A    between atoms: C4_4  and  C5_5 
REMARK       I    between atoms: C5_5  and  N1_7 
REMARK    2  A    between atoms: N1_7  and  C6_9 
REMARK    3  A    between atoms: C6_9  and  C7_10 
REMARK    4  A    between atoms: C8_11  and  C9_12 
REMARK    5  A    between atoms: C9_12  and  N2_13 
ROOT
HETATM    1  C5  UNL     1      22.870 -10.830   7.447  1.00  0.00     0.268 C 
HETATM    2  O1  UNL     1      22.904 -11.043   8.675  1.00  0.00    -0.266 OA
HETATM    3  N1  UNL     1      23.813 -11.451   6.611  1.00  0.00    -0.345 N 
ATOM      4  H1  UNL     1      23.775 -11.268   5.608  1.00  0.00     0.163 HD
ENDROOT
BRANCH   1   5
HETATM    5  C4  UNL     1      21.866  -9.952   6.895  1.00  0.00     0.101 A 
HETATM    6  C3  UNL     1      20.497  -9.992   7.163  1.00  0.00     0.044 A 
HETATM    7  C2  UNL     1      19.848  -9.000   6.457  1.00  0.00    -0.037 A 
HETATM    8  C1  UNL     1      18.372  -8.707   6.468  1.00  0.00     0.050 C 
HETATM    9  C13 UNL     1      20.831  -8.350   5.751  1.00  0.00     0.011 A 
HETATM   10  N3  UNL     1      22.005  -8.925   6.023  1.00  0.00    -0.355 N 
HETATM   11  C14 UNL     1      20.588  -7.199   4.842  1.00  0.00     0.068 C 
ATOM     12  H3  UNL     1      22.896  -8.627   5.624  1.00  0.00     0.166 HD
ENDBRANCH   1   5
BRANCH   3  13
HETATM   13  C6  UNL     1      24.839 -12.340   7.115  1.00  0.00     0.217 C 
BRANCH  13  14
HETATM   14  C7  UNL     1      24.427 -13.740   7.007  1.00  0.00    -0.085 C 
HETATM   15  C8  UNL     1      24.105 -14.901   6.925  1.00  0.00    -0.077 C 
BRANCH  15  16
HETATM   16  C9  UNL     1      23.733 -16.329   6.817  1.00  0.00     0.329 C 
BRANCH  16  17
HETATM   17  N2  UNL     1      22.354 -16.428   6.353  1.00  0.00    -0.069 N 
HETATM   18  C10 UNL     1      21.525 -15.663   7.272  1.00  0.00     0.272 C 
HETATM   19  C11 UNL     1      22.298 -15.736   5.075  1.00  0.00     0.272 C 
HETATM   20  C12 UNL     1      21.938 -17.795   6.255  1.00  0.00     0.272 C 
ENDBRANCH  16  17
ENDBRANCH  15  16
ENDBRANCH  13  14
ENDBRANCH   3  13
TORSDOF 5
ENDMDL
