MODEL 1
REMARK VINA RESULT: -5.331447533      0.000      0.000
REMARK  5 active torsions:
REMARK  status: ('A' for Active; 'I' for Inactive)
REMARK    1  A    between atoms: C2_2  and  C3_3 
REMARK    2  A    between atoms: C3_3  and  C4_4 
REMARK    3  A    between atoms: C4_4  and  N5_14 
REMARK    4  A    between atoms: N1_5  and  C5_7 
REMARK    5  A    between atoms: C5_7  and  N2_9 
ROOT
HETATM    1  C4  UNL     1      21.793  -9.204   5.903  1.00  0.00     0.084 C 
HETATM    2  N1  UNL     1      22.759  -9.389   5.111  1.00  0.00    -0.323 N 
ATOM      3  H1  UNL     1      23.514  -9.982   5.453  1.00  0.00     0.169 HD
ENDROOT
BRANCH   1   4
HETATM    4  C3  UNL     1      21.805  -9.836   7.241  1.00  0.00     0.102 C 
BRANCH   4   5
HETATM    5  C2  UNL     1      22.604 -11.073   7.282  1.00  0.00    -0.029 C 
HETATM    6  C1  UNL     1      22.477 -11.890   8.297  1.00  0.00     0.007 C 
ENDBRANCH   4   5
ENDBRANCH   1   4
BRANCH   1   7
HETATM    7  N5  UNL     1      20.688  -8.401   5.538  1.00  0.00    -0.370 N 
HETATM    8  C7  UNL     1      19.438  -8.903   5.011  1.00  0.00     0.124 C 
HETATM    9  C8  UNL     1      18.380  -8.714   6.076  1.00  0.00     0.020 C 
HETATM   10  C9  UNL     1      18.610  -7.435   6.819  1.00  0.00     0.003 C 
HETATM   11  C10 UNL     1      19.373  -6.414   5.984  1.00  0.00     0.020 C 
HETATM   12  C11 UNL     1      20.770  -6.940   5.689  1.00  0.00     0.124 C 
ENDBRANCH   1   7
BRANCH   2  13
HETATM   13  C5  UNL     1      22.914  -8.872   3.815  1.00  0.00     0.179 C 
HETATM   14  S1  UNL     1      23.913  -7.647   3.413  1.00  0.00    -0.040 SA
BRANCH  13  15
HETATM   15  N2  UNL     1      22.152  -9.448   2.765  1.00  0.00    -0.310 N 
HETATM   16  C6  UNL     1      22.145 -10.671   2.440  1.00  0.00     0.203 C 
HETATM   17  N3  UNL     1      21.318 -11.082   1.358  1.00  0.00    -0.066 NA
HETATM   18  N4  UNL     1      22.913 -11.672   3.091  1.00  0.00    -0.066 NA
ATOM     19  H2  UNL     1      21.557  -8.821   2.224  1.00  0.00     0.170 HD
ENDBRANCH  13  15
ENDBRANCH   2  13
TORSDOF 5
ENDMDL
MODEL 2
REMARK VINA RESULT: -5.318423429      1.798      2.347
REMARK  5 active torsions:
REMARK  status: ('A' for Active; 'I' for Inactive)
REMARK    1  A    between atoms: C2_2  and  C3_3 
REMARK    2  A    between atoms: C3_3  and  C4_4 
REMARK    3  A    between atoms: C4_4  and  N5_14 
REMARK    4  A    between atoms: N1_5  and  C5_7 
REMARK    5  A    between atoms: C5_7  and  N2_9 
ROOT
HETATM    1  C4  UNL     1      21.684  -9.851   6.257  1.00  0.00     0.084 C 
HETATM    2  N1  UNL     1      22.666 -10.251   5.571  1.00  0.00    -0.323 N 
ATOM      3  H1  UNL     1      23.223 -11.002   5.976  1.00  0.00     0.169 HD
ENDROOT
BRANCH   1   4
HETATM    4  C3  UNL     1      21.400 -10.472   7.570  1.00  0.00     0.102 C 
BRANCH   4   5
HETATM    5  C2  UNL     1      22.455 -11.407   8.000  1.00  0.00    -0.029 C 
HETATM    6  C1  UNL     1      22.122 -12.572   8.496  1.00  0.00     0.007 C 
ENDBRANCH   4   5
ENDBRANCH   1   4
BRANCH   1   7
HETATM    7  N5  UNL     1      20.839  -8.814   5.796  1.00  0.00    -0.370 N 
HETATM    8  C7  UNL     1      19.643  -9.012   5.007  1.00  0.00     0.124 C 
HETATM    9  C8  UNL     1      18.454  -8.691   5.885  1.00  0.00     0.020 C 
HETATM   10  C9  UNL     1      18.770  -7.545   6.794  1.00  0.00     0.003 C 
HETATM   11  C10 UNL     1      19.857  -6.641   6.224  1.00  0.00     0.020 C 
HETATM   12  C11 UNL     1      21.162  -7.416   6.120  1.00  0.00     0.124 C 
ENDBRANCH   1   7
BRANCH   2  13
HETATM   13  C5  UNL     1      23.080  -9.780   4.315  1.00  0.00     0.179 C 
HETATM   14  S1  UNL     1      22.390 -10.185   2.893  1.00  0.00    -0.040 SA
BRANCH  13  15
HETATM   15  N2  UNL     1      24.180  -8.883   4.261  1.00  0.00    -0.310 N 
HETATM   16  C6  UNL     1      25.397  -9.195   4.414  1.00  0.00     0.203 C 
HETATM   17  N3  UNL     1      26.377  -8.167   4.327  1.00  0.00    -0.066 NA
HETATM   18  N4  UNL     1      25.855 -10.514   4.668  1.00  0.00    -0.066 NA
ATOM     19  H2  UNL     1      23.971  -7.901   4.082  1.00  0.00     0.170 HD
ENDBRANCH  13  15
ENDBRANCH   2  13
TORSDOF 5
ENDMDL
MODEL 3
REMARK VINA RESULT: -5.142337780      1.065      1.116
REMARK  5 active torsions:
REMARK  status: ('A' for Active; 'I' for Inactive)
REMARK    1  A    between atoms: C2_2  and  C3_3 
REMARK    2  A    between atoms: C3_3  and  C4_4 
REMARK    3  A    between atoms: C4_4  and  N5_14 
REMARK    4  A    between atoms: N1_5  and  C5_7 
REMARK    5  A    between atoms: C5_7  and  N2_9 
ROOT
HETATM    1  C4  UNL     1      21.652  -9.187   5.140  1.00  0.00     0.084 C 
HETATM    2  N1  UNL     1      22.226  -9.570   4.082  1.00  0.00    -0.323 N 
ATOM      3  H1  UNL     1      23.044 -10.167   4.205  1.00  0.00     0.169 HD
ENDROOT
BRANCH   1   4
HETATM    4  C3  UNL     1      22.176  -9.609   6.458  1.00  0.00     0.102 C 
BRANCH   4   5
HETATM    5  C2  UNL     1      21.237 -10.468   7.198  1.00  0.00    -0.029 C 
HETATM    6  C1  UNL     1      21.698 -11.319   8.080  1.00  0.00     0.007 C 
ENDBRANCH   4   5
ENDBRANCH   1   4
BRANCH   1   7
HETATM    7  N5  UNL     1      20.507  -8.357   5.095  1.00  0.00    -0.370 N 
HETATM    8  C7  UNL     1      19.170  -8.810   4.780  1.00  0.00     0.124 C 
HETATM    9  C8  UNL     1      18.352  -8.746   6.051  1.00  0.00     0.020 C 
HETATM   10  C9  UNL     1      18.745  -7.554   6.866  1.00  0.00     0.003 C 
HETATM   11  C10 UNL     1      19.339  -6.442   6.010  1.00  0.00     0.020 C 
HETATM   12  C11 UNL     1      20.639  -6.921   5.383  1.00  0.00     0.124 C 
ENDBRANCH   1   7
BRANCH   2  13
HETATM   13  C5  UNL     1      21.870  -9.269   2.758  1.00  0.00     0.179 C 
HETATM   14  S1  UNL     1      22.157  -7.846   2.015  1.00  0.00    -0.040 SA
BRANCH  13  15
HETATM   15  N2  UNL     1      21.209 -10.269   1.995  1.00  0.00    -0.310 N 
HETATM   16  C6  UNL     1      21.741 -11.322   1.539  1.00  0.00     0.203 C 
HETATM   17  N3  UNL     1      20.931 -12.222   0.791  1.00  0.00    -0.066 NA
HETATM   18  N4  UNL     1      23.104 -11.672   1.724  1.00  0.00    -0.066 NA
ATOM     19  H2  UNL     1      20.219 -10.125   1.798  1.00  0.00     0.170 HD
ENDBRANCH  13  15
ENDBRANCH   2  13
TORSDOF 5
ENDMDL
MODEL 4
REMARK VINA RESULT: -5.041540187      1.766      2.397
REMARK  5 active torsions:
REMARK  status: ('A' for Active; 'I' for Inactive)
REMARK    1  A    between atoms: C2_2  and  C3_3 
REMARK    2  A    between atoms: C3_3  and  C4_4 
REMARK    3  A    between atoms: C4_4  and  N5_14 
REMARK    4  A    between atoms: N1_5  and  C5_7 
REMARK    5  A    between atoms: C5_7  and  N2_9 
ROOT
HETATM    1  C4  UNL     1      21.893  -9.473   6.233  1.00  0.00     0.084 C 
HETATM    2  N1  UNL     1      22.891  -9.761   5.516  1.00  0.00    -0.323 N 
ATOM      3  H1  UNL     1      23.555 -10.424   5.914  1.00  0.00     0.169 HD
ENDROOT
BRANCH   1   4
HETATM    4  C3  UNL     1      21.743 -10.090   7.570  1.00  0.00     0.102 C 
BRANCH   4   5
HETATM    5  C2  UNL     1      22.612 -11.264   7.758  1.00  0.00    -0.029 C 
HETATM    6  C1  UNL     1      22.175 -12.286   8.449  1.00  0.00     0.007 C 
ENDBRANCH   4   5
ENDBRANCH   1   4
BRANCH   1   7
HETATM    7  N5  UNL     1      20.904  -8.566   5.786  1.00  0.00    -0.370 N 
HETATM    8  C7  UNL     1      19.805  -8.907   4.909  1.00  0.00     0.124 C 
HETATM    9  C8  UNL     1      18.533  -8.863   5.726  1.00  0.00     0.020 C 
HETATM   10  C9  UNL     1      18.593  -7.750   6.726  1.00  0.00     0.003 C 
HETATM   11  C10 UNL     1      19.531  -6.633   6.288  1.00  0.00     0.020 C 
HETATM   12  C11 UNL     1      20.956  -7.161   6.220  1.00  0.00     0.124 C 
ENDBRANCH   1   7
BRANCH   2  13
HETATM   13  C5  UNL     1      23.192  -9.275   4.234  1.00  0.00     0.179 C 
HETATM   14  S1  UNL     1      22.800 -10.021   2.837  1.00  0.00    -0.040 SA
BRANCH  13  15
HETATM   15  N2  UNL     1      23.888  -8.041   4.127  1.00  0.00    -0.310 N 
HETATM   16  C6  UNL     1      23.459  -6.996   3.557  1.00  0.00     0.203 C 
HETATM   17  N3  UNL     1      24.289  -5.841   3.542  1.00  0.00    -0.066 NA
HETATM   18  N4  UNL     1      22.192  -6.897   2.925  1.00  0.00    -0.066 NA
ATOM     19  H2  UNL     1      24.816  -7.993   4.548  1.00  0.00     0.170 HD
ENDBRANCH  13  15
ENDBRANCH   2  13
TORSDOF 5
ENDMDL
MODEL 5
REMARK VINA RESULT: -5.038780554      2.066      3.005
REMARK  5 active torsions:
REMARK  status: ('A' for Active; 'I' for Inactive)
REMARK    1  A    between atoms: C2_2  and  C3_3 
REMARK    2  A    between atoms: C3_3  and  C4_4 
REMARK    3  A    between atoms: C4_4  and  N5_14 
REMARK    4  A    between atoms: N1_5  and  C5_7 
REMARK    5  A    between atoms: C5_7  and  N2_9 
ROOT
HETATM    1  C4  UNL     1      21.645  -9.123   5.681  1.00  0.00     0.084 C 
HETATM    2  N1  UNL     1      22.553  -9.982   5.861  1.00  0.00    -0.323 N 
ATOM      3  H1  UNL     1      22.626 -10.369   6.801  1.00  0.00     0.169 HD
ENDROOT
BRANCH   1   4
HETATM    4  C3  UNL     1      20.764  -8.734   6.804  1.00  0.00     0.102 C 
BRANCH   4   5
HETATM    5  C2  UNL     1      19.416  -9.318   6.702  1.00  0.00    -0.029 C 
HETATM    6  C1  UNL     1      18.380  -8.529   6.564  1.00  0.00     0.007 C 
ENDBRANCH   4   5
ENDBRANCH   1   4
BRANCH   1   7
HETATM    7  N5  UNL     1      21.447  -8.517   4.418  1.00  0.00    -0.370 N 
HETATM    8  C7  UNL     1      20.786  -9.144   3.295  1.00  0.00     0.124 C 
HETATM    9  C8  UNL     1      19.456  -8.451   3.097  1.00  0.00     0.020 C 
HETATM   10  C9  UNL     1      19.583  -6.987   3.382  1.00  0.00     0.003 C 
HETATM   11  C10 UNL     1      21.007  -6.483   3.177  1.00  0.00     0.020 C 
HETATM   12  C11 UNL     1      21.932  -7.148   4.185  1.00  0.00     0.124 C 
ENDBRANCH   1   7
BRANCH   2  13
HETATM   13  C5  UNL     1      23.472 -10.465   4.917  1.00  0.00     0.179 C 
HETATM   14  S1  UNL     1      24.838  -9.696   4.466  1.00  0.00    -0.040 SA
BRANCH  13  15
HETATM   15  N2  UNL     1      23.209 -11.718   4.301  1.00  0.00    -0.310 N 
HETATM   16  C6  UNL     1      23.169 -12.838   4.888  1.00  0.00     0.203 C 
HETATM   17  N3  UNL     1      22.890 -13.999   4.116  1.00  0.00    -0.066 NA
HETATM   18  N4  UNL     1      23.386 -13.015   6.279  1.00  0.00    -0.066 NA
ATOM     19  H2  UNL     1      23.036 -11.714   3.296  1.00  0.00     0.170 HD
ENDBRANCH  13  15
ENDBRANCH   2  13
TORSDOF 5
ENDMDL
