MODEL 1
REMARK VINA RESULT: -9.643281621      0.000      0.000
REMARK  12 active torsions:
REMARK  status: ('A' for Active; 'I' for Inactive)
REMARK       I    between atoms: C2_2  and  N1_4 
REMARK    1  A    between atoms: N1_4  and  C3_6 
REMARK    2  A    between atoms: C3_6  and  C4_7 
REMARK    3  A    between atoms: C5_9  and  C6_10 
REMARK    4  A    between atoms: C6_10  and  C7_11 
REMARK    5  A    between atoms: C8_12  and  C10_14 
REMARK    6  A    between atoms: C10_14  and  C11_15 
REMARK    7  A    between atoms: C11_15  and  C12_16 
REMARK    8  A    between atoms: C12_16  and  C13_17 
REMARK    9  A    between atoms: C13_17  and  C14_18 
REMARK   10  A    between atoms: C14_18  and  C15_19 
REMARK   11  A    between atoms: C20_25  and  N2_26 
REMARK       I    between atoms: N2_26  and  C21_28 
REMARK   12  A    between atoms: C21_28  and  C22_30 
ROOT
HETATM    1  C15 UNL     1      -7.778  25.376  13.838  1.00  0.00     0.122 C 
HETATM    2  C16 UNL     1      -8.033  24.636  15.150  1.00  0.00     0.038 C 
HETATM    3  C17 UNL     1      -8.819  25.494  16.074  1.00  0.00     0.016 C 
HETATM    4  C18 UNL     1      -8.664  26.968  15.658  1.00  0.00     0.041 C 
HETATM    5  C19 UNL     1      -9.636  26.603  14.522  1.00  0.00     0.145 C 
HETATM    6  O2  UNL     1      -8.982  25.975  13.489  1.00  0.00    -0.379 OA
HETATM    7  C20 UNL     1     -10.253  25.671  15.532  1.00  0.00     0.117 C 
ENDROOT
BRANCH   1   8
HETATM    8  C14 UNL     1      -7.412  24.326  12.816  1.00  0.00     0.032 C 
BRANCH   8   9
HETATM    9  C13 UNL     1      -6.827  23.079  13.394  1.00  0.00     0.002 C 
BRANCH   9  10
HETATM   10  C12 UNL     1      -5.316  23.070  13.363  1.00  0.00     0.000 C 
BRANCH  10  11
HETATM   11  C11 UNL     1      -4.723  22.446  14.609  1.00  0.00     0.004 C 
BRANCH  11  12
HETATM   12  C10 UNL     1      -4.720  23.526  15.677  1.00  0.00     0.033 C 
BRANCH  12  13
HETATM   13  C8  UNL     1      -3.871  24.687  15.311  1.00  0.00    -0.087 C 
HETATM   14  C7  UNL     1      -2.622  24.472  14.977  1.00  0.00    -0.020 C 
HETATM   15  C9  UNL     1      -4.426  26.055  15.322  1.00  0.00     0.043 C 
BRANCH  14  16
HETATM   16  C6  UNL     1      -1.754  25.642  14.604  1.00  0.00     0.055 C 
BRANCH  16  17
HETATM   17  C5  UNL     1      -1.443  25.506  13.186  1.00  0.00    -0.007 C 
HETATM   18  C4  UNL     1      -0.324  25.012  12.706  1.00  0.00     0.003 C 
HETATM   19 BR1  UNL     1      -0.162  25.005  10.802  1.00  0.00    -0.054 Br
BRANCH  18  20
HETATM   20  C3  UNL     1       0.751  24.536  13.572  1.00  0.00     0.168 C 
BRANCH  20  21
HETATM   21  N1  UNL     1       0.577  23.261  14.174  1.00  0.00    -0.357 N 
HETATM   22  C2  UNL     1       0.779  22.907  15.507  1.00  0.00     0.213 C 
HETATM   23  C1  UNL     1       0.551  21.467  15.936  1.00  0.00     0.117 C 
HETATM   24  O1  UNL     1       1.138  23.710  16.378  1.00  0.00    -0.274 OA
ATOM     25  H1  UNL     1       0.265  22.513  13.555  1.00  0.00     0.162 HD
ENDBRANCH  20  21
ENDBRANCH  18  20
ENDBRANCH  16  17
ENDBRANCH  14  16
ENDBRANCH  12  13
ENDBRANCH  11  12
ENDBRANCH  10  11
ENDBRANCH   9  10
ENDBRANCH   8   9
ENDBRANCH   1   8
BRANCH   7  26
HETATM   26  N2  UNL     1     -10.861  24.473  15.073  1.00  0.00    -0.353 N 
HETATM   27  C21 UNL     1     -11.996  23.962  15.754  1.00  0.00     0.225 C 
HETATM   28  O3  UNL     1     -12.450  24.569  16.757  1.00  0.00    -0.273 OA
ATOM     29  H2  UNL     1     -10.485  23.985  14.261  1.00  0.00     0.163 HD
BRANCH  27  30
HETATM   30  C22 UNL     1     -12.705  22.713  15.344  1.00  0.00     0.100 C 
HETATM   31  C23 UNL     1     -13.834  23.013  14.437  1.00  0.00    -0.017 C 
HETATM   32  C24 UNL     1     -13.889  22.837  13.129  1.00  0.00    -0.030 C 
HETATM   33  C25 UNL     1     -12.909  22.304  12.126  1.00  0.00     0.027 C 
HETATM   34  C26 UNL     1     -12.534  20.875  12.459  1.00  0.00     0.004 C 
HETATM   35  C27 UNL     1     -12.496  20.651  13.956  1.00  0.00     0.001 C 
HETATM   36  C28 UNL     1     -11.787  21.738  14.687  1.00  0.00     0.018 C 
ENDBRANCH  27  30
ENDBRANCH   7  26
TORSDOF 12
ENDMDL
MODEL 2
REMARK VINA RESULT: -9.519933083      1.138      1.485
REMARK  12 active torsions:
REMARK  status: ('A' for Active; 'I' for Inactive)
REMARK       I    between atoms: C2_2  and  N1_4 
REMARK    1  A    between atoms: N1_4  and  C3_6 
REMARK    2  A    between atoms: C3_6  and  C4_7 
REMARK    3  A    between atoms: C5_9  and  C6_10 
REMARK    4  A    between atoms: C6_10  and  C7_11 
REMARK    5  A    between atoms: C8_12  and  C10_14 
REMARK    6  A    between atoms: C10_14  and  C11_15 
REMARK    7  A    between atoms: C11_15  and  C12_16 
REMARK    8  A    between atoms: C12_16  and  C13_17 
REMARK    9  A    between atoms: C13_17  and  C14_18 
REMARK   10  A    between atoms: C14_18  and  C15_19 
REMARK   11  A    between atoms: C20_25  and  N2_26 
REMARK       I    between atoms: N2_26  and  C21_28 
REMARK   12  A    between atoms: C21_28  and  C22_30 
ROOT
HETATM    1  C15 UNL     1      -7.282  26.453  13.948  1.00  0.00     0.122 C 
HETATM    2  C16 UNL     1      -7.123  25.879  15.356  1.00  0.00     0.038 C 
HETATM    3  C17 UNL     1      -8.102  26.514  16.276  1.00  0.00     0.016 C 
HETATM    4  C18 UNL     1      -8.563  27.858  15.685  1.00  0.00     0.041 C 
HETATM    5  C19 UNL     1      -9.407  26.989  14.735  1.00  0.00     0.145 C 
HETATM    6  O2  UNL     1      -8.648  26.501  13.699  1.00  0.00    -0.379 OA
HETATM    7  C20 UNL     1      -9.532  26.060  15.914  1.00  0.00     0.117 C 
ENDROOT
BRANCH   1   8
HETATM    8  C14 UNL     1      -6.623  25.472  13.007  1.00  0.00     0.032 C 
BRANCH   8   9
HETATM    9  C13 UNL     1      -7.405  24.221  12.771  1.00  0.00     0.002 C 
BRANCH   9  10
HETATM   10  C12 UNL     1      -6.817  23.019  13.474  1.00  0.00     0.000 C 
BRANCH  10  11
HETATM   11  C11 UNL     1      -5.303  23.011  13.420  1.00  0.00     0.004 C 
BRANCH  11  12
HETATM   12  C10 UNL     1      -4.817  22.947  14.858  1.00  0.00     0.033 C 
BRANCH  12  13
HETATM   13  C8  UNL     1      -3.509  23.620  15.048  1.00  0.00    -0.087 C 
HETATM   14  C7  UNL     1      -3.383  24.868  14.667  1.00  0.00    -0.020 C 
HETATM   15  C9  UNL     1      -2.374  22.897  15.657  1.00  0.00     0.043 C 
BRANCH  14  16
HETATM   16  C6  UNL     1      -2.061  25.559  14.856  1.00  0.00     0.055 C 
BRANCH  16  17
HETATM   17  C5  UNL     1      -1.641  26.043  13.545  1.00  0.00    -0.007 C 
HETATM   18  C4  UNL     1      -0.873  25.379  12.711  1.00  0.00     0.003 C 
HETATM   19 BR1  UNL     1      -0.436  26.279  11.083  1.00  0.00    -0.054 Br
BRANCH  18  20
HETATM   20  C3  UNL     1      -0.348  24.053  13.022  1.00  0.00     0.168 C 
BRANCH  20  21
HETATM   21  N1  UNL     1       1.044  23.957  13.289  1.00  0.00    -0.357 N 
HETATM   22  C2  UNL     1       1.691  24.050  14.520  1.00  0.00     0.213 C 
HETATM   23  C1  UNL     1       3.205  23.939  14.575  1.00  0.00     0.117 C 
HETATM   24  O1  UNL     1       1.094  24.219  15.591  1.00  0.00    -0.274 OA
ATOM     25  H1  UNL     1       1.644  23.801  12.480  1.00  0.00     0.162 HD
ENDBRANCH  20  21
ENDBRANCH  18  20
ENDBRANCH  16  17
ENDBRANCH  14  16
ENDBRANCH  12  13
ENDBRANCH  11  12
ENDBRANCH  10  11
ENDBRANCH   9  10
ENDBRANCH   8   9
ENDBRANCH   1   8
BRANCH   7  26
HETATM   26  N2  UNL     1      -9.665  24.668  15.673  1.00  0.00    -0.353 N 
HETATM   27  C21 UNL     1     -10.961  24.103  15.542  1.00  0.00     0.225 C 
HETATM   28  O3  UNL     1     -11.976  24.838  15.644  1.00  0.00    -0.273 OA
ATOM     29  H2  UNL     1      -8.837  24.078  15.595  1.00  0.00     0.163 HD
BRANCH  27  30
HETATM   30  C22 UNL     1     -11.201  22.652  15.285  1.00  0.00     0.100 C 
HETATM   31  C23 UNL     1     -12.647  22.339  15.306  1.00  0.00    -0.017 C 
HETATM   32  C24 UNL     1     -13.439  22.105  14.275  1.00  0.00    -0.030 C 
HETATM   33  C25 UNL     1     -13.205  22.066  12.793  1.00  0.00     0.027 C 
HETATM   34  C26 UNL     1     -12.181  21.005  12.446  1.00  0.00     0.004 C 
HETATM   35  C27 UNL     1     -11.124  20.888  13.524  1.00  0.00     0.001 C 
HETATM   36  C28 UNL     1     -10.618  22.209  13.986  1.00  0.00     0.018 C 
ENDBRANCH  27  30
ENDBRANCH   7  26
TORSDOF 12
ENDMDL
MODEL 3
REMARK VINA RESULT: -9.504519460      1.603      2.040
REMARK  12 active torsions:
REMARK  status: ('A' for Active; 'I' for Inactive)
REMARK       I    between atoms: C2_2  and  N1_4 
REMARK    1  A    between atoms: N1_4  and  C3_6 
REMARK    2  A    between atoms: C3_6  and  C4_7 
REMARK    3  A    between atoms: C5_9  and  C6_10 
REMARK    4  A    between atoms: C6_10  and  C7_11 
REMARK    5  A    between atoms: C8_12  and  C10_14 
REMARK    6  A    between atoms: C10_14  and  C11_15 
REMARK    7  A    between atoms: C11_15  and  C12_16 
REMARK    8  A    between atoms: C12_16  and  C13_17 
REMARK    9  A    between atoms: C13_17  and  C14_18 
REMARK   10  A    between atoms: C14_18  and  C15_19 
REMARK   11  A    between atoms: C20_25  and  N2_26 
REMARK       I    between atoms: N2_26  and  C21_28 
REMARK   12  A    between atoms: C21_28  and  C22_30 
ROOT
HETATM    1  C15 UNL     1      -7.809  25.447  13.772  1.00  0.00     0.122 C 
HETATM    2  C16 UNL     1      -7.991  24.664  15.072  1.00  0.00     0.038 C 
HETATM    3  C17 UNL     1      -8.751  25.481  16.053  1.00  0.00     0.016 C 
HETATM    4  C18 UNL     1      -8.642  26.968  15.675  1.00  0.00     0.041 C 
HETATM    5  C19 UNL     1      -9.656  26.616  14.572  1.00  0.00     0.145 C 
HETATM    6  O2  UNL     1      -9.037  26.032  13.494  1.00  0.00    -0.379 OA
HETATM    7  C20 UNL     1     -10.211  25.644  15.581  1.00  0.00     0.117 C 
ENDROOT
BRANCH   1   8
HETATM    8  C14 UNL     1      -7.469  24.432  12.704  1.00  0.00     0.032 C 
BRANCH   8   9
HETATM    9  C13 UNL     1      -6.813  23.192  13.217  1.00  0.00     0.002 C 
BRANCH   9  10
HETATM   10  C12 UNL     1      -5.310  23.216  13.060  1.00  0.00     0.000 C 
BRANCH  10  11
HETATM   11  C11 UNL     1      -4.612  22.385  14.118  1.00  0.00     0.004 C 
BRANCH  11  12
HETATM   12  C10 UNL     1      -4.677  23.181  15.409  1.00  0.00     0.033 C 
BRANCH  12  13
HETATM   13  C8  UNL     1      -3.795  24.374  15.388  1.00  0.00    -0.087 C 
HETATM   14  C7  UNL     1      -2.511  24.202  15.194  1.00  0.00    -0.020 C 
HETATM   15  C9  UNL     1      -4.356  25.726  15.582  1.00  0.00     0.043 C 
BRANCH  14  16
HETATM   16  C6  UNL     1      -1.608  25.404  15.170  1.00  0.00     0.055 C 
BRANCH  16  17
HETATM   17  C5  UNL     1      -0.237  24.907  15.163  1.00  0.00    -0.007 C 
HETATM   18  C4  UNL     1       0.576  24.962  14.132  1.00  0.00     0.003 C 
HETATM   19 BR1  UNL     1       2.303  24.182  14.387  1.00  0.00    -0.054 Br
BRANCH  18  20
HETATM   20  C3  UNL     1       0.175  25.542  12.853  1.00  0.00     0.168 C 
BRANCH  20  21
HETATM   21  N1  UNL     1      -0.242  24.639  11.839  1.00  0.00    -0.357 N 
HETATM   22  C2  UNL     1      -1.536  24.412  11.370  1.00  0.00     0.213 C 
HETATM   23  C1  UNL     1      -1.761  23.375  10.283  1.00  0.00     0.117 C 
HETATM   24  O1  UNL     1      -2.528  25.017  11.795  1.00  0.00    -0.274 OA
ATOM     25  H1  UNL     1       0.495  24.090  11.399  1.00  0.00     0.162 HD
ENDBRANCH  20  21
ENDBRANCH  18  20
ENDBRANCH  16  17
ENDBRANCH  14  16
ENDBRANCH  12  13
ENDBRANCH  11  12
ENDBRANCH  10  11
ENDBRANCH   9  10
ENDBRANCH   8   9
ENDBRANCH   1   8
BRANCH   7  26
HETATM   26  N2  UNL     1     -10.816  24.449  15.113  1.00  0.00    -0.353 N 
HETATM   27  C21 UNL     1     -11.950  23.930  15.793  1.00  0.00     0.225 C 
HETATM   28  O3  UNL     1     -12.403  24.529  16.800  1.00  0.00    -0.273 OA
ATOM     29  H2  UNL     1     -10.440  23.967  14.297  1.00  0.00     0.163 HD
BRANCH  27  30
HETATM   30  C22 UNL     1     -12.656  22.682  15.375  1.00  0.00     0.100 C 
HETATM   31  C23 UNL     1     -13.812  22.989  14.504  1.00  0.00    -0.017 C 
HETATM   32  C24 UNL     1     -13.901  22.840  13.195  1.00  0.00    -0.030 C 
HETATM   33  C25 UNL     1     -12.942  22.340  12.155  1.00  0.00     0.027 C 
HETATM   34  C26 UNL     1     -12.543  20.908  12.447  1.00  0.00     0.004 C 
HETATM   35  C27 UNL     1     -12.463  20.653  13.938  1.00  0.00     0.001 C 
HETATM   36  C28 UNL     1     -11.746  21.732  14.673  1.00  0.00     0.018 C 
ENDBRANCH  27  30
ENDBRANCH   7  26
TORSDOF 12
ENDMDL
MODEL 4
REMARK VINA RESULT: -9.456461533      2.794      4.284
REMARK  12 active torsions:
REMARK  status: ('A' for Active; 'I' for Inactive)
REMARK       I    between atoms: C2_2  and  N1_4 
REMARK    1  A    between atoms: N1_4  and  C3_6 
REMARK    2  A    between atoms: C3_6  and  C4_7 
REMARK    3  A    between atoms: C5_9  and  C6_10 
REMARK    4  A    between atoms: C6_10  and  C7_11 
REMARK    5  A    between atoms: C8_12  and  C10_14 
REMARK    6  A    between atoms: C10_14  and  C11_15 
REMARK    7  A    between atoms: C11_15  and  C12_16 
REMARK    8  A    between atoms: C12_16  and  C13_17 
REMARK    9  A    between atoms: C13_17  and  C14_18 
REMARK   10  A    between atoms: C14_18  and  C15_19 
REMARK   11  A    between atoms: C20_25  and  N2_26 
REMARK       I    between atoms: N2_26  and  C21_28 
REMARK   12  A    between atoms: C21_28  and  C22_30 
ROOT
HETATM    1  C15 UNL     1      -7.699  25.401  14.214  1.00  0.00     0.122 C 
HETATM    2  C16 UNL     1      -7.395  24.595  12.952  1.00  0.00     0.038 C 
HETATM    3  C17 UNL     1      -6.770  23.298  13.317  1.00  0.00     0.016 C 
HETATM    4  C18 UNL     1      -6.159  23.402  14.726  1.00  0.00     0.041 C 
HETATM    5  C19 UNL     1      -7.615  23.299  15.211  1.00  0.00     0.145 C 
HETATM    6  O2  UNL     1      -8.258  24.510  15.121  1.00  0.00    -0.379 OA
HETATM    7  C20 UNL     1      -7.806  22.396  14.021  1.00  0.00     0.117 C 
ENDROOT
BRANCH   1   8
HETATM    8  C14 UNL     1      -8.721  26.444  13.822  1.00  0.00     0.032 C 
BRANCH   8   9
HETATM    9  C13 UNL     1      -9.588  26.912  14.944  1.00  0.00     0.002 C 
BRANCH   9  10
HETATM   10  C12 UNL     1      -8.798  27.515  16.084  1.00  0.00     0.000 C 
BRANCH  10  11
HETATM   11  C11 UNL     1      -7.620  28.333  15.592  1.00  0.00     0.004 C 
BRANCH  11  12
HETATM   12  C10 UNL     1      -6.380  27.738  16.235  1.00  0.00     0.033 C 
BRANCH  12  13
HETATM   13  C8  UNL     1      -5.250  27.609  15.282  1.00  0.00    -0.087 C 
HETATM   14  C7  UNL     1      -4.115  27.119  15.717  1.00  0.00    -0.020 C 
HETATM   15  C9  UNL     1      -5.404  28.025  13.874  1.00  0.00     0.043 C 
BRANCH  14  16
HETATM   16  C6  UNL     1      -2.963  26.984  14.759  1.00  0.00     0.055 C 
BRANCH  16  17
HETATM   17  C5  UNL     1      -2.808  25.561  14.478  1.00  0.00    -0.007 C 
HETATM   18  C4  UNL     1      -2.927  25.013  13.289  1.00  0.00     0.003 C 
HETATM   19 BR1  UNL     1      -2.727  23.113  13.222  1.00  0.00    -0.054 Br
BRANCH  18  20
HETATM   20  C3  UNL     1      -3.236  25.797  12.097  1.00  0.00     0.168 C 
BRANCH  20  21
HETATM   21  N1  UNL     1      -2.141  26.196  11.286  1.00  0.00    -0.357 N 
HETATM   22  C2  UNL     1      -2.162  26.595   9.950  1.00  0.00     0.213 C 
HETATM   23  C1  UNL     1      -0.857  26.962   9.264  1.00  0.00     0.117 C 
HETATM   24  O1  UNL     1      -3.199  26.670   9.279  1.00  0.00    -0.274 OA
ATOM     25  H1  UNL     1      -1.226  26.190  11.736  1.00  0.00     0.162 HD
ENDBRANCH  20  21
ENDBRANCH  18  20
ENDBRANCH  16  17
ENDBRANCH  14  16
ENDBRANCH  12  13
ENDBRANCH  11  12
ENDBRANCH  10  11
ENDBRANCH   9  10
ENDBRANCH   8   9
ENDBRANCH   1   8
BRANCH   7  26
HETATM   26  N2  UNL     1      -9.077  22.358  13.391  1.00  0.00    -0.353 N 
HETATM   27  C21 UNL     1     -10.175  21.771  14.073  1.00  0.00     0.225 C 
HETATM   28  O3  UNL     1     -10.012  21.289  15.222  1.00  0.00    -0.273 OA
ATOM     29  H2  UNL     1      -9.201  22.749  12.457  1.00  0.00     0.163 HD
BRANCH  27  30
HETATM   30  C22 UNL     1     -11.550  21.687  13.495  1.00  0.00     0.100 C 
HETATM   31  C23 UNL     1     -12.420  20.811  14.311  1.00  0.00    -0.017 C 
HETATM   32  C24 UNL     1     -13.373  21.174  15.149  1.00  0.00    -0.030 C 
HETATM   33  C25 UNL     1     -13.910  22.509  15.574  1.00  0.00     0.027 C 
HETATM   34  C26 UNL     1     -14.460  23.262  14.379  1.00  0.00     0.004 C 
HETATM   35  C27 UNL     1     -13.654  22.975  13.130  1.00  0.00     0.001 C 
HETATM   36  C28 UNL     1     -12.184  23.030  13.362  1.00  0.00     0.018 C 
ENDBRANCH  27  30
ENDBRANCH   7  26
TORSDOF 12
ENDMDL
MODEL 5
REMARK VINA RESULT: -9.443314267      1.878      3.453
REMARK  12 active torsions:
REMARK  status: ('A' for Active; 'I' for Inactive)
REMARK       I    between atoms: C2_2  and  N1_4 
REMARK    1  A    between atoms: N1_4  and  C3_6 
REMARK    2  A    between atoms: C3_6  and  C4_7 
REMARK    3  A    between atoms: C5_9  and  C6_10 
REMARK    4  A    between atoms: C6_10  and  C7_11 
REMARK    5  A    between atoms: C8_12  and  C10_14 
REMARK    6  A    between atoms: C10_14  and  C11_15 
REMARK    7  A    between atoms: C11_15  and  C12_16 
REMARK    8  A    between atoms: C12_16  and  C13_17 
REMARK    9  A    between atoms: C13_17  and  C14_18 
REMARK   10  A    between atoms: C14_18  and  C15_19 
REMARK   11  A    between atoms: C20_25  and  N2_26 
REMARK       I    between atoms: N2_26  and  C21_28 
REMARK   12  A    between atoms: C21_28  and  C22_30 
ROOT
HETATM    1  C15 UNL     1      -8.069  24.912  15.481  1.00  0.00     0.122 C 
HETATM    2  C16 UNL     1      -8.288  24.722  13.981  1.00  0.00     0.038 C 
HETATM    3  C17 UNL     1      -7.741  23.409  13.551  1.00  0.00     0.016 C 
HETATM    4  C18 UNL     1      -6.701  22.927  14.577  1.00  0.00     0.041 C 
HETATM    5  C19 UNL     1      -7.924  22.589  15.447  1.00  0.00     0.145 C 
HETATM    6  O2  UNL     1      -8.410  23.707  16.081  1.00  0.00    -0.379 OA
HETATM    7  C20 UNL     1      -8.597  22.267  14.138  1.00  0.00     0.117 C 
ENDROOT
BRANCH   1   8
HETATM    8  C14 UNL     1      -9.027  25.995  15.921  1.00  0.00     0.032 C 
BRANCH   8   9
HETATM    9  C13 UNL     1      -8.879  27.287  15.186  1.00  0.00     0.002 C 
BRANCH   9  10
HETATM   10  C12 UNL     1      -8.016  28.286  15.924  1.00  0.00     0.000 C 
BRANCH  10  11
HETATM   11  C11 UNL     1      -6.559  27.873  15.948  1.00  0.00     0.004 C 
BRANCH  11  12
HETATM   12  C10 UNL     1      -6.113  27.767  14.500  1.00  0.00     0.033 C 
BRANCH  12  13
HETATM   13  C8  UNL     1      -5.187  26.631  14.270  1.00  0.00    -0.087 C 
HETATM   14  C7  UNL     1      -5.032  26.185  13.048  1.00  0.00    -0.020 C 
HETATM   15  C9  UNL     1      -4.456  26.017  15.398  1.00  0.00     0.043 C 
BRANCH  14  16
HETATM   16  C6  UNL     1      -4.095  25.034  12.804  1.00  0.00     0.055 C 
BRANCH  16  17
HETATM   17  C5  UNL     1      -2.974  25.553  12.028  1.00  0.00    -0.007 C 
HETATM   18  C4  UNL     1      -1.742  25.103  12.095  1.00  0.00     0.003 C 
HETATM   19 BR1  UNL     1      -0.461  26.011  11.005  1.00  0.00    -0.054 Br
BRANCH  18  20
HETATM   20  C3  UNL     1      -1.360  24.006  12.979  1.00  0.00     0.168 C 
BRANCH  20  21
HETATM   21  N1  UNL     1       0.030  23.782  13.167  1.00  0.00    -0.357 N 
HETATM   22  C2  UNL     1       0.848  24.268  14.186  1.00  0.00     0.213 C 
HETATM   23  C1  UNL     1       2.327  23.920  14.182  1.00  0.00     0.117 C 
HETATM   24  O1  UNL     1       0.432  24.978  15.111  1.00  0.00    -0.274 OA
ATOM     25  H1  UNL     1       0.486  23.194  12.470  1.00  0.00     0.162 HD
ENDBRANCH  20  21
ENDBRANCH  18  20
ENDBRANCH  16  17
ENDBRANCH  14  16
ENDBRANCH  12  13
ENDBRANCH  11  12
ENDBRANCH  10  11
ENDBRANCH   9  10
ENDBRANCH   8   9
ENDBRANCH   1   8
BRANCH   7  26
HETATM   26  N2  UNL     1      -9.998  22.464  14.025  1.00  0.00    -0.353 N 
HETATM   27  C21 UNL     1     -10.797  21.454  13.428  1.00  0.00     0.225 C 
HETATM   28  O3  UNL     1     -10.259  20.401  13.002  1.00  0.00    -0.273 OA
ATOM     29  H2  UNL     1     -10.426  23.322  14.370  1.00  0.00     0.163 HD
BRANCH  27  30
HETATM   30  C22 UNL     1     -12.278  21.567  13.268  1.00  0.00     0.100 C 
HETATM   31  C23 UNL     1     -12.988  20.774  14.296  1.00  0.00    -0.017 C 
HETATM   32  C24 UNL     1     -13.608  21.219  15.374  1.00  0.00    -0.030 C 
HETATM   33  C25 UNL     1     -13.821  22.592  15.939  1.00  0.00     0.027 C 
HETATM   34  C26 UNL     1     -14.583  23.457  14.956  1.00  0.00     0.004 C 
HETATM   35  C27 UNL     1     -14.209  23.123  13.527  1.00  0.00     0.001 C 
HETATM   36  C28 UNL     1     -12.740  22.983  13.328  1.00  0.00     0.018 C 
ENDBRANCH  27  30
ENDBRANCH   7  26
TORSDOF 12
ENDMDL
