MODEL 1
REMARK VINA RESULT: -9.053696578      0.000      0.000
REMARK  12 active torsions:
REMARK  status: ('A' for Active; 'I' for Inactive)
REMARK    1  A    between atoms: C2_2  and  C5_5 
REMARK    2  A    between atoms: C8_9  and  C9_10 
REMARK    3  A    between atoms: C9_10  and  N1_11 
REMARK    4  A    between atoms: N2_16  and  C11_17 
REMARK    5  A    between atoms: C11_17  and  C12_18 
REMARK    6  A    between atoms: C12_18  and  C13_19 
REMARK    7  A    between atoms: C13_19  and  C14_20 
REMARK    8  A    between atoms: C14_20  and  C15_21 
REMARK    9  A    between atoms: C15_21  and  C16_22 
REMARK   10  A    between atoms: C16_22  and  C17_23 
REMARK   11  A    between atoms: C17_23  and  C18_24 
REMARK   12  A    between atoms: C18_24  and  N3_25 
ROOT
HETATM    1  C12 UNL     1      -7.357  27.336  16.549  1.00  0.00     0.045 C 
ENDROOT
BRANCH   1   2
HETATM    2  C11 UNL     1      -5.964  27.039  16.012  1.00  0.00     0.069 C 
BRANCH   2   3
HETATM    3  N2  UNL     1      -5.658  25.725  15.645  1.00  0.00    -0.337 N 
HETATM    4  C5  UNL     1      -4.846  25.363  14.650  1.00  0.00     0.040 A 
HETATM    5  C6  UNL     1      -4.592  23.971  14.429  1.00  0.00     0.035 A 
HETATM    6 BR1  UNL     1      -3.430  23.345  13.047  1.00  0.00    -0.049 Br
HETATM    7  C7  UNL     1      -5.169  23.017  15.217  1.00  0.00     0.031 A 
HETATM    8  C8  UNL     1      -6.000  23.390  16.232  1.00  0.00    -0.016 A 
HETATM    9  C10 UNL     1      -6.213  24.726  16.407  1.00  0.00     0.105 A 
BRANCH   4  10
HETATM   10  C2  UNL     1      -4.192  26.213  13.691  1.00  0.00    -0.007 C 
HETATM   11  C1  UNL     1      -4.981  27.549  13.661  1.00  0.00     0.021 C 
HETATM   12  C3  UNL     1      -4.078  25.874  12.246  1.00  0.00     0.021 C 
HETATM   13  C4  UNL     1      -2.772  26.632  14.190  1.00  0.00     0.021 C 
ENDBRANCH   4  10
BRANCH   8  14
HETATM   14  C9  UNL     1      -6.659  22.385  17.125  1.00  0.00     0.269 C 
BRANCH  14  15
HETATM   15  N1  UNL     1      -7.656  23.102  17.913  1.00  0.00    -0.075 N 
ATOM     16  H13 UNL     1      -7.842  22.665  18.817  1.00  0.00     0.274 HD
ATOM     17  H12 UNL     1      -7.319  23.997  18.268  1.00  0.00     0.274 HD
ATOM     18  H11 UNL     1      -8.490  23.190  17.332  1.00  0.00     0.274 HD
ENDBRANCH  14  15
ENDBRANCH   8  14
ENDBRANCH   2   3
ENDBRANCH   1   2
BRANCH   1  19
HETATM   19  C13 UNL     1      -8.241  28.059  15.639  1.00  0.00     0.005 C 
BRANCH  19  20
HETATM   20  C14 UNL     1      -9.473  27.366  15.234  1.00  0.00     0.000 C 
BRANCH  20  21
HETATM   21  C15 UNL     1      -9.592  26.455  14.107  1.00  0.00     0.000 C 
BRANCH  21  22
HETATM   22  C16 UNL     1      -8.388  26.036  13.376  1.00  0.00     0.002 C 
BRANCH  22  23
HETATM   23  C17 UNL     1      -8.335  24.517  13.169  1.00  0.00     0.022 C 
BRANCH  23  24
HETATM   24  C18 UNL     1      -8.902  23.895  14.428  1.00  0.00     0.149 C 
BRANCH  24  25
HETATM   25  N3  UNL     1      -9.964  22.975  14.127  1.00  0.00    -0.289 N 
HETATM   26  N4  UNL     1      -9.803  21.895  13.376  1.00  0.00    -0.263 N 
HETATM   27  C19 UNL     1     -10.982  21.268  13.299  1.00  0.00     0.272 A 
ATOM     28  H4  UNL     1      -8.934  21.595  12.934  1.00  0.00     0.190 HD
HETATM   29  O1  UNL     1     -11.230  20.217  12.682  1.00  0.00    -0.266 OA
HETATM   30  C20 UNL     1     -11.892  21.989  14.026  1.00  0.00     0.061 A 
HETATM   31  C21 UNL     1     -13.231  21.852  14.314  1.00  0.00     0.019 A 
HETATM   32  C25 UNL     1     -11.223  23.088  14.555  1.00  0.00     0.066 A 
HETATM   33  C22 UNL     1     -13.910  22.754  15.095  1.00  0.00     0.001 A 
HETATM   34  C23 UNL     1     -13.222  23.838  15.610  1.00  0.00     0.002 A 
HETATM   35  C24 UNL     1     -11.872  24.023  15.348  1.00  0.00     0.032 A 
ENDBRANCH  24  25
ENDBRANCH  23  24
ENDBRANCH  22  23
ENDBRANCH  21  22
ENDBRANCH  20  21
ENDBRANCH  19  20
ENDBRANCH   1  19
TORSDOF 12
ENDMDL
MODEL 2
REMARK VINA RESULT: -9.048052703      2.937      7.196
REMARK  12 active torsions:
REMARK  status: ('A' for Active; 'I' for Inactive)
REMARK    1  A    between atoms: C2_2  and  C5_5 
REMARK    2  A    between atoms: C8_9  and  C9_10 
REMARK    3  A    between atoms: C9_10  and  N1_11 
REMARK    4  A    between atoms: N2_16  and  C11_17 
REMARK    5  A    between atoms: C11_17  and  C12_18 
REMARK    6  A    between atoms: C12_18  and  C13_19 
REMARK    7  A    between atoms: C13_19  and  C14_20 
REMARK    8  A    between atoms: C14_20  and  C15_21 
REMARK    9  A    between atoms: C15_21  and  C16_22 
REMARK   10  A    between atoms: C16_22  and  C17_23 
REMARK   11  A    between atoms: C17_23  and  C18_24 
REMARK   12  A    between atoms: C18_24  and  N3_25 
ROOT
HETATM    1  C12 UNL     1     -10.174  26.514  14.573  1.00  0.00     0.045 C 
ENDROOT
BRANCH   1   2
HETATM    2  C11 UNL     1     -11.209  25.399  14.512  1.00  0.00     0.069 C 
BRANCH   2   3
HETATM    3  N2  UNL     1     -10.761  24.082  14.366  1.00  0.00    -0.337 N 
HETATM    4  C5  UNL     1     -11.527  22.991  14.401  1.00  0.00     0.040 A 
HETATM    5  C6  UNL     1     -10.925  21.709  14.184  1.00  0.00     0.035 A 
HETATM    6 BR1  UNL     1     -11.934  20.086  14.191  1.00  0.00    -0.049 Br
HETATM    7  C7  UNL     1      -9.586  21.593  13.946  1.00  0.00     0.031 A 
HETATM    8  C8  UNL     1      -8.805  22.710  13.913  1.00  0.00    -0.016 A 
HETATM    9  C10 UNL     1      -9.420  23.910  14.124  1.00  0.00     0.105 A 
BRANCH   4  10
HETATM   10  C2  UNL     1     -12.935  22.910  14.684  1.00  0.00    -0.007 C 
HETATM   11  C1  UNL     1     -13.284  24.122  15.589  1.00  0.00     0.021 C 
HETATM   12  C3  UNL     1     -13.555  21.772  15.418  1.00  0.00     0.021 C 
HETATM   13  C4  UNL     1     -13.782  23.156  13.394  1.00  0.00     0.021 C 
ENDBRANCH   4  10
BRANCH   8  14
HETATM   14  C9  UNL     1      -7.332  22.639  13.658  1.00  0.00     0.269 C 
BRANCH  14  15
HETATM   15  N1  UNL     1      -7.064  23.436  12.466  1.00  0.00    -0.075 N 
ATOM     16  H13 UNL     1      -6.427  22.980  11.813  1.00  0.00     0.274 HD
ATOM     17  H12 UNL     1      -7.867  23.503  11.840  1.00  0.00     0.274 HD
ATOM     18  H11 UNL     1      -6.728  24.345  12.783  1.00  0.00     0.274 HD
ENDBRANCH  14  15
ENDBRANCH   8  14
ENDBRANCH   2   3
ENDBRANCH   1   2
BRANCH   1  19
HETATM   19  C13 UNL     1      -9.693  26.854  15.909  1.00  0.00     0.005 C 
BRANCH  19  20
HETATM   20  C14 UNL     1      -9.101  28.190  16.072  1.00  0.00     0.000 C 
BRANCH  20  21
HETATM   21  C15 UNL     1      -7.676  28.481  16.080  1.00  0.00     0.000 C 
BRANCH  21  22
HETATM   22  C16 UNL     1      -6.716  27.444  15.673  1.00  0.00     0.002 C 
BRANCH  22  23
HETATM   23  C17 UNL     1      -6.258  27.615  14.220  1.00  0.00     0.022 C 
BRANCH  23  24
HETATM   24  C18 UNL     1      -4.744  27.593  14.246  1.00  0.00     0.149 C 
BRANCH  24  25
HETATM   25  N3  UNL     1      -4.222  26.489  13.489  1.00  0.00    -0.289 N 
HETATM   26  N4  UNL     1      -3.791  26.599  12.240  1.00  0.00    -0.263 N 
HETATM   27  C19 UNL     1      -3.377  25.391  11.840  1.00  0.00     0.272 A 
ATOM     28  H4  UNL     1      -3.778  27.453  11.683  1.00  0.00     0.190 HD
HETATM   29  O1  UNL     1      -2.906  25.094  10.728  1.00  0.00    -0.266 OA
HETATM   30  C20 UNL     1      -3.562  24.517  12.878  1.00  0.00     0.061 A 
HETATM   31  C21 UNL     1      -3.333  23.173  13.066  1.00  0.00     0.019 A 
HETATM   32  C25 UNL     1      -4.108  25.236  13.936  1.00  0.00     0.066 A 
HETATM   33  C22 UNL     1      -3.622  22.536  14.248  1.00  0.00     0.001 A 
HETATM   34  C23 UNL     1      -4.164  23.275  15.285  1.00  0.00     0.002 A 
HETATM   35  C24 UNL     1      -4.415  24.632  15.146  1.00  0.00     0.032 A 
ENDBRANCH  24  25
ENDBRANCH  23  24
ENDBRANCH  22  23
ENDBRANCH  21  22
ENDBRANCH  20  21
ENDBRANCH  19  20
ENDBRANCH   1  19
TORSDOF 12
ENDMDL
MODEL 3
REMARK VINA RESULT: -8.745588083      2.806      6.610
REMARK  12 active torsions:
REMARK  status: ('A' for Active; 'I' for Inactive)
REMARK    1  A    between atoms: C2_2  and  C5_5 
REMARK    2  A    between atoms: C8_9  and  C9_10 
REMARK    3  A    between atoms: C9_10  and  N1_11 
REMARK    4  A    between atoms: N2_16  and  C11_17 
REMARK    5  A    between atoms: C11_17  and  C12_18 
REMARK    6  A    between atoms: C12_18  and  C13_19 
REMARK    7  A    between atoms: C13_19  and  C14_20 
REMARK    8  A    between atoms: C14_20  and  C15_21 
REMARK    9  A    between atoms: C15_21  and  C16_22 
REMARK   10  A    between atoms: C16_22  and  C17_23 
REMARK   11  A    between atoms: C17_23  and  C18_24 
REMARK   12  A    between atoms: C18_24  and  N3_25 
ROOT
HETATM    1  C12 UNL     1     -10.204  26.595  14.515  1.00  0.00     0.045 C 
ENDROOT
BRANCH   1   2
HETATM    2  C11 UNL     1     -11.229  25.471  14.471  1.00  0.00     0.069 C 
BRANCH   2   3
HETATM    3  N2  UNL     1     -10.772  24.159  14.305  1.00  0.00    -0.337 N 
HETATM    4  C5  UNL     1     -11.520  23.057  14.385  1.00  0.00     0.040 A 
HETATM    5  C6  UNL     1     -10.913  21.783  14.141  1.00  0.00     0.035 A 
HETATM    6 BR1  UNL     1     -11.897  20.146  14.208  1.00  0.00    -0.049 Br
HETATM    7  C7  UNL     1      -9.587  21.684  13.831  1.00  0.00     0.031 A 
HETATM    8  C8  UNL     1      -8.824  22.812  13.752  1.00  0.00    -0.016 A 
HETATM    9  C10 UNL     1      -9.444  24.004  13.991  1.00  0.00     0.105 A 
BRANCH   4  10
HETATM   10  C2  UNL     1     -12.909  22.959  14.744  1.00  0.00    -0.007 C 
HETATM   11  C1  UNL     1     -13.231  24.183  15.642  1.00  0.00     0.021 C 
HETATM   12  C3  UNL     1     -13.469  21.826  15.533  1.00  0.00     0.021 C 
HETATM   13  C4  UNL     1     -13.827  23.163  13.497  1.00  0.00     0.021 C 
ENDBRANCH   4  10
BRANCH   8  14
HETATM   14  C9  UNL     1      -7.366  22.759  13.417  1.00  0.00     0.269 C 
BRANCH  14  15
HETATM   15  N1  UNL     1      -7.124  23.771  12.395  1.00  0.00    -0.075 N 
ATOM     16  H13 UNL     1      -6.193  23.710  11.983  1.00  0.00     0.274 HD
ATOM     17  H12 UNL     1      -7.657  23.612  11.539  1.00  0.00     0.274 HD
ATOM     18  H11 UNL     1      -7.314  24.678  12.821  1.00  0.00     0.274 HD
ENDBRANCH  14  15
ENDBRANCH   8  14
ENDBRANCH   2   3
ENDBRANCH   1   2
BRANCH   1  19
HETATM   19  C13 UNL     1      -9.584  26.829  15.816  1.00  0.00     0.005 C 
BRANCH  19  20
HETATM   20  C14 UNL     1      -8.766  28.044  15.943  1.00  0.00     0.000 C 
BRANCH  20  21
HETATM   21  C15 UNL     1      -7.468  28.252  15.320  1.00  0.00     0.000 C 
BRANCH  21  22
HETATM   22  C16 UNL     1      -7.079  27.444  14.155  1.00  0.00     0.002 C 
BRANCH  22  23
HETATM   23  C17 UNL     1      -5.558  27.382  13.974  1.00  0.00     0.022 C 
BRANCH  23  24
HETATM   24  C18 UNL     1      -4.979  27.084  15.342  1.00  0.00     0.149 C 
BRANCH  24  25
HETATM   25  N3  UNL     1      -4.698  25.684  15.499  1.00  0.00    -0.289 N 
HETATM   26  N4  UNL     1      -3.565  25.118  15.108  1.00  0.00    -0.263 N 
HETATM   27  C19 UNL     1      -3.633  23.814  15.401  1.00  0.00     0.272 A 
ATOM     28  H4  UNL     1      -2.780  25.592  14.662  1.00  0.00     0.190 HD
HETATM   29  O1  UNL     1      -2.762  22.954  15.186  1.00  0.00    -0.266 OA
HETATM   30  C20 UNL     1      -4.847  23.577  15.990  1.00  0.00     0.061 A 
HETATM   31  C21 UNL     1      -5.479  22.464  16.495  1.00  0.00     0.019 A 
HETATM   32  C25 UNL     1      -5.525  24.791  16.047  1.00  0.00     0.066 A 
HETATM   33  C22 UNL     1      -6.736  22.519  17.045  1.00  0.00     0.001 A 
HETATM   34  C23 UNL     1      -7.389  23.738  17.090  1.00  0.00     0.002 A 
HETATM   35  C24 UNL     1      -6.796  24.890  16.593  1.00  0.00     0.032 A 
ENDBRANCH  24  25
ENDBRANCH  23  24
ENDBRANCH  22  23
ENDBRANCH  21  22
ENDBRANCH  20  21
ENDBRANCH  19  20
ENDBRANCH   1  19
TORSDOF 12
ENDMDL
MODEL 4
REMARK VINA RESULT: -8.682043217      2.052      3.801
REMARK  12 active torsions:
REMARK  status: ('A' for Active; 'I' for Inactive)
REMARK    1  A    between atoms: C2_2  and  C5_5 
REMARK    2  A    between atoms: C8_9  and  C9_10 
REMARK    3  A    between atoms: C9_10  and  N1_11 
REMARK    4  A    between atoms: N2_16  and  C11_17 
REMARK    5  A    between atoms: C11_17  and  C12_18 
REMARK    6  A    between atoms: C12_18  and  C13_19 
REMARK    7  A    between atoms: C13_19  and  C14_20 
REMARK    8  A    between atoms: C14_20  and  C15_21 
REMARK    9  A    between atoms: C15_21  and  C16_22 
REMARK   10  A    between atoms: C16_22  and  C17_23 
REMARK   11  A    between atoms: C17_23  and  C18_24 
REMARK   12  A    between atoms: C18_24  and  N3_25 
ROOT
HETATM    1  C12 UNL     1      -5.954  27.213  13.541  1.00  0.00     0.045 C 
ENDROOT
BRANCH   1   2
HETATM    2  C11 UNL     1      -5.628  25.752  13.260  1.00  0.00     0.069 C 
BRANCH   2   3
HETATM    3  N2  UNL     1      -4.355  25.436  12.775  1.00  0.00    -0.337 N 
HETATM    4  C5  UNL     1      -3.506  24.565  13.325  1.00  0.00     0.040 A 
HETATM    5  C6  UNL     1      -2.253  24.311  12.680  1.00  0.00     0.035 A 
HETATM    6 BR1  UNL     1      -0.976  23.067  13.369  1.00  0.00    -0.049 Br
HETATM    7  C7  UNL     1      -1.918  24.947  11.519  1.00  0.00     0.031 A 
HETATM    8  C8  UNL     1      -2.786  25.838  10.961  1.00  0.00    -0.016 A 
HETATM    9  C10 UNL     1      -3.969  26.049  11.609  1.00  0.00     0.105 A 
BRANCH   4  10
HETATM   10  C2  UNL     1      -3.661  23.841  14.558  1.00  0.00    -0.007 C 
HETATM   11  C1  UNL     1      -4.413  24.779  15.540  1.00  0.00     0.021 C 
HETATM   12  C3  UNL     1      -2.509  23.374  15.379  1.00  0.00     0.021 C 
HETATM   13  C4  UNL     1      -4.634  22.632  14.382  1.00  0.00     0.021 C 
ENDBRANCH   4  10
BRANCH   8  14
HETATM   14  C9  UNL     1      -2.468  26.564   9.691  1.00  0.00     0.269 C 
BRANCH  14  15
HETATM   15  N1  UNL     1      -1.289  27.384   9.950  1.00  0.00    -0.075 N 
ATOM     16  H13 UNL     1      -1.453  28.112  10.646  1.00  0.00     0.274 HD
ATOM     17  H12 UNL     1      -0.556  26.884  10.454  1.00  0.00     0.274 HD
ATOM     18  H11 UNL     1      -0.977  27.752   9.052  1.00  0.00     0.274 HD
ENDBRANCH  14  15
ENDBRANCH   8  14
ENDBRANCH   2   3
ENDBRANCH   1   2
BRANCH   1  19
HETATM   19  C13 UNL     1      -6.943  27.445  14.589  1.00  0.00     0.005 C 
BRANCH  19  20
HETATM   20  C14 UNL     1      -8.200  26.689  14.481  1.00  0.00     0.000 C 
BRANCH  20  21
HETATM   21  C15 UNL     1      -8.727  25.787  15.493  1.00  0.00     0.000 C 
BRANCH  21  22
HETATM   22  C16 UNL     1      -8.149  24.444  15.647  1.00  0.00     0.002 C 
BRANCH  22  23
HETATM   23  C17 UNL     1      -8.363  23.575  14.403  1.00  0.00     0.022 C 
BRANCH  23  24
HETATM   24  C18 UNL     1      -8.936  22.262  14.895  1.00  0.00     0.149 C 
BRANCH  24  25
HETATM   25  N3  UNL     1     -10.206  21.982  14.283  1.00  0.00    -0.289 N 
HETATM   26  N4  UNL     1     -10.362  21.121  13.287  1.00  0.00    -0.263 N 
HETATM   27  C19 UNL     1     -11.659  21.102  12.959  1.00  0.00     0.272 A 
ATOM     28  H4  UNL     1      -9.624  20.571  12.848  1.00  0.00     0.190 HD
HETATM   29  O1  UNL     1     -12.195  20.418  12.070  1.00  0.00    -0.266 OA
HETATM   30  C20 UNL     1     -12.315  21.980  13.781  1.00  0.00     0.061 A 
HETATM   31  C21 UNL     1     -13.623  22.384  13.922  1.00  0.00     0.019 A 
HETATM   32  C25 UNL     1     -11.367  22.541  14.631  1.00  0.00     0.066 A 
HETATM   33  C22 UNL     1     -14.009  23.309  14.861  1.00  0.00     0.001 A 
HETATM   34  C23 UNL     1     -13.047  23.852  15.694  1.00  0.00     0.002 A 
HETATM   35  C24 UNL     1     -11.714  23.478  15.592  1.00  0.00     0.032 A 
ENDBRANCH  24  25
ENDBRANCH  23  24
ENDBRANCH  22  23
ENDBRANCH  21  22
ENDBRANCH  20  21
ENDBRANCH  19  20
ENDBRANCH   1  19
TORSDOF 12
ENDMDL
MODEL 5
REMARK VINA RESULT: -8.668351517      2.980      7.405
REMARK  12 active torsions:
REMARK  status: ('A' for Active; 'I' for Inactive)
REMARK    1  A    between atoms: C2_2  and  C5_5 
REMARK    2  A    between atoms: C8_9  and  C9_10 
REMARK    3  A    between atoms: C9_10  and  N1_11 
REMARK    4  A    between atoms: N2_16  and  C11_17 
REMARK    5  A    between atoms: C11_17  and  C12_18 
REMARK    6  A    between atoms: C12_18  and  C13_19 
REMARK    7  A    between atoms: C13_19  and  C14_20 
REMARK    8  A    between atoms: C14_20  and  C15_21 
REMARK    9  A    between atoms: C15_21  and  C16_22 
REMARK   10  A    between atoms: C16_22  and  C17_23 
REMARK   11  A    between atoms: C17_23  and  C18_24 
REMARK   12  A    between atoms: C18_24  and  N3_25 
ROOT
HETATM    1  C12 UNL     1     -10.162  26.520  14.554  1.00  0.00     0.045 C 
ENDROOT
BRANCH   1   2
HETATM    2  C11 UNL     1     -11.201  25.408  14.506  1.00  0.00     0.069 C 
BRANCH   2   3
HETATM    3  N2  UNL     1     -10.757  24.087  14.388  1.00  0.00    -0.337 N 
HETATM    4  C5  UNL     1     -11.528  22.999  14.439  1.00  0.00     0.040 A 
HETATM    5  C6  UNL     1     -10.930  21.711  14.252  1.00  0.00     0.035 A 
HETATM    6 BR1  UNL     1     -11.945  20.092  14.284  1.00  0.00    -0.049 Br
HETATM    7  C7  UNL     1      -9.589  21.585  14.025  1.00  0.00     0.031 A 
HETATM    8  C8  UNL     1      -8.804  22.699  13.975  1.00  0.00    -0.016 A 
HETATM    9  C10 UNL     1      -9.416  23.905  14.158  1.00  0.00     0.105 A 
BRANCH   4  10
HETATM   10  C2  UNL     1     -12.938  22.929  14.714  1.00  0.00    -0.007 C 
HETATM   11  C1  UNL     1     -13.287  24.157  15.598  1.00  0.00     0.021 C 
HETATM   12  C3  UNL     1     -13.568  21.805  15.462  1.00  0.00     0.021 C 
HETATM   13  C4  UNL     1     -13.775  23.158  13.415  1.00  0.00     0.021 C 
ENDBRANCH   4  10
BRANCH   8  14
HETATM   14  C9  UNL     1      -7.329  22.616  13.731  1.00  0.00     0.269 C 
BRANCH  14  15
HETATM   15  N1  UNL     1      -7.049  23.399  12.532  1.00  0.00    -0.075 N 
ATOM     16  H13 UNL     1      -7.001  22.831  11.686  1.00  0.00     0.274 HD
ATOM     17  H12 UNL     1      -7.830  23.991  12.249  1.00  0.00     0.274 HD
ATOM     18  H11 UNL     1      -6.193  23.924  12.711  1.00  0.00     0.274 HD
ENDBRANCH  14  15
ENDBRANCH   8  14
ENDBRANCH   2   3
ENDBRANCH   1   2
BRANCH   1  19
HETATM   19  C13 UNL     1      -9.685  26.875  15.888  1.00  0.00     0.005 C 
BRANCH  19  20
HETATM   20  C14 UNL     1      -9.048  28.194  16.025  1.00  0.00     0.000 C 
BRANCH  20  21
HETATM   21  C15 UNL     1      -7.616  28.428  16.117  1.00  0.00     0.000 C 
BRANCH  21  22
HETATM   22  C16 UNL     1      -6.716  27.873  15.096  1.00  0.00     0.002 C 
BRANCH  22  23
HETATM   23  C17 UNL     1      -5.609  27.007  15.707  1.00  0.00     0.022 C 
BRANCH  23  24
HETATM   24  C18 UNL     1      -5.845  25.597  15.206  1.00  0.00     0.149 C 
BRANCH  24  25
HETATM   25  N3  UNL     1      -4.614  24.964  14.821  1.00  0.00    -0.289 N 
HETATM   26  N4  UNL     1      -3.927  24.158  15.618  1.00  0.00    -0.263 N 
HETATM   27  C19 UNL     1      -2.842  23.747  14.952  1.00  0.00     0.272 A 
ATOM     28  H4  UNL     1      -4.180  23.898  16.571  1.00  0.00     0.190 HD
HETATM   29  O1  UNL     1      -1.955  22.981  15.369  1.00  0.00    -0.266 OA
HETATM   30  C20 UNL     1      -2.868  24.320  13.708  1.00  0.00     0.061 A 
HETATM   31  C21 UNL     1      -2.048  24.279  12.604  1.00  0.00     0.019 A 
HETATM   32  C25 UNL     1      -4.016  25.104  13.635  1.00  0.00     0.066 A 
HETATM   33  C22 UNL     1      -2.328  24.975  11.454  1.00  0.00     0.001 A 
HETATM   34  C23 UNL     1      -3.476  25.747  11.407  1.00  0.00     0.002 A 
HETATM   35  C24 UNL     1      -4.335  25.823  12.494  1.00  0.00     0.032 A 
ENDBRANCH  24  25
ENDBRANCH  23  24
ENDBRANCH  22  23
ENDBRANCH  21  22
ENDBRANCH  20  21
ENDBRANCH  19  20
ENDBRANCH   1  19
TORSDOF 12
ENDMDL
