MODEL 1
REMARK VINA RESULT: -10.757181679      0.000      0.000
REMARK  8 active torsions:
REMARK  status: ('A' for Active; 'I' for Inactive)
REMARK    1  A    between atoms: C2_2  and  C3_3 
REMARK    2  A    between atoms: C3_3  and  N1_4 
REMARK    3  A    between atoms: C17_19  and  O1_20 
REMARK    4  A    between atoms: O1_20  and  C18_21 
REMARK    5  A    between atoms: C18_21  and  C19_22 
REMARK    6  A    between atoms: C19_22  and  C20_23 
REMARK    7  A    between atoms: C23_26  and  C24_27 
REMARK    8  A    between atoms: C24_27  and  O2_30 
ROOT
HETATM    1  N1  UNL     1      -2.273  26.377  13.348  1.00  0.00    -0.366 N 
HETATM    2  C4  UNL     1      -2.365  25.881  12.032  1.00  0.00     0.076 C 
HETATM    3  S1  UNL     1      -1.090  25.123  11.345  1.00  0.00    -0.066 SA
HETATM    4  C5  UNL     1      -3.596  26.040  11.268  1.00  0.00     0.070 C 
HETATM    5  C6  UNL     1      -4.481  27.145  11.728  1.00  0.00     0.018 C 
HETATM    6  C7  UNL     1      -4.536  27.375  13.192  1.00  0.00    -0.019 C 
HETATM    7  C8  UNL     1      -4.422  28.897  13.402  1.00  0.00     0.018 C 
HETATM    8  C9  UNL     1      -5.906  27.034  13.775  1.00  0.00     0.004 C 
HETATM    9  C10 UNL     1      -6.986  27.924  13.266  1.00  0.00     0.007 C 
HETATM   10  C11 UNL     1      -8.364  27.354  13.327  1.00  0.00     0.017 C 
HETATM   11  C12 UNL     1      -8.525  26.336  14.401  1.00  0.00     0.006 C 
HETATM   12  C13 UNL     1      -8.363  26.909  15.777  1.00  0.00     0.023 C 
HETATM   13  C14 UNL     1      -7.515  25.247  14.139  1.00  0.00    -0.068 C 
HETATM   14  C15 UNL     1      -8.054  24.098  14.495  1.00  0.00    -0.020 C 
HETATM   15  C16 UNL     1      -9.438  24.286  15.017  1.00  0.00     0.060 C 
HETATM   16  C17 UNL     1      -9.836  25.600  14.312  1.00  0.00     0.137 C 
HETATM   17  C27 UNL     1      -6.182  25.569  13.572  1.00  0.00     0.020 C 
HETATM   18  C28 UNL     1      -5.085  24.743  14.167  1.00  0.00     0.011 C 
HETATM   19  C29 UNL     1      -3.996  25.512  14.806  1.00  0.00     0.027 C 
HETATM   20  C30 UNL     1      -3.513  26.718  14.032  1.00  0.00     0.093 C 
ENDROOT
BRANCH  16  21
HETATM   21  O1  UNL     1     -10.878  26.197  14.972  1.00  0.00    -0.384 OA
BRANCH  21  22
HETATM   22  C18 UNL     1     -11.505  25.454  15.932  1.00  0.00     0.170 C 
BRANCH  22  23
HETATM   23  C19 UNL     1     -12.994  25.514  15.946  1.00  0.00     0.058 C 
BRANCH  23  24
HETATM   24  C20 UNL     1     -13.630  24.385  15.165  1.00  0.00     0.124 C 
HETATM   25  C21 UNL     1     -14.534  24.859  14.083  1.00  0.00     0.034 C 
HETATM   26  C22 UNL     1     -13.807  24.458  12.818  1.00  0.00     0.037 C 
HETATM   27  C23 UNL     1     -12.670  23.601  13.295  1.00  0.00     0.155 C 
HETATM   28  O3  UNL     1     -12.726  23.494  14.657  1.00  0.00    -0.378 OA
BRANCH  27  29
HETATM   29  C24 UNL     1     -12.704  22.252  12.594  1.00  0.00     0.076 C 
HETATM   30  C25 UNL     1     -11.288  21.724  12.539  1.00  0.00     0.048 C 
HETATM   31  C26 UNL     1     -13.372  22.303  11.261  1.00  0.00     0.048 C 
BRANCH  29  32
HETATM   32  O2  UNL     1     -13.423  21.381  13.418  1.00  0.00    -0.388 OA
ATOM     33  H2  UNL     1     -12.974  21.357  14.255  1.00  0.00     0.210 HD
ENDBRANCH  29  32
ENDBRANCH  27  29
ENDBRANCH  23  24
ENDBRANCH  22  23
ENDBRANCH  21  22
ENDBRANCH  16  21
BRANCH   1  34
HETATM   34  C3  UNL     1      -0.987  26.528  13.973  1.00  0.00     0.150 C 
BRANCH  34  35
HETATM   35  C2  UNL     1      -0.780  25.644  15.108  1.00  0.00    -0.017 C 
HETATM   36  C1  UNL     1      -0.451  24.368  15.081  1.00  0.00     0.008 C 
ENDBRANCH  34  35
ENDBRANCH   1  34
TORSDOF 8
ENDMDL
MODEL 2
REMARK VINA RESULT: -10.663251989      1.013      1.067
REMARK  8 active torsions:
REMARK  status: ('A' for Active; 'I' for Inactive)
REMARK    1  A    between atoms: C2_2  and  C3_3 
REMARK    2  A    between atoms: C3_3  and  N1_4 
REMARK    3  A    between atoms: C17_19  and  O1_20 
REMARK    4  A    between atoms: O1_20  and  C18_21 
REMARK    5  A    between atoms: C18_21  and  C19_22 
REMARK    6  A    between atoms: C19_22  and  C20_23 
REMARK    7  A    between atoms: C23_26  and  C24_27 
REMARK    8  A    between atoms: C24_27  and  O2_30 
ROOT
HETATM    1  N1  UNL     1      -1.764  25.380  12.447  1.00  0.00    -0.366 N 
HETATM    2  C4  UNL     1      -2.051  25.638  11.092  1.00  0.00     0.076 C 
HETATM    3  S1  UNL     1      -1.031  25.130   9.920  1.00  0.00    -0.066 SA
HETATM    4  C5  UNL     1      -3.261  26.361  10.719  1.00  0.00     0.070 C 
HETATM    5  C6  UNL     1      -3.839  27.212  11.795  1.00  0.00     0.018 C 
HETATM    6  C7  UNL     1      -3.745  26.679  13.175  1.00  0.00    -0.019 C 
HETATM    7  C8  UNL     1      -3.273  27.845  14.065  1.00  0.00     0.018 C 
HETATM    8  C9  UNL     1      -5.115  26.323  13.746  1.00  0.00     0.004 C 
HETATM    9  C10 UNL     1      -5.995  27.513  13.918  1.00  0.00     0.007 C 
HETATM   10  C11 UNL     1      -7.460  27.226  13.932  1.00  0.00     0.017 C 
HETATM   11  C12 UNL     1      -7.779  25.849  14.397  1.00  0.00     0.006 C 
HETATM   12  C13 UNL     1      -7.402  25.615  15.829  1.00  0.00     0.023 C 
HETATM   13  C14 UNL     1      -7.063  24.891  13.478  1.00  0.00    -0.068 C 
HETATM   14  C15 UNL     1      -7.826  23.827  13.326  1.00  0.00    -0.020 C 
HETATM   15  C16 UNL     1      -9.094  23.953  14.101  1.00  0.00     0.060 C 
HETATM   16  C17 UNL     1      -9.226  25.487  14.190  1.00  0.00     0.137 C 
HETATM   17  C27 UNL     1      -5.731  25.228  12.918  1.00  0.00     0.020 C 
HETATM   18  C28 UNL     1      -4.815  24.047  12.848  1.00  0.00     0.011 C 
HETATM   19  C29 UNL     1      -3.541  24.197  13.582  1.00  0.00     0.027 C 
HETATM   20  C30 UNL     1      -2.846  25.530  13.410  1.00  0.00     0.093 C 
ENDROOT
BRANCH  16  21
HETATM   21  O1  UNL     1     -10.059  25.833  15.222  1.00  0.00    -0.384 OA
BRANCH  21  22
HETATM   22  C18 UNL     1     -11.339  26.176  14.891  1.00  0.00     0.170 C 
BRANCH  22  23
HETATM   23  C19 UNL     1     -12.412  25.678  15.797  1.00  0.00     0.058 C 
BRANCH  23  24
HETATM   24  C20 UNL     1     -13.158  24.495  15.222  1.00  0.00     0.124 C 
HETATM   25  C21 UNL     1     -14.300  24.888  14.353  1.00  0.00     0.034 C 
HETATM   26  C22 UNL     1     -13.856  24.454  12.973  1.00  0.00     0.037 C 
HETATM   27  C23 UNL     1     -12.607  23.657  13.215  1.00  0.00     0.155 C 
HETATM   28  O3  UNL     1     -12.354  23.612  14.557  1.00  0.00    -0.378 OA
BRANCH  27  29
HETATM   29  C24 UNL     1     -12.739  22.277  12.590  1.00  0.00     0.076 C 
HETATM   30  C25 UNL     1     -11.359  21.662  12.531  1.00  0.00     0.048 C 
HETATM   31  C26 UNL     1     -13.438  22.298  11.271  1.00  0.00     0.048 C 
BRANCH  29  32
HETATM   32  O2  UNL     1     -13.487  21.497  13.477  1.00  0.00    -0.388 OA
ATOM     33  H2  UNL     1     -13.771  20.728  12.998  1.00  0.00     0.210 HD
ENDBRANCH  29  32
ENDBRANCH  27  29
ENDBRANCH  23  24
ENDBRANCH  22  23
ENDBRANCH  21  22
ENDBRANCH  16  21
BRANCH   1  34
HETATM   34  C3  UNL     1      -0.440  24.981  12.839  1.00  0.00     0.150 C 
BRANCH  34  35
HETATM   35  C2  UNL     1      -0.009  25.545  14.108  1.00  0.00    -0.017 C 
HETATM   36  C1  UNL     1       0.374  24.891  15.187  1.00  0.00     0.008 C 
ENDBRANCH  34  35
ENDBRANCH   1  34
TORSDOF 8
ENDMDL
MODEL 3
REMARK VINA RESULT: -10.588171799      1.283      2.677
REMARK  8 active torsions:
REMARK  status: ('A' for Active; 'I' for Inactive)
REMARK    1  A    between atoms: C2_2  and  C3_3 
REMARK    2  A    between atoms: C3_3  and  N1_4 
REMARK    3  A    between atoms: C17_19  and  O1_20 
REMARK    4  A    between atoms: O1_20  and  C18_21 
REMARK    5  A    between atoms: C18_21  and  C19_22 
REMARK    6  A    between atoms: C19_22  and  C20_23 
REMARK    7  A    between atoms: C23_26  and  C24_27 
REMARK    8  A    between atoms: C24_27  and  O2_30 
ROOT
HETATM    1  N1  UNL     1      -2.595  25.892  12.033  1.00  0.00    -0.366 N 
HETATM    2  C4  UNL     1      -1.980  26.544  13.120  1.00  0.00     0.076 C 
HETATM    3  S1  UNL     1      -0.636  27.445  12.888  1.00  0.00    -0.066 SA
HETATM    4  C5  UNL     1      -2.533  26.422  14.463  1.00  0.00     0.070 C 
HETATM    5  C6  UNL     1      -3.391  25.225  14.681  1.00  0.00     0.018 C 
HETATM    6  C7  UNL     1      -4.240  24.809  13.538  1.00  0.00    -0.019 C 
HETATM    7  C8  UNL     1      -4.094  23.281  13.415  1.00  0.00     0.018 C 
HETATM    8  C9  UNL     1      -5.726  25.006  13.828  1.00  0.00     0.004 C 
HETATM    9  C10 UNL     1      -6.218  24.134  14.931  1.00  0.00     0.007 C 
HETATM   10  C11 UNL     1      -7.442  24.623  15.633  1.00  0.00     0.017 C 
HETATM   11  C12 UNL     1      -8.297  25.488  14.776  1.00  0.00     0.006 C 
HETATM   12  C13 UNL     1      -8.881  24.755  13.605  1.00  0.00     0.023 C 
HETATM   13  C14 UNL     1      -7.448  26.650  14.326  1.00  0.00    -0.068 C 
HETATM   14  C15 UNL     1      -8.220  27.717  14.262  1.00  0.00    -0.020 C 
HETATM   15  C16 UNL     1      -9.623  27.396  14.649  1.00  0.00     0.060 C 
HETATM   16  C17 UNL     1      -9.399  26.164  15.549  1.00  0.00     0.137 C 
HETATM   17  C27 UNL     1      -6.002  26.469  14.043  1.00  0.00     0.020 C 
HETATM   18  C28 UNL     1      -5.539  27.268  12.865  1.00  0.00     0.011 C 
HETATM   19  C29 UNL     1      -4.926  26.479  11.775  1.00  0.00     0.027 C 
HETATM   20  C30 UNL     1      -3.956  25.406  12.216  1.00  0.00     0.093 C 
ENDROOT
BRANCH  16  21
HETATM   21  O1  UNL     1     -10.556  25.437  15.657  1.00  0.00    -0.384 OA
BRANCH  21  22
HETATM   22  C18 UNL     1     -11.722  26.089  15.373  1.00  0.00     0.170 C 
BRANCH  22  23
HETATM   23  C19 UNL     1     -12.955  25.548  16.011  1.00  0.00     0.058 C 
BRANCH  23  24
HETATM   24  C20 UNL     1     -13.550  24.390  15.242  1.00  0.00     0.124 C 
HETATM   25  C21 UNL     1     -14.483  24.819  14.165  1.00  0.00     0.034 C 
HETATM   26  C22 UNL     1     -13.750  24.442  12.896  1.00  0.00     0.037 C 
HETATM   27  C23 UNL     1     -12.574  23.636  13.367  1.00  0.00     0.155 C 
HETATM   28  O3  UNL     1     -12.613  23.535  14.729  1.00  0.00    -0.378 OA
BRANCH  27  29
HETATM   29  C24 UNL     1     -12.557  22.284  12.673  1.00  0.00     0.076 C 
HETATM   30  C25 UNL     1     -11.116  21.834  12.572  1.00  0.00     0.048 C 
HETATM   31  C26 UNL     1     -13.271  22.290  11.363  1.00  0.00     0.048 C 
BRANCH  29  32
HETATM   32  O2  UNL     1     -13.198  21.379  13.524  1.00  0.00    -0.388 OA
ATOM     33  H2  UNL     1     -13.060  20.512  13.163  1.00  0.00     0.210 HD
ENDBRANCH  29  32
ENDBRANCH  27  29
ENDBRANCH  23  24
ENDBRANCH  22  23
ENDBRANCH  21  22
ENDBRANCH  16  21
BRANCH   1  34
HETATM   34  C3  UNL     1      -1.884  25.727  10.795  1.00  0.00     0.150 C 
BRANCH  34  35
HETATM   35  C2  UNL     1      -1.798  24.347  10.347  1.00  0.00    -0.017 C 
HETATM   36  C1  UNL     1      -1.790  23.906   9.105  1.00  0.00     0.008 C 
ENDBRANCH  34  35
ENDBRANCH   1  34
TORSDOF 8
ENDMDL
MODEL 4
REMARK VINA RESULT: -9.674106839      1.253      1.847
REMARK  8 active torsions:
REMARK  status: ('A' for Active; 'I' for Inactive)
REMARK    1  A    between atoms: C2_2  and  C3_3 
REMARK    2  A    between atoms: C3_3  and  N1_4 
REMARK    3  A    between atoms: C17_19  and  O1_20 
REMARK    4  A    between atoms: O1_20  and  C18_21 
REMARK    5  A    between atoms: C18_21  and  C19_22 
REMARK    6  A    between atoms: C19_22  and  C20_23 
REMARK    7  A    between atoms: C23_26  and  C24_27 
REMARK    8  A    between atoms: C24_27  and  O2_30 
ROOT
HETATM    1  N1  UNL     1      -1.645  26.386  12.831  1.00  0.00    -0.366 N 
HETATM    2  C4  UNL     1      -1.442  25.003  12.656  1.00  0.00     0.076 C 
HETATM    3  S1  UNL     1       0.036  24.348  12.900  1.00  0.00    -0.066 SA
HETATM    4  C5  UNL     1      -2.546  24.140  12.254  1.00  0.00     0.070 C 
HETATM    5  C6  UNL     1      -3.668  24.836  11.568  1.00  0.00     0.018 C 
HETATM    6  C7  UNL     1      -3.992  26.198  12.057  1.00  0.00    -0.019 C 
HETATM    7  C8  UNL     1      -4.174  27.082  10.808  1.00  0.00     0.018 C 
HETATM    8  C9  UNL     1      -5.357  26.252  12.738  1.00  0.00     0.004 C 
HETATM    9  C10 UNL     1      -6.480  25.969  11.800  1.00  0.00     0.007 C 
HETATM   10  C11 UNL     1      -7.732  25.467  12.438  1.00  0.00     0.017 C 
HETATM   11  C12 UNL     1      -7.885  25.912  13.850  1.00  0.00     0.006 C 
HETATM   12  C13 UNL     1      -8.043  27.397  13.980  1.00  0.00     0.023 C 
HETATM   13  C14 UNL     1      -6.675  25.421  14.605  1.00  0.00    -0.068 C 
HETATM   14  C15 UNL     1      -7.060  25.101  15.825  1.00  0.00    -0.020 C 
HETATM   15  C16 UNL     1      -8.520  25.335  16.013  1.00  0.00     0.060 C 
HETATM   16  C17 UNL     1      -9.020  25.220  14.558  1.00  0.00     0.137 C 
HETATM   17  C27 UNL     1      -5.344  25.365  13.953  1.00  0.00     0.020 C 
HETATM   18  C28 UNL     1      -4.230  25.754  14.873  1.00  0.00     0.011 C 
HETATM   19  C29 UNL     1      -3.403  26.890  14.411  1.00  0.00     0.027 C 
HETATM   20  C30 UNL     1      -3.017  26.860  12.949  1.00  0.00     0.093 C 
ENDROOT
BRANCH  16  21
HETATM   21  O1  UNL     1     -10.239  25.830  14.424  1.00  0.00    -0.384 OA
BRANCH  21  22
HETATM   22  C18 UNL     1     -11.032  25.873  15.536  1.00  0.00     0.170 C 
BRANCH  22  23
HETATM   23  C19 UNL     1     -12.497  26.008  15.300  1.00  0.00     0.058 C 
BRANCH  23  24
HETATM   24  C20 UNL     1     -13.151  24.696  14.926  1.00  0.00     0.124 C 
HETATM   25  C21 UNL     1     -14.395  24.868  14.129  1.00  0.00     0.034 C 
HETATM   26  C22 UNL     1     -14.017  24.323  12.768  1.00  0.00     0.037 C 
HETATM   27  C23 UNL     1     -12.672  23.690  12.978  1.00  0.00     0.155 C 
HETATM   28  O3  UNL     1     -12.309  23.827  14.289  1.00  0.00    -0.378 OA
BRANCH  27  29
HETATM   29  C24 UNL     1     -12.700  22.240  12.520  1.00  0.00     0.076 C 
HETATM   30  C25 UNL     1     -11.290  21.700  12.609  1.00  0.00     0.048 C 
HETATM   31  C26 UNL     1     -13.320  22.065  11.174  1.00  0.00     0.048 C 
BRANCH  29  32
HETATM   32  O2  UNL     1     -13.459  21.531  13.455  1.00  0.00    -0.388 OA
ATOM     33  H2  UNL     1     -12.854  21.195  14.106  1.00  0.00     0.210 HD
ENDBRANCH  29  32
ENDBRANCH  27  29
ENDBRANCH  23  24
ENDBRANCH  22  23
ENDBRANCH  21  22
ENDBRANCH  16  21
BRANCH   1  34
HETATM   34  C3  UNL     1      -0.519  27.278  12.891  1.00  0.00     0.150 C 
BRANCH  34  35
HETATM   35  C2  UNL     1      -0.255  27.973  11.642  1.00  0.00    -0.017 C 
HETATM   36  C1  UNL     1      -0.419  27.512  10.418  1.00  0.00     0.008 C 
ENDBRANCH  34  35
ENDBRANCH   1  34
TORSDOF 8
ENDMDL
MODEL 5
REMARK VINA RESULT: -9.652336085      1.453      2.053
REMARK  8 active torsions:
REMARK  status: ('A' for Active; 'I' for Inactive)
REMARK    1  A    between atoms: C2_2  and  C3_3 
REMARK    2  A    between atoms: C3_3  and  N1_4 
REMARK    3  A    between atoms: C17_19  and  O1_20 
REMARK    4  A    between atoms: O1_20  and  C18_21 
REMARK    5  A    between atoms: C18_21  and  C19_22 
REMARK    6  A    between atoms: C19_22  and  C20_23 
REMARK    7  A    between atoms: C23_26  and  C24_27 
REMARK    8  A    between atoms: C24_27  and  O2_30 
ROOT
HETATM    1  N1  UNL     1      -1.038  25.244  12.508  1.00  0.00    -0.366 N 
HETATM    2  C4  UNL     1      -0.998  25.752  11.194  1.00  0.00     0.076 C 
HETATM    3  S1  UNL     1       0.078  25.162  10.113  1.00  0.00    -0.066 SA
HETATM    4  C5  UNL     1      -1.914  26.809  10.783  1.00  0.00     0.070 C 
HETATM    5  C6  UNL     1      -2.469  27.625  11.897  1.00  0.00     0.018 C 
HETATM    6  C7  UNL     1      -2.762  26.902  13.158  1.00  0.00    -0.019 C 
HETATM    7  C8  UNL     1      -2.207  27.770  14.303  1.00  0.00     0.018 C 
HETATM    8  C9  UNL     1      -4.260  26.839  13.447  1.00  0.00     0.004 C 
HETATM    9  C10 UNL     1      -4.854  28.182  13.699  1.00  0.00     0.007 C 
HETATM   10  C11 UNL     1      -6.321  28.288  13.445  1.00  0.00     0.017 C 
HETATM   11  C12 UNL     1      -7.034  26.991  13.602  1.00  0.00     0.006 C 
HETATM   12  C13 UNL     1      -6.997  26.472  15.009  1.00  0.00     0.023 C 
HETATM   13  C14 UNL     1      -6.402  26.015  12.641  1.00  0.00    -0.068 C 
HETATM   14  C15 UNL     1      -7.349  25.217  12.190  1.00  0.00    -0.020 C 
HETATM   15  C16 UNL     1      -8.675  25.561  12.779  1.00  0.00     0.060 C 
HETATM   16  C17 UNL     1      -8.460  27.050  13.123  1.00  0.00     0.137 C 
HETATM   17  C27 UNL     1      -4.947  26.068  12.353  1.00  0.00     0.020 C 
HETATM   18  C28 UNL     1      -4.335  24.710  12.208  1.00  0.00     0.011 C 
HETATM   19  C29 UNL     1      -3.222  24.421  13.136  1.00  0.00     0.027 C 
HETATM   20  C30 UNL     1      -2.217  25.537  13.312  1.00  0.00     0.093 C 
ENDROOT
BRANCH  16  21
HETATM   21  O1  UNL     1      -9.368  27.455  14.066  1.00  0.00    -0.384 OA
BRANCH  21  22
HETATM   22  C18 UNL     1     -10.567  26.801  14.088  1.00  0.00     0.170 C 
BRANCH  22  23
HETATM   23  C19 UNL     1     -11.043  26.339  15.422  1.00  0.00     0.058 C 
BRANCH  23  24
HETATM   24  C20 UNL     1     -11.559  24.917  15.397  1.00  0.00     0.124 C 
HETATM   25  C21 UNL     1     -12.989  24.806  15.789  1.00  0.00     0.034 C 
HETATM   26  C22 UNL     1     -13.673  24.389  14.505  1.00  0.00     0.037 C 
HETATM   27  C23 UNL     1     -12.545  24.087  13.561  1.00  0.00     0.155 C 
HETATM   28  O3  UNL     1     -11.355  24.282  14.203  1.00  0.00    -0.378 OA
BRANCH  27  29
HETATM   29  C24 UNL     1     -12.694  22.680  13.004  1.00  0.00     0.076 C 
HETATM   30  C25 UNL     1     -13.558  21.892  13.963  1.00  0.00     0.048 C 
HETATM   31  C26 UNL     1     -11.384  22.027  12.710  1.00  0.00     0.048 C 
BRANCH  29  32
HETATM   32  O2  UNL     1     -13.415  22.786  11.812  1.00  0.00    -0.388 OA
ATOM     33  H2  UNL     1     -13.103  22.099  11.236  1.00  0.00     0.210 HD
ENDBRANCH  29  32
ENDBRANCH  27  29
ENDBRANCH  23  24
ENDBRANCH  22  23
ENDBRANCH  21  22
ENDBRANCH  16  21
BRANCH   1  34
HETATM   34  C3  UNL     1       0.059  24.464  13.012  1.00  0.00     0.150 C 
BRANCH  34  35
HETATM   35  C2  UNL     1       0.291  24.631  14.437  1.00  0.00    -0.017 C 
HETATM   36  C1  UNL     1       0.947  25.607  15.034  1.00  0.00     0.008 C 
ENDBRANCH  34  35
ENDBRANCH   1  34
TORSDOF 8
ENDMDL
