MODEL 1
REMARK VINA RESULT: -9.747829170      0.000      0.000
REMARK  8 active torsions:
REMARK  status: ('A' for Active; 'I' for Inactive)
REMARK    1  A    between atoms: C2_2  and  C3_3 
REMARK    2  A    between atoms: C2_2  and  C6_6 
REMARK    3  A    between atoms: C16_16  and  N1_17 
REMARK       I    between atoms: N1_17  and  C17_19 
REMARK    4  A    between atoms: C17_19  and  C18_21 
REMARK    5  A    between atoms: C18_21  and  C20_24 
REMARK    6  A    between atoms: C20_24  and  C21_25 
REMARK    7  A    between atoms: C21_25  and  C22_26 
REMARK    8  A    between atoms: C22_26  and  N3_27 
ROOT
HETATM    1  C3  UNL     1     -12.568  24.688  13.779  1.00  0.00    -0.072 C 
HETATM    2  C4  UNL     1     -13.268  24.389  12.849  1.00  0.00    -0.106 C 
HETATM    3  C5  UNL     1     -14.121  24.054  11.715  1.00  0.00     0.112 C 
ENDROOT
BRANCH   1   4
HETATM    4  C2  UNL     1     -11.676  25.040  14.931  1.00  0.00    -0.009 C 
HETATM    5  C1  UNL     1     -12.321  25.022  16.061  1.00  0.00     0.029 C 
BRANCH   4   6
HETATM    6  C6  UNL     1     -10.285  25.345  14.615  1.00  0.00     0.034 C 
HETATM    7  C7  UNL     1      -9.846  26.465  15.560  1.00  0.00     0.011 C 
HETATM    8  C8  UNL     1      -8.638  27.066  14.880  1.00  0.00     0.011 C 
HETATM    9  C9  UNL     1      -7.528  26.053  15.024  1.00  0.00    -0.035 C 
HETATM   10  C10 UNL     1      -7.370  25.839  16.537  1.00  0.00     0.016 C 
HETATM   11  C11 UNL     1      -7.858  24.821  14.285  1.00  0.00     0.002 C 
HETATM   12  C30 UNL     1      -6.267  26.732  14.589  1.00  0.00     0.004 C 
HETATM   13  C12 UNL     1      -7.349  24.858  12.863  1.00  0.00     0.007 C 
HETATM   14  C31 UNL     1      -9.278  24.316  14.402  1.00  0.00    -0.035 C 
HETATM   15  C13 UNL     1      -5.849  25.038  12.807  1.00  0.00     0.012 C 
HETATM   16  C14 UNL     1      -5.270  25.849  13.902  1.00  0.00    -0.019 C 
HETATM   17  C15 UNL     1      -4.429  25.031  14.885  1.00  0.00     0.018 C 
HETATM   18  C16 UNL     1      -4.298  26.919  13.380  1.00  0.00     0.093 C 
HETATM   19  C28 UNL     1      -5.164  28.005  12.844  1.00  0.00     0.026 C 
HETATM   20  C29 UNL     1      -6.451  27.880  13.644  1.00  0.00     0.008 C 
HETATM   21  C32 UNL     1      -9.573  23.631  13.074  1.00  0.00     0.016 C 
HETATM   22  C33 UNL     1      -9.340  23.239  15.459  1.00  0.00     0.016 C 
BRANCH  18  23
HETATM   23  N1  UNL     1      -3.350  26.376  12.441  1.00  0.00    -0.355 N 
HETATM   24  C17 UNL     1      -1.983  26.688  12.600  1.00  0.00     0.235 C 
HETATM   25  O1  UNL     1      -1.498  27.407  13.497  1.00  0.00    -0.272 OA
ATOM     26  H1  UNL     1      -3.661  25.777  11.676  1.00  0.00     0.162 HD
BRANCH  24  27
HETATM   27  C18 UNL     1      -0.993  26.104  11.597  1.00  0.00     0.184 C 
HETATM   28  C19 UNL     1      -1.787  26.001  10.356  1.00  0.00     0.073 C 
HETATM   29  N2  UNL     1      -2.437  25.940   9.391  1.00  0.00    -0.196 NA
BRANCH  27  30
HETATM   30  C20 UNL     1      -0.492  24.804  12.081  1.00  0.00     0.030 C 
BRANCH  30  31
HETATM   31  C21 UNL     1      -1.295  23.989  13.009  1.00  0.00     0.032 C 
BRANCH  31  32
HETATM   32  C22 UNL     1      -0.746  23.738  14.376  1.00  0.00     0.272 C 
BRANCH  32  33
HETATM   33  N3  UNL     1       0.589  24.343  14.502  1.00  0.00     0.088 N 
HETATM   34  C23 UNL     1       1.497  23.344  15.097  1.00  0.00     0.272 C 
HETATM   35  C24 UNL     1       2.881  23.902  15.081  1.00  0.00     0.030 C 
HETATM   36  C25 UNL     1       2.975  25.244  15.777  1.00  0.00     0.003 C 
HETATM   37  C26 UNL     1       1.838  26.147  15.419  1.00  0.00     0.030 C 
HETATM   38  C27 UNL     1       0.514  25.390  15.487  1.00  0.00     0.272 C 
ENDBRANCH  32  33
ENDBRANCH  31  32
ENDBRANCH  30  31
ENDBRANCH  27  30
ENDBRANCH  24  27
ENDBRANCH  18  23
ENDBRANCH   4   6
ENDBRANCH   1   4
TORSDOF 8
ENDMDL
MODEL 2
REMARK VINA RESULT: -9.371228172      3.054     10.233
REMARK  8 active torsions:
REMARK  status: ('A' for Active; 'I' for Inactive)
REMARK    1  A    between atoms: C2_2  and  C3_3 
REMARK    2  A    between atoms: C2_2  and  C6_6 
REMARK    3  A    between atoms: C16_16  and  N1_17 
REMARK       I    between atoms: N1_17  and  C17_19 
REMARK    4  A    between atoms: C17_19  and  C18_21 
REMARK    5  A    between atoms: C18_21  and  C20_24 
REMARK    6  A    between atoms: C20_24  and  C21_25 
REMARK    7  A    between atoms: C21_25  and  C22_26 
REMARK    8  A    between atoms: C22_26  and  N3_27 
ROOT
HETATM    1  C3  UNL     1       0.647  25.727   7.415  1.00  0.00    -0.072 C 
HETATM    2  C4  UNL     1       1.610  25.044   7.194  1.00  0.00    -0.106 C 
HETATM    3  C5  UNL     1       2.774  24.201   6.947  1.00  0.00     0.112 C 
ENDROOT
BRANCH   1   4
HETATM    4  C2  UNL     1      -0.563  26.577   7.664  1.00  0.00    -0.009 C 
HETATM    5  C1  UNL     1      -0.725  27.467   6.729  1.00  0.00     0.029 C 
BRANCH   4   6
HETATM    6  C6  UNL     1      -1.329  26.290   8.872  1.00  0.00     0.034 C 
HETATM    7  C7  UNL     1      -0.485  25.340   9.722  1.00  0.00     0.011 C 
HETATM    8  C8  UNL     1      -1.484  24.699  10.658  1.00  0.00     0.011 C 
HETATM    9  C9  UNL     1      -1.881  25.768  11.645  1.00  0.00    -0.035 C 
HETATM   10  C10 UNL     1      -0.569  26.207  12.315  1.00  0.00     0.016 C 
HETATM   11  C11 UNL     1      -2.589  26.865  10.959  1.00  0.00     0.002 C 
HETATM   12  C30 UNL     1      -2.664  25.089  12.724  1.00  0.00     0.004 C 
HETATM   13  C12 UNL     1      -4.083  26.643  10.926  1.00  0.00     0.007 C 
HETATM   14  C31 UNL     1      -2.019  27.319   9.635  1.00  0.00    -0.035 C 
HETATM   15  C13 UNL     1      -4.664  26.522  12.317  1.00  0.00     0.012 C 
HETATM   16  C14 UNL     1      -3.770  25.905  13.322  1.00  0.00    -0.019 C 
HETATM   17  C15 UNL     1      -3.271  26.893  14.379  1.00  0.00     0.018 C 
HETATM   18  C16 UNL     1      -4.481  24.812  14.138  1.00  0.00     0.093 C 
HETATM   19  C28 UNL     1      -4.526  23.624  13.243  1.00  0.00     0.026 C 
HETATM   20  C29 UNL     1      -3.330  23.809  12.322  1.00  0.00     0.008 C 
HETATM   21  C32 UNL     1      -3.217  27.790   8.821  1.00  0.00     0.016 C 
HETATM   22  C33 UNL     1      -1.150  28.536   9.855  1.00  0.00     0.016 C 
BRANCH  18  23
HETATM   23  N1  UNL     1      -5.760  25.254  14.631  1.00  0.00    -0.355 N 
HETATM   24  C17 UNL     1      -6.337  24.571  15.724  1.00  0.00     0.235 C 
HETATM   25  O1  UNL     1      -5.838  23.597  16.323  1.00  0.00    -0.272 OA
ATOM     26  H1  UNL     1      -6.240  26.043  14.200  1.00  0.00     0.162 HD
BRANCH  24  27
HETATM   27  C18 UNL     1      -7.693  25.052  16.234  1.00  0.00     0.184 C 
HETATM   28  C19 UNL     1      -8.577  23.894  15.995  1.00  0.00     0.073 C 
HETATM   29  N2  UNL     1      -9.247  22.961  15.800  1.00  0.00    -0.196 NA
BRANCH  27  30
HETATM   30  C20 UNL     1      -8.105  26.265  15.503  1.00  0.00     0.030 C 
BRANCH  30  31
HETATM   31  C21 UNL     1      -9.524  26.655  15.438  1.00  0.00     0.032 C 
BRANCH  31  32
HETATM   32  C22 UNL     1     -10.233  26.507  14.131  1.00  0.00     0.272 C 
BRANCH  32  33
HETATM   33  N3  UNL     1     -11.599  26.008  14.352  1.00  0.00     0.088 N 
HETATM   34  C23 UNL     1     -11.722  25.605  15.766  1.00  0.00     0.272 C 
HETATM   35  C24 UNL     1     -13.148  25.247  16.028  1.00  0.00     0.030 C 
HETATM   36  C25 UNL     1     -13.661  24.179  15.084  1.00  0.00     0.003 C 
HETATM   37  C26 UNL     1     -13.233  24.420  13.671  1.00  0.00     0.030 C 
HETATM   38  C27 UNL     1     -11.750  24.779  13.616  1.00  0.00     0.272 C 
ENDBRANCH  32  33
ENDBRANCH  31  32
ENDBRANCH  30  31
ENDBRANCH  27  30
ENDBRANCH  24  27
ENDBRANCH  18  23
ENDBRANCH   4   6
ENDBRANCH   1   4
TORSDOF 8
ENDMDL
MODEL 3
REMARK VINA RESULT: -9.242332976      1.448      2.288
REMARK  8 active torsions:
REMARK  status: ('A' for Active; 'I' for Inactive)
REMARK    1  A    between atoms: C2_2  and  C3_3 
REMARK    2  A    between atoms: C2_2  and  C6_6 
REMARK    3  A    between atoms: C16_16  and  N1_17 
REMARK       I    between atoms: N1_17  and  C17_19 
REMARK    4  A    between atoms: C17_19  and  C18_21 
REMARK    5  A    between atoms: C18_21  and  C20_24 
REMARK    6  A    between atoms: C20_24  and  C21_25 
REMARK    7  A    between atoms: C21_25  and  C22_26 
REMARK    8  A    between atoms: C22_26  and  N3_27 
ROOT
HETATM    1  C3  UNL     1     -14.011  23.617  14.487  1.00  0.00    -0.072 C 
HETATM    2  C4  UNL     1     -14.557  23.105  15.428  1.00  0.00    -0.106 C 
HETATM    3  C5  UNL     1     -15.242  22.484  16.555  1.00  0.00     0.112 C 
ENDROOT
BRANCH   1   4
HETATM    4  C2  UNL     1     -13.310  24.237  13.317  1.00  0.00    -0.009 C 
HETATM    5  C1  UNL     1     -14.112  24.393  12.304  1.00  0.00     0.029 C 
BRANCH   4   6
HETATM    6  C6  UNL     1     -11.895  24.547  13.488  1.00  0.00     0.034 C 
HETATM    7  C7  UNL     1     -11.813  25.787  14.380  1.00  0.00     0.011 C 
HETATM    8  C8  UNL     1     -10.432  26.341  14.112  1.00  0.00     0.011 C 
HETATM    9  C9  UNL     1      -9.463  25.390  14.771  1.00  0.00    -0.035 C 
HETATM   10  C10 UNL     1      -9.866  25.366  16.254  1.00  0.00     0.016 C 
HETATM   11  C11 UNL     1      -9.520  24.067  14.124  1.00  0.00     0.002 C 
HETATM   12  C30 UNL     1      -8.122  26.052  14.740  1.00  0.00     0.004 C 
HETATM   13  C12 UNL     1      -8.530  23.948  12.988  1.00  0.00     0.007 C 
HETATM   14  C31 UNL     1     -10.893  23.534  13.783  1.00  0.00    -0.035 C 
HETATM   15  C13 UNL     1      -7.110  24.169  13.455  1.00  0.00     0.012 C 
HETATM   16  C14 UNL     1      -6.956  25.126  14.574  1.00  0.00    -0.019 C 
HETATM   17  C15 UNL     1      -6.538  24.461  15.888  1.00  0.00     0.018 C 
HETATM   18  C16 UNL     1      -5.846  26.156  14.308  1.00  0.00     0.093 C 
HETATM   19  C28 UNL     1      -6.445  27.140  13.366  1.00  0.00     0.026 C 
HETATM   20  C29 UNL     1      -7.936  27.070  13.657  1.00  0.00     0.008 C 
HETATM   21  C32 UNL     1     -10.697  22.684  12.534  1.00  0.00     0.016 C 
HETATM   22  C33 UNL     1     -11.348  22.591  14.872  1.00  0.00     0.016 C 
BRANCH  18  23
HETATM   23  N1  UNL     1      -4.630  25.534  13.850  1.00  0.00    -0.355 N 
HETATM   24  C17 UNL     1      -3.419  26.251  13.960  1.00  0.00     0.235 C 
HETATM   25  O1  UNL     1      -3.291  27.402  14.426  1.00  0.00    -0.272 OA
ATOM     26  H1  UNL     1      -4.644  24.595  13.454  1.00  0.00     0.162 HD
BRANCH  24  27
HETATM   27  C18 UNL     1      -2.141  25.577  13.469  1.00  0.00     0.184 C 
HETATM   28  C19 UNL     1      -2.062  25.987  12.053  1.00  0.00     0.073 C 
HETATM   29  N2  UNL     1      -2.024  26.333  10.941  1.00  0.00    -0.196 NA
BRANCH  27  30
HETATM   30  C20 UNL     1      -2.238  24.117  13.653  1.00  0.00     0.030 C 
BRANCH  30  31
HETATM   31  C21 UNL     1      -1.460  23.440  14.704  1.00  0.00     0.032 C 
BRANCH  31  32
HETATM   32  C22 UNL     1      -0.960  24.265  15.846  1.00  0.00     0.272 C 
BRANCH  32  33
HETATM   33  N3  UNL     1       0.511  24.235  15.884  1.00  0.00     0.088 N 
HETATM   34  C23 UNL     1       1.016  25.458  15.232  1.00  0.00     0.272 C 
HETATM   35  C24 UNL     1       2.498  25.503  15.408  1.00  0.00     0.030 C 
HETATM   36  C25 UNL     1       3.183  24.255  14.888  1.00  0.00     0.003 C 
HETATM   37  C26 UNL     1       2.455  23.007  15.277  1.00  0.00     0.030 C 
HETATM   38  C27 UNL     1       0.957  23.164  15.030  1.00  0.00     0.272 C 
ENDBRANCH  32  33
ENDBRANCH  31  32
ENDBRANCH  30  31
ENDBRANCH  27  30
ENDBRANCH  24  27
ENDBRANCH  18  23
ENDBRANCH   4   6
ENDBRANCH   1   4
TORSDOF 8
ENDMDL
MODEL 4
REMARK VINA RESULT: -9.142945836      1.692      4.196
REMARK  8 active torsions:
REMARK  status: ('A' for Active; 'I' for Inactive)
REMARK    1  A    between atoms: C2_2  and  C3_3 
REMARK    2  A    between atoms: C2_2  and  C6_6 
REMARK    3  A    between atoms: C16_16  and  N1_17 
REMARK       I    between atoms: N1_17  and  C17_19 
REMARK    4  A    between atoms: C17_19  and  C18_21 
REMARK    5  A    between atoms: C18_21  and  C20_24 
REMARK    6  A    between atoms: C20_24  and  C21_25 
REMARK    7  A    between atoms: C21_25  and  C22_26 
REMARK    8  A    between atoms: C22_26  and  N3_27 
ROOT
HETATM    1  C3  UNL     1     -12.066  24.898  14.087  1.00  0.00    -0.072 C 
HETATM    2  C4  UNL     1     -12.890  24.652  13.248  1.00  0.00    -0.106 C 
HETATM    3  C5  UNL     1     -13.893  24.330  12.240  1.00  0.00     0.112 C 
ENDROOT
BRANCH   1   4
HETATM    4  C2  UNL     1     -11.049  25.230  15.138  1.00  0.00    -0.009 C 
HETATM    5  C1  UNL     1     -11.613  25.548  16.266  1.00  0.00     0.029 C 
BRANCH   4   6
HETATM    6  C6  UNL     1      -9.647  25.156  14.742  1.00  0.00     0.034 C 
HETATM    7  C7  UNL     1      -9.568  24.190  13.557  1.00  0.00     0.011 C 
HETATM    8  C8  UNL     1      -8.116  23.770  13.524  1.00  0.00     0.011 C 
HETATM    9  C9  UNL     1      -7.343  24.969  13.031  1.00  0.00    -0.035 C 
HETATM   10  C10 UNL     1      -7.945  25.301  11.657  1.00  0.00     0.016 C 
HETATM   11  C11 UNL     1      -7.439  26.076  14.000  1.00  0.00     0.002 C 
HETATM   12  C30 UNL     1      -5.952  24.497  12.747  1.00  0.00     0.004 C 
HETATM   13  C12 UNL     1      -6.320  26.041  15.015  1.00  0.00     0.007 C 
HETATM   14  C31 UNL     1      -8.798  26.330  14.612  1.00  0.00    -0.035 C 
HETATM   15  C13 UNL     1      -4.962  26.125  14.357  1.00  0.00     0.012 C 
HETATM   16  C14 UNL     1      -4.870  25.497  13.019  1.00  0.00    -0.019 C 
HETATM   17  C15 UNL     1      -4.702  26.510  11.884  1.00  0.00     0.018 C 
HETATM   18  C16 UNL     1      -3.639  24.585  12.891  1.00  0.00     0.093 C 
HETATM   19  C28 UNL     1      -4.006  23.333  13.607  1.00  0.00     0.026 C 
HETATM   20  C29 UNL     1      -5.522  23.279  13.506  1.00  0.00     0.008 C 
HETATM   21  C32 UNL     1      -8.517  26.869  16.008  1.00  0.00     0.016 C 
HETATM   22  C33 UNL     1      -9.487  27.443  13.857  1.00  0.00     0.016 C 
BRANCH  18  23
HETATM   23  N1  UNL     1      -2.439  25.227  13.360  1.00  0.00    -0.355 N 
HETATM   24  C17 UNL     1      -1.191  24.742  12.912  1.00  0.00     0.235 C 
HETATM   25  O1  UNL     1      -1.017  23.786  12.128  1.00  0.00    -0.272 OA
ATOM     26  H1  UNL     1      -2.489  26.016  14.004  1.00  0.00     0.162 HD
BRANCH  24  27
HETATM   27  C18 UNL     1       0.071  25.434  13.420  1.00  0.00     0.184 C 
HETATM   28  C19 UNL     1       0.284  24.823  14.747  1.00  0.00     0.073 C 
HETATM   29  N2  UNL     1       0.428  24.318  15.786  1.00  0.00    -0.196 NA
BRANCH  27  30
HETATM   30  C20 UNL     1      -0.141  26.893  13.473  1.00  0.00     0.030 C 
BRANCH  30  31
HETATM   31  C21 UNL     1       0.124  27.732  12.292  1.00  0.00     0.032 C 
BRANCH  31  32
HETATM   32  C22 UNL     1      -0.862  27.694  11.169  1.00  0.00     0.272 C 
BRANCH  32  33
HETATM   33  N3  UNL     1      -0.437  26.714  10.158  1.00  0.00     0.088 N 
HETATM   34  C23 UNL     1       0.263  27.435   9.078  1.00  0.00     0.272 C 
HETATM   35  C24 UNL     1       0.829  26.427   8.133  1.00  0.00     0.030 C 
HETATM   36  C25 UNL     1      -0.224  25.479   7.597  1.00  0.00     0.003 C 
HETATM   37  C26 UNL     1      -1.159  25.009   8.666  1.00  0.00     0.030 C 
HETATM   38  C27 UNL     1      -1.618  26.183   9.527  1.00  0.00     0.272 C 
ENDBRANCH  32  33
ENDBRANCH  31  32
ENDBRANCH  30  31
ENDBRANCH  27  30
ENDBRANCH  24  27
ENDBRANCH  18  23
ENDBRANCH   4   6
ENDBRANCH   1   4
TORSDOF 8
ENDMDL
MODEL 5
REMARK VINA RESULT: -9.003834539      1.488      2.030
REMARK  8 active torsions:
REMARK  status: ('A' for Active; 'I' for Inactive)
REMARK    1  A    between atoms: C2_2  and  C3_3 
REMARK    2  A    between atoms: C2_2  and  C6_6 
REMARK    3  A    between atoms: C16_16  and  N1_17 
REMARK       I    between atoms: N1_17  and  C17_19 
REMARK    4  A    between atoms: C17_19  and  C18_21 
REMARK    5  A    between atoms: C18_21  and  C20_24 
REMARK    6  A    between atoms: C20_24  and  C21_25 
REMARK    7  A    between atoms: C21_25  and  C22_26 
REMARK    8  A    between atoms: C22_26  and  N3_27 
ROOT
HETATM    1  C3  UNL     1     -13.812  22.868  14.352  1.00  0.00    -0.072 C 
HETATM    2  C4  UNL     1     -14.110  21.812  14.842  1.00  0.00    -0.106 C 
HETATM    3  C5  UNL     1     -14.497  20.540  15.441  1.00  0.00     0.112 C 
ENDROOT
BRANCH   1   4
HETATM    4  C2  UNL     1     -13.427  24.172  13.720  1.00  0.00    -0.009 C 
HETATM    5  C1  UNL     1     -14.462  24.795  13.237  1.00  0.00     0.029 C 
BRANCH   4   6
HETATM    6  C6  UNL     1     -12.010  24.517  13.737  1.00  0.00     0.034 C 
HETATM    7  C7  UNL     1     -11.873  25.804  14.553  1.00  0.00     0.011 C 
HETATM    8  C8  UNL     1     -10.538  26.369  14.125  1.00  0.00     0.011 C 
HETATM    9  C9  UNL     1      -9.487  25.472  14.734  1.00  0.00    -0.035 C 
HETATM   10  C10 UNL     1      -9.746  25.518  16.249  1.00  0.00     0.016 C 
HETATM   11  C11 UNL     1      -9.574  24.116  14.163  1.00  0.00     0.002 C 
HETATM   12  C30 UNL     1      -8.172  26.157  14.540  1.00  0.00     0.004 C 
HETATM   13  C12 UNL     1      -8.695  23.957  12.944  1.00  0.00     0.007 C 
HETATM   14  C31 UNL     1     -10.960  23.540  13.984  1.00  0.00    -0.035 C 
HETATM   15  C13 UNL     1      -7.242  24.229  13.259  1.00  0.00     0.012 C 
HETATM   16  C14 UNL     1      -7.005  25.245  14.309  1.00  0.00    -0.019 C 
HETATM   17  C15 UNL     1      -6.447  24.658  15.607  1.00  0.00     0.018 C 
HETATM   18  C16 UNL     1      -5.950  26.281  13.885  1.00  0.00     0.093 C 
HETATM   19  C28 UNL     1      -6.661  27.203  12.956  1.00  0.00     0.026 C 
HETATM   20  C29 UNL     1      -8.115  27.120  13.394  1.00  0.00     0.008 C 
HETATM   21  C32 UNL     1     -10.864  22.629  12.767  1.00  0.00     0.016 C 
HETATM   22  C33 UNL     1     -11.286  22.647  15.158  1.00  0.00     0.016 C 
BRANCH  18  23
HETATM   23  N1  UNL     1      -4.770  25.660  13.343  1.00  0.00    -0.355 N 
HETATM   24  C17 UNL     1      -3.538  26.341  13.445  1.00  0.00     0.235 C 
HETATM   25  O1  UNL     1      -3.362  27.458  13.973  1.00  0.00    -0.272 OA
ATOM     26  H1  UNL     1      -4.823  24.746  12.894  1.00  0.00     0.162 HD
BRANCH  24  27
HETATM   27  C18 UNL     1      -2.297  25.667  12.865  1.00  0.00     0.184 C 
HETATM   28  C19 UNL     1      -2.463  25.843  11.409  1.00  0.00     0.073 C 
HETATM   29  N2  UNL     1      -2.620  26.004  10.266  1.00  0.00    -0.196 NA
BRANCH  27  30
HETATM   30  C20 UNL     1      -2.248  24.254  13.284  1.00  0.00     0.030 C 
BRANCH  30  31
HETATM   31  C21 UNL     1      -1.876  23.893  14.662  1.00  0.00     0.032 C 
BRANCH  31  32
HETATM   32  C22 UNL     1      -0.617  23.114  14.868  1.00  0.00     0.272 C 
BRANCH  32  33
HETATM   33  N3  UNL     1       0.550  24.000  14.734  1.00  0.00     0.088 N 
HETATM   34  C23 UNL     1       1.737  23.282  15.238  1.00  0.00     0.272 C 
HETATM   35  C24 UNL     1       2.942  24.118  14.959  1.00  0.00     0.030 C 
HETATM   36  C25 UNL     1       2.829  25.512  15.541  1.00  0.00     0.003 C 
HETATM   37  C26 UNL     1       1.477  26.112  15.315  1.00  0.00     0.030 C 
HETATM   38  C27 UNL     1       0.383  25.100  15.647  1.00  0.00     0.272 C 
ENDBRANCH  32  33
ENDBRANCH  31  32
ENDBRANCH  30  31
ENDBRANCH  27  30
ENDBRANCH  24  27
ENDBRANCH  18  23
ENDBRANCH   4   6
ENDBRANCH   1   4
TORSDOF 8
ENDMDL
