MODEL 1
REMARK VINA RESULT: -8.994561140      0.000      0.000
REMARK  9 active torsions:
REMARK  status: ('A' for Active; 'I' for Inactive)
REMARK    1  A    between atoms: C10_10  and  C11_11 
REMARK    2  A    between atoms: C11_11  and  C12_12 
REMARK    3  A    between atoms: C12_12  and  C13_13 
REMARK    4  A    between atoms: C14_14  and  C15_15 
REMARK    5  A    between atoms: C20_20  and  O1_21 
REMARK    6  A    between atoms: O1_21  and  S1_22 
REMARK    7  A    between atoms: S1_22  and  O4_25 
REMARK    8  A    between atoms: O4_25  and  C21_26 
REMARK    9  A    between atoms: C21_26  and  C22_27 
ROOT
HETATM    1  C1  UNL     1      -2.603  28.019  14.699  1.00  0.00     0.015 C 
HETATM    2  C2  UNL     1      -2.159  27.390  13.603  1.00  0.00    -0.079 C 
HETATM    3  C3  UNL     1      -0.886  27.987  13.172  1.00  0.00     0.034 C 
HETATM    4  C4  UNL     1      -0.408  27.801  11.802  1.00  0.00     0.005 C 
HETATM    5  C5  UNL     1      -1.326  26.990  10.917  1.00  0.00     0.010 C 
HETATM    6  C6  UNL     1      -1.788  25.904  11.826  1.00  0.00    -0.032 C 
HETATM    7  C7  UNL     1      -0.541  25.211  12.225  1.00  0.00     0.016 C 
HETATM    8  C8  UNL     1      -2.563  24.795  11.153  1.00  0.00     0.011 C 
HETATM    9  C9  UNL     1      -3.154  24.087  12.340  1.00  0.00     0.012 C 
HETATM   10  C10 UNL     1      -3.254  25.032  13.537  1.00  0.00    -0.018 C 
HETATM   11  C17 UNL     1      -4.685  24.928  13.967  1.00  0.00    -0.011 C 
HETATM   12  C18 UNL     1      -4.981  25.004  15.451  1.00  0.00     0.018 C 
HETATM   13  C19 UNL     1      -5.340  23.568  13.621  1.00  0.00     0.018 C 
HETATM   14  C20 UNL     1      -5.629  25.914  13.349  1.00  0.00     0.153 C 
HETATM   15  C26 UNL     1      -5.205  26.348  11.966  1.00  0.00     0.035 C 
HETATM   16  C27 UNL     1      -3.956  27.068  12.209  1.00  0.00     0.018 C 
HETATM   17  C28 UNL     1      -2.802  26.315  12.866  1.00  0.00    -0.002 C 
ENDROOT
BRANCH  14  18
HETATM   18  O1  UNL     1      -6.938  25.475  13.207  1.00  0.00    -0.248 OA
BRANCH  18  19
HETATM   19  S1  UNL     1      -8.079  26.469  13.873  1.00  0.00     0.402 S 
HETATM   20  O2  UNL     1      -7.731  27.037  15.202  1.00  0.00    -0.169 OA
HETATM   21  O3  UNL     1      -8.311  27.584  12.855  1.00  0.00    -0.169 OA
BRANCH  19  22
HETATM   22  O4  UNL     1      -9.531  25.613  13.968  1.00  0.00    -0.253 OA
BRANCH  22  23
HETATM   23  C21 UNL     1      -9.779  25.177  15.257  1.00  0.00     0.200 C 
BRANCH  23  24
HETATM   24  C22 UNL     1      -9.695  23.678  15.317  1.00  0.00    -0.028 C 
HETATM   25  C23 UNL     1      -9.972  23.026  13.994  1.00  0.00     0.016 C 
HETATM   26  C24 UNL     1      -8.319  23.272  15.807  1.00  0.00     0.016 C 
HETATM   27  C25 UNL     1     -10.699  23.141  16.340  1.00  0.00     0.016 C 
ENDBRANCH  23  24
ENDBRANCH  22  23
ENDBRANCH  19  22
ENDBRANCH  18  19
ENDBRANCH  14  18
BRANCH  10  28
HETATM   28  C11 UNL     1      -2.331  24.790  14.660  1.00  0.00     0.023 C 
BRANCH  28  29
HETATM   29  C12 UNL     1      -1.793  23.561  15.168  1.00  0.00     0.095 C 
BRANCH  29  30
HETATM   30  C13 UNL     1      -0.360  23.345  15.279  1.00  0.00    -0.107 C 
HETATM   31  C14 UNL     1       0.837  23.198  15.358  1.00  0.00    -0.107 C 
BRANCH  31  32
HETATM   32  C15 UNL     1       2.269  23.005  15.432  1.00  0.00     0.089 C 
HETATM   33  C16 UNL     1       3.056  24.116  14.790  1.00  0.00     0.018 C 
ENDBRANCH  31  32
ENDBRANCH  29  30
ENDBRANCH  28  29
ENDBRANCH  10  28
TORSDOF 9
ENDMDL
MODEL 2
REMARK VINA RESULT: -8.865115036      1.755      2.396
REMARK  9 active torsions:
REMARK  status: ('A' for Active; 'I' for Inactive)
REMARK    1  A    between atoms: C10_10  and  C11_11 
REMARK    2  A    between atoms: C11_11  and  C12_12 
REMARK    3  A    between atoms: C12_12  and  C13_13 
REMARK    4  A    between atoms: C14_14  and  C15_15 
REMARK    5  A    between atoms: C20_20  and  O1_21 
REMARK    6  A    between atoms: O1_21  and  S1_22 
REMARK    7  A    between atoms: S1_22  and  O4_25 
REMARK    8  A    between atoms: O4_25  and  C21_26 
REMARK    9  A    between atoms: C21_26  and  C22_27 
ROOT
HETATM    1  C1  UNL     1      -2.631  27.949  14.774  1.00  0.00     0.015 C 
HETATM    2  C2  UNL     1      -2.082  27.294  13.743  1.00  0.00    -0.079 C 
HETATM    3  C3  UNL     1      -0.835  27.963  13.341  1.00  0.00     0.034 C 
HETATM    4  C4  UNL     1      -0.269  27.736  12.011  1.00  0.00     0.005 C 
HETATM    5  C5  UNL     1      -1.074  26.807  11.132  1.00  0.00     0.010 C 
HETATM    6  C6  UNL     1      -1.503  25.742  12.082  1.00  0.00    -0.032 C 
HETATM    7  C7  UNL     1      -0.232  25.172  12.585  1.00  0.00     0.016 C 
HETATM    8  C8  UNL     1      -2.155  24.539  11.439  1.00  0.00     0.011 C 
HETATM    9  C9  UNL     1      -2.757  23.858  12.636  1.00  0.00     0.012 C 
HETATM   10  C10 UNL     1      -2.993  24.859  13.766  1.00  0.00    -0.018 C 
HETATM   11  C17 UNL     1      -4.434  24.669  14.129  1.00  0.00    -0.011 C 
HETATM   12  C18 UNL     1      -4.817  24.807  15.588  1.00  0.00     0.018 C 
HETATM   13  C19 UNL     1      -4.966  23.244  13.834  1.00  0.00     0.018 C 
HETATM   14  C20 UNL     1      -5.412  25.541  13.403  1.00  0.00     0.153 C 
HETATM   15  C26 UNL     1      -4.946  25.928  12.020  1.00  0.00     0.035 C 
HETATM   16  C27 UNL     1      -3.769  26.755  12.281  1.00  0.00     0.018 C 
HETATM   17  C28 UNL     1      -2.601  26.132  13.042  1.00  0.00    -0.002 C 
ENDROOT
BRANCH  14  18
HETATM   18  O1  UNL     1      -6.675  24.995  13.223  1.00  0.00    -0.248 OA
BRANCH  18  19
HETATM   19  S1  UNL     1      -7.831  26.068  12.726  1.00  0.00     0.402 S 
HETATM   20  O2  UNL     1      -7.978  26.209  11.254  1.00  0.00    -0.169 OA
HETATM   21  O3  UNL     1      -9.141  25.598  13.357  1.00  0.00    -0.169 OA
BRANCH  19  22
HETATM   22  O4  UNL     1      -7.489  27.568  13.422  1.00  0.00    -0.253 OA
BRANCH  22  23
HETATM   23  C21 UNL     1      -8.600  28.101  14.051  1.00  0.00     0.200 C 
BRANCH  23  24
HETATM   24  C22 UNL     1      -8.231  28.575  15.428  1.00  0.00    -0.028 C 
HETATM   25  C23 UNL     1      -9.261  29.489  16.025  1.00  0.00     0.016 C 
HETATM   26  C24 UNL     1      -8.027  27.377  16.333  1.00  0.00     0.016 C 
HETATM   27  C25 UNL     1      -6.893  29.319  15.382  1.00  0.00     0.016 C 
ENDBRANCH  23  24
ENDBRANCH  22  23
ENDBRANCH  19  22
ENDBRANCH  18  19
ENDBRANCH  14  18
BRANCH  10  28
HETATM   28  C11 UNL     1      -2.118  24.754  14.947  1.00  0.00     0.023 C 
BRANCH  28  29
HETATM   29  C12 UNL     1      -1.546  23.599  15.576  1.00  0.00     0.095 C 
BRANCH  29  30
HETATM   30  C13 UNL     1      -0.116  23.340  15.537  1.00  0.00    -0.107 C 
HETATM   31  C14 UNL     1       1.077  23.153  15.484  1.00  0.00    -0.107 C 
BRANCH  31  32
HETATM   32  C15 UNL     1       2.501  22.910  15.404  1.00  0.00     0.089 C 
HETATM   33  C16 UNL     1       3.257  24.009  14.706  1.00  0.00     0.018 C 
ENDBRANCH  31  32
ENDBRANCH  29  30
ENDBRANCH  28  29
ENDBRANCH  10  28
TORSDOF 9
ENDMDL
MODEL 3
REMARK VINA RESULT: -8.858205621      1.826      2.641
REMARK  9 active torsions:
REMARK  status: ('A' for Active; 'I' for Inactive)
REMARK    1  A    between atoms: C10_10  and  C11_11 
REMARK    2  A    between atoms: C11_11  and  C12_12 
REMARK    3  A    between atoms: C12_12  and  C13_13 
REMARK    4  A    between atoms: C14_14  and  C15_15 
REMARK    5  A    between atoms: C20_20  and  O1_21 
REMARK    6  A    between atoms: O1_21  and  S1_22 
REMARK    7  A    between atoms: S1_22  and  O4_25 
REMARK    8  A    between atoms: O4_25  and  C21_26 
REMARK    9  A    between atoms: C21_26  and  C22_27 
ROOT
HETATM    1  C1  UNL     1      -2.610  27.699  14.930  1.00  0.00     0.015 C 
HETATM    2  C2  UNL     1      -2.196  27.162  13.774  1.00  0.00    -0.079 C 
HETATM    3  C3  UNL     1      -1.020  27.895  13.282  1.00  0.00     0.034 C 
HETATM    4  C4  UNL     1      -0.633  27.814  11.873  1.00  0.00     0.005 C 
HETATM    5  C5  UNL     1      -1.539  26.958  11.019  1.00  0.00     0.010 C 
HETATM    6  C6  UNL     1      -1.828  25.795  11.904  1.00  0.00    -0.032 C 
HETATM    7  C7  UNL     1      -0.496  25.207  12.177  1.00  0.00     0.016 C 
HETATM    8  C8  UNL     1      -2.549  24.647  11.234  1.00  0.00     0.011 C 
HETATM    9  C9  UNL     1      -2.980  23.837  12.425  1.00  0.00     0.012 C 
HETATM   10  C10 UNL     1      -3.073  24.717  13.671  1.00  0.00    -0.018 C 
HETATM   11  C17 UNL     1      -4.452  24.459  14.198  1.00  0.00    -0.011 C 
HETATM   12  C18 UNL     1      -4.639  24.444  15.701  1.00  0.00     0.018 C 
HETATM   13  C19 UNL     1      -5.005  23.059  13.834  1.00  0.00     0.018 C 
HETATM   14  C20 UNL     1      -5.526  25.376  13.699  1.00  0.00     0.153 C 
HETATM   15  C26 UNL     1      -5.250  25.907  12.313  1.00  0.00     0.035 C 
HETATM   16  C27 UNL     1      -4.057  26.731  12.500  1.00  0.00     0.018 C 
HETATM   17  C28 UNL     1      -2.793  26.063  13.034  1.00  0.00    -0.002 C 
ENDROOT
BRANCH  14  18
HETATM   18  O1  UNL     1      -6.796  24.822  13.631  1.00  0.00    -0.248 OA
BRANCH  18  19
HETATM   19  S1  UNL     1      -7.925  25.554  14.593  1.00  0.00     0.402 S 
HETATM   20  O2  UNL     1      -9.114  26.093  13.881  1.00  0.00    -0.169 OA
HETATM   21  O3  UNL     1      -8.342  24.508  15.625  1.00  0.00    -0.169 OA
BRANCH  19  22
HETATM   22  O4  UNL     1      -7.159  26.785  15.458  1.00  0.00    -0.253 OA
BRANCH  22  23
HETATM   23  C21 UNL     1      -8.063  27.519  16.204  1.00  0.00     0.200 C 
BRANCH  23  24
HETATM   24  C22 UNL     1      -7.884  28.985  15.929  1.00  0.00    -0.028 C 
HETATM   25  C23 UNL     1      -7.037  29.672  16.960  1.00  0.00     0.016 C 
HETATM   26  C24 UNL     1      -7.264  29.166  14.558  1.00  0.00     0.016 C 
HETATM   27  C25 UNL     1      -9.248  29.678  15.886  1.00  0.00     0.016 C 
ENDBRANCH  23  24
ENDBRANCH  22  23
ENDBRANCH  19  22
ENDBRANCH  18  19
ENDBRANCH  14  18
BRANCH  10  28
HETATM   28  C11 UNL     1      -2.049  24.516  14.711  1.00  0.00     0.023 C 
BRANCH  28  29
HETATM   29  C12 UNL     1      -1.069  23.478  14.857  1.00  0.00     0.095 C 
BRANCH  29  30
HETATM   30  C13 UNL     1       0.316  23.779  15.183  1.00  0.00    -0.107 C 
HETATM   31  C14 UNL     1       1.460  24.064  15.452  1.00  0.00    -0.107 C 
BRANCH  31  32
HETATM   32  C15 UNL     1       2.835  24.398  15.751  1.00  0.00     0.089 C 
HETATM   33  C16 UNL     1       3.093  25.880  15.800  1.00  0.00     0.018 C 
ENDBRANCH  31  32
ENDBRANCH  29  30
ENDBRANCH  28  29
ENDBRANCH  10  28
TORSDOF 9
ENDMDL
MODEL 4
REMARK VINA RESULT: -8.657023796      3.306      7.652
REMARK  9 active torsions:
REMARK  status: ('A' for Active; 'I' for Inactive)
REMARK    1  A    between atoms: C10_10  and  C11_11 
REMARK    2  A    between atoms: C11_11  and  C12_12 
REMARK    3  A    between atoms: C12_12  and  C13_13 
REMARK    4  A    between atoms: C14_14  and  C15_15 
REMARK    5  A    between atoms: C20_20  and  O1_21 
REMARK    6  A    between atoms: O1_21  and  S1_22 
REMARK    7  A    between atoms: S1_22  and  O4_25 
REMARK    8  A    between atoms: O4_25  and  C21_26 
REMARK    9  A    between atoms: C21_26  and  C22_27 
ROOT
HETATM    1  C1  UNL     1      -4.556  24.531  16.070  1.00  0.00     0.015 C 
HETATM    2  C2  UNL     1      -5.618  24.612  15.257  1.00  0.00    -0.079 C 
HETATM    3  C3  UNL     1      -6.778  23.972  15.895  1.00  0.00     0.034 C 
HETATM    4  C4  UNL     1      -7.919  23.537  15.089  1.00  0.00     0.005 C 
HETATM    5  C5  UNL     1      -7.774  23.784  13.605  1.00  0.00     0.010 C 
HETATM    6  C6  UNL     1      -7.144  25.132  13.553  1.00  0.00    -0.032 C 
HETATM    7  C7  UNL     1      -8.119  26.014  14.235  1.00  0.00     0.016 C 
HETATM    8  C8  UNL     1      -7.070  25.749  12.174  1.00  0.00     0.011 C 
HETATM    9  C9  UNL     1      -6.111  26.882  12.412  1.00  0.00     0.012 C 
HETATM   10  C10 UNL     1      -5.220  26.592  13.619  1.00  0.00    -0.018 C 
HETATM   11  C17 UNL     1      -3.827  26.784  13.101  1.00  0.00    -0.011 C 
HETATM   12  C18 UNL     1      -2.802  27.382  14.043  1.00  0.00     0.018 C 
HETATM   13  C19 UNL     1      -3.737  27.783  11.920  1.00  0.00     0.018 C 
HETATM   14  C20 UNL     1      -3.159  25.563  12.549  1.00  0.00     0.153 C 
HETATM   15  C26 UNL     1      -4.135  24.569  11.965  1.00  0.00     0.035 C 
HETATM   16  C27 UNL     1      -4.904  24.130  13.128  1.00  0.00     0.018 C 
HETATM   17  C28 UNL     1      -5.680  25.179  13.920  1.00  0.00    -0.002 C 
ENDROOT
BRANCH  14  18
HETATM   18  O1  UNL     1      -2.230  25.796  11.545  1.00  0.00    -0.248 OA
BRANCH  18  19
HETATM   19  S1  UNL     1      -1.193  24.541  11.254  1.00  0.00     0.402 S 
HETATM   20  O2  UNL     1      -1.727  23.464  10.379  1.00  0.00    -0.169 OA
HETATM   21  O3  UNL     1       0.059  25.164  10.639  1.00  0.00    -0.169 OA
BRANCH  19  22
HETATM   22  O4  UNL     1      -0.715  23.900  12.740  1.00  0.00    -0.253 OA
BRANCH  22  23
HETATM   23  C21 UNL     1       0.205  24.717  13.373  1.00  0.00     0.200 C 
BRANCH  23  24
HETATM   24  C22 UNL     1       0.147  24.500  14.859  1.00  0.00    -0.028 C 
HETATM   25  C23 UNL     1      -1.175  23.959  15.317  1.00  0.00     0.016 C 
HETATM   26  C24 UNL     1       1.256  23.554  15.270  1.00  0.00     0.016 C 
HETATM   27  C25 UNL     1       0.407  25.821  15.588  1.00  0.00     0.016 C 
ENDBRANCH  23  24
ENDBRANCH  22  23
ENDBRANCH  19  22
ENDBRANCH  18  19
ENDBRANCH  14  18
BRANCH  10  28
HETATM   28  C11 UNL     1      -5.461  27.387  14.836  1.00  0.00     0.023 C 
BRANCH  28  29
HETATM   29  C12 UNL     1      -5.780  28.778  14.985  1.00  0.00     0.095 C 
BRANCH  29  30
HETATM   30  C13 UNL     1      -7.107  29.216  15.386  1.00  0.00    -0.107 C 
HETATM   31  C14 UNL     1      -8.213  29.551  15.742  1.00  0.00    -0.107 C 
BRANCH  31  32
HETATM   32  C15 UNL     1      -9.545  29.946  16.144  1.00  0.00     0.089 C 
HETATM   33  C16 UNL     1      -9.950  29.399  17.487  1.00  0.00     0.018 C 
ENDBRANCH  31  32
ENDBRANCH  29  30
ENDBRANCH  28  29
ENDBRANCH  10  28
TORSDOF 9
ENDMDL
MODEL 5
REMARK VINA RESULT: -8.207394560      3.742      8.216
REMARK  9 active torsions:
REMARK  status: ('A' for Active; 'I' for Inactive)
REMARK    1  A    between atoms: C10_10  and  C11_11 
REMARK    2  A    between atoms: C11_11  and  C12_12 
REMARK    3  A    between atoms: C12_12  and  C13_13 
REMARK    4  A    between atoms: C14_14  and  C15_15 
REMARK    5  A    between atoms: C20_20  and  O1_21 
REMARK    6  A    between atoms: O1_21  and  S1_22 
REMARK    7  A    between atoms: S1_22  and  O4_25 
REMARK    8  A    between atoms: O4_25  and  C21_26 
REMARK    9  A    between atoms: C21_26  and  C22_27 
ROOT
HETATM    1  C1  UNL     1      -3.052  24.862  15.538  1.00  0.00     0.015 C 
HETATM    2  C2  UNL     1      -4.275  24.816  14.995  1.00  0.00    -0.079 C 
HETATM    3  C3  UNL     1      -5.192  24.108  15.902  1.00  0.00     0.034 C 
HETATM    4  C4  UNL     1      -6.442  23.542  15.397  1.00  0.00     0.005 C 
HETATM    5  C5  UNL     1      -6.669  23.733  13.916  1.00  0.00     0.010 C 
HETATM    6  C6  UNL     1      -6.196  25.127  13.685  1.00  0.00    -0.032 C 
HETATM    7  C7  UNL     1      -7.065  25.952  14.556  1.00  0.00     0.016 C 
HETATM    8  C8  UNL     1      -6.502  25.686  12.314  1.00  0.00     0.011 C 
HETATM    9  C9  UNL     1      -5.625  26.906  12.293  1.00  0.00     0.012 C 
HETATM   10  C10 UNL     1      -4.455  26.747  13.263  1.00  0.00    -0.018 C 
HETATM   11  C17 UNL     1      -3.245  27.035  12.428  1.00  0.00    -0.011 C 
HETATM   12  C18 UNL     1      -2.090  27.759  13.089  1.00  0.00     0.018 C 
HETATM   13  C19 UNL     1      -3.524  27.984  11.236  1.00  0.00     0.018 C 
HETATM   14  C20 UNL     1      -2.611  25.851  11.764  1.00  0.00     0.153 C 
HETATM   15  C26 UNL     1      -3.598  24.753  11.449  1.00  0.00     0.035 C 
HETATM   16  C27 UNL     1      -4.032  24.302  12.770  1.00  0.00     0.018 C 
HETATM   17  C28 UNL     1      -4.698  25.315  13.697  1.00  0.00    -0.002 C 
ENDROOT
BRANCH  14  18
HETATM   18  O1  UNL     1      -1.967  26.118  10.564  1.00  0.00    -0.248 OA
BRANCH  18  19
HETATM   19  S1  UNL     1      -0.528  25.328  10.359  1.00  0.00     0.402 S 
HETATM   20  O2  UNL     1       0.115  24.842  11.608  1.00  0.00    -0.169 OA
HETATM   21  O3  UNL     1      -0.818  24.164   9.412  1.00  0.00    -0.169 OA
BRANCH  19  22
HETATM   22  O4  UNL     1       0.521  26.357   9.527  1.00  0.00    -0.253 OA
BRANCH  22  23
HETATM   23  C21 UNL     1      -0.157  27.416   8.952  1.00  0.00     0.200 C 
BRANCH  23  24
HETATM   24  C22 UNL     1       0.094  27.442   7.471  1.00  0.00    -0.028 C 
HETATM   25  C23 UNL     1      -0.683  26.394   6.730  1.00  0.00     0.016 C 
HETATM   26  C24 UNL     1      -0.253  28.813   6.927  1.00  0.00     0.016 C 
HETATM   27  C25 UNL     1       1.584  27.226   7.192  1.00  0.00     0.016 C 
ENDBRANCH  23  24
ENDBRANCH  22  23
ENDBRANCH  19  22
ENDBRANCH  18  19
ENDBRANCH  14  18
BRANCH  10  28
HETATM   28  C11 UNL     1      -4.481  27.573  14.484  1.00  0.00     0.023 C 
BRANCH  28  29
HETATM   29  C12 UNL     1      -4.976  28.903  14.692  1.00  0.00     0.095 C 
BRANCH  29  30
HETATM   30  C13 UNL     1      -6.327  29.147  15.169  1.00  0.00    -0.107 C 
HETATM   31  C14 UNL     1      -7.437  29.360  15.598  1.00  0.00    -0.107 C 
BRANCH  31  32
HETATM   32  C15 UNL     1      -8.769  29.589  16.113  1.00  0.00     0.089 C 
HETATM   33  C16 UNL     1      -9.837  28.835  15.366  1.00  0.00     0.018 C 
ENDBRANCH  31  32
ENDBRANCH  29  30
ENDBRANCH  28  29
ENDBRANCH  10  28
TORSDOF 9
ENDMDL
