MODEL 1
REMARK VINA RESULT: -9.691141785      0.000      0.000
REMARK  9 active torsions:
REMARK  status: ('A' for Active; 'I' for Inactive)
REMARK    1  A    between atoms: C2_2  and  C3_3 
REMARK    2  A    between atoms: C2_2  and  C22_34 
REMARK    3  A    between atoms: C4_7  and  C5_8 
REMARK    4  A    between atoms: C5_8  and  C7_10 
REMARK    5  A    between atoms: C7_10  and  C8_11 
REMARK    6  A    between atoms: C7_10  and  N2_15 
REMARK    7  A    between atoms: C8_11  and  C9_12 
REMARK       I    between atoms: N2_15  and  C12_17 
REMARK    8  A    between atoms: C12_17  and  C13_19 
REMARK    9  A    between atoms: C17_27  and  C18_28 
ROOT
HETATM    1  C3  UNL     1       1.305   1.070  10.641  1.00  0.00     0.360 C 
HETATM    2  N1  UNL     1       0.100   1.825  10.800  1.00  0.00    -0.039 N 
ATOM      3  H11 UNL     1      -0.052   2.461  10.017  1.00  0.00     0.281 HD
ATOM      4  H12 UNL     1       0.183   2.515  11.547  1.00  0.00     0.281 HD
HETATM    5  C4  UNL     1      -1.031   0.954  11.005  1.00  0.00     0.208 C 
HETATM    6  C17 UNL     1      -0.923   0.210  12.276  1.00  0.00     0.120 C 
HETATM    7  C21 UNL     1       0.292  -0.702  12.068  1.00  0.00     0.267 C 
HETATM    8  O4  UNL     1       0.303  -1.880  12.486  1.00  0.00    -0.265 OA
HETATM    9  O5  UNL     1       1.331  -0.121  11.402  1.00  0.00    -0.282 OA
ENDROOT
BRANCH   5  10
HETATM   10  C5  UNL     1      -2.359   1.460  10.532  1.00  0.00     0.036 C 
HETATM   11  C6  UNL     1      -3.333   0.344  10.931  1.00  0.00     0.014 C 
BRANCH  10  12
HETATM   12  C7  UNL     1      -2.807   2.808  10.824  1.00  0.00     0.090 C 
BRANCH  12  13
HETATM   13  C8  UNL     1      -4.023   2.924  11.706  1.00  0.00     0.029 C 
BRANCH  13  14
HETATM   14  C9  UNL     1      -4.436   4.211  12.286  1.00  0.00    -0.021 C 
HETATM   15  C10 UNL     1      -5.862   4.647  11.891  1.00  0.00     0.009 C 
HETATM   16  C11 UNL     1      -4.572   3.915  13.819  1.00  0.00     0.009 C 
ENDBRANCH  13  14
ENDBRANCH  12  13
BRANCH  12  17
HETATM   17  N2  UNL     1      -2.989   3.686   9.709  1.00  0.00    -0.354 N 
HETATM   18  C12 UNL     1      -2.119   4.374   8.880  1.00  0.00     0.243 C 
HETATM   19  O1  UNL     1      -0.860   4.304   9.040  1.00  0.00    -0.271 OA
ATOM     20  H2  UNL     1      -3.970   3.838   9.475  1.00  0.00     0.162 HD
BRANCH  18  21
HETATM   21  C13 UNL     1      -2.672   5.212   7.779  1.00  0.00     0.208 C 
HETATM   22  N3  UNL     1      -4.106   5.441   7.963  1.00  0.00    -0.343 N 
HETATM   23  C14 UNL     1      -4.227   6.806   8.420  1.00  0.00     0.250 C 
ATOM     24  H3  UNL     1      -4.863   4.775   7.803  1.00  0.00     0.163 HD
HETATM   25  O2  UNL     1      -5.262   7.522   8.311  1.00  0.00    -0.271 OA
HETATM   26  C15 UNL     1      -2.913   7.070   8.989  1.00  0.00     0.245 A 
HETATM   27  O3  UNL     1      -1.775   7.497   8.530  1.00  0.00    -0.363 OA
HETATM   28  C16 UNL     1      -2.180   6.588   7.694  1.00  0.00     0.193 A 
ENDBRANCH  18  21
ENDBRANCH  12  17
ENDBRANCH  10  12
ENDBRANCH   5  10
BRANCH   6  29
HETATM   29  C18 UNL     1      -0.673   0.792  13.580  1.00  0.00    -0.007 C 
HETATM   30  C19 UNL     1      -1.499   1.960  14.045  1.00  0.00     0.010 C 
HETATM   31  C20 UNL     1      -0.341  -0.090  14.742  1.00  0.00     0.010 C 
ENDBRANCH   6  29
BRANCH   1  32
HETATM   32  C2  UNL     1       1.674   0.696   9.257  1.00  0.00    -0.022 C 
HETATM   33  C1  UNL     1       1.887  -0.532   8.869  1.00  0.00     0.019 C 
BRANCH  32  34
HETATM   34  C22 UNL     1       1.800   1.811   8.293  1.00  0.00     0.021 A 
HETATM   35  C23 UNL     1       2.491   3.039   8.900  1.00  0.00     0.023 C 
HETATM   36  C24 UNL     1       2.361   1.406   6.930  1.00  0.00     0.060 A 
HETATM   37  C25 UNL     1       0.967   2.040   7.128  1.00  0.00     0.125 A 
HETATM   38 CL1  UNL     1      -0.351   1.013   6.594  1.00  0.00    -0.100 Cl
HETATM   39 CL2  UNL     1       0.893   3.711   6.456  1.00  0.00    -0.100 Cl
ENDBRANCH  32  34
ENDBRANCH   1  32
TORSDOF 9
ENDMDL
MODEL 2
REMARK VINA RESULT: -9.135834933      0.970      1.108
REMARK  9 active torsions:
REMARK  status: ('A' for Active; 'I' for Inactive)
REMARK    1  A    between atoms: C2_2  and  C3_3 
REMARK    2  A    between atoms: C2_2  and  C22_34 
REMARK    3  A    between atoms: C4_7  and  C5_8 
REMARK    4  A    between atoms: C5_8  and  C7_10 
REMARK    5  A    between atoms: C7_10  and  C8_11 
REMARK    6  A    between atoms: C7_10  and  N2_15 
REMARK    7  A    between atoms: C8_11  and  C9_12 
REMARK       I    between atoms: N2_15  and  C12_17 
REMARK    8  A    between atoms: C12_17  and  C13_19 
REMARK    9  A    between atoms: C17_27  and  C18_28 
ROOT
HETATM    1  C3  UNL     1       1.666   1.160   9.733  1.00  0.00     0.360 C 
HETATM    2  N1  UNL     1       0.450   1.757  10.192  1.00  0.00    -0.039 N 
ATOM      3  H11 UNL     1       0.133   2.497   9.564  1.00  0.00     0.281 HD
ATOM      4  H12 UNL     1       0.599   2.319  11.030  1.00  0.00     0.281 HD
HETATM    5  C4  UNL     1      -0.570   0.759  10.395  1.00  0.00     0.208 C 
HETATM    6  C17 UNL     1      -0.213  -0.171  11.486  1.00  0.00     0.120 C 
HETATM    7  C21 UNL     1       1.017  -0.913  10.949  1.00  0.00     0.267 C 
HETATM    8  O4  UNL     1       1.176  -2.138  11.145  1.00  0.00    -0.265 OA
HETATM    9  O5  UNL     1       1.895  -0.132  10.257  1.00  0.00    -0.282 OA
ENDROOT
BRANCH   5  10
HETATM   10  C5  UNL     1      -1.988   1.205  10.212  1.00  0.00     0.036 C 
HETATM   11  C6  UNL     1      -2.809   0.016  10.728  1.00  0.00     0.014 C 
BRANCH  10  12
HETATM   12  C7  UNL     1      -2.439   2.509  10.658  1.00  0.00     0.090 C 
BRANCH  12  13
HETATM   13  C8  UNL     1      -3.550   2.513  11.675  1.00  0.00     0.029 C 
BRANCH  13  14
HETATM   14  C9  UNL     1      -3.334   2.976  13.054  1.00  0.00    -0.021 C 
HETATM   15  C10 UNL     1      -4.467   3.869  13.600  1.00  0.00     0.009 C 
HETATM   16  C11 UNL     1      -3.463   1.676  13.919  1.00  0.00     0.009 C 
ENDBRANCH  13  14
ENDBRANCH  12  13
BRANCH  12  17
HETATM   17  N2  UNL     1      -2.770   3.462   9.642  1.00  0.00    -0.354 N 
HETATM   18  C12 UNL     1      -2.026   4.344   8.877  1.00  0.00     0.243 C 
HETATM   19  O1  UNL     1      -0.765   4.434   9.013  1.00  0.00    -0.271 OA
ATOM     20  H2  UNL     1      -3.768   3.499   9.438  1.00  0.00     0.162 HD
BRANCH  18  21
HETATM   21  C13 UNL     1      -2.718   5.204   7.877  1.00  0.00     0.208 C 
HETATM   22  N3  UNL     1      -4.164   5.217   8.107  1.00  0.00    -0.343 N 
HETATM   23  C14 UNL     1      -4.452   6.501   8.703  1.00  0.00     0.250 C 
ATOM     24  H3  UNL     1      -4.829   4.474   7.892  1.00  0.00     0.163 HD
HETATM   25  O2  UNL     1      -5.576   7.078   8.685  1.00  0.00    -0.271 OA
HETATM   26  C15 UNL     1      -3.168   6.883   9.274  1.00  0.00     0.245 A 
HETATM   27  O3  UNL     1      -2.111   7.504   8.842  1.00  0.00    -0.363 OA
HETATM   28  C16 UNL     1      -2.416   6.636   7.924  1.00  0.00     0.193 A 
ENDBRANCH  18  21
ENDBRANCH  12  17
ENDBRANCH  10  12
ENDBRANCH   5  10
BRANCH   6  29
HETATM   29  C18 UNL     1       0.194   0.209  12.824  1.00  0.00    -0.007 C 
HETATM   30  C19 UNL     1       0.049   1.638  13.270  1.00  0.00     0.010 C 
HETATM   31  C20 UNL     1      -0.067  -0.712  13.974  1.00  0.00     0.010 C 
ENDBRANCH   6  29
BRANCH   1  32
HETATM   32  C2  UNL     1       1.841   1.058   8.266  1.00  0.00    -0.022 C 
HETATM   33  C1  UNL     1       1.860  -0.073   7.614  1.00  0.00     0.019 C 
BRANCH  32  34
HETATM   34  C22 UNL     1       2.002   2.336   7.539  1.00  0.00     0.021 A 
HETATM   35  C23 UNL     1       2.993   3.285   8.228  1.00  0.00     0.023 C 
HETATM   36  C24 UNL     1       2.247   2.182   6.038  1.00  0.00     0.060 A 
HETATM   37  C25 UNL     1       1.041   2.940   6.636  1.00  0.00     0.125 A 
HETATM   38 CL1  UNL     1      -0.509   2.255   6.184  1.00  0.00    -0.100 Cl
HETATM   39 CL2  UNL     1       1.156   4.714   6.340  1.00  0.00    -0.100 Cl
ENDBRANCH  32  34
ENDBRANCH   1  32
TORSDOF 9
ENDMDL
MODEL 3
REMARK VINA RESULT: -8.844169265      1.635      2.341
REMARK  9 active torsions:
REMARK  status: ('A' for Active; 'I' for Inactive)
REMARK    1  A    between atoms: C2_2  and  C3_3 
REMARK    2  A    between atoms: C2_2  and  C22_34 
REMARK    3  A    between atoms: C4_7  and  C5_8 
REMARK    4  A    between atoms: C5_8  and  C7_10 
REMARK    5  A    between atoms: C7_10  and  C8_11 
REMARK    6  A    between atoms: C7_10  and  N2_15 
REMARK    7  A    between atoms: C8_11  and  C9_12 
REMARK       I    between atoms: N2_15  and  C12_17 
REMARK    8  A    between atoms: C12_17  and  C13_19 
REMARK    9  A    between atoms: C17_27  and  C18_28 
ROOT
HETATM    1  C3  UNL     1       1.163   1.822   7.994  1.00  0.00     0.360 C 
HETATM    2  N1  UNL     1       0.105   2.319   8.819  1.00  0.00    -0.039 N 
ATOM      3  H11 UNL     1      -0.555   2.885   8.284  1.00  0.00     0.281 HD
ATOM      4  H12 UNL     1       0.436   3.036   9.465  1.00  0.00     0.281 HD
HETATM    5  C4  UNL     1      -0.557   1.243   9.512  1.00  0.00     0.208 C 
HETATM    6  C17 UNL     1       0.345   0.579  10.476  1.00  0.00     0.120 C 
HETATM    7  C21 UNL     1       1.415  -0.071   9.591  1.00  0.00     0.267 C 
HETATM    8  O4  UNL     1       1.869  -1.208   9.845  1.00  0.00    -0.265 OA
HETATM    9  O5  UNL     1       1.813   0.688   8.530  1.00  0.00    -0.282 OA
ENDROOT
BRANCH   5  10
HETATM   10  C5  UNL     1      -2.003   1.450   9.845  1.00  0.00     0.036 C 
HETATM   11  C6  UNL     1      -2.434   0.103  10.436  1.00  0.00     0.014 C 
BRANCH  10  12
HETATM   12  C7  UNL     1      -2.455   2.620  10.573  1.00  0.00     0.090 C 
BRANCH  12  13
HETATM   13  C8  UNL     1      -3.353   2.358  11.754  1.00  0.00     0.029 C 
BRANCH  13  14
HETATM   14  C9  UNL     1      -2.964   2.740  13.120  1.00  0.00    -0.021 C 
HETATM   15  C10 UNL     1      -4.033   3.563  13.869  1.00  0.00     0.009 C 
HETATM   16  C11 UNL     1      -2.948   1.385  13.907  1.00  0.00     0.009 C 
ENDBRANCH  13  14
ENDBRANCH  12  13
BRANCH  12  17
HETATM   17  N2  UNL     1      -3.040   3.676   9.804  1.00  0.00    -0.354 N 
HETATM   18  C12 UNL     1      -2.519   4.690   9.017  1.00  0.00     0.243 C 
HETATM   19  O1  UNL     1      -1.264   4.831   8.869  1.00  0.00    -0.271 OA
ATOM     20  H2  UNL     1      -4.059   3.683   9.843  1.00  0.00     0.162 HD
BRANCH  18  21
HETATM   21  C13 UNL     1      -3.448   5.632   8.333  1.00  0.00     0.208 C 
HETATM   22  N3  UNL     1      -4.799   5.531   8.888  1.00  0.00    -0.343 N 
HETATM   23  C14 UNL     1      -4.972   6.708   9.709  1.00  0.00     0.250 C 
ATOM     24  H3  UNL     1      -5.477   4.786   8.729  1.00  0.00     0.163 HD
HETATM   25  O2  UNL     1      -6.083   7.216  10.029  1.00  0.00    -0.271 OA
HETATM   26  C15 UNL     1      -3.600   7.086  10.018  1.00  0.00     0.245 A 
HETATM   27  O3  UNL     1      -2.690   7.817   9.447  1.00  0.00    -0.363 OA
HETATM   28  C16 UNL     1      -3.180   7.060   8.511  1.00  0.00     0.193 A 
ENDBRANCH  18  21
ENDBRANCH  12  17
ENDBRANCH  10  12
ENDBRANCH   5  10
BRANCH   6  29
HETATM   29  C18 UNL     1       1.127   1.242  11.500  1.00  0.00    -0.007 C 
HETATM   30  C19 UNL     1       1.960   2.442  11.141  1.00  0.00     0.010 C 
HETATM   31  C20 UNL     1       0.568   1.405  12.879  1.00  0.00     0.010 C 
ENDBRANCH   6  29
BRANCH   1  32
HETATM   32  C2  UNL     1       0.811   1.487   6.596  1.00  0.00    -0.022 C 
HETATM   33  C1  UNL     1       0.140   0.421   6.252  1.00  0.00     0.019 C 
BRANCH  32  34
HETATM   34  C22 UNL     1       1.267   2.441   5.562  1.00  0.00     0.021 A 
HETATM   35  C23 UNL     1       2.686   2.963   5.827  1.00  0.00     0.023 C 
HETATM   36  C24 UNL     1       1.049   1.967   4.125  1.00  0.00     0.060 A 
HETATM   37  C25 UNL     1       0.422   3.254   4.707  1.00  0.00     0.125 A 
HETATM   38 CL1  UNL     1      -1.332   3.244   4.695  1.00  0.00    -0.100 Cl
HETATM   39 CL2  UNL     1       1.138   4.735   3.972  1.00  0.00    -0.100 Cl
ENDBRANCH  32  34
ENDBRANCH   1  32
TORSDOF 9
ENDMDL
MODEL 4
REMARK VINA RESULT: -8.738106261      1.419      1.935
REMARK  9 active torsions:
REMARK  status: ('A' for Active; 'I' for Inactive)
REMARK    1  A    between atoms: C2_2  and  C3_3 
REMARK    2  A    between atoms: C2_2  and  C22_34 
REMARK    3  A    between atoms: C4_7  and  C5_8 
REMARK    4  A    between atoms: C5_8  and  C7_10 
REMARK    5  A    between atoms: C7_10  and  C8_11 
REMARK    6  A    between atoms: C7_10  and  N2_15 
REMARK    7  A    between atoms: C8_11  and  C9_12 
REMARK       I    between atoms: N2_15  and  C12_17 
REMARK    8  A    between atoms: C12_17  and  C13_19 
REMARK    9  A    between atoms: C17_27  and  C18_28 
ROOT
HETATM    1  C3  UNL     1       1.277   0.870  10.630  1.00  0.00     0.360 C 
HETATM    2  N1  UNL     1       0.105   1.681  10.756  1.00  0.00    -0.039 N 
ATOM      3  H11 UNL     1      -0.025   2.284   9.943  1.00  0.00     0.281 HD
ATOM      4  H12 UNL     1       0.221   2.404  11.467  1.00  0.00     0.281 HD
HETATM    5  C4  UNL     1      -1.059   0.869  11.009  1.00  0.00     0.208 C 
HETATM    6  C17 UNL     1      -0.974   0.186  12.316  1.00  0.00     0.120 C 
HETATM    7  C21 UNL     1       0.201  -0.785  12.148  1.00  0.00     0.267 C 
HETATM    8  O4  UNL     1       0.166  -1.940  12.624  1.00  0.00    -0.265 OA
HETATM    9  O5  UNL     1       1.259  -0.281  11.449  1.00  0.00    -0.282 OA
ENDROOT
BRANCH   5  10
HETATM   10  C5  UNL     1      -2.369   1.405  10.517  1.00  0.00     0.036 C 
HETATM   11  C6  UNL     1      -3.375   0.316  10.909  1.00  0.00     0.014 C 
BRANCH  10  12
HETATM   12  C7  UNL     1      -2.787   2.766  10.796  1.00  0.00     0.090 C 
BRANCH  12  13
HETATM   13  C8  UNL     1      -4.005   2.917  11.670  1.00  0.00     0.029 C 
BRANCH  13  14
HETATM   14  C9  UNL     1      -4.393   4.218  12.236  1.00  0.00    -0.021 C 
HETATM   15  C10 UNL     1      -5.803   4.686  11.820  1.00  0.00     0.009 C 
HETATM   16  C11 UNL     1      -4.553   3.937  13.769  1.00  0.00     0.009 C 
ENDBRANCH  13  14
ENDBRANCH  12  13
BRANCH  12  17
HETATM   17  N2  UNL     1      -2.941   3.640   9.674  1.00  0.00    -0.354 N 
HETATM   18  C12 UNL     1      -2.057   4.385   8.912  1.00  0.00     0.243 C 
HETATM   19  O1  UNL     1      -0.811   4.390   9.163  1.00  0.00    -0.271 OA
ATOM     20  H2  UNL     1      -3.910   3.733   9.369  1.00  0.00     0.162 HD
BRANCH  18  21
HETATM   21  C13 UNL     1      -2.578   5.197   7.776  1.00  0.00     0.208 C 
HETATM   22  N3  UNL     1      -1.892   6.487   7.696  1.00  0.00    -0.343 N 
HETATM   23  C14 UNL     1      -0.985   6.377   6.577  1.00  0.00     0.250 C 
ATOM     24  H3  UNL     1      -2.026   7.296   8.303  1.00  0.00     0.163 HD
HETATM   25  O2  UNL     1      -0.517   7.348   5.918  1.00  0.00    -0.271 OA
HETATM   26  C15 UNL     1      -0.798   4.937   6.458  1.00  0.00     0.245 A 
HETATM   27  O3  UNL     1      -1.414   3.972   5.844  1.00  0.00    -0.363 OA
HETATM   28  C16 UNL     1      -2.340   4.670   6.432  1.00  0.00     0.193 A 
ENDBRANCH  18  21
ENDBRANCH  12  17
ENDBRANCH  10  12
ENDBRANCH   5  10
BRANCH   6  29
HETATM   29  C18 UNL     1      -0.693   0.821  13.587  1.00  0.00    -0.007 C 
HETATM   30  C19 UNL     1      -1.539   1.977  14.046  1.00  0.00     0.010 C 
HETATM   31  C20 UNL     1      -0.286  -0.009  14.764  1.00  0.00     0.010 C 
ENDBRANCH   6  29
BRANCH   1  32
HETATM   32  C2  UNL     1       1.622   0.413   9.265  1.00  0.00    -0.022 C 
HETATM   33  C1  UNL     1       2.073  -0.781   8.992  1.00  0.00     0.019 C 
BRANCH  32  34
HETATM   34  C22 UNL     1       1.431   1.400   8.180  1.00  0.00     0.021 A 
HETATM   35  C23 UNL     1      -0.009   1.420   7.648  1.00  0.00     0.023 C 
HETATM   36  C24 UNL     1       1.987   2.791   8.487  1.00  0.00     0.060 A 
HETATM   37  C25 UNL     1       2.459   1.922   7.300  1.00  0.00     0.125 A 
HETATM   38 CL1  UNL     1       4.165   1.516   7.365  1.00  0.00    -0.100 Cl
HETATM   39 CL2  UNL     1       1.947   2.618   5.719  1.00  0.00    -0.100 Cl
ENDBRANCH  32  34
ENDBRANCH   1  32
TORSDOF 9
ENDMDL
MODEL 5
REMARK VINA RESULT: -8.655073077      2.888      7.722
REMARK  9 active torsions:
REMARK  status: ('A' for Active; 'I' for Inactive)
REMARK    1  A    between atoms: C2_2  and  C3_3 
REMARK    2  A    between atoms: C2_2  and  C22_34 
REMARK    3  A    between atoms: C4_7  and  C5_8 
REMARK    4  A    between atoms: C5_8  and  C7_10 
REMARK    5  A    between atoms: C7_10  and  C8_11 
REMARK    6  A    between atoms: C7_10  and  N2_15 
REMARK    7  A    between atoms: C8_11  and  C9_12 
REMARK       I    between atoms: N2_15  and  C12_17 
REMARK    8  A    between atoms: C12_17  and  C13_19 
REMARK    9  A    between atoms: C17_27  and  C18_28 
ROOT
HETATM    1  C3  UNL     1      -0.609   4.145   7.821  1.00  0.00     0.360 C 
HETATM    2  N1  UNL     1       0.728   3.884   8.256  1.00  0.00    -0.039 N 
ATOM      3  H11 UNL     1       0.887   4.216   9.207  1.00  0.00     0.281 HD
ATOM      4  H12 UNL     1       1.405   4.474   7.771  1.00  0.00     0.281 HD
HETATM    5  C4  UNL     1       1.050   2.485   8.120  1.00  0.00     0.208 C 
HETATM    6  C17 UNL     1       1.061   2.063   6.704  1.00  0.00     0.120 C 
HETATM    7  C21 UNL     1      -0.399   2.215   6.263  1.00  0.00     0.267 C 
HETATM    8  O4  UNL     1      -0.944   1.377   5.513  1.00  0.00    -0.265 OA
HETATM    9  O5  UNL     1      -1.029   3.322   6.753  1.00  0.00    -0.282 OA
ENDROOT
BRANCH   5  10
HETATM   10  C5  UNL     1       2.055   1.933   9.084  1.00  0.00     0.036 C 
HETATM   11  C6  UNL     1       1.986   2.901  10.271  1.00  0.00     0.014 C 
BRANCH  10  12
HETATM   12  C7  UNL     1       2.081   0.525   9.433  1.00  0.00     0.090 C 
BRANCH  12  13
HETATM   13  C8  UNL     1       2.164  -0.440   8.279  1.00  0.00     0.029 C 
BRANCH  13  14
HETATM   14  C9  UNL     1       3.258  -1.416   8.165  1.00  0.00    -0.021 C 
HETATM   15  C10 UNL     1       2.975  -2.562   7.172  1.00  0.00     0.009 C 
HETATM   16  C11 UNL     1       4.411  -0.619   7.463  1.00  0.00     0.009 C 
ENDBRANCH  13  14
ENDBRANCH  12  13
BRANCH  12  17
HETATM   17  N2  UNL     1       1.062   0.059  10.322  1.00  0.00    -0.354 N 
HETATM   18  C12 UNL     1       0.973  -1.005  11.204  1.00  0.00     0.243 C 
HETATM   19  O1  UNL     1       1.932  -1.828  11.344  1.00  0.00    -0.271 OA
ATOM     20  H2  UNL     1       0.220   0.635  10.303  1.00  0.00     0.162 HD
BRANCH  18  21
HETATM   21  C13 UNL     1      -0.271  -1.187  12.004  1.00  0.00     0.208 C 
HETATM   22  N3  UNL     1       0.038  -1.668  13.352  1.00  0.00    -0.343 N 
HETATM   23  C14 UNL     1      -0.139  -0.529  14.222  1.00  0.00     0.250 C 
ATOM     24  H3  UNL     1       0.320  -2.611  13.620  1.00  0.00     0.163 HD
HETATM   25  O2  UNL     1      -0.372  -0.588  15.462  1.00  0.00    -0.271 OA
HETATM   26  C15 UNL     1       0.019   0.597  13.311  1.00  0.00     0.245 A 
HETATM   27  O3  UNL     1      -0.769   1.275  12.532  1.00  0.00    -0.363 OA
HETATM   28  C16 UNL     1      -1.036   0.023  12.309  1.00  0.00     0.193 A 
ENDBRANCH  18  21
ENDBRANCH  12  17
ENDBRANCH  10  12
ENDBRANCH   5  10
BRANCH   6  29
HETATM   29  C18 UNL     1       1.794   2.709   5.634  1.00  0.00    -0.007 C 
HETATM   30  C19 UNL     1       3.203   3.177   5.872  1.00  0.00     0.010 C 
HETATM   31  C20 UNL     1       1.653   2.216   4.227  1.00  0.00     0.010 C 
ENDBRANCH   6  29
BRANCH   1  32
HETATM   32  C2  UNL     1      -1.667   4.070   8.854  1.00  0.00    -0.022 C 
HETATM   33  C1  UNL     1      -1.830   3.051   9.654  1.00  0.00     0.019 C 
BRANCH  32  34
HETATM   34  C22 UNL     1      -2.570   5.238   8.948  1.00  0.00     0.021 A 
HETATM   35  C23 UNL     1      -1.868   6.556   8.592  1.00  0.00     0.023 C 
HETATM   36  C24 UNL     1      -3.915   5.054   8.245  1.00  0.00     0.060 A 
HETATM   37  C25 UNL     1      -3.770   5.335   9.757  1.00  0.00     0.125 A 
HETATM   38 CL1  UNL     1      -4.427   4.064  10.772  1.00  0.00    -0.100 Cl
HETATM   39 CL2  UNL     1      -4.368   6.980  10.189  1.00  0.00    -0.100 Cl
ENDBRANCH  32  34
ENDBRANCH   1  32
TORSDOF 9
ENDMDL
