MODEL 1
REMARK VINA RESULT: -9.859830207      0.000      0.000
REMARK  11 active torsions:
REMARK  status: ('A' for Active; 'I' for Inactive)
REMARK       I    between atoms: C1_2  and  N1_3 
REMARK    1  A    between atoms: C1_2  and  O7_33 
REMARK    2  A    between atoms: N1_3  and  C2_5 
REMARK    3  A    between atoms: C2_5  and  C3_6 
REMARK    4  A    between atoms: C3_6  and  C4_9 
REMARK    5  A    between atoms: C4_9  and  C5_11 
REMARK    6  A    between atoms: C5_11  and  N2_12 
REMARK    7  A    between atoms: C5_11  and  C19_30 
REMARK       I    between atoms: N2_12  and  C6_14 
REMARK    8  A    between atoms: C6_14  and  C7_16 
REMARK       I    between atoms: N3_20  and  C11_21 
REMARK    9  A    between atoms: C11_21  and  C12_23 
REMARK   10  A    between atoms: O7_33  and  C20_34 
REMARK   11  A    between atoms: C20_34  and  C21_35 
ROOT
HETATM    1  C5  UNL     1      -0.051   2.175   7.560  1.00  0.00     0.262 C 
ENDROOT
BRANCH   1   2
HETATM    2  C4  UNL     1       1.274   2.552   8.066  1.00  0.00     0.232 C 
HETATM    3  O2  UNL     1       1.886   3.354   7.294  1.00  0.00    -0.288 OA
BRANCH   2   4
HETATM    4  C3  UNL     1       1.996   2.190   9.259  1.00  0.00     0.321 C 
HETATM    5  F1  UNL     1       1.787   3.191  10.270  1.00  0.00    -0.196 F 
HETATM    6  F2  UNL     1       3.386   2.271   9.012  1.00  0.00    -0.196 F 
BRANCH   4   7
HETATM    7  C2  UNL     1       1.724   0.917   9.946  1.00  0.00     0.212 C 
BRANCH   7   8
HETATM    8  N1  UNL     1       0.505   0.731  10.641  1.00  0.00    -0.331 N 
HETATM    9  C1  UNL     1       0.164   0.971  11.971  1.00  0.00     0.360 C 
HETATM   10  O1  UNL     1       0.993   1.431  12.778  1.00  0.00    -0.239 OA
ATOM     11  H1  UNL     1      -0.253   0.358  10.070  1.00  0.00     0.164 HD
BRANCH   9  12
HETATM   12  O7  UNL     1      -1.113   0.705  12.438  1.00  0.00    -0.299 OA
BRANCH  12  13
HETATM   13  C20 UNL     1      -1.478   1.301  13.685  1.00  0.00     0.219 C 
BRANCH  13  14
HETATM   14  C21 UNL     1      -2.591   2.281  13.409  1.00  0.00    -0.034 A 
HETATM   15  C22 UNL     1      -3.165   3.048  14.380  1.00  0.00     0.009 A 
HETATM   16  C23 UNL     1      -4.178   3.932  14.045  1.00  0.00     0.001 A 
HETATM   17  C24 UNL     1      -4.607   4.042  12.747  1.00  0.00     0.000 A 
HETATM   18  C25 UNL     1      -4.016   3.255  11.761  1.00  0.00     0.001 A 
HETATM   19  C26 UNL     1      -3.006   2.372  12.084  1.00  0.00     0.009 A 
ENDBRANCH  13  14
ENDBRANCH  12  13
ENDBRANCH   9  12
ENDBRANCH   7   8
ENDBRANCH   4   7
ENDBRANCH   2   4
ENDBRANCH   1   2
BRANCH   1  20
HETATM   20  N2  UNL     1      -0.705   3.302   6.884  1.00  0.00    -0.339 N 
HETATM   21  C6  UNL     1      -1.633   4.119   7.555  1.00  0.00     0.241 C 
HETATM   22  O3  UNL     1      -1.866   3.839   8.780  1.00  0.00    -0.271 OA
ATOM     23  H2  UNL     1      -0.483   3.496   5.908  1.00  0.00     0.163 HD
BRANCH  21  24
HETATM   24  C7  UNL     1      -2.336   5.265   6.911  1.00  0.00     0.179 C 
HETATM   25  C8  UNL     1      -1.361   5.996   6.045  1.00  0.00     0.037 C 
HETATM   26  C9  UNL     1      -0.947   7.192   6.862  1.00  0.00     0.022 C 
HETATM   27  C10 UNL     1      -1.565   6.986   8.234  1.00  0.00     0.127 C 
HETATM   28  N3  UNL     1      -2.746   6.249   7.881  1.00  0.00    -0.338 N 
HETATM   29  C11 UNL     1      -4.038   6.453   8.426  1.00  0.00     0.229 C 
HETATM   30  O4  UNL     1      -4.937   5.646   8.028  1.00  0.00    -0.273 OA
BRANCH  29  31
HETATM   31  C12 UNL     1      -4.427   7.481   9.382  1.00  0.00     0.110 C 
HETATM   32  C13 UNL     1      -5.416   8.503   8.902  1.00  0.00    -0.016 C 
HETATM   33  C14 UNL     1      -6.834   8.326   8.794  1.00  0.00    -0.029 C 
HETATM   34  C15 UNL     1      -7.819   8.528   9.929  1.00  0.00     0.038 C 
HETATM   35  C16 UNL     1      -7.485   7.613  11.164  1.00  0.00     0.083 C 
HETATM   36  C17 UNL     1      -6.149   7.226  10.984  1.00  0.00    -0.182 C 
HETATM   37  C18 UNL     1      -4.820   6.846  10.760  1.00  0.00     0.097 C 
ENDBRANCH  29  31
ENDBRANCH  21  24
ENDBRANCH   1  20
BRANCH   1  38
HETATM   38  C19 UNL     1       0.054   1.110   6.543  1.00  0.00     0.204 C 
HETATM   39  O5  UNL     1      -0.871   0.972   5.702  1.00  0.00    -0.646 OA
HETATM   40  O6  UNL     1       1.126   0.256   6.484  1.00  0.00    -0.646 OA
ENDBRANCH   1  38
TORSDOF 11
ENDMDL
MODEL 2
REMARK VINA RESULT: -9.748010921      2.391      5.714
REMARK  11 active torsions:
REMARK  status: ('A' for Active; 'I' for Inactive)
REMARK       I    between atoms: C1_2  and  N1_3 
REMARK    1  A    between atoms: C1_2  and  O7_33 
REMARK    2  A    between atoms: N1_3  and  C2_5 
REMARK    3  A    between atoms: C2_5  and  C3_6 
REMARK    4  A    between atoms: C3_6  and  C4_9 
REMARK    5  A    between atoms: C4_9  and  C5_11 
REMARK    6  A    between atoms: C5_11  and  N2_12 
REMARK    7  A    between atoms: C5_11  and  C19_30 
REMARK       I    between atoms: N2_12  and  C6_14 
REMARK    8  A    between atoms: C6_14  and  C7_16 
REMARK       I    between atoms: N3_20  and  C11_21 
REMARK    9  A    between atoms: C11_21  and  C12_23 
REMARK   10  A    between atoms: O7_33  and  C20_34 
REMARK   11  A    between atoms: C20_34  and  C21_35 
ROOT
HETATM    1  C5  UNL     1      -0.423  -0.279  11.565  1.00  0.00     0.262 C 
ENDROOT
BRANCH   1   2
HETATM    2  C4  UNL     1      -0.183   0.584  12.729  1.00  0.00     0.232 C 
HETATM    3  O2  UNL     1       0.894   1.249  12.635  1.00  0.00    -0.288 OA
BRANCH   2   4
HETATM    4  C3  UNL     1      -0.934   0.812  13.938  1.00  0.00     0.321 C 
HETATM    5  F1  UNL     1      -0.427   1.983  14.603  1.00  0.00    -0.196 F 
HETATM    6  F2  UNL     1      -0.664  -0.222  14.863  1.00  0.00    -0.196 F 
BRANCH   4   7
HETATM    7  C2  UNL     1      -2.389   1.022  13.892  1.00  0.00     0.212 C 
BRANCH   7   8
HETATM    8  N1  UNL     1      -2.961   1.821  12.873  1.00  0.00    -0.331 N 
HETATM    9  C1  UNL     1      -3.640   3.037  12.936  1.00  0.00     0.360 C 
HETATM   10  O1  UNL     1      -3.832   3.614  14.021  1.00  0.00    -0.239 OA
ATOM     11  H1  UNL     1      -2.858   1.441  11.932  1.00  0.00     0.164 HD
BRANCH   9  12
HETATM   12  O7  UNL     1      -4.122   3.643  11.787  1.00  0.00    -0.299 OA
BRANCH  12  13
HETATM   13  C20 UNL     1      -5.008   4.751  11.968  1.00  0.00     0.219 C 
BRANCH  13  14
HETATM   14  C21 UNL     1      -5.000   5.549  10.688  1.00  0.00    -0.034 A 
HETATM   15  C22 UNL     1      -5.440   6.838  10.612  1.00  0.00     0.009 A 
HETATM   16  C23 UNL     1      -5.393   7.508   9.401  1.00  0.00     0.001 A 
HETATM   17  C24 UNL     1      -4.909   6.886   8.278  1.00  0.00     0.000 A 
HETATM   18  C25 UNL     1      -4.461   5.570   8.363  1.00  0.00     0.001 A 
HETATM   19  C26 UNL     1      -4.503   4.894   9.566  1.00  0.00     0.009 A 
ENDBRANCH  13  14
ENDBRANCH  12  13
ENDBRANCH   9  12
ENDBRANCH   7   8
ENDBRANCH   4   7
ENDBRANCH   2   4
ENDBRANCH   1   2
BRANCH   1  20
HETATM   20  N2  UNL     1       0.178   0.285  10.351  1.00  0.00    -0.339 N 
HETATM   21  C6  UNL     1      -0.487   1.265   9.592  1.00  0.00     0.241 C 
HETATM   22  O3  UNL     1      -1.630   1.646  10.020  1.00  0.00    -0.271 OA
ATOM     23  H2  UNL     1       1.097  -0.040  10.051  1.00  0.00     0.163 HD
BRANCH  21  24
HETATM   24  C7  UNL     1       0.071   1.858   8.344  1.00  0.00     0.179 C 
HETATM   25  C8  UNL     1       1.378   1.196   8.046  1.00  0.00     0.037 C 
HETATM   26  C9  UNL     1       2.419   2.172   8.531  1.00  0.00     0.022 C 
HETATM   27  C10 UNL     1       1.652   3.264   9.255  1.00  0.00     0.127 C 
HETATM   28  N3  UNL     1       0.416   3.246   8.523  1.00  0.00    -0.338 N 
HETATM   29  C11 UNL     1      -0.311   4.388   8.107  1.00  0.00     0.229 C 
HETATM   30  O4  UNL     1      -1.420   4.153   7.528  1.00  0.00    -0.273 OA
BRANCH  29  31
HETATM   31  C12 UNL     1       0.083   5.780   8.274  1.00  0.00     0.110 C 
HETATM   32  C13 UNL     1       1.375   6.194   7.632  1.00  0.00    -0.016 C 
HETATM   33  C14 UNL     1       1.574   6.495   6.245  1.00  0.00    -0.029 C 
HETATM   34  C15 UNL     1       1.317   7.848   5.609  1.00  0.00     0.038 C 
HETATM   35  C16 UNL     1      -0.167   8.321   5.820  1.00  0.00     0.083 C 
HETATM   36  C17 UNL     1      -0.653   7.547   6.884  1.00  0.00    -0.182 C 
HETATM   37  C18 UNL     1      -1.107   6.743   7.937  1.00  0.00     0.097 C 
ENDBRANCH  29  31
ENDBRANCH  21  24
ENDBRANCH   1  20
BRANCH   1  38
HETATM   38  C19 UNL     1       0.211  -1.600  11.746  1.00  0.00     0.204 C 
HETATM   39  O5  UNL     1      -0.484  -2.561  12.163  1.00  0.00    -0.646 OA
HETATM   40  O6  UNL     1       1.538  -1.818  11.478  1.00  0.00    -0.646 OA
ENDBRANCH   1  38
TORSDOF 11
ENDMDL
MODEL 3
REMARK VINA RESULT: -9.723539826      0.979      1.382
REMARK  11 active torsions:
REMARK  status: ('A' for Active; 'I' for Inactive)
REMARK       I    between atoms: C1_2  and  N1_3 
REMARK    1  A    between atoms: C1_2  and  O7_33 
REMARK    2  A    between atoms: N1_3  and  C2_5 
REMARK    3  A    between atoms: C2_5  and  C3_6 
REMARK    4  A    between atoms: C3_6  and  C4_9 
REMARK    5  A    between atoms: C4_9  and  C5_11 
REMARK    6  A    between atoms: C5_11  and  N2_12 
REMARK    7  A    between atoms: C5_11  and  C19_30 
REMARK       I    between atoms: N2_12  and  C6_14 
REMARK    8  A    between atoms: C6_14  and  C7_16 
REMARK       I    between atoms: N3_20  and  C11_21 
REMARK    9  A    between atoms: C11_21  and  C12_23 
REMARK   10  A    between atoms: O7_33  and  C20_34 
REMARK   11  A    between atoms: C20_34  and  C21_35 
ROOT
HETATM    1  C5  UNL     1       0.182   2.317   6.867  1.00  0.00     0.262 C 
ENDROOT
BRANCH   1   2
HETATM    2  C4  UNL     1       1.572   2.632   7.219  1.00  0.00     0.232 C 
HETATM    3  O2  UNL     1       1.926   3.790   6.836  1.00  0.00    -0.288 OA
BRANCH   2   4
HETATM    4  C3  UNL     1       2.592   1.883   7.908  1.00  0.00     0.321 C 
HETATM    5  F1  UNL     1       3.421   2.784   8.663  1.00  0.00    -0.196 F 
HETATM    6  F2  UNL     1       3.492   1.334   6.966  1.00  0.00    -0.196 F 
BRANCH   4   7
HETATM    7  C2  UNL     1       2.232   0.829   8.870  1.00  0.00     0.212 C 
BRANCH   7   8
HETATM    8  N1  UNL     1       1.610   1.168  10.095  1.00  0.00    -0.331 N 
HETATM    9  C1  UNL     1       0.276   1.094  10.495  1.00  0.00     0.360 C 
HETATM   10  O1  UNL     1      -0.606   0.669   9.727  1.00  0.00    -0.239 OA
ATOM     11  H1  UNL     1       2.246   1.527  10.807  1.00  0.00     0.164 HD
BRANCH   9  12
HETATM   12  O7  UNL     1      -0.110   1.491  11.765  1.00  0.00    -0.299 OA
BRANCH  12  13
HETATM   13  C20 UNL     1      -1.220   0.801  12.344  1.00  0.00     0.219 C 
BRANCH  13  14
HETATM   14  C21 UNL     1      -2.275   1.832  12.662  1.00  0.00    -0.034 A 
HETATM   15  C22 UNL     1      -3.163   2.299  11.738  1.00  0.00     0.009 A 
HETATM   16  C23 UNL     1      -4.108   3.241  12.111  1.00  0.00     0.001 A 
HETATM   17  C24 UNL     1      -4.158   3.706  13.400  1.00  0.00     0.000 A 
HETATM   18  C25 UNL     1      -3.248   3.226  14.339  1.00  0.00     0.001 A 
HETATM   19  C26 UNL     1      -2.303   2.286  13.977  1.00  0.00     0.009 A 
ENDBRANCH  13  14
ENDBRANCH  12  13
ENDBRANCH   9  12
ENDBRANCH   7   8
ENDBRANCH   4   7
ENDBRANCH   2   4
ENDBRANCH   1   2
BRANCH   1  20
HETATM   20  N2  UNL     1      -0.521   3.500   6.357  1.00  0.00    -0.339 N 
HETATM   21  C6  UNL     1      -1.461   4.188   7.144  1.00  0.00     0.241 C 
HETATM   22  O3  UNL     1      -1.661   3.741   8.325  1.00  0.00    -0.271 OA
ATOM     23  H2  UNL     1      -0.323   3.830   5.413  1.00  0.00     0.163 HD
BRANCH  21  24
HETATM   24  C7  UNL     1      -2.213   5.385   6.670  1.00  0.00     0.179 C 
HETATM   25  C8  UNL     1      -1.301   6.217   5.826  1.00  0.00     0.037 C 
HETATM   26  C9  UNL     1      -0.846   7.327   6.738  1.00  0.00     0.022 C 
HETATM   27  C10 UNL     1      -1.374   6.969   8.115  1.00  0.00     0.127 C 
HETATM   28  N3  UNL     1      -2.570   6.256   7.761  1.00  0.00    -0.338 N 
HETATM   29  C11 UNL     1      -3.826   6.383   8.404  1.00  0.00     0.229 C 
HETATM   30  O4  UNL     1      -4.742   5.608   7.979  1.00  0.00    -0.273 OA
BRANCH  29  31
HETATM   31  C12 UNL     1      -4.162   7.300   9.484  1.00  0.00     0.110 C 
HETATM   32  C13 UNL     1      -5.129   8.400   9.154  1.00  0.00    -0.016 C 
HETATM   33  C14 UNL     1      -6.554   8.276   9.061  1.00  0.00    -0.029 C 
HETATM   34  C15 UNL     1      -7.508   8.368  10.237  1.00  0.00     0.038 C 
HETATM   35  C16 UNL     1      -7.176   7.304  11.345  1.00  0.00     0.083 C 
HETATM   36  C17 UNL     1      -5.857   6.903  11.087  1.00  0.00    -0.182 C 
HETATM   37  C18 UNL     1      -4.545   6.515  10.786  1.00  0.00     0.097 C 
ENDBRANCH  29  31
ENDBRANCH  21  24
ENDBRANCH   1  20
BRANCH   1  38
HETATM   38  C19 UNL     1       0.123   1.321   5.779  1.00  0.00     0.204 C 
HETATM   39  O5  UNL     1       0.911   1.431   4.805  1.00  0.00    -0.646 OA
HETATM   40  O6  UNL     1      -0.766   0.277   5.788  1.00  0.00    -0.646 OA
ENDBRANCH   1  38
TORSDOF 11
ENDMDL
MODEL 4
REMARK VINA RESULT: -9.720698396      2.172      6.066
REMARK  11 active torsions:
REMARK  status: ('A' for Active; 'I' for Inactive)
REMARK       I    between atoms: C1_2  and  N1_3 
REMARK    1  A    between atoms: C1_2  and  O7_33 
REMARK    2  A    between atoms: N1_3  and  C2_5 
REMARK    3  A    between atoms: C2_5  and  C3_6 
REMARK    4  A    between atoms: C3_6  and  C4_9 
REMARK    5  A    between atoms: C4_9  and  C5_11 
REMARK    6  A    between atoms: C5_11  and  N2_12 
REMARK    7  A    between atoms: C5_11  and  C19_30 
REMARK       I    between atoms: N2_12  and  C6_14 
REMARK    8  A    between atoms: C6_14  and  C7_16 
REMARK       I    between atoms: N3_20  and  C11_21 
REMARK    9  A    between atoms: C11_21  and  C12_23 
REMARK   10  A    between atoms: O7_33  and  C20_34 
REMARK   11  A    between atoms: C20_34  and  C21_35 
ROOT
HETATM    1  C5  UNL     1       1.366   1.194   7.799  1.00  0.00     0.262 C 
ENDROOT
BRANCH   1   2
HETATM    2  C4  UNL     1       2.298   2.309   7.588  1.00  0.00     0.232 C 
HETATM    3  O2  UNL     1       2.764   2.773   8.675  1.00  0.00    -0.288 OA
BRANCH   2   4
HETATM    4  C3  UNL     1       2.774   2.963   6.395  1.00  0.00     0.321 C 
HETATM    5  F1  UNL     1       2.502   2.133   5.253  1.00  0.00    -0.196 F 
HETATM    6  F2  UNL     1       4.187   3.018   6.421  1.00  0.00    -0.196 F 
BRANCH   4   7
HETATM    7  C2  UNL     1       2.268   4.289   6.010  1.00  0.00     0.212 C 
BRANCH   7   8
HETATM    8  N1  UNL     1       1.235   4.901   6.760  1.00  0.00    -0.331 N 
HETATM    9  C1  UNL     1       0.936   6.246   6.977  1.00  0.00     0.360 C 
HETATM   10  O1  UNL     1       1.623   7.151   6.470  1.00  0.00    -0.239 OA
ATOM     11  H1  UNL     1       0.603   4.247   7.221  1.00  0.00     0.164 HD
BRANCH   9  12
HETATM   12  O7  UNL     1      -0.142   6.617   7.764  1.00  0.00    -0.299 OA
BRANCH  12  13
HETATM   13  C20 UNL     1      -0.712   5.601   8.593  1.00  0.00     0.219 C 
BRANCH  13  14
HETATM   14  C21 UNL     1      -2.174   5.928   8.767  1.00  0.00    -0.034 A 
HETATM   15  C22 UNL     1      -2.618   7.132   9.232  1.00  0.00     0.009 A 
HETATM   16  C23 UNL     1      -3.979   7.359   9.356  1.00  0.00     0.001 A 
HETATM   17  C24 UNL     1      -4.882   6.384   9.017  1.00  0.00     0.000 A 
HETATM   18  C25 UNL     1      -4.423   5.158   8.543  1.00  0.00     0.001 A 
HETATM   19  C26 UNL     1      -3.068   4.922   8.415  1.00  0.00     0.009 A 
ENDBRANCH  13  14
ENDBRANCH  12  13
ENDBRANCH   9  12
ENDBRANCH   7   8
ENDBRANCH   4   7
ENDBRANCH   2   4
ENDBRANCH   1   2
BRANCH   1  20
HETATM   20  N2  UNL     1       0.928   1.122   9.198  1.00  0.00    -0.339 N 
HETATM   21  C6  UNL     1       1.280   0.037  10.020  1.00  0.00     0.241 C 
HETATM   22  O3  UNL     1       2.007  -0.873   9.493  1.00  0.00    -0.271 OA
ATOM     23  H2  UNL     1       0.357   1.875   9.582  1.00  0.00     0.163 HD
BRANCH  21  24
HETATM   24  C7  UNL     1       0.849  -0.093  11.441  1.00  0.00     0.179 C 
HETATM   25  C8  UNL     1       1.112  -1.494  11.892  1.00  0.00     0.037 C 
HETATM   26  C9  UNL     1      -0.229  -2.177  11.813  1.00  0.00     0.022 C 
HETATM   27  C10 UNL     1      -1.158  -1.183  11.141  1.00  0.00     0.127 C 
HETATM   28  N3  UNL     1      -0.578   0.056  11.580  1.00  0.00    -0.338 N 
HETATM   29  C11 UNL     1      -1.299   1.192  12.022  1.00  0.00     0.229 C 
HETATM   30  O4  UNL     1      -0.597   2.215  12.303  1.00  0.00    -0.273 OA
BRANCH  29  31
HETATM   31  C12 UNL     1      -2.743   1.298  12.183  1.00  0.00     0.110 C 
HETATM   32  C13 UNL     1      -3.240   1.666  13.550  1.00  0.00    -0.016 C 
HETATM   33  C14 UNL     1      -3.265   2.982  14.117  1.00  0.00    -0.029 C 
HETATM   34  C15 UNL     1      -4.375   3.994  13.906  1.00  0.00     0.038 C 
HETATM   35  C16 UNL     1      -4.598   4.309  12.382  1.00  0.00     0.083 C 
HETATM   36  C17 UNL     1      -3.997   3.244  11.695  1.00  0.00    -0.182 C 
HETATM   37  C18 UNL     1      -3.371   2.173  11.044  1.00  0.00     0.097 C 
ENDBRANCH  29  31
ENDBRANCH  21  24
ENDBRANCH   1  20
BRANCH   1  38
HETATM   38  C19 UNL     1       0.134   1.376   7.007  1.00  0.00     0.204 C 
HETATM   39  O5  UNL     1      -0.582   2.389   7.212  1.00  0.00    -0.646 OA
HETATM   40  O6  UNL     1      -0.264   0.474   6.053  1.00  0.00    -0.646 OA
ENDBRANCH   1  38
TORSDOF 11
ENDMDL
MODEL 5
REMARK VINA RESULT: -9.718346493      2.845      7.572
REMARK  11 active torsions:
REMARK  status: ('A' for Active; 'I' for Inactive)
REMARK       I    between atoms: C1_2  and  N1_3 
REMARK    1  A    between atoms: C1_2  and  O7_33 
REMARK    2  A    between atoms: N1_3  and  C2_5 
REMARK    3  A    between atoms: C2_5  and  C3_6 
REMARK    4  A    between atoms: C3_6  and  C4_9 
REMARK    5  A    between atoms: C4_9  and  C5_11 
REMARK    6  A    between atoms: C5_11  and  N2_12 
REMARK    7  A    between atoms: C5_11  and  C19_30 
REMARK       I    between atoms: N2_12  and  C6_14 
REMARK    8  A    between atoms: C6_14  and  C7_16 
REMARK       I    between atoms: N3_20  and  C11_21 
REMARK    9  A    between atoms: C11_21  and  C12_23 
REMARK   10  A    between atoms: O7_33  and  C20_34 
REMARK   11  A    between atoms: C20_34  and  C21_35 
ROOT
HETATM    1  C5  UNL     1      -1.046  -0.223  11.142  1.00  0.00     0.262 C 
ENDROOT
BRANCH   1   2
HETATM    2  C4  UNL     1      -1.877   0.314  12.227  1.00  0.00     0.232 C 
HETATM    3  O2  UNL     1      -3.114   0.080  12.059  1.00  0.00    -0.288 OA
BRANCH   2   4
HETATM    4  C3  UNL     1      -1.554   1.043  13.427  1.00  0.00     0.321 C 
HETATM    5  F1  UNL     1      -0.183   1.473  13.372  1.00  0.00    -0.196 F 
HETATM    6  F2  UNL     1      -1.568   0.160  14.532  1.00  0.00    -0.196 F 
BRANCH   4   7
HETATM    7  C2  UNL     1      -2.301   2.255  13.796  1.00  0.00     0.212 C 
BRANCH   7   8
HETATM    8  N1  UNL     1      -3.196   2.847  12.873  1.00  0.00    -0.331 N 
HETATM    9  C1  UNL     1      -4.289   3.690  13.070  1.00  0.00     0.360 C 
HETATM   10  O1  UNL     1      -4.626   4.055  14.210  1.00  0.00    -0.239 OA
ATOM     11  H1  UNL     1      -3.010   2.617  11.896  1.00  0.00     0.164 HD
BRANCH   9  12
HETATM   12  O7  UNL     1      -5.035   4.151  11.997  1.00  0.00    -0.299 OA
BRANCH  12  13
HETATM   13  C20 UNL     1      -5.139   5.569  11.849  1.00  0.00     0.219 C 
BRANCH  13  14
HETATM   14  C21 UNL     1      -4.607   5.921  10.482  1.00  0.00    -0.034 A 
HETATM   15  C22 UNL     1      -4.034   7.125  10.193  1.00  0.00     0.009 A 
HETATM   16  C23 UNL     1      -3.561   7.370   8.914  1.00  0.00     0.001 A 
HETATM   17  C24 UNL     1      -3.664   6.412   7.938  1.00  0.00     0.000 A 
HETATM   18  C25 UNL     1      -4.250   5.185   8.239  1.00  0.00     0.001 A 
HETATM   19  C26 UNL     1      -4.723   4.931   9.511  1.00  0.00     0.009 A 
ENDBRANCH  13  14
ENDBRANCH  12  13
ENDBRANCH   9  12
ENDBRANCH   7   8
ENDBRANCH   4   7
ENDBRANCH   2   4
ENDBRANCH   1   2
BRANCH   1  20
HETATM   20  N2  UNL     1      -0.183   0.816  10.567  1.00  0.00    -0.339 N 
HETATM   21  C6  UNL     1      -0.722   1.992  10.016  1.00  0.00     0.241 C 
HETATM   22  O3  UNL     1      -1.994   2.116  10.054  1.00  0.00    -0.271 OA
ATOM     23  H2  UNL     1       0.828   0.682  10.566  1.00  0.00     0.163 HD
BRANCH  21  24
HETATM   24  C7  UNL     1       0.107   3.070   9.406  1.00  0.00     0.179 C 
HETATM   25  C8  UNL     1      -0.804   4.059   8.753  1.00  0.00     0.037 C 
HETATM   26  C9  UNL     1      -0.760   3.709   7.288  1.00  0.00     0.022 C 
HETATM   27  C10 UNL     1       0.030   2.416   7.198  1.00  0.00     0.127 C 
HETATM   28  N3  UNL     1       0.913   2.571   8.321  1.00  0.00    -0.338 N 
HETATM   29  C11 UNL     1       2.293   2.251   8.333  1.00  0.00     0.229 C 
HETATM   30  O4  UNL     1       2.882   2.398   9.452  1.00  0.00    -0.273 OA
BRANCH  29  31
HETATM   31  C12 UNL     1       3.088   1.779   7.207  1.00  0.00     0.110 C 
HETATM   32  C13 UNL     1       4.255   2.633   6.805  1.00  0.00    -0.016 C 
HETATM   33  C14 UNL     1       5.534   2.680   7.451  1.00  0.00    -0.029 C 
HETATM   34  C15 UNL     1       6.679   1.726   7.171  1.00  0.00     0.038 C 
HETATM   35  C16 UNL     1       6.266   0.228   7.410  1.00  0.00     0.083 C 
HETATM   36  C17 UNL     1       4.863   0.226   7.390  1.00  0.00    -0.182 C 
HETATM   37  C18 UNL     1       3.463   0.267   7.381  1.00  0.00     0.097 C 
ENDBRANCH  29  31
ENDBRANCH  21  24
ENDBRANCH   1  20
BRANCH   1  38
HETATM   38  C19 UNL     1      -0.130  -1.266  11.643  1.00  0.00     0.204 C 
HETATM   39  O5  UNL     1      -0.598  -2.387  11.970  1.00  0.00    -0.646 OA
HETATM   40  O6  UNL     1       1.220  -1.057  11.772  1.00  0.00    -0.646 OA
ENDBRANCH   1  38
TORSDOF 11
ENDMDL
