MODEL 1
REMARK VINA RESULT: -10.413352486      0.000      0.000
REMARK  8 active torsions:
REMARK  status: ('A' for Active; 'I' for Inactive)
REMARK    1  A    between atoms: C2_2  and  C3_3 
REMARK    2  A    between atoms: C5_5  and  N1_6 
REMARK    3  A    between atoms: C5_5  and  C23_30 
REMARK       I    between atoms: N1_6  and  C6_8 
REMARK    4  A    between atoms: C6_8  and  C7_10 
REMARK    5  A    between atoms: C14_17  and  C15_18 
REMARK    6  A    between atoms: C21_26  and  C22_27 
REMARK       I    between atoms: C23_30  and  N2_32 
REMARK    7  A    between atoms: N2_32  and  S1_34 
REMARK    8  A    between atoms: S1_34  and  C24_37 
ROOT
HETATM    1  C7  UNL     1      -1.084   2.128  11.340  1.00  0.00     0.002 C 
HETATM    2  C8  UNL     1      -2.007   2.682  10.272  1.00  0.00     0.041 C 
HETATM    3  C9  UNL     1      -3.413   2.940  10.611  1.00  0.00     0.010 C 
HETATM    4  C10 UNL     1      -3.943   2.258  11.803  1.00  0.00     0.001 C 
HETATM    5  C11 UNL     1      -4.102   3.198  12.927  1.00  0.00     0.005 C 
HETATM    6  C12 UNL     1      -3.264   2.628  14.047  1.00  0.00     0.002 C 
HETATM    7  C13 UNL     1      -1.879   2.344  13.610  1.00  0.00     0.020 C 
HETATM    8  C14 UNL     1      -1.738   1.350  12.395  1.00  0.00     0.029 C 
HETATM    9  C21 UNL     1      -3.147   0.975  12.132  1.00  0.00     0.108 C 
ENDROOT
BRANCH   1  10
HETATM   10  C6  UNL     1       0.200   1.771  10.724  1.00  0.00     0.245 C 
HETATM   11  N1  UNL     1       0.222   1.285   9.402  1.00  0.00    -0.339 N 
ATOM     12  H1  UNL     1      -0.684   1.176   8.946  1.00  0.00     0.164 HD
HETATM   13  O1  UNL     1       1.325   1.862  11.244  1.00  0.00    -0.268 OA
BRANCH  11  14
HETATM   14  C5  UNL     1       1.410   0.912   8.593  1.00  0.00     0.122 A 
HETATM   15  C3  UNL     1       2.468   1.974   8.493  1.00  0.00     0.048 A 
HETATM   16  C4  UNL     1       1.646   1.493   7.283  1.00  0.00     0.053 A 
BRANCH  15  17
HETATM   17  C2  UNL     1       3.870   2.028   8.140  1.00  0.00    -0.029 C 
HETATM   18  C1  UNL     1       4.679   2.914   7.669  1.00  0.00     0.007 C 
ENDBRANCH  15  17
BRANCH  14  19
HETATM   19  C23 UNL     1       1.994  -0.400   9.001  1.00  0.00     0.260 C 
HETATM   20  O4  UNL     1       1.883  -0.819  10.154  1.00  0.00    -0.270 OA
HETATM   21  N2  UNL     1       2.678  -1.194   8.067  1.00  0.00    -0.252 N 
ATOM     22  H2  UNL     1       2.767  -0.849   7.110  1.00  0.00     0.181 HD
BRANCH  21  23
HETATM   23  S1  UNL     1       3.367  -2.707   8.450  1.00  0.00     0.237 S 
HETATM   24  O5  UNL     1       2.930  -3.728   7.412  1.00  0.00    -0.205 OA
HETATM   25  O6  UNL     1       2.940  -3.128   9.817  1.00  0.00    -0.205 OA
BRANCH  23  26
HETATM   26  C24 UNL     1       5.143  -2.572   8.396  1.00  0.00     0.130 A 
HETATM   27  C25 UNL     1       5.578  -1.538   7.345  1.00  0.00     0.023 A 
HETATM   28  C26 UNL     1       5.891  -2.988   7.214  1.00  0.00     0.023 A 
ENDBRANCH  23  26
ENDBRANCH  21  23
ENDBRANCH  14  19
ENDBRANCH  11  14
ENDBRANCH   1  10
BRANCH   8  29
HETATM   29  C15 UNL     1      -0.867   0.324  13.021  1.00  0.00    -0.041 A 
HETATM   30  C16 UNL     1      -0.412  -0.791  12.400  1.00  0.00     0.011 A 
HETATM   31  C17 UNL     1       0.363  -1.785  13.032  1.00  0.00     0.046 A 
HETATM   32  C18 UNL     1       0.674  -1.622  14.354  1.00  0.00     0.154 A 
HETATM   33  F1  UNL     1       1.421  -2.598  14.951  1.00  0.00    -0.203 F 
HETATM   34  C19 UNL     1       0.242  -0.514  15.048  1.00  0.00     0.155 A 
HETATM   35  F2  UNL     1       0.581  -0.416  16.351  1.00  0.00    -0.203 F 
HETATM   36  C20 UNL     1      -0.514   0.442  14.390  1.00  0.00     0.053 A 
ENDBRANCH   8  29
BRANCH   9  37
HETATM   37  C22 UNL     1      -3.552   0.127  11.030  1.00  0.00     0.178 C 
HETATM   38  O2  UNL     1      -4.620  -0.316  10.621  1.00  0.00    -0.648 OA
HETATM   39  O3  UNL     1      -2.472  -0.332  10.190  1.00  0.00    -0.648 OA
ENDBRANCH   9  37
TORSDOF 8
ENDMDL
MODEL 2
REMARK VINA RESULT: -10.120113780      4.181      7.941
REMARK  8 active torsions:
REMARK  status: ('A' for Active; 'I' for Inactive)
REMARK    1  A    between atoms: C2_2  and  C3_3 
REMARK    2  A    between atoms: C5_5  and  N1_6 
REMARK    3  A    between atoms: C5_5  and  C23_30 
REMARK       I    between atoms: N1_6  and  C6_8 
REMARK    4  A    between atoms: C6_8  and  C7_10 
REMARK    5  A    between atoms: C14_17  and  C15_18 
REMARK    6  A    between atoms: C21_26  and  C22_27 
REMARK       I    between atoms: C23_30  and  N2_32 
REMARK    7  A    between atoms: N2_32  and  S1_34 
REMARK    8  A    between atoms: S1_34  and  C24_37 
ROOT
HETATM    1  C7  UNL     1      -0.331   3.951   6.726  1.00  0.00     0.002 C 
HETATM    2  C8  UNL     1       0.019   4.859   5.563  1.00  0.00     0.041 C 
HETATM    3  C9  UNL     1       0.811   4.318   4.451  1.00  0.00     0.010 C 
HETATM    4  C10 UNL     1       1.573   3.086   4.718  1.00  0.00     0.001 C 
HETATM    5  C11 UNL     1       0.940   1.919   4.076  1.00  0.00     0.005 C 
HETATM    6  C12 UNL     1       0.659   0.949   5.197  1.00  0.00     0.002 C 
HETATM    7  C13 UNL     1      -0.092   1.586   6.302  1.00  0.00     0.020 C 
HETATM    8  C14 UNL     1       0.598   2.842   6.960  1.00  0.00     0.029 C 
HETATM    9  C21 UNL     1       1.880   2.916   6.222  1.00  0.00     0.108 C 
ENDROOT
BRANCH   1  10
HETATM   10  C6  UNL     1      -0.945   4.754   7.792  1.00  0.00     0.245 C 
HETATM   11  N1  UNL     1      -2.349   4.843   7.870  1.00  0.00    -0.339 N 
ATOM     12  H1  UNL     1      -2.872   4.356   7.142  1.00  0.00     0.164 HD
HETATM   13  O1  UNL     1      -0.352   5.382   8.685  1.00  0.00    -0.268 OA
BRANCH  11  14
HETATM   14  C5  UNL     1      -3.156   5.561   8.888  1.00  0.00     0.122 A 
HETATM   15  C3  UNL     1      -4.217   6.467   8.332  1.00  0.00     0.048 A 
HETATM   16  C4  UNL     1      -2.995   6.987   9.111  1.00  0.00     0.053 A 
BRANCH  15  17
HETATM   17  C2  UNL     1      -5.417   7.104   8.828  1.00  0.00    -0.029 C 
HETATM   18  C1  UNL     1      -6.110   8.150   8.528  1.00  0.00     0.007 C 
ENDBRANCH  15  17
BRANCH  14  19
HETATM   19  C23 UNL     1      -3.712   4.648   9.929  1.00  0.00     0.260 C 
HETATM   20  O4  UNL     1      -4.859   4.788  10.356  1.00  0.00    -0.270 OA
HETATM   21  N2  UNL     1      -2.936   3.595  10.438  1.00  0.00    -0.252 N 
ATOM     22  H2  UNL     1      -1.987   3.476  10.082  1.00  0.00     0.181 HD
BRANCH  21  23
HETATM   23  S1  UNL     1      -3.499   2.503  11.622  1.00  0.00     0.237 S 
HETATM   24  O5  UNL     1      -3.851   1.184  10.953  1.00  0.00    -0.205 OA
HETATM   25  O6  UNL     1      -4.689   3.077  12.317  1.00  0.00    -0.205 OA
BRANCH  23  26
HETATM   26  C24 UNL     1      -2.202   2.205  12.808  1.00  0.00     0.130 A 
HETATM   27  C25 UNL     1      -2.637   1.148  13.836  1.00  0.00     0.023 A 
HETATM   28  C26 UNL     1      -2.373   2.564  14.212  1.00  0.00     0.023 A 
ENDBRANCH  23  26
ENDBRANCH  21  23
ENDBRANCH  14  19
ENDBRANCH  11  14
ENDBRANCH   1  10
BRANCH   8  29
HETATM   29  C15 UNL     1       0.649   2.380   8.370  1.00  0.00    -0.041 A 
HETATM   30  C16 UNL     1       1.548   2.801   9.291  1.00  0.00     0.011 A 
HETATM   31  C17 UNL     1       1.619   2.303  10.609  1.00  0.00     0.046 A 
HETATM   32  C18 UNL     1       0.732   1.331  10.983  1.00  0.00     0.154 A 
HETATM   33  F1  UNL     1       0.819   0.856  12.262  1.00  0.00    -0.203 F 
HETATM   34  C19 UNL     1      -0.207   0.854  10.095  1.00  0.00     0.155 A 
HETATM   35  F2  UNL     1      -1.050  -0.108  10.528  1.00  0.00    -0.203 F 
HETATM   36  C20 UNL     1      -0.246   1.372   8.812  1.00  0.00     0.053 A 
ENDBRANCH   8  29
BRANCH   9  37
HETATM   37  C22 UNL     1       2.846   3.979   6.412  1.00  0.00     0.178 C 
HETATM   38  O2  UNL     1       2.929   4.957   7.146  1.00  0.00    -0.648 OA
HETATM   39  O3  UNL     1       4.000   3.910   5.547  1.00  0.00    -0.648 OA
ENDBRANCH   9  37
TORSDOF 8
ENDMDL
MODEL 3
REMARK VINA RESULT: -10.082177721      3.236      7.096
REMARK  8 active torsions:
REMARK  status: ('A' for Active; 'I' for Inactive)
REMARK    1  A    between atoms: C2_2  and  C3_3 
REMARK    2  A    between atoms: C5_5  and  N1_6 
REMARK    3  A    between atoms: C5_5  and  C23_30 
REMARK       I    between atoms: N1_6  and  C6_8 
REMARK    4  A    between atoms: C6_8  and  C7_10 
REMARK    5  A    between atoms: C14_17  and  C15_18 
REMARK    6  A    between atoms: C21_26  and  C22_27 
REMARK       I    between atoms: C23_30  and  N2_32 
REMARK    7  A    between atoms: N2_32  and  S1_34 
REMARK    8  A    between atoms: S1_34  and  C24_37 
ROOT
HETATM    1  C7  UNL     1      -0.337   0.490   9.254  1.00  0.00     0.002 C 
HETATM    2  C8  UNL     1      -0.179   1.329   8.000  1.00  0.00     0.041 C 
HETATM    3  C9  UNL     1       1.122   1.355   7.320  1.00  0.00     0.010 C 
HETATM    4  C10 UNL     1       2.291   0.930   8.110  1.00  0.00     0.001 C 
HETATM    5  C11 UNL     1       2.753  -0.408   7.699  1.00  0.00     0.005 C 
HETATM    6  C12 UNL     1       2.697  -1.252   8.949  1.00  0.00     0.002 C 
HETATM    7  C13 UNL     1       1.371  -1.180   9.604  1.00  0.00     0.020 C 
HETATM    8  C14 UNL     1       0.893   0.263  10.017  1.00  0.00     0.029 C 
HETATM    9  C21 UNL     1       2.051   1.101   9.627  1.00  0.00     0.108 C 
ENDROOT
BRANCH   1  10
HETATM   10  C6  UNL     1      -1.645   0.774   9.857  1.00  0.00     0.245 C 
HETATM   11  N1  UNL     1      -1.910   2.062  10.362  1.00  0.00    -0.339 N 
ATOM     12  H1  UNL     1      -1.145   2.734  10.306  1.00  0.00     0.164 HD
HETATM   13  O1  UNL     1      -2.598  -0.016   9.970  1.00  0.00    -0.268 OA
BRANCH  11  14
HETATM   14  C5  UNL     1      -3.173   2.556  10.967  1.00  0.00     0.122 A 
HETATM   15  C3  UNL     1      -3.164   2.650  12.466  1.00  0.00     0.048 A 
HETATM   16  C4  UNL     1      -4.063   1.667  11.692  1.00  0.00     0.053 A 
BRANCH  15  17
HETATM   17  C2  UNL     1      -3.944   3.328  13.478  1.00  0.00    -0.029 C 
HETATM   18  C1  UNL     1      -3.740   3.765  14.674  1.00  0.00     0.007 C 
ENDBRANCH  15  17
BRANCH  14  19
HETATM   19  C23 UNL     1      -3.648   3.828  10.345  1.00  0.00     0.260 C 
HETATM   20  O4  UNL     1      -4.696   4.365  10.707  1.00  0.00    -0.270 OA
HETATM   21  N2  UNL     1      -2.895   4.449   9.335  1.00  0.00    -0.252 N 
ATOM     22  H2  UNL     1      -2.025   4.007   9.038  1.00  0.00     0.181 HD
BRANCH  21  23
HETATM   23  S1  UNL     1      -3.363   5.906   8.581  1.00  0.00     0.237 S 
HETATM   24  O5  UNL     1      -3.389   7.016   9.618  1.00  0.00    -0.205 OA
HETATM   25  O6  UNL     1      -4.706   5.742   7.949  1.00  0.00    -0.205 OA
BRANCH  23  26
HETATM   26  C24 UNL     1      -2.164   6.329   7.332  1.00  0.00     0.130 A 
HETATM   27  C25 UNL     1      -1.994   5.178   6.327  1.00  0.00     0.023 A 
HETATM   28  C26 UNL     1      -0.897   5.612   7.235  1.00  0.00     0.023 A 
ENDBRANCH  23  26
ENDBRANCH  21  23
ENDBRANCH  14  19
ENDBRANCH  11  14
ENDBRANCH   1  10
BRANCH   8  29
HETATM   29  C15 UNL     1       0.673   0.040  11.468  1.00  0.00    -0.041 A 
HETATM   30  C16 UNL     1       0.722  -1.165  12.084  1.00  0.00     0.011 A 
HETATM   31  C17 UNL     1       0.447  -1.364  13.453  1.00  0.00     0.046 A 
HETATM   32  C18 UNL     1       0.106  -0.276  14.209  1.00  0.00     0.154 A 
HETATM   33  F1  UNL     1      -0.163  -0.489  15.533  1.00  0.00    -0.203 F 
HETATM   34  C19 UNL     1       0.033   0.979  13.648  1.00  0.00     0.155 A 
HETATM   35  F2  UNL     1      -0.313   2.008  14.451  1.00  0.00    -0.203 F 
HETATM   36  C20 UNL     1       0.314   1.132  12.301  1.00  0.00     0.053 A 
ENDBRANCH   8  29
BRANCH   9  37
HETATM   37  C22 UNL     1       2.059   2.545   9.731  1.00  0.00     0.178 C 
HETATM   38  O2  UNL     1       1.382   3.378  10.324  1.00  0.00    -0.648 OA
HETATM   39  O3  UNL     1       3.091   3.202   8.966  1.00  0.00    -0.648 OA
ENDBRANCH   9  37
TORSDOF 8
ENDMDL
MODEL 4
REMARK VINA RESULT: -10.081874597      4.230      8.874
REMARK  8 active torsions:
REMARK  status: ('A' for Active; 'I' for Inactive)
REMARK    1  A    between atoms: C2_2  and  C3_3 
REMARK    2  A    between atoms: C5_5  and  N1_6 
REMARK    3  A    between atoms: C5_5  and  C23_30 
REMARK       I    between atoms: N1_6  and  C6_8 
REMARK    4  A    between atoms: C6_8  and  C7_10 
REMARK    5  A    between atoms: C14_17  and  C15_18 
REMARK    6  A    between atoms: C21_26  and  C22_27 
REMARK       I    between atoms: C23_30  and  N2_32 
REMARK    7  A    between atoms: N2_32  and  S1_34 
REMARK    8  A    between atoms: S1_34  and  C24_37 
ROOT
HETATM    1  C7  UNL     1       2.395   5.147   5.614  1.00  0.00     0.002 C 
HETATM    2  C8  UNL     1       3.110   6.460   5.366  1.00  0.00     0.041 C 
HETATM    3  C9  UNL     1       4.074   6.549   4.262  1.00  0.00     0.010 C 
HETATM    4  C10 UNL     1       4.607   5.277   3.744  1.00  0.00     0.001 C 
HETATM    5  C11 UNL     1       4.016   4.946   2.435  1.00  0.00     0.005 C 
HETATM    6  C12 UNL     1       3.369   3.594   2.619  1.00  0.00     0.002 C 
HETATM    7  C13 UNL     1       2.457   3.572   3.784  1.00  0.00     0.020 C 
HETATM    8  C14 UNL     1       3.110   3.947   5.168  1.00  0.00     0.029 C 
HETATM    9  C21 UNL     1       4.530   4.151   4.799  1.00  0.00     0.108 C 
ENDROOT
BRANCH   1  10
HETATM   10  C6  UNL     1       1.643   5.241   6.871  1.00  0.00     0.245 C 
HETATM   11  N1  UNL     1       0.280   4.883   6.891  1.00  0.00    -0.339 N 
ATOM     12  H1  UNL     1      -0.125   4.601   5.999  1.00  0.00     0.164 HD
HETATM   13  O1  UNL     1       2.084   5.601   7.976  1.00  0.00    -0.268 OA
BRANCH  11  14
HETATM   14  C5  UNL     1      -0.636   4.869   8.060  1.00  0.00     0.122 A 
HETATM   15  C3  UNL     1      -2.060   5.234   7.754  1.00  0.00     0.048 A 
HETATM   16  C4  UNL     1      -1.144   6.101   8.637  1.00  0.00     0.053 A 
BRANCH  15  17
HETATM   17  C2  UNL     1      -3.345   5.071   8.397  1.00  0.00    -0.029 C 
HETATM   18  C1  UNL     1      -4.576   5.315   8.096  1.00  0.00     0.007 C 
ENDBRANCH  15  17
BRANCH  14  19
HETATM   19  C23 UNL     1      -0.556   3.596   8.836  1.00  0.00     0.260 C 
HETATM   20  O4  UNL     1       0.458   2.896   8.815  1.00  0.00    -0.270 OA
HETATM   21  N2  UNL     1      -1.640   3.175   9.623  1.00  0.00    -0.252 N 
ATOM     22  H2  UNL     1      -2.478   3.757   9.644  1.00  0.00     0.181 HD
BRANCH  21  23
HETATM   23  S1  UNL     1      -1.626   1.740  10.545  1.00  0.00     0.237 S 
HETATM   24  O5  UNL     1      -0.454   1.783  11.512  1.00  0.00    -0.205 OA
HETATM   25  O6  UNL     1      -1.522   0.556   9.642  1.00  0.00    -0.205 OA
BRANCH  23  26
HETATM   26  C24 UNL     1      -3.134   1.638  11.491  1.00  0.00     0.130 A 
HETATM   27  C25 UNL     1      -3.796   3.020  11.611  1.00  0.00     0.023 A 
HETATM   28  C26 UNL     1      -3.250   2.292  12.790  1.00  0.00     0.023 A 
ENDBRANCH  23  26
ENDBRANCH  21  23
ENDBRANCH  14  19
ENDBRANCH  11  14
ENDBRANCH   1  10
BRANCH   8  29
HETATM   29  C15 UNL     1       2.775   2.721   5.935  1.00  0.00    -0.041 A 
HETATM   30  C16 UNL     1       3.536   2.192   6.923  1.00  0.00     0.011 A 
HETATM   31  C17 UNL     1       3.231   0.991   7.596  1.00  0.00     0.046 A 
HETATM   32  C18 UNL     1       2.101   0.312   7.230  1.00  0.00     0.154 A 
HETATM   33  F1  UNL     1       1.825  -0.854   7.889  1.00  0.00    -0.203 F 
HETATM   34  C19 UNL     1       1.284   0.790   6.230  1.00  0.00     0.155 A 
HETATM   35  F2  UNL     1       0.187   0.069   5.916  1.00  0.00    -0.203 F 
HETATM   36  C20 UNL     1       1.616   1.976   5.597  1.00  0.00     0.053 A 
ENDBRANCH   8  29
BRANCH   9  37
HETATM   37  C22 UNL     1       5.539   4.602   5.736  1.00  0.00     0.178 C 
HETATM   38  O2  UNL     1       5.571   4.817   6.943  1.00  0.00    -0.648 OA
HETATM   39  O3  UNL     1       6.827   4.883   5.150  1.00  0.00    -0.648 OA
ENDBRANCH   9  37
TORSDOF 8
ENDMDL
MODEL 5
REMARK VINA RESULT: -10.067634196      2.612      3.822
REMARK  8 active torsions:
REMARK  status: ('A' for Active; 'I' for Inactive)
REMARK    1  A    between atoms: C2_2  and  C3_3 
REMARK    2  A    between atoms: C5_5  and  N1_6 
REMARK    3  A    between atoms: C5_5  and  C23_30 
REMARK       I    between atoms: N1_6  and  C6_8 
REMARK    4  A    between atoms: C6_8  and  C7_10 
REMARK    5  A    between atoms: C14_17  and  C15_18 
REMARK    6  A    between atoms: C21_26  and  C22_27 
REMARK       I    between atoms: C23_30  and  N2_32 
REMARK    7  A    between atoms: N2_32  and  S1_34 
REMARK    8  A    between atoms: S1_34  and  C24_37 
ROOT
HETATM    1  C7  UNL     1      -1.275   2.243  11.300  1.00  0.00     0.002 C 
HETATM    2  C8  UNL     1      -2.239   2.791  10.265  1.00  0.00     0.041 C 
HETATM    3  C9  UNL     1      -3.640   3.015  10.645  1.00  0.00     0.010 C 
HETATM    4  C10 UNL     1      -4.123   2.307  11.842  1.00  0.00     0.001 C 
HETATM    5  C11 UNL     1      -4.270   3.229  12.983  1.00  0.00     0.005 C 
HETATM    6  C12 UNL     1      -3.391   2.663  14.072  1.00  0.00     0.002 C 
HETATM    7  C13 UNL     1      -2.012   2.413  13.593  1.00  0.00     0.020 C 
HETATM    8  C14 UNL     1      -1.884   1.437  12.362  1.00  0.00     0.029 C 
HETATM    9  C21 UNL     1      -3.292   1.037  12.132  1.00  0.00     0.108 C 
ENDROOT
BRANCH   1  10
HETATM   10  C6  UNL     1      -0.002   1.920  10.645  1.00  0.00     0.245 C 
HETATM   11  N1  UNL     1       0.006   1.576   9.278  1.00  0.00    -0.339 N 
ATOM     12  H1  UNL     1      -0.903   1.539   8.818  1.00  0.00     0.164 HD
HETATM   13  O1  UNL     1       1.126   1.928  11.167  1.00  0.00    -0.268 OA
BRANCH  11  14
HETATM   14  C5  UNL     1       1.183   1.260   8.430  1.00  0.00     0.122 A 
HETATM   15  C3  UNL     1       1.850  -0.051   8.734  1.00  0.00     0.048 A 
HETATM   16  C4  UNL     1       2.534   1.310   8.963  1.00  0.00     0.053 A 
BRANCH  15  17
HETATM   17  C2  UNL     1       2.762  -0.945   8.054  1.00  0.00    -0.029 C 
HETATM   18  C1  UNL     1       3.239  -2.125   8.263  1.00  0.00     0.007 C 
ENDBRANCH  15  17
BRANCH  14  19
HETATM   19  C23 UNL     1       0.895   1.399   6.972  1.00  0.00     0.260 C 
HETATM   20  O4  UNL     1       0.384   0.480   6.331  1.00  0.00    -0.270 OA
HETATM   21  N2  UNL     1       1.191   2.596   6.301  1.00  0.00    -0.252 N 
ATOM     22  H2  UNL     1       1.611   3.359   6.833  1.00  0.00     0.181 HD
BRANCH  21  23
HETATM   23  S1  UNL     1       0.885   2.838   4.640  1.00  0.00     0.237 S 
HETATM   24  O5  UNL     1      -0.616   2.816   4.404  1.00  0.00    -0.205 OA
HETATM   25  O6  UNL     1       1.562   1.775   3.838  1.00  0.00    -0.205 OA
BRANCH  23  26
HETATM   26  C24 UNL     1       1.509   4.437   4.157  1.00  0.00     0.130 A 
HETATM   27  C25 UNL     1       0.970   5.535   5.088  1.00  0.00     0.023 A 
HETATM   28  C26 UNL     1       0.613   5.467   3.645  1.00  0.00     0.023 A 
ENDBRANCH  23  26
ENDBRANCH  21  23
ENDBRANCH  14  19
ENDBRANCH  11  14
ENDBRANCH   1  10
BRANCH   8  29
HETATM   29  C15 UNL     1      -0.975   0.422  12.950  1.00  0.00    -0.041 A 
HETATM   30  C16 UNL     1      -0.470  -0.644  12.286  1.00  0.00     0.011 A 
HETATM   31  C17 UNL     1       0.342  -1.633  12.880  1.00  0.00     0.046 A 
HETATM   32  C18 UNL     1       0.636  -1.514  14.211  1.00  0.00     0.154 A 
HETATM   33  F1  UNL     1       1.419  -2.485  14.772  1.00  0.00    -0.203 F 
HETATM   34  C19 UNL     1       0.152  -0.457  14.949  1.00  0.00     0.155 A 
HETATM   35  F2  UNL     1       0.478  -0.403  16.258  1.00  0.00    -0.203 F 
HETATM   36  C20 UNL     1      -0.638   0.494  14.326  1.00  0.00     0.053 A 
ENDBRANCH   8  29
BRANCH   9  37
HETATM   37  C22 UNL     1      -3.710   0.195  11.031  1.00  0.00     0.178 C 
HETATM   38  O2  UNL     1      -4.780  -0.260  10.641  1.00  0.00    -0.648 OA
HETATM   39  O3  UNL     1      -2.643  -0.239  10.161  1.00  0.00    -0.648 OA
ENDBRANCH   9  37
TORSDOF 8
ENDMDL
