MODEL 1
REMARK VINA RESULT: -8.086129494      0.000      0.000
REMARK  11 active torsions:
REMARK  status: ('A' for Active; 'I' for Inactive)
REMARK       I    between atoms: N1_5  and  C5_6 
REMARK    1  A    between atoms: C5_6  and  C6_8 
REMARK    2  A    between atoms: C6_8  and  C9_11 
REMARK    3  A    between atoms: C9_11  and  C10_12 
REMARK    4  A    between atoms: C9_11  and  N4_27 
REMARK    5  A    between atoms: C10_12  and  N2_13 
REMARK    6  A    between atoms: N2_13  and  C11_14 
REMARK       I    between atoms: N2_13  and  C13_18 
REMARK    7  A    between atoms: C11_14  and  C12_15 
REMARK       I    between atoms: C13_18  and  N3_20 
REMARK    8  A    between atoms: N3_20  and  C14_22 
REMARK    9  A    between atoms: C14_22  and  C17_25 
REMARK       I    between atoms: N4_27  and  C19_29 
REMARK   10  A    between atoms: C19_29  and  O6_31 
REMARK   11  A    between atoms: O6_31  and  C20_32 
ROOT
HETATM    1  C1  UNL     1      -2.747   2.234  12.568  1.00  0.00     0.012 C 
HETATM    2  C2  UNL     1      -1.766   1.538  12.555  1.00  0.00    -0.105 C 
HETATM    3  C3  UNL     1      -0.573   0.670  12.555  1.00  0.00     0.156 C 
HETATM    4  C4  UNL     1       0.638   1.345  12.020  1.00  0.00     0.149 C 
HETATM    5  N1  UNL     1       0.636   1.059  10.556  1.00  0.00    -0.344 N 
HETATM    6  C5  UNL     1       1.237   1.989   9.687  1.00  0.00     0.230 C 
HETATM    7  O1  UNL     1       1.774   3.012  10.229  1.00  0.00    -0.272 OA
HETATM    8  C24 UNL     1      -0.034  -0.185  10.422  1.00  0.00     0.206 C 
HETATM    9  C25 UNL     1      -0.827  -0.499  11.656  1.00  0.00     0.275 C 
HETATM   10  F1  UNL     1      -2.175  -0.656  11.371  1.00  0.00    -0.203 F 
HETATM   11  F2  UNL     1      -0.376  -1.688  12.231  1.00  0.00    -0.203 F 
ENDROOT
BRANCH   6  12
HETATM   12  C6  UNL     1       1.325   1.937   8.200  1.00  0.00     0.059 C 
HETATM   13  C7  UNL     1       2.470   1.046   7.840  1.00  0.00     0.027 C 
HETATM   14  C8  UNL     1      -0.041   1.419   7.795  1.00  0.00     0.027 C 
BRANCH  12  15
HETATM   15  C9  UNL     1       1.504   3.319   7.628  1.00  0.00     0.142 C 
BRANCH  15  16
HETATM   16  C10 UNL     1       0.365   4.105   7.169  1.00  0.00     0.095 C 
BRANCH  16  17
HETATM   17  N2  UNL     1      -0.281   5.087   7.942  1.00  0.00    -0.302 N 
HETATM   18  C13 UNL     1      -1.677   4.968   8.212  1.00  0.00     0.323 C 
HETATM   19  O4  UNL     1      -2.304   3.954   7.756  1.00  0.00    -0.247 OA
HETATM   20  N3  UNL     1      -2.336   5.965   8.966  1.00  0.00    -0.334 N 
ATOM     21  H3  UNL     1      -1.780   6.751   9.304  1.00  0.00     0.165 HD
BRANCH  17  22
HETATM   22  C11 UNL     1       0.407   6.191   8.528  1.00  0.00     0.245 C 
BRANCH  22  23
HETATM   23  C12 UNL     1       0.630   7.272   7.522  1.00  0.00     0.192 C 
HETATM   24  O2  UNL     1      -0.261   8.168   7.441  1.00  0.00    -0.647 OA
HETATM   25  O3  UNL     1       1.723   7.349   6.698  1.00  0.00    -0.647 OA
ENDBRANCH  22  23
ENDBRANCH  17  22
BRANCH  20  26
HETATM   26  C14 UNL     1      -3.755   5.944   9.293  1.00  0.00     0.027 C 
HETATM   27  C15 UNL     1      -4.162   7.148  10.097  1.00  0.00     0.038 C 
HETATM   28  C16 UNL     1      -4.602   5.902   8.036  1.00  0.00     0.038 C 
BRANCH  26  29
HETATM   29  C17 UNL     1      -4.099   4.697  10.073  1.00  0.00     0.026 C 
HETATM   30  C18 UNL     1      -4.968   5.057  11.265  1.00  0.00     0.007 C 
ENDBRANCH  26  29
ENDBRANCH  20  26
ENDBRANCH  16  17
ENDBRANCH  15  16
BRANCH  15  31
HETATM   31  N4  UNL     1       2.409   3.240   6.491  1.00  0.00    -0.327 N 
HETATM   32  C19 UNL     1       3.605   3.985   6.338  1.00  0.00     0.361 C 
HETATM   33  O5  UNL     1       4.055   4.829   7.161  1.00  0.00    -0.238 OA
ATOM     34  H4  UNL     1       2.161   2.595   5.741  1.00  0.00     0.165 HD
BRANCH  32  35
HETATM   35  O6  UNL     1       4.424   3.826   5.208  1.00  0.00    -0.294 OA
BRANCH  35  36
HETATM   36  C20 UNL     1       4.141   4.469   3.963  1.00  0.00     0.061 C 
HETATM   37  C21 UNL     1       3.281   3.620   3.062  1.00  0.00     0.046 C 
HETATM   38  C22 UNL     1       5.479   4.658   3.281  1.00  0.00     0.046 C 
HETATM   39  C23 UNL     1       3.541   5.836   4.193  1.00  0.00     0.046 C 
ENDBRANCH  35  36
ENDBRANCH  32  35
ENDBRANCH  15  31
ENDBRANCH  12  15
ENDBRANCH   6  12
TORSDOF 11
ENDMDL
MODEL 2
REMARK VINA RESULT: -7.930691041      3.012      6.532
REMARK  11 active torsions:
REMARK  status: ('A' for Active; 'I' for Inactive)
REMARK       I    between atoms: N1_5  and  C5_6 
REMARK    1  A    between atoms: C5_6  and  C6_8 
REMARK    2  A    between atoms: C6_8  and  C9_11 
REMARK    3  A    between atoms: C9_11  and  C10_12 
REMARK    4  A    between atoms: C9_11  and  N4_27 
REMARK    5  A    between atoms: C10_12  and  N2_13 
REMARK    6  A    between atoms: N2_13  and  C11_14 
REMARK       I    between atoms: N2_13  and  C13_18 
REMARK    7  A    between atoms: C11_14  and  C12_15 
REMARK       I    between atoms: C13_18  and  N3_20 
REMARK    8  A    between atoms: N3_20  and  C14_22 
REMARK    9  A    between atoms: C14_22  and  C17_25 
REMARK       I    between atoms: N4_27  and  C19_29 
REMARK   10  A    between atoms: C19_29  and  O6_31 
REMARK   11  A    between atoms: O6_31  and  C20_32 
ROOT
HETATM    1  C1  UNL     1       2.139   6.658   6.038  1.00  0.00     0.012 C 
HETATM    2  C2  UNL     1       2.782   5.690   5.722  1.00  0.00    -0.105 C 
HETATM    3  C3  UNL     1       3.589   4.518   5.336  1.00  0.00     0.156 C 
HETATM    4  C4  UNL     1       2.790   3.450   4.682  1.00  0.00     0.149 C 
HETATM    5  N1  UNL     1       2.334   2.562   5.791  1.00  0.00    -0.344 N 
HETATM    6  C5  UNL     1       1.127   1.857   5.636  1.00  0.00     0.230 C 
HETATM    7  O1  UNL     1       0.513   2.011   4.528  1.00  0.00    -0.272 OA
HETATM    8  C24 UNL     1       3.333   2.680   6.793  1.00  0.00     0.206 C 
HETATM    9  C25 UNL     1       4.170   3.903   6.570  1.00  0.00     0.275 C 
HETATM   10  F1  UNL     1       4.116   4.764   7.657  1.00  0.00    -0.203 F 
HETATM   11  F2  UNL     1       5.506   3.548   6.380  1.00  0.00    -0.203 F 
ENDROOT
BRANCH   6  12
HETATM   12  C6  UNL     1       0.459   0.948   6.611  1.00  0.00     0.059 C 
HETATM   13  C7  UNL     1      -0.761   0.390   5.954  1.00  0.00     0.027 C 
HETATM   14  C8  UNL     1       1.539  -0.069   6.925  1.00  0.00     0.027 C 
BRANCH  12  15
HETATM   15  C9  UNL     1       0.112   1.686   7.878  1.00  0.00     0.142 C 
BRANCH  15  16
HETATM   16  C10 UNL     1      -0.702   1.070   8.919  1.00  0.00     0.095 C 
BRANCH  16  17
HETATM   17  N2  UNL     1      -0.638   1.415  10.280  1.00  0.00    -0.302 N 
HETATM   18  C13 UNL     1      -1.844   1.653  11.006  1.00  0.00     0.323 C 
HETATM   19  O4  UNL     1      -2.959   1.525  10.397  1.00  0.00    -0.247 OA
HETATM   20  N3  UNL     1      -1.785   2.024  12.367  1.00  0.00    -0.334 N 
ATOM     21  H3  UNL     1      -0.864   2.109  12.798  1.00  0.00     0.165 HD
BRANCH  17  22
HETATM   22  C11 UNL     1       0.587   1.491  11.007  1.00  0.00     0.245 C 
BRANCH  22  23
HETATM   23  C12 UNL     1       0.965   0.154  11.553  1.00  0.00     0.192 C 
HETATM   24  O2  UNL     1       0.687  -0.064  12.768  1.00  0.00    -0.647 OA
HETATM   25  O3  UNL     1       1.582  -0.833  10.828  1.00  0.00    -0.647 OA
ENDBRANCH  22  23
ENDBRANCH  17  22
BRANCH  20  26
HETATM   26  C14 UNL     1      -2.951   2.295  13.196  1.00  0.00     0.027 C 
HETATM   27  C15 UNL     1      -3.720   1.042  13.509  1.00  0.00     0.038 C 
HETATM   28  C16 UNL     1      -2.549   2.947  14.505  1.00  0.00     0.038 C 
BRANCH  26  29
HETATM   29  C17 UNL     1      -3.874   3.274  12.507  1.00  0.00     0.026 C 
HETATM   30  C18 UNL     1      -4.624   4.093  13.542  1.00  0.00     0.007 C 
ENDBRANCH  26  29
ENDBRANCH  20  26
ENDBRANCH  16  17
ENDBRANCH  15  16
BRANCH  15  31
HETATM   31  N4  UNL     1      -0.572   2.922   7.526  1.00  0.00    -0.327 N 
HETATM   32  C19 UNL     1      -0.204   4.219   7.961  1.00  0.00     0.361 C 
HETATM   33  O5  UNL     1       0.764   4.491   8.724  1.00  0.00    -0.238 OA
ATOM     34  H4  UNL     1      -1.384   2.847   6.914  1.00  0.00     0.165 HD
BRANCH  32  35
HETATM   35  O6  UNL     1      -0.920   5.356   7.552  1.00  0.00    -0.294 OA
BRANCH  35  36
HETATM   36  C20 UNL     1      -2.208   5.680   8.082  1.00  0.00     0.061 C 
HETATM   37  C21 UNL     1      -3.248   5.833   7.002  1.00  0.00     0.046 C 
HETATM   38  C22 UNL     1      -2.050   7.021   8.765  1.00  0.00     0.046 C 
HETATM   39  C23 UNL     1      -2.623   4.673   9.128  1.00  0.00     0.046 C 
ENDBRANCH  35  36
ENDBRANCH  32  35
ENDBRANCH  15  31
ENDBRANCH  12  15
ENDBRANCH   6  12
TORSDOF 11
ENDMDL
MODEL 3
REMARK VINA RESULT: -7.853549651      2.606      5.607
REMARK  11 active torsions:
REMARK  status: ('A' for Active; 'I' for Inactive)
REMARK       I    between atoms: N1_5  and  C5_6 
REMARK    1  A    between atoms: C5_6  and  C6_8 
REMARK    2  A    between atoms: C6_8  and  C9_11 
REMARK    3  A    between atoms: C9_11  and  C10_12 
REMARK    4  A    between atoms: C9_11  and  N4_27 
REMARK    5  A    between atoms: C10_12  and  N2_13 
REMARK    6  A    between atoms: N2_13  and  C11_14 
REMARK       I    between atoms: N2_13  and  C13_18 
REMARK    7  A    between atoms: C11_14  and  C12_15 
REMARK       I    between atoms: C13_18  and  N3_20 
REMARK    8  A    between atoms: N3_20  and  C14_22 
REMARK    9  A    between atoms: C14_22  and  C17_25 
REMARK       I    between atoms: N4_27  and  C19_29 
REMARK   10  A    between atoms: C19_29  and  O6_31 
REMARK   11  A    between atoms: O6_31  and  C20_32 
ROOT
HETATM    1  C1  UNL     1      -4.345   4.006  11.217  1.00  0.00     0.012 C 
HETATM    2  C2  UNL     1      -4.489   4.738  10.273  1.00  0.00    -0.105 C 
HETATM    3  C3  UNL     1      -4.685   5.645   9.127  1.00  0.00     0.156 C 
HETATM    4  C4  UNL     1      -4.014   5.172   7.888  1.00  0.00     0.149 C 
HETATM    5  N1  UNL     1      -2.651   5.777   7.920  1.00  0.00    -0.344 N 
HETATM    6  C5  UNL     1      -1.598   5.099   7.281  1.00  0.00     0.230 C 
HETATM    7  O1  UNL     1      -1.897   4.010   6.686  1.00  0.00    -0.272 OA
HETATM    8  C24 UNL     1      -2.799   6.983   8.655  1.00  0.00     0.206 C 
HETATM    9  C25 UNL     1      -4.070   6.971   9.449  1.00  0.00     0.275 C 
HETATM   10  F1  UNL     1      -3.826   7.117  10.807  1.00  0.00    -0.203 F 
HETATM   11  F2  UNL     1      -4.897   8.024   9.055  1.00  0.00    -0.203 F 
ENDROOT
BRANCH   6  12
HETATM   12  C6  UNL     1      -0.160   5.486   7.211  1.00  0.00     0.059 C 
HETATM   13  C7  UNL     1      -0.027   6.568   6.189  1.00  0.00     0.027 C 
HETATM   14  C8  UNL     1       0.149   5.908   8.634  1.00  0.00     0.027 C 
BRANCH  12  15
HETATM   15  C9  UNL     1       0.697   4.296   6.866  1.00  0.00     0.142 C 
BRANCH  15  16
HETATM   16  C10 UNL     1       1.318   3.480   7.902  1.00  0.00     0.095 C 
BRANCH  16  17
HETATM   17  N2  UNL     1       0.896   2.184   8.248  1.00  0.00    -0.302 N 
HETATM   18  C13 UNL     1       0.096   1.990   9.415  1.00  0.00     0.323 C 
HETATM   19  O4  UNL     1      -0.233   3.010  10.107  1.00  0.00    -0.247 OA
HETATM   20  N3  UNL     1      -0.310   0.687   9.780  1.00  0.00    -0.334 N 
ATOM     21  H3  UNL     1      -0.016  -0.088   9.185  1.00  0.00     0.165 HD
BRANCH  17  22
HETATM   22  C11 UNL     1       1.184   1.035   7.454  1.00  0.00     0.245 C 
BRANCH  22  23
HETATM   23  C12 UNL     1       2.507   0.451   7.824  1.00  0.00     0.192 C 
HETATM   24  O2  UNL     1       2.504  -0.448   8.715  1.00  0.00    -0.647 OA
HETATM   25  O3  UNL     1       3.703   0.825   7.265  1.00  0.00    -0.647 OA
ENDBRANCH  22  23
ENDBRANCH  17  22
BRANCH  20  26
HETATM   26  C14 UNL     1      -1.119   0.377  10.950  1.00  0.00     0.027 C 
HETATM   27  C15 UNL     1      -2.576   0.669  10.717  1.00  0.00     0.038 C 
HETATM   28  C16 UNL     1      -0.982  -1.083  11.336  1.00  0.00     0.038 C 
BRANCH  26  29
HETATM   29  C17 UNL     1      -0.648   1.173  12.145  1.00  0.00     0.026 C 
HETATM   30  C18 UNL     1      -1.841   1.616  12.973  1.00  0.00     0.007 C 
ENDBRANCH  26  29
ENDBRANCH  20  26
ENDBRANCH  16  17
ENDBRANCH  15  16
BRANCH  15  31
HETATM   31  N4  UNL     1       1.787   4.738   6.009  1.00  0.00    -0.327 N 
HETATM   32  C19 UNL     1       2.392   3.969   4.984  1.00  0.00     0.361 C 
HETATM   33  O5  UNL     1       2.079   2.788   4.670  1.00  0.00    -0.238 OA
ATOM     34  H4  UNL     1       2.146   5.681   6.160  1.00  0.00     0.165 HD
BRANCH  32  35
HETATM   35  O6  UNL     1       3.430   4.493   4.196  1.00  0.00    -0.294 OA
BRANCH  35  36
HETATM   36  C20 UNL     1       4.691   4.877   4.751  1.00  0.00     0.061 C 
HETATM   37  C21 UNL     1       4.709   6.320   5.185  1.00  0.00     0.046 C 
HETATM   38  C22 UNL     1       5.701   4.717   3.635  1.00  0.00     0.046 C 
HETATM   39  C23 UNL     1       5.087   3.944   5.870  1.00  0.00     0.046 C 
ENDBRANCH  35  36
ENDBRANCH  32  35
ENDBRANCH  15  31
ENDBRANCH  12  15
ENDBRANCH   6  12
TORSDOF 11
ENDMDL
MODEL 4
REMARK VINA RESULT: -7.838984841      1.464      2.130
REMARK  11 active torsions:
REMARK  status: ('A' for Active; 'I' for Inactive)
REMARK       I    between atoms: N1_5  and  C5_6 
REMARK    1  A    between atoms: C5_6  and  C6_8 
REMARK    2  A    between atoms: C6_8  and  C9_11 
REMARK    3  A    between atoms: C9_11  and  C10_12 
REMARK    4  A    between atoms: C9_11  and  N4_27 
REMARK    5  A    between atoms: C10_12  and  N2_13 
REMARK    6  A    between atoms: N2_13  and  C11_14 
REMARK       I    between atoms: N2_13  and  C13_18 
REMARK    7  A    between atoms: C11_14  and  C12_15 
REMARK       I    between atoms: C13_18  and  N3_20 
REMARK    8  A    between atoms: N3_20  and  C14_22 
REMARK    9  A    between atoms: C14_22  and  C17_25 
REMARK       I    between atoms: N4_27  and  C19_29 
REMARK   10  A    between atoms: C19_29  and  O6_31 
REMARK   11  A    between atoms: O6_31  and  C20_32 
ROOT
HETATM    1  C1  UNL     1      -2.830   2.283  12.198  1.00  0.00     0.012 C 
HETATM    2  C2  UNL     1      -1.876   1.558  12.314  1.00  0.00    -0.105 C 
HETATM    3  C3  UNL     1      -0.720   0.656  12.469  1.00  0.00     0.156 C 
HETATM    4  C4  UNL     1       0.576   1.310  12.154  1.00  0.00     0.149 C 
HETATM    5  N1  UNL     1       0.797   1.071  10.698  1.00  0.00    -0.344 N 
HETATM    6  C5  UNL     1       1.550   2.008   9.968  1.00  0.00     0.230 C 
HETATM    7  O1  UNL     1       2.020   2.998  10.622  1.00  0.00    -0.272 OA
HETATM    8  C24 UNL     1       0.126  -0.149  10.418  1.00  0.00     0.206 C 
HETATM    9  C25 UNL     1      -0.858  -0.477  11.501  1.00  0.00     0.275 C 
HETATM   10  F1  UNL     1      -2.148  -0.585  11.004  1.00  0.00    -0.203 F 
HETATM   11  F2  UNL     1      -0.532  -1.696  12.097  1.00  0.00    -0.203 F 
ENDROOT
BRANCH   6  12
HETATM   12  C6  UNL     1       1.869   2.000   8.512  1.00  0.00     0.059 C 
HETATM   13  C7  UNL     1       3.339   2.224   8.364  1.00  0.00     0.027 C 
HETATM   14  C8  UNL     1       1.380   0.637   8.063  1.00  0.00     0.027 C 
BRANCH  12  15
HETATM   15  C9  UNL     1       1.077   3.057   7.786  1.00  0.00     0.142 C 
BRANCH  15  16
HETATM   16  C10 UNL     1      -0.307   2.831   7.387  1.00  0.00     0.095 C 
BRANCH  16  17
HETATM   17  N2  UNL     1      -1.233   3.856   7.128  1.00  0.00    -0.302 N 
HETATM   18  C13 UNL     1      -2.006   4.397   8.200  1.00  0.00     0.323 C 
HETATM   19  O4  UNL     1      -1.818   3.944   9.378  1.00  0.00    -0.247 OA
HETATM   20  N3  UNL     1      -2.955   5.410   7.941  1.00  0.00    -0.334 N 
ATOM     21  H3  UNL     1      -3.058   5.732   6.978  1.00  0.00     0.165 HD
BRANCH  17  22
HETATM   22  C11 UNL     1      -1.410   4.436   5.837  1.00  0.00     0.245 C 
BRANCH  22  23
HETATM   23  C12 UNL     1      -1.272   3.403   4.768  1.00  0.00     0.192 C 
HETATM   24  O2  UNL     1      -2.263   2.638   4.583  1.00  0.00    -0.647 OA
HETATM   25  O3  UNL     1      -0.156   3.239   3.988  1.00  0.00    -0.647 OA
ENDBRANCH  22  23
ENDBRANCH  17  22
BRANCH  20  26
HETATM   26  C14 UNL     1      -3.798   6.025   8.957  1.00  0.00     0.027 C 
HETATM   27  C15 UNL     1      -3.054   7.065   9.748  1.00  0.00     0.038 C 
HETATM   28  C16 UNL     1      -5.013   6.683   8.332  1.00  0.00     0.038 C 
BRANCH  26  29
HETATM   29  C17 UNL     1      -4.330   4.978   9.907  1.00  0.00     0.026 C 
HETATM   30  C18 UNL     1      -4.966   5.649  11.112  1.00  0.00     0.007 C 
ENDBRANCH  26  29
ENDBRANCH  20  26
ENDBRANCH  16  17
ENDBRANCH  15  16
BRANCH  15  31
HETATM   31  N4  UNL     1       1.784   3.413   6.565  1.00  0.00    -0.327 N 
HETATM   32  C19 UNL     1       2.187   4.722   6.199  1.00  0.00     0.361 C 
HETATM   33  O5  UNL     1       1.985   5.769   6.874  1.00  0.00    -0.238 OA
ATOM     34  H4  UNL     1       2.008   2.658   5.918  1.00  0.00     0.165 HD
BRANCH  32  35
HETATM   35  O6  UNL     1       2.882   4.963   5.003  1.00  0.00    -0.294 OA
BRANCH  35  36
HETATM   36  C20 UNL     1       4.306   5.091   4.958  1.00  0.00     0.061 C 
HETATM   37  C21 UNL     1       4.973   4.491   6.169  1.00  0.00     0.046 C 
HETATM   38  C22 UNL     1       4.589   6.577   4.963  1.00  0.00     0.046 C 
HETATM   39  C23 UNL     1       4.851   4.520   3.671  1.00  0.00     0.046 C 
ENDBRANCH  35  36
ENDBRANCH  32  35
ENDBRANCH  15  31
ENDBRANCH  12  15
ENDBRANCH   6  12
TORSDOF 11
ENDMDL
MODEL 5
REMARK VINA RESULT: -7.780409583      2.686      5.598
REMARK  11 active torsions:
REMARK  status: ('A' for Active; 'I' for Inactive)
REMARK       I    between atoms: N1_5  and  C5_6 
REMARK    1  A    between atoms: C5_6  and  C6_8 
REMARK    2  A    between atoms: C6_8  and  C9_11 
REMARK    3  A    between atoms: C9_11  and  C10_12 
REMARK    4  A    between atoms: C9_11  and  N4_27 
REMARK    5  A    between atoms: C10_12  and  N2_13 
REMARK    6  A    between atoms: N2_13  and  C11_14 
REMARK       I    between atoms: N2_13  and  C13_18 
REMARK    7  A    between atoms: C11_14  and  C12_15 
REMARK       I    between atoms: C13_18  and  N3_20 
REMARK    8  A    between atoms: N3_20  and  C14_22 
REMARK    9  A    between atoms: C14_22  and  C17_25 
REMARK       I    between atoms: N4_27  and  C19_29 
REMARK   10  A    between atoms: C19_29  and  O6_31 
REMARK   11  A    between atoms: O6_31  and  C20_32 
ROOT
HETATM    1  C1  UNL     1      -4.515   3.982  11.307  1.00  0.00     0.012 C 
HETATM    2  C2  UNL     1      -4.631   4.740  10.379  1.00  0.00    -0.105 C 
HETATM    3  C3  UNL     1      -4.792   5.678   9.253  1.00  0.00     0.156 C 
HETATM    4  C4  UNL     1      -4.104   5.227   8.015  1.00  0.00     0.149 C 
HETATM    5  N1  UNL     1      -2.734   5.812   8.089  1.00  0.00    -0.344 N 
HETATM    6  C5  UNL     1      -1.678   5.135   7.452  1.00  0.00     0.230 C 
HETATM    7  O1  UNL     1      -1.981   4.066   6.825  1.00  0.00    -0.272 OA
HETATM    8  C24 UNL     1      -2.879   7.001   8.851  1.00  0.00     0.206 C 
HETATM    9  C25 UNL     1      -4.166   6.987   9.621  1.00  0.00     0.275 C 
HETATM   10  F1  UNL     1      -3.946   7.095  10.986  1.00  0.00    -0.203 F 
HETATM   11  F2  UNL     1      -4.970   8.060   9.238  1.00  0.00    -0.203 F 
ENDROOT
BRANCH   6  12
HETATM   12  C6  UNL     1      -0.234   5.503   7.419  1.00  0.00     0.059 C 
HETATM   13  C7  UNL     1       0.011   6.283   6.168  1.00  0.00     0.027 C 
HETATM   14  C8  UNL     1      -0.052   6.284   8.707  1.00  0.00     0.027 C 
BRANCH  12  15
HETATM   15  C9  UNL     1       0.633   4.272   7.478  1.00  0.00     0.142 C 
BRANCH  15  16
HETATM   16  C10 UNL     1       1.335   3.894   8.699  1.00  0.00     0.095 C 
BRANCH  16  17
HETATM   17  N2  UNL     1       1.355   2.591   9.228  1.00  0.00    -0.302 N 
HETATM   18  C13 UNL     1       0.201   2.083   9.898  1.00  0.00     0.323 C 
HETATM   19  O4  UNL     1      -0.834   2.825   9.981  1.00  0.00    -0.247 OA
HETATM   20  N3  UNL     1       0.225   0.784  10.453  1.00  0.00    -0.334 N 
ATOM     21  H3  UNL     1       1.082   0.238  10.352  1.00  0.00     0.165 HD
BRANCH  17  22
HETATM   22  C11 UNL     1       2.468   1.711   9.084  1.00  0.00     0.245 C 
BRANCH  22  23
HETATM   23  C12 UNL     1       2.410   0.989   7.778  1.00  0.00     0.192 C 
HETATM   24  O2  UNL     1       3.446   1.038   7.054  1.00  0.00    -0.647 OA
HETATM   25  O3  UNL     1       1.319   0.290   7.328  1.00  0.00    -0.647 OA
ENDBRANCH  22  23
ENDBRANCH  17  22
BRANCH  20  26
HETATM   26  C14 UNL     1      -0.892   0.172  11.159  1.00  0.00     0.027 C 
HETATM   27  C15 UNL     1      -0.559  -1.213  11.640  1.00  0.00     0.038 C 
HETATM   28  C16 UNL     1      -1.300   1.007  12.357  1.00  0.00     0.038 C 
BRANCH  26  29
HETATM   29  C17 UNL     1      -2.107   0.099  10.265  1.00  0.00     0.026 C 
HETATM   30  C18 UNL     1      -3.360   0.389  11.072  1.00  0.00     0.007 C 
ENDBRANCH  26  29
ENDBRANCH  20  26
ENDBRANCH  16  17
ENDBRANCH  15  16
BRANCH  15  31
HETATM   31  N4  UNL     1       1.659   4.374   6.452  1.00  0.00    -0.327 N 
HETATM   32  C19 UNL     1       1.750   3.560   5.295  1.00  0.00     0.361 C 
HETATM   33  O5  UNL     1       0.960   2.624   4.992  1.00  0.00    -0.238 OA
ATOM     34  H4  UNL     1       2.373   5.092   6.575  1.00  0.00     0.165 HD
BRANCH  32  35
HETATM   35  O6  UNL     1       2.772   3.747   4.350  1.00  0.00    -0.294 OA
BRANCH  35  36
HETATM   36  C20 UNL     1       2.822   4.893   3.495  1.00  0.00     0.061 C 
HETATM   37  C21 UNL     1       1.453   5.327   3.039  1.00  0.00     0.046 C 
HETATM   38  C22 UNL     1       3.603   4.463   2.272  1.00  0.00     0.046 C 
HETATM   39  C23 UNL     1       3.581   6.018   4.157  1.00  0.00     0.046 C 
ENDBRANCH  35  36
ENDBRANCH  32  35
ENDBRANCH  15  31
ENDBRANCH  12  15
ENDBRANCH   6  12
TORSDOF 11
ENDMDL
