MODEL 1
REMARK VINA RESULT: -8.875116811      0.000      0.000
REMARK  10 active torsions:
REMARK  status: ('A' for Active; 'I' for Inactive)
REMARK       I    between atoms: N1_2  and  C2_4 
REMARK    1  A    between atoms: C2_4  and  C3_6 
REMARK       I    between atoms: N2_11  and  C6_12 
REMARK    2  A    between atoms: C6_12  and  C7_14 
REMARK    3  A    between atoms: C7_14  and  C8_15 
REMARK    4  A    between atoms: C7_14  and  N3_23 
REMARK    5  A    between atoms: C8_15  and  C9_16 
REMARK       I    between atoms: N3_23  and  C15_25 
REMARK    6  A    between atoms: C15_25  and  C16_27 
REMARK    7  A    between atoms: C16_27  and  N4_28 
REMARK    8  A    between atoms: C16_27  and  C20_36 
REMARK       I    between atoms: N4_28  and  C17_30 
REMARK    9  A    between atoms: C17_30  and  O5_32 
REMARK   10  A    between atoms: O5_32  and  C18_33 
ROOT
HETATM    1  C7  UNL     1      -4.587   6.410  11.122  1.00  0.00     0.181 C 
ENDROOT
BRANCH   1   2
HETATM    2  C6  UNL     1      -3.546   7.243  10.509  1.00  0.00     0.244 C 
HETATM    3  N2  UNL     1      -2.998   7.016   9.191  1.00  0.00    -0.326 N 
HETATM    4  C3  UNL     1      -2.029   7.975   8.723  1.00  0.00     0.190 C 
HETATM    5  C5  UNL     1      -3.387   5.879   8.412  1.00  0.00     0.213 C 
HETATM    6  C4  UNL     1      -0.632   7.579   9.130  1.00  0.00     0.121 C 
HETATM    7  S1  UNL     1      -0.198   6.000   8.344  1.00  0.00    -0.093 SA
HETATM    8  S2  UNL     1      -1.972   5.111   7.581  1.00  0.00    -0.078 SA
HETATM    9  O2  UNL     1      -3.056   8.247  11.138  1.00  0.00    -0.271 OA
BRANCH   4  10
HETATM   10  C2  UNL     1      -2.097   8.304   7.299  1.00  0.00     0.241 C 
HETATM   11  N1  UNL     1      -3.344   8.466   6.660  1.00  0.00    -0.364 N 
HETATM   12  C1  UNL     1      -3.452   8.797   5.240  1.00  0.00     0.149 C 
ATOM     13  H1  UNL     1      -4.197   8.349   7.206  1.00  0.00     0.161 HD
HETATM   14  O1  UNL     1      -1.064   8.448   6.620  1.00  0.00    -0.271 OA
ENDBRANCH   4  10
ENDBRANCH   1   2
BRANCH   1  15
HETATM   15  C8  UNL     1      -5.485   7.142  12.090  1.00  0.00     0.073 C 
BRANCH  15  16
HETATM   16  C9  UNL     1      -6.557   7.915  11.444  1.00  0.00    -0.056 A 
HETATM   17  C10 UNL     1      -7.809   8.015  12.017  1.00  0.00     0.010 A 
HETATM   18  C11 UNL     1      -8.824   8.750  11.401  1.00  0.00     0.043 A 
HETATM   19  C12 UNL     1      -8.617   9.402  10.203  1.00  0.00     0.116 A 
HETATM   20  F1  UNL     1      -9.604  10.121   9.596  1.00  0.00    -0.206 F 
HETATM   21  C13 UNL     1      -7.365   9.301   9.632  1.00  0.00     0.043 A 
HETATM   22  C14 UNL     1      -6.366   8.572  10.247  1.00  0.00     0.010 A 
ENDBRANCH  15  16
ENDBRANCH   1  15
BRANCH   1  23
HETATM   23  N3  UNL     1      -3.972   5.274  11.837  1.00  0.00    -0.346 N 
HETATM   24  C15 UNL     1      -4.692   4.155  12.239  1.00  0.00     0.241 C 
HETATM   25  O3  UNL     1      -5.931   4.112  11.978  1.00  0.00    -0.271 OA
ATOM     26  H3  UNL     1      -2.974   5.312  12.046  1.00  0.00     0.163 HD
BRANCH  24  27
HETATM   27  C16 UNL     1      -4.123   2.999  12.955  1.00  0.00     0.182 C 
BRANCH  27  28
HETATM   28  N4  UNL     1      -3.170   2.260  12.161  1.00  0.00    -0.323 N 
HETATM   29  C17 UNL     1      -3.349   0.904  11.820  1.00  0.00     0.363 C 
HETATM   30  O4  UNL     1      -4.378   0.307  12.217  1.00  0.00    -0.238 OA
ATOM     31  H4  UNL     1      -2.332   2.740  11.832  1.00  0.00     0.165 HD
BRANCH  29  32
HETATM   32  O5  UNL     1      -2.426   0.211  11.059  1.00  0.00    -0.268 OA
BRANCH  32  33
HETATM   33  C18 UNL     1      -1.359  -0.476  11.683  1.00  0.00     0.314 C 
HETATM   34  C19 UNL     1      -1.751  -1.931  11.872  1.00  0.00     0.077 C 
HETATM   35  F2  UNL     1      -1.069   0.097  12.903  1.00  0.00    -0.220 F 
ENDBRANCH  32  33
ENDBRANCH  29  32
ENDBRANCH  27  28
BRANCH  27  36
HETATM   36  C20 UNL     1      -3.473   3.434  14.238  1.00  0.00     0.009 C 
HETATM   37  C21 UNL     1      -4.503   4.017  15.168  1.00  0.00     0.012 C 
HETATM   38  C22 UNL     1      -2.888   2.208  14.927  1.00  0.00     0.012 C 
ENDBRANCH  27  36
ENDBRANCH  24  27
ENDBRANCH   1  23
TORSDOF 10
ENDMDL
MODEL 2
REMARK VINA RESULT: -8.841946701      3.043      4.525
REMARK  10 active torsions:
REMARK  status: ('A' for Active; 'I' for Inactive)
REMARK       I    between atoms: N1_2  and  C2_4 
REMARK    1  A    between atoms: C2_4  and  C3_6 
REMARK       I    between atoms: N2_11  and  C6_12 
REMARK    2  A    between atoms: C6_12  and  C7_14 
REMARK    3  A    between atoms: C7_14  and  C8_15 
REMARK    4  A    between atoms: C7_14  and  N3_23 
REMARK    5  A    between atoms: C8_15  and  C9_16 
REMARK       I    between atoms: N3_23  and  C15_25 
REMARK    6  A    between atoms: C15_25  and  C16_27 
REMARK    7  A    between atoms: C16_27  and  N4_28 
REMARK    8  A    between atoms: C16_27  and  C20_36 
REMARK       I    between atoms: N4_28  and  C17_30 
REMARK    9  A    between atoms: C17_30  and  O5_32 
REMARK   10  A    between atoms: O5_32  and  C18_33 
ROOT
HETATM    1  C7  UNL     1      -1.683   4.187   8.965  1.00  0.00     0.181 C 
ENDROOT
BRANCH   1   2
HETATM    2  C6  UNL     1      -0.575   5.144   9.072  1.00  0.00     0.244 C 
HETATM    3  N2  UNL     1      -0.376   6.256   8.171  1.00  0.00    -0.326 N 
HETATM    4  C3  UNL     1       0.729   7.133   8.467  1.00  0.00     0.190 C 
HETATM    5  C5  UNL     1      -1.223   6.450   7.033  1.00  0.00     0.213 C 
HETATM    6  C4  UNL     1       1.996   6.655   7.803  1.00  0.00     0.121 C 
HETATM    7  S1  UNL     1       1.786   6.699   5.999  1.00  0.00    -0.093 SA
HETATM    8  S2  UNL     1      -0.281   6.926   5.561  1.00  0.00    -0.078 SA
HETATM    9  O2  UNL     1       0.299   5.031  10.003  1.00  0.00    -0.271 OA
BRANCH   4  10
HETATM   10  C2  UNL     1       0.497   8.556   8.213  1.00  0.00     0.241 C 
HETATM   11  N1  UNL     1       1.491   9.344   7.594  1.00  0.00    -0.364 N 
HETATM   12  C1  UNL     1       1.296  10.766   7.322  1.00  0.00     0.149 C 
ATOM     13  H1  UNL     1       2.372   8.906   7.328  1.00  0.00     0.161 HD
HETATM   14  O1  UNL     1      -0.573   9.103   8.533  1.00  0.00    -0.271 OA
ENDBRANCH   4  10
ENDBRANCH   1   2
BRANCH   1  15
HETATM   15  C8  UNL     1      -3.041   4.823   8.786  1.00  0.00     0.073 C 
BRANCH  15  16
HETATM   16  C9  UNL     1      -3.645   5.308  10.037  1.00  0.00    -0.056 A 
HETATM   17  C10 UNL     1      -3.704   6.656  10.324  1.00  0.00     0.010 A 
HETATM   18  C11 UNL     1      -4.278   7.113  11.512  1.00  0.00     0.043 A 
HETATM   19  C12 UNL     1      -4.806   6.239  12.441  1.00  0.00     0.116 A 
HETATM   20  F1  UNL     1      -5.367   6.679  13.603  1.00  0.00    -0.206 F 
HETATM   21  C13 UNL     1      -4.745   4.892  12.152  1.00  0.00     0.043 A 
HETATM   22  C14 UNL     1      -4.176   4.447  10.975  1.00  0.00     0.010 A 
ENDBRANCH  15  16
ENDBRANCH   1  15
BRANCH   1  23
HETATM   23  N3  UNL     1      -1.733   3.331  10.167  1.00  0.00    -0.346 N 
HETATM   24  C15 UNL     1      -1.163   2.064  10.215  1.00  0.00     0.241 C 
HETATM   25  O3  UNL     1      -0.577   1.628   9.181  1.00  0.00    -0.271 OA
ATOM     26  H3  UNL     1      -2.206   3.684  10.998  1.00  0.00     0.163 HD
BRANCH  24  27
HETATM   27  C16 UNL     1      -1.188   1.173  11.390  1.00  0.00     0.182 C 
BRANCH  27  28
HETATM   28  N4  UNL     1      -1.844   1.768  12.531  1.00  0.00    -0.323 N 
HETATM   29  C17 UNL     1      -1.308   1.710  13.834  1.00  0.00     0.363 C 
HETATM   30  O4  UNL     1      -0.216   1.122  14.019  1.00  0.00    -0.238 OA
ATOM     31  H4  UNL     1      -2.731   2.250  12.389  1.00  0.00     0.165 HD
BRANCH  29  32
HETATM   32  O5  UNL     1      -1.948   2.284  14.917  1.00  0.00    -0.268 OA
BRANCH  32  33
HETATM   33  C18 UNL     1      -3.282   2.737  14.798  1.00  0.00     0.314 C 
HETATM   34  C19 UNL     1      -3.582   3.698  15.936  1.00  0.00     0.077 C 
HETATM   35  F2  UNL     1      -4.157   1.671  14.839  1.00  0.00    -0.220 F 
ENDBRANCH  32  33
ENDBRANCH  29  32
ENDBRANCH  27  28
BRANCH  27  36
HETATM   36  C20 UNL     1      -1.855  -0.131  11.056  1.00  0.00     0.009 C 
HETATM   37  C21 UNL     1      -1.226  -1.250  11.842  1.00  0.00     0.012 C 
HETATM   38  C22 UNL     1      -3.317  -0.053  11.478  1.00  0.00     0.012 C 
ENDBRANCH  27  36
ENDBRANCH  24  27
ENDBRANCH   1  23
TORSDOF 10
ENDMDL
MODEL 3
REMARK VINA RESULT: -8.760511504      2.803      4.120
REMARK  10 active torsions:
REMARK  status: ('A' for Active; 'I' for Inactive)
REMARK       I    between atoms: N1_2  and  C2_4 
REMARK    1  A    between atoms: C2_4  and  C3_6 
REMARK       I    between atoms: N2_11  and  C6_12 
REMARK    2  A    between atoms: C6_12  and  C7_14 
REMARK    3  A    between atoms: C7_14  and  C8_15 
REMARK    4  A    between atoms: C7_14  and  N3_23 
REMARK    5  A    between atoms: C8_15  and  C9_16 
REMARK       I    between atoms: N3_23  and  C15_25 
REMARK    6  A    between atoms: C15_25  and  C16_27 
REMARK    7  A    between atoms: C16_27  and  N4_28 
REMARK    8  A    between atoms: C16_27  and  C20_36 
REMARK       I    between atoms: N4_28  and  C17_30 
REMARK    9  A    between atoms: C17_30  and  O5_32 
REMARK   10  A    between atoms: O5_32  and  C18_33 
ROOT
HETATM    1  C7  UNL     1      -2.525   5.058   9.024  1.00  0.00     0.181 C 
ENDROOT
BRANCH   1   2
HETATM    2  C6  UNL     1      -1.732   6.290   9.106  1.00  0.00     0.244 C 
HETATM    3  N2  UNL     1      -1.217   6.999   7.956  1.00  0.00    -0.326 N 
HETATM    4  C3  UNL     1      -0.515   8.229   8.220  1.00  0.00     0.190 C 
HETATM    5  C5  UNL     1      -1.382   6.482   6.631  1.00  0.00     0.213 C 
HETATM    6  C4  UNL     1       0.955   7.978   8.446  1.00  0.00     0.121 C 
HETATM    7  S1  UNL     1       1.690   7.293   6.932  1.00  0.00    -0.093 SA
HETATM    8  S2  UNL     1       0.124   6.666   5.640  1.00  0.00    -0.078 SA
HETATM    9  O2  UNL     1      -1.447   6.811  10.241  1.00  0.00    -0.271 OA
BRANCH   4  10
HETATM   10  C2  UNL     1      -0.730   9.305   7.252  1.00  0.00     0.241 C 
HETATM   11  N1  UNL     1      -2.004   9.512   6.683  1.00  0.00    -0.364 N 
HETATM   12  C1  UNL     1      -2.258  10.577   5.715  1.00  0.00     0.149 C 
ATOM     13  H1  UNL     1      -2.772   8.899   6.955  1.00  0.00     0.161 HD
HETATM   14  O1  UNL     1       0.198  10.059   6.910  1.00  0.00    -0.271 OA
ENDBRANCH   4  10
ENDBRANCH   1   2
BRANCH   1  15
HETATM   15  C8  UNL     1      -4.016   5.266   9.142  1.00  0.00     0.073 C 
BRANCH  15  16
HETATM   16  C9  UNL     1      -4.487   5.459  10.523  1.00  0.00    -0.056 A 
HETATM   17  C10 UNL     1      -4.734   6.722  11.022  1.00  0.00     0.010 A 
HETATM   18  C11 UNL     1      -5.181   6.900  12.333  1.00  0.00     0.043 A 
HETATM   19  C12 UNL     1      -5.392   5.828  13.176  1.00  0.00     0.116 A 
HETATM   20  F1  UNL     1      -5.829   5.996  14.456  1.00  0.00    -0.206 F 
HETATM   21  C13 UNL     1      -5.145   4.567  12.674  1.00  0.00     0.043 A 
HETATM   22  C14 UNL     1      -4.703   4.398  11.377  1.00  0.00     0.010 A 
ENDBRANCH  15  16
ENDBRANCH   1  15
BRANCH   1  23
HETATM   23  N3  UNL     1      -2.110   4.115  10.083  1.00  0.00    -0.346 N 
HETATM   24  C15 UNL     1      -1.220   3.072   9.858  1.00  0.00     0.241 C 
HETATM   25  O3  UNL     1      -0.746   2.926   8.692  1.00  0.00    -0.271 OA
ATOM     26  H3  UNL     1      -2.493   4.235  11.020  1.00  0.00     0.163 HD
BRANCH  24  27
HETATM   27  C16 UNL     1      -0.777   2.107  10.880  1.00  0.00     0.182 C 
BRANCH  27  28
HETATM   28  N4  UNL     1      -1.593   2.137  12.071  1.00  0.00    -0.323 N 
HETATM   29  C17 UNL     1      -1.084   1.845  13.353  1.00  0.00     0.363 C 
HETATM   30  O4  UNL     1       0.129   1.548  13.474  1.00  0.00    -0.238 OA
ATOM     31  H4  UNL     1      -2.579   2.380  11.981  1.00  0.00     0.165 HD
BRANCH  29  32
HETATM   32  O5  UNL     1      -1.879   1.877  14.483  1.00  0.00    -0.268 OA
BRANCH  32  33
HETATM   33  C18 UNL     1      -3.205   2.360  14.409  1.00  0.00     0.314 C 
HETATM   34  C19 UNL     1      -3.443   3.332  15.552  1.00  0.00     0.077 C 
HETATM   35  F2  UNL     1      -4.102   1.315  14.484  1.00  0.00    -0.220 F 
ENDBRANCH  32  33
ENDBRANCH  29  32
ENDBRANCH  27  28
BRANCH  27  36
HETATM   36  C20 UNL     1      -0.758   0.712  10.323  1.00  0.00     0.009 C 
HETATM   37  C21 UNL     1       0.552   0.044  10.646  1.00  0.00     0.012 C 
HETATM   38  C22 UNL     1      -1.854  -0.099  11.005  1.00  0.00     0.012 C 
ENDBRANCH  27  36
ENDBRANCH  24  27
ENDBRANCH   1  23
TORSDOF 10
ENDMDL
MODEL 4
REMARK VINA RESULT: -8.619190722      3.120      6.328
REMARK  10 active torsions:
REMARK  status: ('A' for Active; 'I' for Inactive)
REMARK       I    between atoms: N1_2  and  C2_4 
REMARK    1  A    between atoms: C2_4  and  C3_6 
REMARK       I    between atoms: N2_11  and  C6_12 
REMARK    2  A    between atoms: C6_12  and  C7_14 
REMARK    3  A    between atoms: C7_14  and  C8_15 
REMARK    4  A    between atoms: C7_14  and  N3_23 
REMARK    5  A    between atoms: C8_15  and  C9_16 
REMARK       I    between atoms: N3_23  and  C15_25 
REMARK    6  A    between atoms: C15_25  and  C16_27 
REMARK    7  A    between atoms: C16_27  and  N4_28 
REMARK    8  A    between atoms: C16_27  and  C20_36 
REMARK       I    between atoms: N4_28  and  C17_30 
REMARK    9  A    between atoms: C17_30  and  O5_32 
REMARK   10  A    between atoms: O5_32  and  C18_33 
ROOT
HETATM    1  C7  UNL     1      -1.937   7.225   9.087  1.00  0.00     0.181 C 
ENDROOT
BRANCH   1   2
HETATM    2  C6  UNL     1      -1.875   6.878   7.663  1.00  0.00     0.244 C 
HETATM    3  N2  UNL     1      -1.011   7.532   6.707  1.00  0.00    -0.326 N 
HETATM    4  C3  UNL     1      -1.032   7.016   5.361  1.00  0.00     0.190 C 
HETATM    5  C5  UNL     1      -0.200   8.651   7.083  1.00  0.00     0.213 C 
HETATM    6  C4  UNL     1      -2.094   7.696   4.534  1.00  0.00     0.121 C 
HETATM    7  S1  UNL     1      -1.705   9.465   4.389  1.00  0.00    -0.093 SA
HETATM    8  S2  UNL     1      -0.215   9.953   5.823  1.00  0.00    -0.078 SA
HETATM    9  O2  UNL     1      -2.611   5.945   7.184  1.00  0.00    -0.271 OA
BRANCH   4  10
HETATM   10  C2  UNL     1       0.256   6.998   4.666  1.00  0.00     0.241 C 
HETATM   11  N1  UNL     1       0.323   7.235   3.277  1.00  0.00    -0.364 N 
HETATM   12  C1  UNL     1       1.590   7.226   2.549  1.00  0.00     0.149 C 
ATOM     13  H1  UNL     1      -0.540   7.418   2.766  1.00  0.00     0.161 HD
HETATM   14  O1  UNL     1       1.316   6.774   5.278  1.00  0.00    -0.271 OA
ENDBRANCH   4  10
ENDBRANCH   1   2
BRANCH   1  15
HETATM   15  C8  UNL     1      -0.804   6.670   9.916  1.00  0.00     0.073 C 
BRANCH  15  16
HETATM   16  C9  UNL     1      -0.369   5.324   9.510  1.00  0.00    -0.056 A 
HETATM   17  C10 UNL     1       0.784   5.138   8.775  1.00  0.00     0.010 A 
HETATM   18  C11 UNL     1       1.193   3.859   8.393  1.00  0.00     0.043 A 
HETATM   19  C12 UNL     1       0.466   2.737   8.732  1.00  0.00     0.116 A 
HETATM   20  F1  UNL     1       0.860   1.486   8.361  1.00  0.00    -0.206 F 
HETATM   21  C13 UNL     1      -0.687   2.925   9.467  1.00  0.00     0.043 A 
HETATM   22  C14 UNL     1      -1.086   4.193   9.842  1.00  0.00     0.010 A 
ENDBRANCH  15  16
ENDBRANCH   1  15
BRANCH   1  23
HETATM   23  N3  UNL     1      -3.207   6.750   9.671  1.00  0.00    -0.346 N 
HETATM   24  C15 UNL     1      -3.914   7.468  10.628  1.00  0.00     0.241 C 
HETATM   25  O3  UNL     1      -3.445   8.579  11.014  1.00  0.00    -0.271 OA
ATOM     26  H3  UNL     1      -3.583   5.855   9.358  1.00  0.00     0.163 HD
BRANCH  24  27
HETATM   27  C16 UNL     1      -5.184   7.035  11.239  1.00  0.00     0.182 C 
BRANCH  27  28
HETATM   28  N4  UNL     1      -5.006   6.454  12.549  1.00  0.00    -0.323 N 
HETATM   29  C17 UNL     1      -5.021   5.062  12.775  1.00  0.00     0.363 C 
HETATM   30  O4  UNL     1      -5.191   4.289  11.802  1.00  0.00    -0.238 OA
ATOM     31  H4  UNL     1      -4.865   7.076  13.344  1.00  0.00     0.165 HD
BRANCH  29  32
HETATM   32  O5  UNL     1      -4.850   4.521  14.035  1.00  0.00    -0.268 OA
BRANCH  32  33
HETATM   33  C18 UNL     1      -4.092   3.340  14.208  1.00  0.00     0.314 C 
HETATM   34  C19 UNL     1      -3.458   3.356  15.588  1.00  0.00     0.077 C 
HETATM   35  F2  UNL     1      -3.114   3.252  13.240  1.00  0.00    -0.220 F 
ENDBRANCH  32  33
ENDBRANCH  29  32
ENDBRANCH  27  28
BRANCH  27  36
HETATM   36  C20 UNL     1      -6.150   8.182  11.329  1.00  0.00     0.009 C 
HETATM   37  C21 UNL     1      -6.693   8.509   9.964  1.00  0.00     0.012 C 
HETATM   38  C22 UNL     1      -7.332   7.755  12.191  1.00  0.00     0.012 C 
ENDBRANCH  27  36
ENDBRANCH  24  27
ENDBRANCH   1  23
TORSDOF 10
ENDMDL
MODEL 5
REMARK VINA RESULT: -8.540352003      1.839      2.456
REMARK  10 active torsions:
REMARK  status: ('A' for Active; 'I' for Inactive)
REMARK       I    between atoms: N1_2  and  C2_4 
REMARK    1  A    between atoms: C2_4  and  C3_6 
REMARK       I    between atoms: N2_11  and  C6_12 
REMARK    2  A    between atoms: C6_12  and  C7_14 
REMARK    3  A    between atoms: C7_14  and  C8_15 
REMARK    4  A    between atoms: C7_14  and  N3_23 
REMARK    5  A    between atoms: C8_15  and  C9_16 
REMARK       I    between atoms: N3_23  and  C15_25 
REMARK    6  A    between atoms: C15_25  and  C16_27 
REMARK    7  A    between atoms: C16_27  and  N4_28 
REMARK    8  A    between atoms: C16_27  and  C20_36 
REMARK       I    between atoms: N4_28  and  C17_30 
REMARK    9  A    between atoms: C17_30  and  O5_32 
REMARK   10  A    between atoms: O5_32  and  C18_33 
ROOT
HETATM    1  C7  UNL     1      -4.285   5.419  10.352  1.00  0.00     0.181 C 
ENDROOT
BRANCH   1   2
HETATM    2  C6  UNL     1      -3.621   5.473   9.045  1.00  0.00     0.244 C 
HETATM    3  N2  UNL     1      -2.274   5.957   8.840  1.00  0.00    -0.326 N 
HETATM    4  C3  UNL     1      -1.758   5.876   7.498  1.00  0.00     0.190 C 
HETATM    5  C5  UNL     1      -1.513   6.510   9.920  1.00  0.00     0.213 C 
HETATM    6  C4  UNL     1      -2.088   7.120   6.711  1.00  0.00     0.121 C 
HETATM    7  S1  UNL     1      -1.274   8.552   7.478  1.00  0.00    -0.093 SA
HETATM    8  S2  UNL     1      -0.605   7.996   9.417  1.00  0.00    -0.078 SA
HETATM    9  O2  UNL     1      -4.226   5.080   7.986  1.00  0.00    -0.271 OA
BRANCH   4  10
HETATM   10  C2  UNL     1      -0.341   5.531   7.380  1.00  0.00     0.241 C 
HETATM   11  N1  UNL     1       0.215   4.507   8.175  1.00  0.00    -0.364 N 
HETATM   12  C1  UNL     1       1.625   4.134   8.085  1.00  0.00     0.149 C 
ATOM     13  H1  UNL     1      -0.386   4.012   8.834  1.00  0.00     0.161 HD
HETATM   14  O1  UNL     1       0.404   6.128   6.582  1.00  0.00    -0.271 OA
ENDBRANCH   4  10
ENDBRANCH   1   2
BRANCH   1  15
HETATM   15  C8  UNL     1      -4.262   6.720  11.119  1.00  0.00     0.073 C 
BRANCH  15  16
HETATM   16  C9  UNL     1      -5.567   7.396  11.190  1.00  0.00    -0.056 A 
HETATM   17  C10 UNL     1      -6.386   7.252  12.291  1.00  0.00     0.010 A 
HETATM   18  C11 UNL     1      -7.623   7.897  12.354  1.00  0.00     0.043 A 
HETATM   19  C12 UNL     1      -8.073   8.697  11.324  1.00  0.00     0.116 A 
HETATM   20  F1  UNL     1      -9.280   9.329  11.380  1.00  0.00    -0.206 F 
HETATM   21  C13 UNL     1      -7.253   8.839  10.224  1.00  0.00     0.043 A 
HETATM   22  C14 UNL     1      -6.030   8.199  10.169  1.00  0.00     0.010 A 
ENDBRANCH  15  16
ENDBRANCH   1  15
BRANCH   1  23
HETATM   23  N3  UNL     1      -3.662   4.379  11.196  1.00  0.00    -0.346 N 
HETATM   24  C15 UNL     1      -4.371   3.651  12.144  1.00  0.00     0.241 C 
HETATM   25  O3  UNL     1      -5.605   3.893  12.288  1.00  0.00    -0.271 OA
ATOM     26  H3  UNL     1      -2.667   4.187  11.078  1.00  0.00     0.163 HD
BRANCH  24  27
HETATM   27  C16 UNL     1      -3.793   2.606  13.008  1.00  0.00     0.182 C 
BRANCH  27  28
HETATM   28  N4  UNL     1      -2.846   1.764  12.314  1.00  0.00    -0.323 N 
HETATM   29  C17 UNL     1      -3.193   0.509  11.775  1.00  0.00     0.363 C 
HETATM   30  O4  UNL     1      -4.372   0.099  11.895  1.00  0.00    -0.238 OA
ATOM     31  H4  UNL     1      -1.886   2.092  12.211  1.00  0.00     0.165 HD
BRANCH  29  32
HETATM   32  O5  UNL     1      -2.274  -0.285  11.114  1.00  0.00    -0.268 OA
BRANCH  32  33
HETATM   33  C18 UNL     1      -1.398  -1.120  11.845  1.00  0.00     0.314 C 
HETATM   34  C19 UNL     1       0.034  -0.803  11.447  1.00  0.00     0.077 C 
HETATM   35  F2  UNL     1      -1.675  -2.447  11.590  1.00  0.00    -0.220 F 
ENDBRANCH  32  33
ENDBRANCH  29  32
ENDBRANCH  27  28
BRANCH  27  36
HETATM   36  C20 UNL     1      -3.131   3.215  14.211  1.00  0.00     0.009 C 
HETATM   37  C21 UNL     1      -4.171   3.654  15.207  1.00  0.00     0.012 C 
HETATM   38  C22 UNL     1      -2.281   2.149  14.891  1.00  0.00     0.012 C 
ENDBRANCH  27  36
ENDBRANCH  24  27
ENDBRANCH   1  23
TORSDOF 10
ENDMDL
