MODEL 1
REMARK VINA RESULT: -10.191910542      0.000      0.000
REMARK  10 active torsions:
REMARK  status: ('A' for Active; 'I' for Inactive)
REMARK    1  A    between atoms: C2_2  and  N1_3 
REMARK    2  A    between atoms: C2_2  and  C21_35 
REMARK       I    between atoms: N1_3  and  C3_5 
REMARK    3  A    between atoms: C3_5  and  C4_7 
REMARK    4  A    between atoms: C4_7  and  N2_8 
REMARK    5  A    between atoms: C4_7  and  C18_32 
REMARK       I    between atoms: N2_8  and  C5_10 
REMARK    6  A    between atoms: C5_10  and  O3_12 
REMARK    7  A    between atoms: O3_12  and  C6_13 
REMARK    8  A    between atoms: C11_20  and  C12_21 
REMARK       I    between atoms: C12_21  and  N4_23 
REMARK    9  A    between atoms: N4_23  and  C13_25 
REMARK   10  A    between atoms: C13_25  and  C15_27 
ROOT
HETATM    1  N2  UNL     1       1.311  -0.423  10.536  1.00  0.00    -0.323 N 
ATOM      2  H2  UNL     1       1.416  -1.153  11.241  1.00  0.00     0.165 HD
HETATM    3  C5  UNL     1       2.000  -0.543   9.301  1.00  0.00     0.361 C 
HETATM    4  O2  UNL     1       1.858   0.364   8.443  1.00  0.00    -0.238 OA
ENDROOT
BRANCH   3   5
HETATM    5  O3  UNL     1       2.819  -1.589   8.973  1.00  0.00    -0.296 OA
BRANCH   5   6
HETATM    6  C6  UNL     1       2.519  -2.945   8.949  1.00  0.00     0.166 C 
HETATM    7  C7  UNL     1       2.798  -3.594  10.307  1.00  0.00     0.201 C 
HETATM    8  O4  UNL     1       4.071  -4.099  10.277  1.00  0.00    -0.381 OA
HETATM    9  C8  UNL     1       4.582  -4.009   9.021  1.00  0.00     0.159 C 
HETATM   10  C9  UNL     1       5.450  -2.791   8.780  1.00  0.00     0.305 C 
HETATM   11  C17 UNL     1       3.443  -3.744   8.051  1.00  0.00     0.091 C 
HETATM   12  N3  UNL     1       5.282  -2.420   7.406  1.00  0.00     0.101 N 
HETATM   13  C10 UNL     1       5.527  -1.054   7.111  1.00  0.00     0.311 C 
HETATM   14  C11 UNL     1       4.041  -2.949   6.940  1.00  0.00     0.322 C 
BRANCH  14  15
HETATM   15  C12 UNL     1       4.322  -3.880   5.820  1.00  0.00     0.252 C 
HETATM   16  O5  UNL     1       5.391  -4.518   5.771  1.00  0.00    -0.271 OA
HETATM   17  N4  UNL     1       3.390  -4.081   4.767  1.00  0.00    -0.349 N 
ATOM     18  H4  UNL     1       2.513  -3.562   4.799  1.00  0.00     0.163 HD
BRANCH  17  19
HETATM   19  C13 UNL     1       3.606  -4.965   3.663  1.00  0.00     0.152 C 
HETATM   20  C14 UNL     1       3.153  -4.359   2.352  1.00  0.00     0.038 C 
BRANCH  19  21
HETATM   21  C15 UNL     1       2.884  -6.287   3.821  1.00  0.00     0.259 C 
HETATM   22  C16 UNL     1       2.811  -7.055   2.540  1.00  0.00     0.092 C 
HETATM   23  F1  UNL     1       3.587  -7.039   4.748  1.00  0.00    -0.205 F 
HETATM   24  F2  UNL     1       1.601  -6.114   4.299  1.00  0.00    -0.205 F 
ENDBRANCH  19  21
ENDBRANCH  17  19
ENDBRANCH  14  15
ENDBRANCH   5   6
ENDBRANCH   3   5
BRANCH   1  25
HETATM   25  C4  UNL     1       0.466   0.712  10.811  1.00  0.00     0.182 C 
BRANCH  25  26
HETATM   26  C3  UNL     1      -0.357   0.540  12.009  1.00  0.00     0.241 C 
HETATM   27  N1  UNL     1      -0.927   1.624  12.718  1.00  0.00    -0.351 N 
ATOM     28  H1  UNL     1      -0.765   2.575  12.384  1.00  0.00     0.163 HD
HETATM   29  O1  UNL     1      -0.573  -0.620  12.437  1.00  0.00    -0.271 OA
BRANCH  27  30
HETATM   30  C2  UNL     1      -1.736   1.423  13.904  1.00  0.00     0.113 C 
HETATM   31  C1  UNL     1      -0.774   1.541  15.082  1.00  0.00     0.037 C 
BRANCH  30  32
HETATM   32  C21 UNL     1      -2.800   2.438  14.074  1.00  0.00    -0.036 A 
HETATM   33  C22 UNL     1      -3.101   2.990  15.317  1.00  0.00     0.009 A 
HETATM   34  C23 UNL     1      -4.093   3.937  15.481  1.00  0.00     0.001 A 
HETATM   35  C24 UNL     1      -4.832   4.377  14.406  1.00  0.00     0.000 A 
HETATM   36  C25 UNL     1      -4.553   3.848  13.180  1.00  0.00     0.001 A 
HETATM   37  C26 UNL     1      -3.568   2.908  13.019  1.00  0.00     0.009 A 
ENDBRANCH  30  32
ENDBRANCH  27  30
ENDBRANCH  25  26
BRANCH  25  38
HETATM   38  C18 UNL     1      -0.462   1.003   9.635  1.00  0.00     0.009 C 
HETATM   39  C19 UNL     1      -1.854   0.590  10.074  1.00  0.00     0.012 C 
HETATM   40  C20 UNL     1      -0.415   2.442   9.214  1.00  0.00     0.012 C 
ENDBRANCH  25  38
ENDBRANCH   1  25
TORSDOF 10
ENDMDL
MODEL 2
REMARK VINA RESULT: -10.061639486      5.721      9.090
REMARK  10 active torsions:
REMARK  status: ('A' for Active; 'I' for Inactive)
REMARK    1  A    between atoms: C2_2  and  N1_3 
REMARK    2  A    between atoms: C2_2  and  C21_35 
REMARK       I    between atoms: N1_3  and  C3_5 
REMARK    3  A    between atoms: C3_5  and  C4_7 
REMARK    4  A    between atoms: C4_7  and  N2_8 
REMARK    5  A    between atoms: C4_7  and  C18_32 
REMARK       I    between atoms: N2_8  and  C5_10 
REMARK    6  A    between atoms: C5_10  and  O3_12 
REMARK    7  A    between atoms: O3_12  and  C6_13 
REMARK    8  A    between atoms: C11_20  and  C12_21 
REMARK       I    between atoms: C12_21  and  N4_23 
REMARK    9  A    between atoms: N4_23  and  C13_25 
REMARK   10  A    between atoms: C13_25  and  C15_27 
ROOT
HETATM    1  N2  UNL     1      -4.180   7.195  10.602  1.00  0.00    -0.323 N 
ATOM      2  H2  UNL     1      -4.290   6.271  10.183  1.00  0.00     0.165 HD
HETATM    3  C5  UNL     1      -3.099   8.020  10.195  1.00  0.00     0.361 C 
HETATM    4  O2  UNL     1      -2.979   9.155  10.721  1.00  0.00    -0.238 OA
ENDROOT
BRANCH   3   5
HETATM    5  O3  UNL     1      -2.165   7.663   9.261  1.00  0.00    -0.296 OA
BRANCH   5   6
HETATM    6  C6  UNL     1      -0.786   7.817   9.318  1.00  0.00     0.166 C 
HETATM    7  C7  UNL     1      -0.289   8.738   8.201  1.00  0.00     0.201 C 
HETATM    8  O4  UNL     1       0.064   7.952   7.135  1.00  0.00    -0.381 OA
HETATM    9  C8  UNL     1       0.017   6.639   7.485  1.00  0.00     0.159 C 
HETATM   10  C9  UNL     1      -1.272   5.934   7.113  1.00  0.00     0.305 C 
HETATM   11  C17 UNL     1      -0.031   6.540   8.999  1.00  0.00     0.091 C 
HETATM   12  N3  UNL     1      -1.506   4.932   8.111  1.00  0.00     0.101 N 
HETATM   13  C10 UNL     1      -2.862   4.556   8.288  1.00  0.00     0.311 C 
HETATM   14  C11 UNL     1      -0.796   5.296   9.296  1.00  0.00     0.322 C 
BRANCH  14  15
HETATM   15  C12 UNL     1       0.183   4.225   9.600  1.00  0.00     0.252 C 
HETATM   16  O5  UNL     1       1.340   4.503   9.970  1.00  0.00    -0.271 OA
HETATM   17  N4  UNL     1      -0.155   2.851   9.485  1.00  0.00    -0.349 N 
ATOM     18  H4  UNL     1      -1.100   2.615   9.182  1.00  0.00     0.163 HD
BRANCH  17  19
HETATM   19  C13 UNL     1       0.746   1.776   9.765  1.00  0.00     0.152 C 
HETATM   20  C14 UNL     1       1.078   0.974   8.525  1.00  0.00     0.038 C 
BRANCH  19  21
HETATM   21  C15 UNL     1       0.201   0.809  10.796  1.00  0.00     0.259 C 
HETATM   22  C16 UNL     1       0.931  -0.497  10.796  1.00  0.00     0.092 C 
HETATM   23  F1  UNL     1       0.349   1.398  12.041  1.00  0.00    -0.205 F 
HETATM   24  F2  UNL     1      -1.141   0.556  10.601  1.00  0.00    -0.205 F 
ENDBRANCH  19  21
ENDBRANCH  17  19
ENDBRANCH  14  15
ENDBRANCH   5   6
ENDBRANCH   3   5
BRANCH   1  25
HETATM   25  C4  UNL     1      -5.124   7.638  11.596  1.00  0.00     0.182 C 
BRANCH  25  26
HETATM   26  C3  UNL     1      -5.077   6.848  12.828  1.00  0.00     0.241 C 
HETATM   27  N1  UNL     1      -5.061   5.433  12.839  1.00  0.00    -0.351 N 
ATOM     28  H1  UNL     1      -5.079   4.930  11.951  1.00  0.00     0.163 HD
HETATM   29  O1  UNL     1      -5.051   7.445  13.932  1.00  0.00    -0.271 OA
BRANCH  27  30
HETATM   30  C2  UNL     1      -5.019   4.678  14.075  1.00  0.00     0.113 C 
HETATM   31  C1  UNL     1      -6.410   4.072  14.235  1.00  0.00     0.037 C 
BRANCH  30  32
HETATM   32  C21 UNL     1      -4.034   3.573  14.060  1.00  0.00    -0.036 A 
HETATM   33  C22 UNL     1      -3.304   3.219  15.193  1.00  0.00     0.009 A 
HETATM   34  C23 UNL     1      -2.385   2.189  15.183  1.00  0.00     0.001 A 
HETATM   35  C24 UNL     1      -2.151   1.463  14.038  1.00  0.00     0.000 A 
HETATM   36  C25 UNL     1      -2.855   1.793  12.917  1.00  0.00     0.001 A 
HETATM   37  C26 UNL     1      -3.769   2.816  12.928  1.00  0.00     0.009 A 
ENDBRANCH  30  32
ENDBRANCH  27  30
ENDBRANCH  25  26
BRANCH  25  38
HETATM   38  C18 UNL     1      -6.551   7.593  11.057  1.00  0.00     0.009 C 
HETATM   39  C19 UNL     1      -7.466   7.841  12.241  1.00  0.00     0.012 C 
HETATM   40  C20 UNL     1      -6.777   8.592   9.960  1.00  0.00     0.012 C 
ENDBRANCH  25  38
ENDBRANCH   1  25
TORSDOF 10
ENDMDL
MODEL 3
REMARK VINA RESULT: -10.042399944      1.273      1.852
REMARK  10 active torsions:
REMARK  status: ('A' for Active; 'I' for Inactive)
REMARK    1  A    between atoms: C2_2  and  N1_3 
REMARK    2  A    between atoms: C2_2  and  C21_35 
REMARK       I    between atoms: N1_3  and  C3_5 
REMARK    3  A    between atoms: C3_5  and  C4_7 
REMARK    4  A    between atoms: C4_7  and  N2_8 
REMARK    5  A    between atoms: C4_7  and  C18_32 
REMARK       I    between atoms: N2_8  and  C5_10 
REMARK    6  A    between atoms: C5_10  and  O3_12 
REMARK    7  A    between atoms: O3_12  and  C6_13 
REMARK    8  A    between atoms: C11_20  and  C12_21 
REMARK       I    between atoms: C12_21  and  N4_23 
REMARK    9  A    between atoms: N4_23  and  C13_25 
REMARK   10  A    between atoms: C13_25  and  C15_27 
ROOT
HETATM    1  N2  UNL     1       1.860   1.104   8.603  1.00  0.00    -0.323 N 
ATOM      2  H2  UNL     1       2.326   1.331   7.724  1.00  0.00     0.165 HD
HETATM    3  C5  UNL     1       1.959  -0.213   9.124  1.00  0.00     0.361 C 
HETATM    4  O2  UNL     1       1.380  -0.476  10.208  1.00  0.00    -0.238 OA
ENDROOT
BRANCH   3   5
HETATM    5  O3  UNL     1       2.646  -1.232   8.522  1.00  0.00    -0.296 OA
BRANCH   5   6
HETATM    6  C6  UNL     1       2.462  -2.601   8.668  1.00  0.00     0.166 C 
HETATM    7  C7  UNL     1       2.847  -3.059  10.078  1.00  0.00     0.201 C 
HETATM    8  O4  UNL     1       4.157  -3.460  10.046  1.00  0.00    -0.381 OA
HETATM    9  C8  UNL     1       4.610  -3.479   8.764  1.00  0.00     0.159 C 
HETATM   10  C9  UNL     1       5.361  -2.232   8.344  1.00  0.00     0.305 C 
HETATM   11  C17 UNL     1       3.417  -3.424   7.826  1.00  0.00     0.091 C 
HETATM   12  N3  UNL     1       5.110  -2.042   6.945  1.00  0.00     0.101 N 
HETATM   13  C10 UNL     1       5.225  -0.705   6.484  1.00  0.00     0.311 C 
HETATM   14  C11 UNL     1       3.902  -2.721   6.603  1.00  0.00     0.322 C 
BRANCH  14  15
HETATM   15  C12 UNL     1       4.219  -3.753   5.586  1.00  0.00     0.252 C 
HETATM   16  O5  UNL     1       5.277  -4.408   5.648  1.00  0.00    -0.271 OA
HETATM   17  N4  UNL     1       3.337  -4.034   4.509  1.00  0.00    -0.349 N 
ATOM     18  H4  UNL     1       2.469  -3.502   4.451  1.00  0.00     0.163 HD
BRANCH  17  19
HETATM   19  C13 UNL     1       3.589  -5.017   3.501  1.00  0.00     0.152 C 
HETATM   20  C14 UNL     1       3.198  -4.530   2.122  1.00  0.00     0.038 C 
BRANCH  19  21
HETATM   21  C15 UNL     1       2.846  -6.314   3.748  1.00  0.00     0.259 C 
HETATM   22  C16 UNL     1       2.646  -7.105   2.495  1.00  0.00     0.092 C 
HETATM   23  F1  UNL     1       3.603  -7.067   4.631  1.00  0.00    -0.205 F 
HETATM   24  F2  UNL     1       1.613  -6.094   4.325  1.00  0.00    -0.205 F 
ENDBRANCH  19  21
ENDBRANCH  17  19
ENDBRANCH  14  15
ENDBRANCH   5   6
ENDBRANCH   3   5
BRANCH   1  25
HETATM   25  C4  UNL     1       1.114   2.125   9.294  1.00  0.00     0.182 C 
BRANCH  25  26
HETATM   26  C3  UNL     1      -0.239   1.703   9.659  1.00  0.00     0.241 C 
HETATM   27  N1  UNL     1      -0.687   1.614  10.998  1.00  0.00    -0.351 N 
ATOM     28  H1  UNL     1      -0.045   1.857  11.753  1.00  0.00     0.163 HD
HETATM   29  O1  UNL     1      -1.049   1.402   8.747  1.00  0.00    -0.271 OA
BRANCH  27  30
HETATM   30  C2  UNL     1      -2.034   1.189  11.328  1.00  0.00     0.113 C 
HETATM   31  C1  UNL     1      -1.915  -0.279  11.727  1.00  0.00     0.037 C 
BRANCH  30  32
HETATM   32  C21 UNL     1      -2.626   1.929  12.465  1.00  0.00    -0.036 A 
HETATM   33  C22 UNL     1      -2.197   1.736  13.776  1.00  0.00     0.009 A 
HETATM   34  C23 UNL     1      -2.747   2.424  14.839  1.00  0.00     0.001 A 
HETATM   35  C24 UNL     1      -3.755   3.340  14.641  1.00  0.00     0.000 A 
HETATM   36  C25 UNL     1      -4.190   3.545  13.364  1.00  0.00     0.001 A 
HETATM   37  C26 UNL     1      -3.642   2.860  12.309  1.00  0.00     0.009 A 
ENDBRANCH  30  32
ENDBRANCH  27  30
ENDBRANCH  25  26
BRANCH  25  38
HETATM   38  C18 UNL     1       1.005   3.391   8.449  1.00  0.00     0.009 C 
HETATM   39  C19 UNL     1       0.567   4.499   9.389  1.00  0.00     0.012 C 
HETATM   40  C20 UNL     1       2.293   3.726   7.756  1.00  0.00     0.012 C 
ENDBRANCH  25  38
ENDBRANCH   1  25
TORSDOF 10
ENDMDL
MODEL 4
REMARK VINA RESULT: -9.998321718      2.196      3.150
REMARK  10 active torsions:
REMARK  status: ('A' for Active; 'I' for Inactive)
REMARK    1  A    between atoms: C2_2  and  N1_3 
REMARK    2  A    between atoms: C2_2  and  C21_35 
REMARK       I    between atoms: N1_3  and  C3_5 
REMARK    3  A    between atoms: C3_5  and  C4_7 
REMARK    4  A    between atoms: C4_7  and  N2_8 
REMARK    5  A    between atoms: C4_7  and  C18_32 
REMARK       I    between atoms: N2_8  and  C5_10 
REMARK    6  A    between atoms: C5_10  and  O3_12 
REMARK    7  A    between atoms: O3_12  and  C6_13 
REMARK    8  A    between atoms: C11_20  and  C12_21 
REMARK       I    between atoms: C12_21  and  N4_23 
REMARK    9  A    between atoms: N4_23  and  C13_25 
REMARK   10  A    between atoms: C13_25  and  C15_27 
ROOT
HETATM    1  N2  UNL     1       1.007  -0.593  10.404  1.00  0.00    -0.323 N 
ATOM      2  H2  UNL     1       1.193  -1.139  11.246  1.00  0.00     0.165 HD
HETATM    3  C5  UNL     1       1.829  -0.773   9.261  1.00  0.00     0.361 C 
HETATM    4  O2  UNL     1       1.585  -0.094   8.232  1.00  0.00    -0.238 OA
ENDROOT
BRANCH   3   5
HETATM    5  O3  UNL     1       2.884  -1.643   9.198  1.00  0.00    -0.296 OA
BRANCH   5   6
HETATM    6  C6  UNL     1       2.854  -3.026   9.084  1.00  0.00     0.166 C 
HETATM    7  C7  UNL     1       3.431  -3.693  10.336  1.00  0.00     0.201 C 
HETATM    8  O4  UNL     1       4.763  -3.923  10.114  1.00  0.00    -0.381 OA
HETATM    9  C8  UNL     1       5.077  -3.646   8.821  1.00  0.00     0.159 C 
HETATM   10  C9  UNL     1       5.650  -2.261   8.595  1.00  0.00     0.305 C 
HETATM   11  C17 UNL     1       3.792  -3.556   8.016  1.00  0.00     0.091 C 
HETATM   12  N3  UNL     1       5.235  -1.842   7.289  1.00  0.00     0.101 N 
HETATM   13  C10 UNL     1       5.166  -0.438   7.095  1.00  0.00     0.311 C 
HETATM   14  C11 UNL     1       4.072  -2.584   6.922  1.00  0.00     0.322 C 
BRANCH  14  15
HETATM   15  C12 UNL     1       4.380  -3.359   5.696  1.00  0.00     0.252 C 
HETATM   16  O5  UNL     1       5.526  -3.355   5.208  1.00  0.00    -0.271 OA
HETATM   17  N4  UNL     1       3.390  -4.134   5.036  1.00  0.00    -0.349 N 
ATOM     18  H4  UNL     1       2.449  -4.143   5.429  1.00  0.00     0.163 HD
BRANCH  17  19
HETATM   19  C13 UNL     1       3.629  -4.902   3.853  1.00  0.00     0.152 C 
HETATM   20  C14 UNL     1       3.191  -4.172   2.602  1.00  0.00     0.038 C 
BRANCH  19  21
HETATM   21  C15 UNL     1       2.916  -6.239   3.869  1.00  0.00     0.259 C 
HETATM   22  C16 UNL     1       2.856  -6.870   2.514  1.00  0.00     0.092 C 
HETATM   23  F1  UNL     1       3.621  -7.079   4.716  1.00  0.00    -0.205 F 
HETATM   24  F2  UNL     1       1.630  -6.126   4.354  1.00  0.00    -0.205 F 
ENDBRANCH  19  21
ENDBRANCH  17  19
ENDBRANCH  14  15
ENDBRANCH   5   6
ENDBRANCH   3   5
BRANCH   1  25
HETATM   25  C4  UNL     1      -0.086   0.346  10.396  1.00  0.00     0.182 C 
BRANCH  25  26
HETATM   26  C3  UNL     1       0.353   1.741  10.433  1.00  0.00     0.241 C 
HETATM   27  N1  UNL     1       0.253   2.613   9.323  1.00  0.00    -0.351 N 
ATOM     28  H1  UNL     1      -0.145   2.262   8.451  1.00  0.00     0.163 HD
HETATM   29  O1  UNL     1       0.844   2.197  11.495  1.00  0.00    -0.271 OA
BRANCH  27  30
HETATM   30  C2  UNL     1       0.701   3.990   9.388  1.00  0.00     0.113 C 
HETATM   31  C1  UNL     1       1.404   4.258   8.061  1.00  0.00     0.037 C 
BRANCH  30  32
HETATM   32  C21 UNL     1      -0.404   4.965   9.529  1.00  0.00    -0.036 A 
HETATM   33  C22 UNL     1      -1.733   4.565   9.643  1.00  0.00     0.009 A 
HETATM   34  C23 UNL     1      -2.766   5.470   9.775  1.00  0.00     0.001 A 
HETATM   35  C24 UNL     1      -2.519   6.824   9.799  1.00  0.00     0.000 A 
HETATM   36  C25 UNL     1      -1.224   7.239   9.689  1.00  0.00     0.001 A 
HETATM   37  C26 UNL     1      -0.198   6.337   9.558  1.00  0.00     0.009 A 
ENDBRANCH  30  32
ENDBRANCH  27  30
ENDBRANCH  25  26
BRANCH  25  38
HETATM   38  C18 UNL     1      -1.020   0.110  11.581  1.00  0.00     0.009 C 
HETATM   39  C19 UNL     1      -2.352   0.734  11.208  1.00  0.00     0.012 C 
HETATM   40  C20 UNL     1      -1.161  -1.346  11.915  1.00  0.00     0.012 C 
ENDBRANCH  25  38
ENDBRANCH   1  25
TORSDOF 10
ENDMDL
MODEL 5
REMARK VINA RESULT: -9.851645631      6.036      9.223
REMARK  10 active torsions:
REMARK  status: ('A' for Active; 'I' for Inactive)
REMARK    1  A    between atoms: C2_2  and  N1_3 
REMARK    2  A    between atoms: C2_2  and  C21_35 
REMARK       I    between atoms: N1_3  and  C3_5 
REMARK    3  A    between atoms: C3_5  and  C4_7 
REMARK    4  A    between atoms: C4_7  and  N2_8 
REMARK    5  A    between atoms: C4_7  and  C18_32 
REMARK       I    between atoms: N2_8  and  C5_10 
REMARK    6  A    between atoms: C5_10  and  O3_12 
REMARK    7  A    between atoms: O3_12  and  C6_13 
REMARK    8  A    between atoms: C11_20  and  C12_21 
REMARK       I    between atoms: C12_21  and  N4_23 
REMARK    9  A    between atoms: N4_23  and  C13_25 
REMARK   10  A    between atoms: C13_25  and  C15_27 
ROOT
HETATM    1  N2  UNL     1      -3.654   8.310   9.011  1.00  0.00    -0.323 N 
ATOM      2  H2  UNL     1      -3.980   8.655   8.108  1.00  0.00     0.165 HD
HETATM    3  C5  UNL     1      -2.261   8.264   9.277  1.00  0.00     0.361 C 
HETATM    4  O2  UNL     1      -1.877   7.838  10.395  1.00  0.00    -0.238 OA
ENDROOT
BRANCH   3   5
HETATM    5  O3  UNL     1      -1.293   8.655   8.393  1.00  0.00    -0.296 OA
BRANCH   5   6
HETATM    6  C6  UNL     1       0.077   8.751   8.601  1.00  0.00     0.166 C 
HETATM    7  C7  UNL     1       0.718   9.718   7.601  1.00  0.00     0.201 C 
HETATM    8  O4  UNL     1       1.155   8.985   6.530  1.00  0.00    -0.381 OA
HETATM    9  C8  UNL     1       1.030   7.656   6.788  1.00  0.00     0.159 C 
HETATM   10  C9  UNL     1      -0.235   7.024   6.242  1.00  0.00     0.305 C 
HETATM   11  C17 UNL     1       0.820   7.469   8.281  1.00  0.00     0.091 C 
HETATM   12  N3  UNL     1      -0.604   5.974   7.145  1.00  0.00     0.101 N 
HETATM   13  C10 UNL     1      -1.983   5.641   7.158  1.00  0.00     0.311 C 
HETATM   14  C11 UNL     1      -0.011   6.239   8.417  1.00  0.00     0.322 C 
BRANCH  14  15
HETATM   15  C12 UNL     1       0.896   5.115   8.751  1.00  0.00     0.252 C 
HETATM   16  O5  UNL     1       2.120   5.301   8.894  1.00  0.00    -0.271 OA
HETATM   17  N4  UNL     1       0.412   3.791   8.922  1.00  0.00    -0.349 N 
ATOM     18  H4  UNL     1      -0.589   3.630   8.807  1.00  0.00     0.163 HD
BRANCH  17  19
HETATM   19  C13 UNL     1       1.238   2.669   9.246  1.00  0.00     0.152 C 
HETATM   20  C14 UNL     1       1.881   2.063   8.017  1.00  0.00     0.038 C 
BRANCH  19  21
HETATM   21  C15 UNL     1       0.477   1.564   9.948  1.00  0.00     0.259 C 
HETATM   22  C16 UNL     1       0.290   1.836  11.406  1.00  0.00     0.092 C 
HETATM   23  F1  UNL     1      -0.771   1.472   9.353  1.00  0.00    -0.205 F 
HETATM   24  F2  UNL     1       1.105   0.344   9.810  1.00  0.00    -0.205 F 
ENDBRANCH  19  21
ENDBRANCH  17  19
ENDBRANCH  14  15
ENDBRANCH   5   6
ENDBRANCH   3   5
BRANCH   1  25
HETATM   25  C4  UNL     1      -4.616   7.877   9.993  1.00  0.00     0.182 C 
BRANCH  25  26
HETATM   26  C3  UNL     1      -4.641   6.425  10.175  1.00  0.00     0.241 C 
HETATM   27  N1  UNL     1      -4.226   5.788  11.369  1.00  0.00    -0.351 N 
ATOM     28  H1  UNL     1      -3.895   6.360  12.147  1.00  0.00     0.163 HD
HETATM   29  O1  UNL     1      -5.047   5.701   9.233  1.00  0.00    -0.271 OA
BRANCH  27  30
HETATM   30  C2  UNL     1      -4.258   4.347  11.518  1.00  0.00     0.113 C 
HETATM   31  C1  UNL     1      -3.114   3.819  10.658  1.00  0.00     0.037 C 
BRANCH  30  32
HETATM   32  C21 UNL     1      -4.036   3.891  12.909  1.00  0.00    -0.036 A 
HETATM   33  C22 UNL     1      -3.148   2.863  13.217  1.00  0.00     0.009 A 
HETATM   34  C23 UNL     1      -2.939   2.434  14.513  1.00  0.00     0.001 A 
HETATM   35  C24 UNL     1      -3.609   3.015  15.565  1.00  0.00     0.000 A 
HETATM   36  C25 UNL     1      -4.485   4.024  15.286  1.00  0.00     0.001 A 
HETATM   37  C26 UNL     1      -4.691   4.449  13.997  1.00  0.00     0.009 A 
ENDBRANCH  30  32
ENDBRANCH  27  30
ENDBRANCH  25  26
BRANCH  25  38
HETATM   38  C18 UNL     1      -6.024   8.333   9.619  1.00  0.00     0.009 C 
HETATM   39  C19 UNL     1      -6.862   8.216  10.879  1.00  0.00     0.012 C 
HETATM   40  C20 UNL     1      -6.044   9.727   9.066  1.00  0.00     0.012 C 
ENDBRANCH  25  38
ENDBRANCH   1  25
TORSDOF 10
ENDMDL
