MODEL 1
REMARK VINA RESULT: -8.799139545      0.000      0.000
REMARK  10 active torsions:
REMARK  status: ('A' for Active; 'I' for Inactive)
REMARK    1  A    between atoms: O1_2  and  C2_3 
REMARK       I    between atoms: C2_3  and  N1_5 
REMARK    2  A    between atoms: N1_5  and  C4_7 
REMARK    3  A    between atoms: C4_7  and  C5_8 
REMARK    4  A    between atoms: C5_8  and  N2_11 
REMARK       I    between atoms: N2_11  and  C8_13 
REMARK    5  A    between atoms: C8_13  and  C9_15 
REMARK    6  A    between atoms: C10_16  and  C11_17 
REMARK       I    between atoms: N3_26  and  C17_27 
REMARK    7  A    between atoms: C17_27  and  C18_29 
REMARK    8  A    between atoms: C18_29  and  N4_30 
REMARK    9  A    between atoms: C18_29  and  C23_39 
REMARK       I    between atoms: N4_30  and  C19_32 
REMARK       I    between atoms: C19_32  and  N5_34 
REMARK   10  A    between atoms: N5_34  and  C20_36 
ROOT
HETATM    1  C9  UNL     1      -4.099   7.573   9.663  1.00  0.00     0.245 C 
HETATM    2  C10 UNL     1      -4.597   8.582  10.663  1.00  0.00     0.223 C 
HETATM    3  O4  UNL     1      -4.005   7.737  11.591  1.00  0.00    -0.261 OA
HETATM    4  N3  UNL     1      -4.182   6.685  10.802  1.00  0.00    -0.206 N 
HETATM    5  C17 UNL     1      -4.391   5.302  11.048  1.00  0.00     0.267 C 
HETATM    6  O5  UNL     1      -4.629   4.589  10.025  1.00  0.00    -0.269 OA
ENDROOT
BRANCH   1   7
HETATM    7  C8  UNL     1      -2.684   7.780   9.258  1.00  0.00     0.246 C 
HETATM    8  N2  UNL     1      -2.135   7.231   8.074  1.00  0.00    -0.349 N 
ATOM      9  H2  UNL     1      -2.751   6.662   7.493  1.00  0.00     0.163 HD
HETATM   10  O3  UNL     1      -1.940   8.470   9.991  1.00  0.00    -0.271 OA
BRANCH   8  11
HETATM   11  C5  UNL     1      -0.780   7.411   7.624  1.00  0.00     0.042 C 
HETATM   12  C6  UNL     1      -0.580   6.784   6.231  1.00  0.00     0.039 C 
HETATM   13  C7  UNL     1      -0.508   8.886   7.435  1.00  0.00     0.039 C 
BRANCH  11  14
HETATM   14  C4  UNL     1       0.238   6.852   8.571  1.00  0.00     0.157 C 
BRANCH  14  15
HETATM   15  N1  UNL     1       0.558   5.466   8.377  1.00  0.00    -0.330 N 
HETATM   16  C2  UNL     1      -0.232   4.386   8.851  1.00  0.00     0.362 C 
HETATM   17  O2  UNL     1      -1.330   4.544   9.479  1.00  0.00    -0.238 OA
HETATM   18  C3  UNL     1       1.770   5.135   7.665  1.00  0.00     0.155 C 
BRANCH  16  19
HETATM   19  O1  UNL     1       0.133   3.058   8.670  1.00  0.00    -0.309 OA
HETATM   20  C1  UNL     1       0.533   2.244   9.770  1.00  0.00     0.215 C 
ENDBRANCH  16  19
ENDBRANCH  14  15
ENDBRANCH  11  14
ENDBRANCH   8  11
ENDBRANCH   1   7
BRANCH   5  21
HETATM   21  C18 UNL     1      -4.346   4.655  12.378  1.00  0.00     0.184 C 
BRANCH  21  22
HETATM   22  N4  UNL     1      -4.550   3.232  12.219  1.00  0.00    -0.329 N 
HETATM   23  C19 UNL     1      -3.556   2.246  12.401  1.00  0.00     0.317 C 
HETATM   24  O6  UNL     1      -2.361   2.473  12.720  1.00  0.00    -0.247 OA
HETATM   25  N5  UNL     1      -3.905   0.876  12.216  1.00  0.00    -0.339 N 
ATOM     26  H5  UNL     1      -4.869   0.659  11.965  1.00  0.00     0.164 HD
ATOM     27  H4  UNL     1      -5.483   2.917  11.954  1.00  0.00     0.165 HD
BRANCH  25  28
HETATM   28  C20 UNL     1      -2.984  -0.218  12.362  1.00  0.00     0.078 C 
HETATM   29  C21 UNL     1      -3.752  -1.515  12.360  1.00  0.00     0.032 C 
HETATM   30  C22 UNL     1      -2.015  -0.263  11.188  1.00  0.00     0.032 C 
ENDBRANCH  25  28
ENDBRANCH  21  22
BRANCH  21  31
HETATM   31  C23 UNL     1      -5.206   5.296  13.413  1.00  0.00     0.009 C 
HETATM   32  C24 UNL     1      -6.672   5.094  13.273  1.00  0.00     0.012 C 
HETATM   33  C25 UNL     1      -4.791   4.832  14.820  1.00  0.00     0.012 C 
ENDBRANCH  21  31
ENDBRANCH   5  21
BRANCH   2  34
HETATM   34  C11 UNL     1      -6.048   8.652  10.855  1.00  0.00     0.017 A 
HETATM   35  C12 UNL     1      -6.772   8.161  11.897  1.00  0.00     0.013 A 
HETATM   36  C13 UNL     1      -8.160   8.296  11.928  1.00  0.00     0.004 A 
HETATM   37  C14 UNL     1      -8.866   8.917  10.937  1.00  0.00     0.045 A 
HETATM   38  C15 UNL     1      -8.137   9.429   9.854  1.00  0.00     0.155 A 
HETATM   39  F1  UNL     1      -8.857  10.036   8.888  1.00  0.00    -0.203 F 
HETATM   40  C16 UNL     1      -6.772   9.288   9.839  1.00  0.00     0.163 A 
HETATM   41  F2  UNL     1      -6.114   9.804   8.757  1.00  0.00    -0.202 F 
ENDBRANCH   2  34
TORSDOF 10
ENDMDL
MODEL 2
REMARK VINA RESULT: -8.791892828      3.379      8.598
REMARK  10 active torsions:
REMARK  status: ('A' for Active; 'I' for Inactive)
REMARK    1  A    between atoms: O1_2  and  C2_3 
REMARK       I    between atoms: C2_3  and  N1_5 
REMARK    2  A    between atoms: N1_5  and  C4_7 
REMARK    3  A    between atoms: C4_7  and  C5_8 
REMARK    4  A    between atoms: C5_8  and  N2_11 
REMARK       I    between atoms: N2_11  and  C8_13 
REMARK    5  A    between atoms: C8_13  and  C9_15 
REMARK    6  A    between atoms: C10_16  and  C11_17 
REMARK       I    between atoms: N3_26  and  C17_27 
REMARK    7  A    between atoms: C17_27  and  C18_29 
REMARK    8  A    between atoms: C18_29  and  N4_30 
REMARK    9  A    between atoms: C18_29  and  C23_39 
REMARK       I    between atoms: N4_30  and  C19_32 
REMARK       I    between atoms: C19_32  and  N5_34 
REMARK   10  A    between atoms: N5_34  and  C20_36 
ROOT
HETATM    1  C9  UNL     1       0.086   2.688   9.090  1.00  0.00     0.245 C 
HETATM    2  C10 UNL     1       1.382   3.286   9.570  1.00  0.00     0.223 C 
HETATM    3  O4  UNL     1       0.553   4.173  10.243  1.00  0.00    -0.261 OA
HETATM    4  N3  UNL     1      -0.403   4.027   9.336  1.00  0.00    -0.206 N 
HETATM    5  C17 UNL     1      -1.423   4.884   8.843  1.00  0.00     0.267 C 
HETATM    6  O5  UNL     1      -2.108   4.428   7.877  1.00  0.00    -0.269 OA
ENDROOT
BRANCH   1   7
HETATM    7  C8  UNL     1      -0.518   1.722  10.045  1.00  0.00     0.246 C 
HETATM    8  N2  UNL     1      -0.372   1.835  11.448  1.00  0.00    -0.349 N 
ATOM      9  H2  UNL     1       0.186   2.613  11.800  1.00  0.00     0.163 HD
HETATM   10  O3  UNL     1      -1.188   0.765   9.593  1.00  0.00    -0.271 OA
BRANCH   8  11
HETATM   11  C5  UNL     1      -0.946   0.941  12.419  1.00  0.00     0.042 C 
HETATM   12  C6  UNL     1      -0.291  -0.450  12.337  1.00  0.00     0.039 C 
HETATM   13  C7  UNL     1      -0.629   1.444  13.809  1.00  0.00     0.039 C 
BRANCH  11  14
HETATM   14  C4  UNL     1      -2.433   0.799  12.286  1.00  0.00     0.157 C 
BRANCH  14  15
HETATM   15  N1  UNL     1      -3.205   1.808  12.953  1.00  0.00    -0.330 N 
HETATM   16  C2  UNL     1      -3.537   3.068  12.389  1.00  0.00     0.362 C 
HETATM   17  O2  UNL     1      -3.201   3.419  11.210  1.00  0.00    -0.238 OA
HETATM   18  C3  UNL     1      -3.670   1.543  14.295  1.00  0.00     0.155 C 
BRANCH  16  19
HETATM   19  O1  UNL     1      -4.260   4.031  13.084  1.00  0.00    -0.309 OA
HETATM   20  C1  UNL     1      -5.377   4.688  12.490  1.00  0.00     0.215 C 
ENDBRANCH  16  19
ENDBRANCH  14  15
ENDBRANCH  11  14
ENDBRANCH   8  11
ENDBRANCH   1   7
BRANCH   5  21
HETATM   21  C18 UNL     1      -1.734   6.232   9.371  1.00  0.00     0.184 C 
BRANCH  21  22
HETATM   22  N4  UNL     1      -3.170   6.383   9.465  1.00  0.00    -0.329 N 
HETATM   23  C19 UNL     1      -3.832   7.424  10.151  1.00  0.00     0.317 C 
HETATM   24  O6  UNL     1      -3.263   8.355  10.777  1.00  0.00    -0.247 OA
HETATM   25  N5  UNL     1      -5.257   7.448  10.153  1.00  0.00    -0.339 N 
ATOM     26  H5  UNL     1      -5.747   6.711   9.648  1.00  0.00     0.164 HD
ATOM     27  H4  UNL     1      -3.748   5.682   9.000  1.00  0.00     0.165 HD
BRANCH  25  28
HETATM   28  C20 UNL     1      -6.046   8.447  10.822  1.00  0.00     0.078 C 
HETATM   29  C21 UNL     1      -6.851   9.207   9.800  1.00  0.00     0.032 C 
HETATM   30  C22 UNL     1      -7.031   7.795  11.783  1.00  0.00     0.032 C 
ENDBRANCH  25  28
ENDBRANCH  21  22
BRANCH  21  31
HETATM   31  C23 UNL     1      -1.034   7.350   8.678  1.00  0.00     0.009 C 
HETATM   32  C24 UNL     1       0.233   7.821   9.296  1.00  0.00     0.012 C 
HETATM   33  C25 UNL     1      -0.743   6.978   7.214  1.00  0.00     0.012 C 
ENDBRANCH  21  31
ENDBRANCH   5  21
BRANCH   2  34
HETATM   34  C11 UNL     1       2.197   3.975   8.566  1.00  0.00     0.017 A 
HETATM   35  C12 UNL     1       2.349   5.317   8.399  1.00  0.00     0.013 A 
HETATM   36  C13 UNL     1       3.156   5.821   7.380  1.00  0.00     0.004 A 
HETATM   37  C14 UNL     1       3.829   5.020   6.502  1.00  0.00     0.045 A 
HETATM   38  C15 UNL     1       3.683   3.634   6.656  1.00  0.00     0.155 A 
HETATM   39  F1  UNL     1       4.356   2.864   5.776  1.00  0.00    -0.203 F 
HETATM   40  C16 UNL     1       2.886   3.154   7.665  1.00  0.00     0.163 A 
HETATM   41  F2  UNL     1       2.779   1.794   7.767  1.00  0.00    -0.202 F 
ENDBRANCH   2  34
TORSDOF 10
ENDMDL
MODEL 3
REMARK VINA RESULT: -8.761818700      3.475      8.247
REMARK  10 active torsions:
REMARK  status: ('A' for Active; 'I' for Inactive)
REMARK    1  A    between atoms: O1_2  and  C2_3 
REMARK       I    between atoms: C2_3  and  N1_5 
REMARK    2  A    between atoms: N1_5  and  C4_7 
REMARK    3  A    between atoms: C4_7  and  C5_8 
REMARK    4  A    between atoms: C5_8  and  N2_11 
REMARK       I    between atoms: N2_11  and  C8_13 
REMARK    5  A    between atoms: C8_13  and  C9_15 
REMARK    6  A    between atoms: C10_16  and  C11_17 
REMARK       I    between atoms: N3_26  and  C17_27 
REMARK    7  A    between atoms: C17_27  and  C18_29 
REMARK    8  A    between atoms: C18_29  and  N4_30 
REMARK    9  A    between atoms: C18_29  and  C23_39 
REMARK       I    between atoms: N4_30  and  C19_32 
REMARK       I    between atoms: C19_32  and  N5_34 
REMARK   10  A    between atoms: N5_34  and  C20_36 
ROOT
HETATM    1  C9  UNL     1       0.171   3.064   8.612  1.00  0.00     0.245 C 
HETATM    2  C10 UNL     1       1.375   3.808   9.125  1.00  0.00     0.223 C 
HETATM    3  O4  UNL     1       0.433   4.571   9.800  1.00  0.00    -0.261 OA
HETATM    4  N3  UNL     1      -0.485   4.326   8.874  1.00  0.00    -0.206 N 
HETATM    5  C17 UNL     1      -1.596   5.060   8.380  1.00  0.00     0.267 C 
HETATM    6  O5  UNL     1      -2.205   4.543   7.393  1.00  0.00    -0.269 OA
ENDROOT
BRANCH   1   7
HETATM    7  C8  UNL     1      -0.323   2.011   9.538  1.00  0.00     0.246 C 
HETATM    8  N2  UNL     1      -0.116   2.059  10.937  1.00  0.00    -0.349 N 
ATOM      9  H2  UNL     1       0.407   2.854  11.306  1.00  0.00     0.163 HD
HETATM   10  O3  UNL     1      -0.951   1.036   9.065  1.00  0.00    -0.271 OA
BRANCH   8  11
HETATM   11  C5  UNL     1      -0.583   1.080  11.883  1.00  0.00     0.042 C 
HETATM   12  C6  UNL     1       0.105  -0.277  11.649  1.00  0.00     0.039 C 
HETATM   13  C7  UNL     1      -0.172   1.496  13.277  1.00  0.00     0.039 C 
BRANCH  11  14
HETATM   14  C4  UNL     1      -2.071   0.894  11.855  1.00  0.00     0.157 C 
BRANCH  14  15
HETATM   15  N1  UNL     1      -2.834   1.993  12.373  1.00  0.00    -0.330 N 
HETATM   16  C2  UNL     1      -3.397   2.036  13.676  1.00  0.00     0.362 C 
HETATM   17  O2  UNL     1      -3.253   1.103  14.532  1.00  0.00    -0.238 OA
HETATM   18  C3  UNL     1      -3.064   3.134  11.517  1.00  0.00     0.155 C 
BRANCH  16  19
HETATM   19  O1  UNL     1      -4.158   3.108  14.126  1.00  0.00    -0.309 OA
HETATM   20  C1  UNL     1      -3.900   3.720  15.388  1.00  0.00     0.215 C 
ENDBRANCH  16  19
ENDBRANCH  14  15
ENDBRANCH  11  14
ENDBRANCH   8  11
ENDBRANCH   1   7
BRANCH   5  21
HETATM   21  C18 UNL     1      -2.080   6.348   8.927  1.00  0.00     0.184 C 
BRANCH  21  22
HETATM   22  N4  UNL     1      -3.400   6.157   9.486  1.00  0.00    -0.329 N 
HETATM   23  C19 UNL     1      -3.911   6.842  10.610  1.00  0.00     0.317 C 
HETATM   24  O6  UNL     1      -3.284   7.704  11.279  1.00  0.00    -0.247 OA
HETATM   25  N5  UNL     1      -5.237   6.556  11.045  1.00  0.00    -0.339 N 
ATOM     26  H5  UNL     1      -5.774   5.867  10.519  1.00  0.00     0.164 HD
ATOM     27  H4  UNL     1      -4.009   5.475   9.033  1.00  0.00     0.165 HD
BRANCH  25  28
HETATM   28  C20 UNL     1      -5.866   7.177  12.179  1.00  0.00     0.078 C 
HETATM   29  C21 UNL     1      -7.101   7.909  11.721  1.00  0.00     0.032 C 
HETATM   30  C22 UNL     1      -6.310   6.125  13.187  1.00  0.00     0.032 C 
ENDBRANCH  25  28
ENDBRANCH  21  22
BRANCH  21  31
HETATM   31  C23 UNL     1      -1.958   7.506   7.997  1.00  0.00     0.009 C 
HETATM   32  C24 UNL     1      -3.213   8.233   7.676  1.00  0.00     0.012 C 
HETATM   33  C25 UNL     1      -0.939   8.524   8.537  1.00  0.00     0.012 C 
ENDBRANCH  21  31
ENDBRANCH   5  21
BRANCH   2  34
HETATM   34  C11 UNL     1       2.112   4.613   8.148  1.00  0.00     0.017 A 
HETATM   35  C12 UNL     1       2.029   5.955   7.947  1.00  0.00     0.013 A 
HETATM   36  C13 UNL     1       2.792   6.578   6.959  1.00  0.00     0.004 A 
HETATM   37  C14 UNL     1       3.654   5.895   6.149  1.00  0.00     0.045 A 
HETATM   38  C15 UNL     1       3.753   4.509   6.340  1.00  0.00     0.155 A 
HETATM   39  F1  UNL     1       4.610   3.857   5.527  1.00  0.00    -0.203 F 
HETATM   40  C16 UNL     1       2.995   3.913   7.316  1.00  0.00     0.163 A 
HETATM   41  F2  UNL     1       3.131   2.559   7.456  1.00  0.00    -0.202 F 
ENDBRANCH   2  34
TORSDOF 10
ENDMDL
MODEL 4
REMARK VINA RESULT: -8.586034980      2.731      7.251
REMARK  10 active torsions:
REMARK  status: ('A' for Active; 'I' for Inactive)
REMARK    1  A    between atoms: O1_2  and  C2_3 
REMARK       I    between atoms: C2_3  and  N1_5 
REMARK    2  A    between atoms: N1_5  and  C4_7 
REMARK    3  A    between atoms: C4_7  and  C5_8 
REMARK    4  A    between atoms: C5_8  and  N2_11 
REMARK       I    between atoms: N2_11  and  C8_13 
REMARK    5  A    between atoms: C8_13  and  C9_15 
REMARK    6  A    between atoms: C10_16  and  C11_17 
REMARK       I    between atoms: N3_26  and  C17_27 
REMARK    7  A    between atoms: C17_27  and  C18_29 
REMARK    8  A    between atoms: C18_29  and  N4_30 
REMARK    9  A    between atoms: C18_29  and  C23_39 
REMARK       I    between atoms: N4_30  and  C19_32 
REMARK       I    between atoms: C19_32  and  N5_34 
REMARK   10  A    between atoms: N5_34  and  C20_36 
ROOT
HETATM    1  C9  UNL     1      -2.215   5.349  10.105  1.00  0.00     0.245 C 
HETATM    2  C10 UNL     1      -3.629   5.203   9.608  1.00  0.00     0.223 C 
HETATM    3  O4  UNL     1      -3.091   5.617   8.398  1.00  0.00    -0.261 OA
HETATM    4  N3  UNL     1      -2.130   6.294   9.014  1.00  0.00    -0.206 N 
HETATM    5  C17 UNL     1      -1.397   7.466   8.688  1.00  0.00     0.267 C 
HETATM    6  O5  UNL     1      -0.608   7.892   9.586  1.00  0.00    -0.269 OA
ENDROOT
BRANCH   1   7
HETATM    7  C8  UNL     1      -1.362   4.161   9.842  1.00  0.00     0.246 C 
HETATM    8  N2  UNL     1      -1.429   2.979  10.617  1.00  0.00    -0.349 N 
ATOM      9  H2  UNL     1      -2.090   2.965  11.393  1.00  0.00     0.163 HD
HETATM   10  O3  UNL     1      -0.546   4.202   8.892  1.00  0.00    -0.271 OA
BRANCH   8  11
HETATM   11  C5  UNL     1      -0.641   1.794  10.399  1.00  0.00     0.042 C 
HETATM   12  C6  UNL     1      -0.533   1.479   8.895  1.00  0.00     0.039 C 
HETATM   13  C7  UNL     1       0.779   2.049  10.851  1.00  0.00     0.039 C 
BRANCH  11  14
HETATM   14  C4  UNL     1      -1.167   0.592  11.123  1.00  0.00     0.157 C 
BRANCH  14  15
HETATM   15  N1  UNL     1      -2.039   0.876  12.227  1.00  0.00    -0.330 N 
HETATM   16  C2  UNL     1      -1.597   1.157  13.546  1.00  0.00     0.362 C 
HETATM   17  O2  UNL     1      -0.367   1.214  13.876  1.00  0.00    -0.238 OA
HETATM   18  C3  UNL     1      -3.465   0.865  11.996  1.00  0.00     0.155 C 
BRANCH  16  19
HETATM   19  O1  UNL     1      -2.478   1.395  14.594  1.00  0.00    -0.309 OA
HETATM   20  C1  UNL     1      -2.733   2.718  15.061  1.00  0.00     0.215 C 
ENDBRANCH  16  19
ENDBRANCH  14  15
ENDBRANCH  11  14
ENDBRANCH   8  11
ENDBRANCH   1   7
BRANCH   5  21
HETATM   21  C18 UNL     1      -1.487   8.200   7.405  1.00  0.00     0.184 C 
BRANCH  21  22
HETATM   22  N4  UNL     1      -2.874   8.500   7.128  1.00  0.00    -0.329 N 
HETATM   23  C19 UNL     1      -3.327   9.570   6.326  1.00  0.00     0.317 C 
HETATM   24  O6  UNL     1      -2.587  10.409   5.752  1.00  0.00    -0.247 OA
HETATM   25  N5  UNL     1      -4.729   9.739   6.134  1.00  0.00    -0.339 N 
ATOM     26  H5  UNL     1      -5.356   9.070   6.581  1.00  0.00     0.164 HD
ATOM     27  H4  UNL     1      -3.579   7.891   7.544  1.00  0.00     0.165 HD
BRANCH  25  28
HETATM   28  C20 UNL     1      -5.316  10.793   5.352  1.00  0.00     0.078 C 
HETATM   29  C21 UNL     1      -5.875  10.211   4.079  1.00  0.00     0.032 C 
HETATM   30  C22 UNL     1      -6.472  11.438   6.103  1.00  0.00     0.032 C 
ENDBRANCH  25  28
ENDBRANCH  21  22
BRANCH  21  31
HETATM   31  C23 UNL     1      -0.746   7.573   6.274  1.00  0.00     0.009 C 
HETATM   32  C24 UNL     1       0.455   6.774   6.632  1.00  0.00     0.012 C 
HETATM   33  C25 UNL     1      -1.685   6.681   5.444  1.00  0.00     0.012 C 
ENDBRANCH  21  31
ENDBRANCH   5  21
BRANCH   2  34
HETATM   34  C11 UNL     1      -4.604   6.171  10.117  1.00  0.00     0.017 A 
HETATM   35  C12 UNL     1      -5.130   7.241   9.462  1.00  0.00     0.013 A 
HETATM   36  C13 UNL     1      -6.046   8.083  10.092  1.00  0.00     0.004 A 
HETATM   37  C14 UNL     1      -6.464   7.893  11.378  1.00  0.00     0.045 A 
HETATM   38  C15 UNL     1      -5.933   6.795  12.070  1.00  0.00     0.155 A 
HETATM   39  F1  UNL     1      -6.361   6.629  13.339  1.00  0.00    -0.203 F 
HETATM   40  C16 UNL     1      -5.034   5.976  11.435  1.00  0.00     0.163 A 
HETATM   41  F2  UNL     1      -4.547   4.923  12.159  1.00  0.00    -0.202 F 
ENDBRANCH   2  34
TORSDOF 10
ENDMDL
MODEL 5
REMARK VINA RESULT: -8.583284338      2.873      7.062
REMARK  10 active torsions:
REMARK  status: ('A' for Active; 'I' for Inactive)
REMARK    1  A    between atoms: O1_2  and  C2_3 
REMARK       I    between atoms: C2_3  and  N1_5 
REMARK    2  A    between atoms: N1_5  and  C4_7 
REMARK    3  A    between atoms: C4_7  and  C5_8 
REMARK    4  A    between atoms: C5_8  and  N2_11 
REMARK       I    between atoms: N2_11  and  C8_13 
REMARK    5  A    between atoms: C8_13  and  C9_15 
REMARK    6  A    between atoms: C10_16  and  C11_17 
REMARK       I    between atoms: N3_26  and  C17_27 
REMARK    7  A    between atoms: C17_27  and  C18_29 
REMARK    8  A    between atoms: C18_29  and  N4_30 
REMARK    9  A    between atoms: C18_29  and  C23_39 
REMARK       I    between atoms: N4_30  and  C19_32 
REMARK       I    between atoms: C19_32  and  N5_34 
REMARK   10  A    between atoms: N5_34  and  C20_36 
ROOT
HETATM    1  C9  UNL     1      -1.710   4.830   8.720  1.00  0.00     0.245 C 
HETATM    2  C10 UNL     1      -0.880   6.029   9.095  1.00  0.00     0.223 C 
HETATM    3  O4  UNL     1      -1.803   6.163  10.123  1.00  0.00    -0.261 OA
HETATM    4  N3  UNL     1      -2.748   5.570   9.403  1.00  0.00    -0.206 N 
HETATM    5  C17 UNL     1      -4.162   5.691   9.357  1.00  0.00     0.267 C 
HETATM    6  O5  UNL     1      -4.744   5.024   8.448  1.00  0.00    -0.269 OA
ENDROOT
BRANCH   1   7
HETATM    7  C8  UNL     1      -1.358   3.598   9.475  1.00  0.00     0.246 C 
HETATM    8  N2  UNL     1      -1.952   3.259  10.713  1.00  0.00    -0.349 N 
ATOM      9  H2  UNL     1      -2.642   3.907  11.094  1.00  0.00     0.163 HD
HETATM   10  O3  UNL     1      -0.498   2.822   8.997  1.00  0.00    -0.271 OA
BRANCH   8  11
HETATM   11  C5  UNL     1      -1.664   2.075  11.479  1.00  0.00     0.042 C 
HETATM   12  C6  UNL     1      -2.380   2.118  12.842  1.00  0.00     0.039 C 
HETATM   13  C7  UNL     1      -2.238   0.870  10.770  1.00  0.00     0.039 C 
BRANCH  11  14
HETATM   14  C4  UNL     1      -0.197   1.853  11.695  1.00  0.00     0.157 C 
BRANCH  14  15
HETATM   15  N1  UNL     1       0.229   0.484  11.637  1.00  0.00    -0.330 N 
HETATM   16  C2  UNL     1       0.197  -0.413  12.737  1.00  0.00     0.362 C 
HETATM   17  O2  UNL     1      -0.245  -0.094  13.889  1.00  0.00    -0.238 OA
HETATM   18  C3  UNL     1       0.739  -0.025  10.386  1.00  0.00     0.155 C 
BRANCH  16  19
HETATM   19  O1  UNL     1       0.651  -1.724  12.646  1.00  0.00    -0.309 OA
HETATM   20  C1  UNL     1      -0.253  -2.806  12.433  1.00  0.00     0.215 C 
ENDBRANCH  16  19
ENDBRANCH  14  15
ENDBRANCH  11  14
ENDBRANCH   8  11
ENDBRANCH   1   7
BRANCH   5  21
HETATM   21  C18 UNL     1      -4.979   6.516  10.275  1.00  0.00     0.184 C 
BRANCH  21  22
HETATM   22  N4  UNL     1      -4.802   7.912   9.941  1.00  0.00    -0.329 N 
HETATM   23  C19 UNL     1      -5.848   8.847   9.786  1.00  0.00     0.317 C 
HETATM   24  O6  UNL     1      -7.073   8.591   9.911  1.00  0.00    -0.247 OA
HETATM   25  N5  UNL     1      -5.521  10.196   9.461  1.00  0.00    -0.339 N 
ATOM     26  H5  UNL     1      -4.536  10.437   9.361  1.00  0.00     0.164 HD
ATOM     27  H4  UNL     1      -3.847   8.246   9.807  1.00  0.00     0.165 HD
BRANCH  25  28
HETATM   28  C20 UNL     1      -6.493  11.238   9.267  1.00  0.00     0.078 C 
HETATM   29  C21 UNL     1      -6.325  12.279  10.343  1.00  0.00     0.032 C 
HETATM   30  C22 UNL     1      -6.276  11.930   7.928  1.00  0.00     0.032 C 
ENDBRANCH  25  28
ENDBRANCH  21  22
BRANCH  21  31
HETATM   31  C23 UNL     1      -4.810   6.195  11.721  1.00  0.00     0.009 C 
HETATM   32  C24 UNL     1      -5.692   6.925  12.669  1.00  0.00     0.012 C 
HETATM   33  C25 UNL     1      -4.993   4.686  11.961  1.00  0.00     0.012 C 
ENDBRANCH  21  31
ENDBRANCH   5  21
BRANCH   2  34
HETATM   34  C11 UNL     1      -0.933   7.172   8.180  1.00  0.00     0.017 A 
HETATM   35  C12 UNL     1      -1.701   7.308   7.065  1.00  0.00     0.013 A 
HETATM   36  C13 UNL     1      -1.627   8.462   6.285  1.00  0.00     0.004 A 
HETATM   37  C14 UNL     1      -0.797   9.506   6.582  1.00  0.00     0.045 A 
HETATM   38  C15 UNL     1       0.004   9.383   7.728  1.00  0.00     0.155 A 
HETATM   39  F1  UNL     1       0.815  10.427   7.999  1.00  0.00    -0.203 F 
HETATM   40  C16 UNL     1      -0.083   8.242   8.484  1.00  0.00     0.163 A 
HETATM   41  F2  UNL     1       0.723   8.177   9.588  1.00  0.00    -0.202 F 
ENDBRANCH   2  34
TORSDOF 10
ENDMDL
