MODEL 1
REMARK VINA RESULT: -9.212768498      0.000      0.000
REMARK  10 active torsions:
REMARK  status: ('A' for Active; 'I' for Inactive)
REMARK    1  A    between atoms: N1_2  and  C2_5 
REMARK    2  A    between atoms: C2_5  and  N2_6 
REMARK    3  A    between atoms: C2_5  and  C3_10 
REMARK    4  A    between atoms: C6_13  and  S1_14 
REMARK    5  A    between atoms: S1_14  and  N3_15 
REMARK    6  A    between atoms: C7_20  and  N4_21 
REMARK    7  A    between atoms: N5_23  and  C8_25 
REMARK    8  A    between atoms: C11_28  and  S2_29 
REMARK    9  A    between atoms: S2_29  and  N6_32 
REMARK   10  A    between atoms: N6_32  and  C12_34 
ROOT
HETATM    1  N4  UNL     1      25.221   0.286   0.686  1.00  0.00    -0.299 N 
ATOM      2  H4  UNL     1      24.385   0.185   0.110  1.00  0.00     0.187 HD
HETATM    3  N5  UNL     1      25.533  -0.685   1.403  1.00  0.00    -0.300 N 
ATOM      4  H5  UNL     1      26.358  -0.647   2.002  1.00  0.00     0.187 HD
ENDROOT
BRANCH   1   5
HETATM    5  C7  UNL     1      25.914   1.512   0.593  1.00  0.00     0.072 A 
HETATM    6  C6  UNL     1      25.414   2.582   1.307  1.00  0.00     0.107 A 
HETATM    7  C5  UNL     1      26.051   3.785   1.245  1.00  0.00     0.028 A 
HETATM    8  C4  UNL     1      27.199   3.933   0.467  1.00  0.00     0.013 A 
HETATM    9  C3  UNL     1      27.730   2.883  -0.262  1.00  0.00     0.001 A 
HETATM   10  C19 UNL     1      27.062   1.678  -0.179  1.00  0.00     0.043 A 
BRANCH   6  11
HETATM   11  S1  UNL     1      23.976   2.423   2.289  1.00  0.00     0.259 S 
HETATM   12  O1  UNL     1      24.165   1.384   3.330  1.00  0.00    -0.201 OA
HETATM   13  O2  UNL     1      22.831   1.994   1.390  1.00  0.00    -0.201 OA
BRANCH  11  14
HETATM   14  N3  UNL     1      23.502   3.955   2.960  1.00  0.00    -0.324 N 
ATOM     15  H32 UNL     1      23.349   4.794   2.399  1.00  0.00     0.169 HD
ATOM     16  H31 UNL     1      23.400   3.898   3.973  1.00  0.00     0.169 HD
ENDBRANCH  11  14
ENDBRANCH   6  11
BRANCH   9  17
HETATM   17  C2  UNL     1      28.940   3.022  -1.087  1.00  0.00     0.413 C 
BRANCH  17  18
HETATM   18  N1  UNL     1      28.666   2.975  -2.505  1.00  0.00    -0.046 N 
HETATM   19  C1  UNL     1      28.497   4.350  -2.954  1.00  0.00     0.269 C 
ATOM     20  H12 UNL     1      27.873   2.378  -2.739  1.00  0.00     0.279 HD
ATOM     21  H11 UNL     1      29.375   2.466  -3.033  1.00  0.00     0.279 HD
ENDBRANCH  17  18
BRANCH  17  22
HETATM   22  N2  UNL     1      29.860   1.939  -0.728  1.00  0.00    -0.046 N 
ATOM     23  H23 UNL     1      29.482   1.021  -0.960  1.00  0.00     0.277 HD
ATOM     24  H22 UNL     1      30.681   1.917  -1.332  1.00  0.00     0.277 HD
ATOM     25  H21 UNL     1      30.109   2.015   0.258  1.00  0.00     0.277 HD
ENDBRANCH  17  22
ENDBRANCH   9  17
ENDBRANCH   1   5
BRANCH   3  26
HETATM   26  C8  UNL     1      24.712  -1.844   1.367  1.00  0.00     0.048 A 
HETATM   27  C9  UNL     1      25.319  -3.073   1.411  1.00  0.00     0.032 A 
HETATM   28  C10 UNL     1      24.548  -4.223   1.378  1.00  0.00     0.027 A 
HETATM   29  C11 UNL     1      23.177  -4.158   1.301  1.00  0.00     0.080 A 
HETATM   30  C17 UNL     1      22.579  -2.923   1.257  1.00  0.00     0.027 A 
HETATM   31  C18 UNL     1      23.340  -1.759   1.290  1.00  0.00     0.032 A 
BRANCH  29  32
HETATM   32  S2  UNL     1      22.250  -5.617   1.261  1.00  0.00     0.264 S 
HETATM   33  O3  UNL     1      21.925  -6.050   2.666  1.00  0.00    -0.200 OA
HETATM   34  O4  UNL     1      20.960  -5.287   0.529  1.00  0.00    -0.200 OA
BRANCH  32  35
HETATM   35  N6  UNL     1      23.044  -6.865   0.384  1.00  0.00    -0.266 N 
ATOM     36  H6  UNL     1      23.443  -7.663   0.880  1.00  0.00     0.180 HD
BRANCH  35  37
HETATM   37  C12 UNL     1      23.134  -6.794  -0.885  1.00  0.00     0.114 A 
HETATM   38  C13 UNL     1      24.210  -6.304  -1.578  1.00  0.00     0.052 A 
HETATM   39  C14 UNL     1      24.214  -6.266  -2.971  1.00  0.00     0.047 A 
HETATM   40  C15 UNL     1      23.117  -6.730  -3.659  1.00  0.00     0.131 A 
HETATM   41  F1  UNL     1      23.080  -6.711  -5.031  1.00  0.00    -0.205 F 
HETATM   42  C16 UNL     1      22.049  -7.216  -2.943  1.00  0.00     0.132 A 
HETATM   43  N7  UNL     1      22.075  -7.241  -1.602  1.00  0.00    -0.349 N 
ATOM     44  H7  UNL     1      21.266  -7.610  -1.103  1.00  0.00     0.167 HD
ENDBRANCH  35  37
ENDBRANCH  32  35
ENDBRANCH  29  32
ENDBRANCH   3  26
TORSDOF 10
ENDMDL
MODEL 2
REMARK VINA RESULT: -9.104598848      0.875      1.284
REMARK  10 active torsions:
REMARK  status: ('A' for Active; 'I' for Inactive)
REMARK    1  A    between atoms: N1_2  and  C2_5 
REMARK    2  A    between atoms: C2_5  and  N2_6 
REMARK    3  A    between atoms: C2_5  and  C3_10 
REMARK    4  A    between atoms: C6_13  and  S1_14 
REMARK    5  A    between atoms: S1_14  and  N3_15 
REMARK    6  A    between atoms: C7_20  and  N4_21 
REMARK    7  A    between atoms: N5_23  and  C8_25 
REMARK    8  A    between atoms: C11_28  and  S2_29 
REMARK    9  A    between atoms: S2_29  and  N6_32 
REMARK   10  A    between atoms: N6_32  and  C12_34 
ROOT
HETATM    1  N4  UNL     1      25.224   0.185   0.687  1.00  0.00    -0.299 N 
ATOM      2  H4  UNL     1      24.297   0.135   0.264  1.00  0.00     0.187 HD
HETATM    3  N5  UNL     1      25.636  -0.840   1.267  1.00  0.00    -0.300 N 
ATOM      4  H5  UNL     1      26.555  -0.855   1.709  1.00  0.00     0.187 HD
ENDROOT
BRANCH   1   5
HETATM    5  C7  UNL     1      25.918   1.407   0.558  1.00  0.00     0.072 A 
HETATM    6  C6  UNL     1      25.445   2.486   1.276  1.00  0.00     0.107 A 
HETATM    7  C5  UNL     1      26.084   3.686   1.181  1.00  0.00     0.028 A 
HETATM    8  C4  UNL     1      27.208   3.821   0.365  1.00  0.00     0.013 A 
HETATM    9  C3  UNL     1      27.711   2.761  -0.369  1.00  0.00     0.001 A 
HETATM   10  C19 UNL     1      27.042   1.560  -0.252  1.00  0.00     0.043 A 
BRANCH   6  11
HETATM   11  S1  UNL     1      24.039   2.344   2.306  1.00  0.00     0.259 S 
HETATM   12  O1  UNL     1      24.258   1.318   3.353  1.00  0.00    -0.201 OA
HETATM   13  O2  UNL     1      22.864   1.907   1.450  1.00  0.00    -0.201 OA
BRANCH  11  14
HETATM   14  N3  UNL     1      23.590   3.886   2.972  1.00  0.00    -0.324 N 
ATOM     15  H32 UNL     1      22.759   4.033   3.545  1.00  0.00     0.169 HD
ATOM     16  H31 UNL     1      24.263   4.608   2.715  1.00  0.00     0.169 HD
ENDBRANCH  11  14
ENDBRANCH   6  11
BRANCH   9  17
HETATM   17  C2  UNL     1      28.894   2.886  -1.235  1.00  0.00     0.413 C 
BRANCH  17  18
HETATM   18  N1  UNL     1      28.566   2.908  -2.641  1.00  0.00    -0.046 N 
HETATM   19  C1  UNL     1      28.525   4.305  -3.049  1.00  0.00     0.269 C 
ATOM     20  H12 UNL     1      27.708   2.402  -2.860  1.00  0.00     0.279 HD
ATOM     21  H11 UNL     1      29.199   2.344  -3.209  1.00  0.00     0.279 HD
ENDBRANCH  17  18
BRANCH  17  22
HETATM   22  N2  UNL     1      29.781   1.754  -0.955  1.00  0.00    -0.046 N 
ATOM     23  H23 UNL     1      29.462   1.202  -0.159  1.00  0.00     0.277 HD
ATOM     24  H22 UNL     1      29.719   1.030  -1.670  1.00  0.00     0.277 HD
ATOM     25  H21 UNL     1      30.736   2.090  -0.830  1.00  0.00     0.277 HD
ENDBRANCH  17  22
ENDBRANCH   9  17
ENDBRANCH   1   5
BRANCH   3  26
HETATM   26  C8  UNL     1      24.794  -1.984   1.297  1.00  0.00     0.048 A 
HETATM   27  C9  UNL     1      23.436  -1.794   1.274  1.00  0.00     0.032 A 
HETATM   28  C10 UNL     1      22.588  -2.888   1.302  1.00  0.00     0.027 A 
HETATM   29  C11 UNL     1      23.081  -4.169   1.353  1.00  0.00     0.080 A 
HETATM   30  C17 UNL     1      24.442  -4.349   1.376  1.00  0.00     0.027 A 
HETATM   31  C18 UNL     1      25.307  -3.261   1.348  1.00  0.00     0.032 A 
BRANCH  29  32
HETATM   32  S2  UNL     1      21.988  -5.509   1.387  1.00  0.00     0.264 S 
HETATM   33  O3  UNL     1      22.740  -6.768   1.730  1.00  0.00    -0.200 OA
HETATM   34  O4  UNL     1      20.980  -5.215   2.486  1.00  0.00    -0.200 OA
BRANCH  32  35
HETATM   35  N6  UNL     1      21.120  -5.675  -0.088  1.00  0.00    -0.266 N 
ATOM     36  H6  UNL     1      20.119  -5.478  -0.116  1.00  0.00     0.180 HD
BRANCH  35  37
HETATM   37  C12 UNL     1      21.726  -6.044  -1.146  1.00  0.00     0.114 A 
HETATM   38  C13 UNL     1      22.245  -7.293  -1.370  1.00  0.00     0.052 A 
HETATM   39  C14 UNL     1      22.894  -7.601  -2.564  1.00  0.00     0.047 A 
HETATM   40  C15 UNL     1      23.015  -6.632  -3.532  1.00  0.00     0.131 A 
HETATM   41  F1  UNL     1      23.646  -6.893  -4.722  1.00  0.00    -0.205 F 
HETATM   42  C16 UNL     1      22.488  -5.387  -3.286  1.00  0.00     0.132 A 
HETATM   43  N7  UNL     1      21.867  -5.120  -2.126  1.00  0.00    -0.349 N 
ATOM     44  H7  UNL     1      21.487  -4.186  -1.978  1.00  0.00     0.167 HD
ENDBRANCH  35  37
ENDBRANCH  32  35
ENDBRANCH  29  32
ENDBRANCH   3  26
TORSDOF 10
ENDMDL
MODEL 3
REMARK VINA RESULT: -8.742587077      5.185      8.701
REMARK  10 active torsions:
REMARK  status: ('A' for Active; 'I' for Inactive)
REMARK    1  A    between atoms: N1_2  and  C2_5 
REMARK    2  A    between atoms: C2_5  and  N2_6 
REMARK    3  A    between atoms: C2_5  and  C3_10 
REMARK    4  A    between atoms: C6_13  and  S1_14 
REMARK    5  A    between atoms: S1_14  and  N3_15 
REMARK    6  A    between atoms: C7_20  and  N4_21 
REMARK    7  A    between atoms: N5_23  and  C8_25 
REMARK    8  A    between atoms: C11_28  and  S2_29 
REMARK    9  A    between atoms: S2_29  and  N6_32 
REMARK   10  A    between atoms: N6_32  and  C12_34 
ROOT
HETATM    1  N4  UNL     1      23.228   3.696   2.340  1.00  0.00    -0.299 N 
ATOM      2  H4  UNL     1      23.106   3.393   1.373  1.00  0.00     0.187 HD
HETATM    3  N5  UNL     1      24.378   4.031   2.686  1.00  0.00    -0.300 N 
ATOM      4  H5  UNL     1      24.566   4.345   3.638  1.00  0.00     0.187 HD
ENDROOT
BRANCH   1   5
HETATM    5  C7  UNL     1      22.077   3.698   3.156  1.00  0.00     0.072 A 
HETATM    6  C6  UNL     1      21.632   2.482   3.633  1.00  0.00     0.107 A 
HETATM    7  C5  UNL     1      20.524   2.437   4.425  1.00  0.00     0.028 A 
HETATM    8  C4  UNL     1      19.845   3.611   4.750  1.00  0.00     0.013 A 
HETATM    9  C3  UNL     1      20.261   4.849   4.291  1.00  0.00     0.001 A 
HETATM   10  C19 UNL     1      21.386   4.861   3.492  1.00  0.00     0.043 A 
BRANCH   6  11
HETATM   11  S1  UNL     1      22.465   0.995   3.240  1.00  0.00     0.259 S 
HETATM   12  O1  UNL     1      23.913   1.111   3.540  1.00  0.00    -0.201 OA
HETATM   13  O2  UNL     1      22.306   0.740   1.752  1.00  0.00    -0.201 OA
BRANCH  11  14
HETATM   14  N3  UNL     1      21.730  -0.365   4.034  1.00  0.00    -0.324 N 
ATOM     15  H32 UNL     1      21.589  -0.421   5.043  1.00  0.00     0.169 HD
ATOM     16  H31 UNL     1      21.464  -1.085   3.362  1.00  0.00     0.169 HD
ENDBRANCH  11  14
ENDBRANCH   6  11
BRANCH   9  17
HETATM   17  C2  UNL     1      19.557   6.097   4.624  1.00  0.00     0.413 C 
BRANCH  17  18
HETATM   18  N1  UNL     1      19.642   6.438   6.025  1.00  0.00    -0.046 N 
HETATM   19  C1  UNL     1      20.727   7.398   6.167  1.00  0.00     0.269 C 
ATOM     20  H12 UNL     1      19.748   5.623   6.629  1.00  0.00     0.279 HD
ATOM     21  H11 UNL     1      18.758   6.772   6.409  1.00  0.00     0.279 HD
ENDBRANCH  17  18
BRANCH  17  22
HETATM   22  N2  UNL     1      18.152   5.940   4.240  1.00  0.00    -0.046 N 
ATOM     23  H23 UNL     1      17.525   5.998   5.043  1.00  0.00     0.277 HD
ATOM     24  H22 UNL     1      17.802   6.747   3.723  1.00  0.00     0.277 HD
ATOM     25  H21 UNL     1      18.033   5.070   3.722  1.00  0.00     0.277 HD
ENDBRANCH  17  22
ENDBRANCH   9  17
ENDBRANCH   1   5
BRANCH   3  26
HETATM   26  C8  UNL     1      25.421   3.964   1.722  1.00  0.00     0.048 A 
HETATM   27  C9  UNL     1      25.776   2.733   1.233  1.00  0.00     0.032 A 
HETATM   28  C10 UNL     1      26.788   2.633   0.292  1.00  0.00     0.027 A 
HETATM   29  C11 UNL     1      27.448   3.748  -0.163  1.00  0.00     0.080 A 
HETATM   30  C17 UNL     1      27.086   4.976   0.334  1.00  0.00     0.027 A 
HETATM   31  C18 UNL     1      26.072   5.093   1.279  1.00  0.00     0.032 A 
BRANCH  29  32
HETATM   32  S2  UNL     1      28.707   3.581  -1.337  1.00  0.00     0.264 S 
HETATM   33  O3  UNL     1      28.104   3.406  -2.705  1.00  0.00    -0.200 OA
HETATM   34  O4  UNL     1      29.502   4.875  -1.304  1.00  0.00    -0.200 OA
BRANCH  32  35
HETATM   35  N6  UNL     1      29.784   2.296  -0.954  1.00  0.00    -0.266 N 
ATOM     36  H6  UNL     1      30.638   2.485  -0.428  1.00  0.00     0.180 HD
BRANCH  35  37
HETATM   37  C12 UNL     1      29.515   1.107  -1.325  1.00  0.00     0.114 A 
HETATM   38  C13 UNL     1      29.368   0.029  -0.492  1.00  0.00     0.052 A 
HETATM   39  C14 UNL     1      29.074  -1.237  -0.996  1.00  0.00     0.047 A 
HETATM   40  C15 UNL     1      28.928  -1.403  -2.353  1.00  0.00     0.131 A 
HETATM   41  F1  UNL     1      28.638  -2.632  -2.890  1.00  0.00    -0.205 F 
HETATM   42  C16 UNL     1      29.080  -0.308  -3.169  1.00  0.00     0.132 A 
HETATM   43  N7  UNL     1      29.363   0.899  -2.655  1.00  0.00    -0.349 N 
ATOM     44  H7  UNL     1      29.467   1.690  -3.290  1.00  0.00     0.167 HD
ENDBRANCH  35  37
ENDBRANCH  32  35
ENDBRANCH  29  32
ENDBRANCH   3  26
TORSDOF 10
ENDMDL
MODEL 4
REMARK VINA RESULT: -8.611551413      1.164      1.771
REMARK  10 active torsions:
REMARK  status: ('A' for Active; 'I' for Inactive)
REMARK    1  A    between atoms: N1_2  and  C2_5 
REMARK    2  A    between atoms: C2_5  and  N2_6 
REMARK    3  A    between atoms: C2_5  and  C3_10 
REMARK    4  A    between atoms: C6_13  and  S1_14 
REMARK    5  A    between atoms: S1_14  and  N3_15 
REMARK    6  A    between atoms: C7_20  and  N4_21 
REMARK    7  A    between atoms: N5_23  and  C8_25 
REMARK    8  A    between atoms: C11_28  and  S2_29 
REMARK    9  A    between atoms: S2_29  and  N6_32 
REMARK   10  A    between atoms: N6_32  and  C12_34 
ROOT
HETATM    1  N4  UNL     1      25.127  -0.163   0.630  1.00  0.00    -0.299 N 
ATOM      2  H4  UNL     1      24.248  -0.180   0.111  1.00  0.00     0.187 HD
HETATM    3  N5  UNL     1      25.387  -1.161   1.332  1.00  0.00    -0.300 N 
ATOM      4  H5  UNL     1      26.249  -1.206   1.875  1.00  0.00     0.187 HD
ENDROOT
BRANCH   1   5
HETATM    5  C7  UNL     1      25.931   0.987   0.484  1.00  0.00     0.072 A 
HETATM    6  C6  UNL     1      25.527   2.134   1.135  1.00  0.00     0.107 A 
HETATM    7  C5  UNL     1      26.273   3.268   1.020  1.00  0.00     0.028 A 
HETATM    8  C4  UNL     1      27.437   3.269   0.251  1.00  0.00     0.013 A 
HETATM    9  C3  UNL     1      27.874   2.138  -0.417  1.00  0.00     0.001 A 
HETATM   10  C19 UNL     1      27.096   1.005  -0.281  1.00  0.00     0.043 A 
BRANCH   6  11
HETATM   11  S1  UNL     1      24.072   2.160   2.105  1.00  0.00     0.259 S 
HETATM   12  O1  UNL     1      24.093   1.070   3.109  1.00  0.00    -0.201 OA
HETATM   13  O2  UNL     1      22.884   1.940   1.187  1.00  0.00    -0.201 OA
BRANCH  11  14
HETATM   14  N3  UNL     1      23.828   3.723   2.828  1.00  0.00    -0.324 N 
ATOM     15  H32 UNL     1      24.194   4.590   2.435  1.00  0.00     0.169 HD
ATOM     16  H31 UNL     1      23.279   3.651   3.684  1.00  0.00     0.169 HD
ENDBRANCH  11  14
ENDBRANCH   6  11
BRANCH   9  17
HETATM   17  C2  UNL     1      29.098   2.120  -1.232  1.00  0.00     0.413 C 
BRANCH  17  18
HETATM   18  N1  UNL     1      30.261   1.681  -0.498  1.00  0.00    -0.046 N 
HETATM   19  C1  UNL     1      30.302   0.228  -0.589  1.00  0.00     0.269 C 
ATOM     20  H12 UNL     1      30.279   2.022   0.463  1.00  0.00     0.279 HD
ATOM     21  H11 UNL     1      31.124   2.126  -0.811  1.00  0.00     0.279 HD
ENDBRANCH  17  18
BRANCH  17  22
HETATM   22  N2  UNL     1      29.322   3.475  -1.743  1.00  0.00    -0.046 N 
ATOM     23  H23 UNL     1      28.634   4.139  -1.387  1.00  0.00     0.277 HD
ATOM     24  H22 UNL     1      30.157   3.903  -1.345  1.00  0.00     0.277 HD
ATOM     25  H21 UNL     1      29.347   3.457  -2.763  1.00  0.00     0.277 HD
ENDBRANCH  17  22
ENDBRANCH   9  17
ENDBRANCH   1   5
BRANCH   3  26
HETATM   26  C8  UNL     1      24.453  -2.231   1.358  1.00  0.00     0.048 A 
HETATM   27  C9  UNL     1      23.117  -1.928   1.420  1.00  0.00     0.032 A 
HETATM   28  C10 UNL     1      22.180  -2.948   1.447  1.00  0.00     0.027 A 
HETATM   29  C11 UNL     1      22.564  -4.267   1.413  1.00  0.00     0.080 A 
HETATM   30  C17 UNL     1      23.904  -4.560   1.353  1.00  0.00     0.027 A 
HETATM   31  C18 UNL     1      24.857  -3.547   1.325  1.00  0.00     0.032 A 
BRANCH  29  32
HETATM   32  S2  UNL     1      21.364  -5.511   1.450  1.00  0.00     0.264 S 
HETATM   33  O3  UNL     1      21.967  -6.782   1.987  1.00  0.00    -0.200 OA
HETATM   34  O4  UNL     1      20.277  -5.034   2.398  1.00  0.00    -0.200 OA
BRANCH  32  35
HETATM   35  N6  UNL     1      20.641  -5.759  -0.091  1.00  0.00    -0.266 N 
ATOM     36  H6  UNL     1      19.636  -5.629  -0.210  1.00  0.00     0.180 HD
BRANCH  35  37
HETATM   37  C12 UNL     1      21.361  -6.105  -1.084  1.00  0.00     0.114 A 
HETATM   38  C13 UNL     1      21.838  -7.369  -1.317  1.00  0.00     0.052 A 
HETATM   39  C14 UNL     1      22.621  -7.649  -2.435  1.00  0.00     0.047 A 
HETATM   40  C15 UNL     1      22.918  -6.638  -3.318  1.00  0.00     0.131 A 
HETATM   41  F1  UNL     1      23.685  -6.871  -4.432  1.00  0.00    -0.205 F 
HETATM   42  C16 UNL     1      22.429  -5.379  -3.065  1.00  0.00     0.132 A 
HETATM   43  N7  UNL     1      21.677  -5.139  -1.980  1.00  0.00    -0.349 N 
ATOM     44  H7  UNL     1      21.329  -4.194  -1.823  1.00  0.00     0.167 HD
ENDBRANCH  35  37
ENDBRANCH  32  35
ENDBRANCH  29  32
ENDBRANCH   3  26
TORSDOF 10
ENDMDL
MODEL 5
REMARK VINA RESULT: -8.509417492      5.449      9.196
REMARK  10 active torsions:
REMARK  status: ('A' for Active; 'I' for Inactive)
REMARK    1  A    between atoms: N1_2  and  C2_5 
REMARK    2  A    between atoms: C2_5  and  N2_6 
REMARK    3  A    between atoms: C2_5  and  C3_10 
REMARK    4  A    between atoms: C6_13  and  S1_14 
REMARK    5  A    between atoms: S1_14  and  N3_15 
REMARK    6  A    between atoms: C7_20  and  N4_21 
REMARK    7  A    between atoms: N5_23  and  C8_25 
REMARK    8  A    between atoms: C11_28  and  S2_29 
REMARK    9  A    between atoms: S2_29  and  N6_32 
REMARK   10  A    between atoms: N6_32  and  C12_34 
ROOT
HETATM    1  N4  UNL     1      23.252   3.989   2.264  1.00  0.00    -0.299 N 
ATOM      2  H4  UNL     1      23.156   3.710   1.287  1.00  0.00     0.187 HD
HETATM    3  N5  UNL     1      24.369   4.413   2.622  1.00  0.00    -0.300 N 
ATOM      4  H5  UNL     1      24.531   4.709   3.584  1.00  0.00     0.187 HD
ENDROOT
BRANCH   1   5
HETATM    5  C7  UNL     1      22.108   3.859   3.080  1.00  0.00     0.072 A 
HETATM    6  C6  UNL     1      21.779   2.592   3.517  1.00  0.00     0.107 A 
HETATM    7  C5  UNL     1      20.681   2.420   4.307  1.00  0.00     0.028 A 
HETATM    8  C4  UNL     1      19.898   3.516   4.670  1.00  0.00     0.013 A 
HETATM    9  C3  UNL     1      20.198   4.801   4.251  1.00  0.00     0.001 A 
HETATM   10  C19 UNL     1      21.315   4.942   3.453  1.00  0.00     0.043 A 
BRANCH   6  11
HETATM   11  S1  UNL     1      22.743   1.202   3.076  1.00  0.00     0.259 S 
HETATM   12  O1  UNL     1      24.166   1.417   3.433  1.00  0.00    -0.201 OA
HETATM   13  O2  UNL     1      22.652   1.017   1.573  1.00  0.00    -0.201 OA
BRANCH  11  14
HETATM   14  N3  UNL     1      22.099  -0.255   3.772  1.00  0.00    -0.324 N 
ATOM     15  H32 UNL     1      21.102  -0.465   3.819  1.00  0.00     0.169 HD
ATOM     16  H31 UNL     1      22.844  -0.859   4.119  1.00  0.00     0.169 HD
ENDBRANCH  11  14
ENDBRANCH   6  11
BRANCH   9  17
HETATM   17  C2  UNL     1      19.383   5.968   4.624  1.00  0.00     0.413 C 
BRANCH  17  18
HETATM   18  N1  UNL     1      19.315   6.177   6.051  1.00  0.00    -0.046 N 
HETATM   19  C1  UNL     1      20.459   6.999   6.418  1.00  0.00     0.269 C 
ATOM     20  H12 UNL     1      19.262   5.307   6.581  1.00  0.00     0.279 HD
ATOM     21  H11 UNL     1      18.425   6.571   6.356  1.00  0.00     0.279 HD
ENDBRANCH  17  18
BRANCH  17  22
HETATM   22  N2  UNL     1      18.033   5.766   4.092  1.00  0.00    -0.046 N 
ATOM     23  H23 UNL     1      17.694   4.818   4.251  1.00  0.00     0.277 HD
ATOM     24  H22 UNL     1      17.327   6.266   4.633  1.00  0.00     0.277 HD
ATOM     25  H21 UNL     1      18.012   6.021   3.104  1.00  0.00     0.277 HD
ENDBRANCH  17  22
ENDBRANCH   9  17
ENDBRANCH   1   5
BRANCH   3  26
HETATM   26  C8  UNL     1      25.410   4.474   1.657  1.00  0.00     0.048 A 
HETATM   27  C9  UNL     1      25.802   5.706   1.199  1.00  0.00     0.032 A 
HETATM   28  C10 UNL     1      26.814   5.801   0.258  1.00  0.00     0.027 A 
HETATM   29  C11 UNL     1      27.438   4.679  -0.230  1.00  0.00     0.080 A 
HETATM   30  C17 UNL     1      27.038   3.450   0.234  1.00  0.00     0.027 A 
HETATM   31  C18 UNL     1      26.023   3.338   1.178  1.00  0.00     0.032 A 
BRANCH  29  32
HETATM   32  S2  UNL     1      28.697   4.839  -1.405  1.00  0.00     0.264 S 
HETATM   33  O3  UNL     1      28.094   5.049  -2.768  1.00  0.00    -0.200 OA
HETATM   34  O4  UNL     1      29.495   6.072  -1.016  1.00  0.00    -0.200 OA
BRANCH  32  35
HETATM   35  N6  UNL     1      29.771   3.496  -1.390  1.00  0.00    -0.266 N 
ATOM     36  H6  UNL     1      30.731   3.614  -1.065  1.00  0.00     0.180 HD
BRANCH  35  37
HETATM   37  C12 UNL     1      29.368   2.353  -1.786  1.00  0.00     0.114 A 
HETATM   38  C13 UNL     1      28.490   2.134  -2.815  1.00  0.00     0.052 A 
HETATM   39  C14 UNL     1      28.108   0.843  -3.174  1.00  0.00     0.047 A 
HETATM   40  C15 UNL     1      28.622  -0.228  -2.480  1.00  0.00     0.131 A 
HETATM   41  F1  UNL     1      28.272  -1.515  -2.801  1.00  0.00    -0.205 F 
HETATM   42  C16 UNL     1      29.500   0.017  -1.451  1.00  0.00     0.132 A 
HETATM   43  N7  UNL     1      29.851   1.271  -1.130  1.00  0.00    -0.349 N 
ATOM     44  H7  UNL     1      30.506   1.415  -0.362  1.00  0.00     0.167 HD
ENDBRANCH  35  37
ENDBRANCH  32  35
ENDBRANCH  29  32
ENDBRANCH   3  26
TORSDOF 10
ENDMDL
