MODEL 1
REMARK VINA RESULT: -9.068061159      0.000      0.000
REMARK  12 active torsions:
REMARK  status: ('A' for Active; 'I' for Inactive)
REMARK    1  A    between atoms: C2_2  and  C3_3 
REMARK    2  A    between atoms: C3_3  and  C6_6 
REMARK    3  A    between atoms: C7_7  and  O1_8 
REMARK    4  A    between atoms: C10_12  and  C11_13 
REMARK    5  A    between atoms: C12_14  and  C13_15 
REMARK    6  A    between atoms: C13_15  and  O2_16 
REMARK    7  A    between atoms: O2_16  and  C14_17 
REMARK    8  A    between atoms: C14_17  and  C15_18 
REMARK    9  A    between atoms: C16_20  and  C18_22 
REMARK   10  A    between atoms: C19_25  and  O6_26 
REMARK   11  A    between atoms: C20_28  and  O7_29 
REMARK   12  A    between atoms: C21_31  and  O8_32 
ROOT
HETATM    1  C11 UNL     1      25.700   2.516   0.802  1.00  0.00    -0.061 C 
HETATM    2  C12 UNL     1      26.733   3.053   0.487  1.00  0.00    -0.075 C 
ENDROOT
BRANCH   2   3
HETATM    3  C13 UNL     1      27.982   3.712   0.079  1.00  0.00     0.261 C 
BRANCH   3   4
HETATM    4  O2  UNL     1      28.189   3.684  -1.274  1.00  0.00    -0.377 OA
BRANCH   4   5
HETATM    5  C14 UNL     1      27.960   2.494  -1.908  1.00  0.00     0.203 C 
BRANCH   5   6
HETATM    6  C15 UNL     1      29.214   1.755  -2.334  1.00  0.00     0.178 C 
HETATM    7  O3  UNL     1      29.944   1.396  -1.268  1.00  0.00    -0.357 OA
HETATM    8  C16 UNL     1      29.881   0.141  -0.782  1.00  0.00     0.173 C 
HETATM    9  C17 UNL     1      28.708  -0.073   0.185  1.00  0.00     0.061 C 
HETATM   10  C19 UNL     1      29.978  -0.968  -1.778  1.00  0.00     0.194 C 
HETATM   11  C20 UNL     1      29.587  -0.586  -3.171  1.00  0.00     0.181 C 
HETATM   12  C21 UNL     1      28.782   0.660  -3.262  1.00  0.00     0.180 C 
BRANCH   8  13
HETATM   13  C18 UNL     1      31.091  -0.019   0.115  1.00  0.00     0.211 C 
HETATM   14  O4  UNL     1      31.800  -1.047  -0.081  1.00  0.00    -0.646 OA
HETATM   15  O5  UNL     1      31.429   0.874   1.091  1.00  0.00    -0.646 OA
ENDBRANCH   8  13
BRANCH  10  16
HETATM   16  O6  UNL     1      29.148  -2.013  -1.307  1.00  0.00    -0.389 OA
ATOM     17  H6  UNL     1      29.557  -2.357  -0.522  1.00  0.00     0.210 HD
ENDBRANCH  10  16
BRANCH  11  18
HETATM   18  O7  UNL     1      28.804  -1.638  -3.698  1.00  0.00    -0.390 OA
ATOM     19  H7  UNL     1      29.096  -1.793  -4.588  1.00  0.00     0.210 HD
ENDBRANCH  11  18
BRANCH  12  20
HETATM   20  O8  UNL     1      27.406   0.363  -3.106  1.00  0.00    -0.390 OA
ATOM     21  H8  UNL     1      27.007   0.121  -3.933  1.00  0.00     0.210 HD
ENDBRANCH  12  20
ENDBRANCH   5   6
ENDBRANCH   4   5
ENDBRANCH   3   4
ENDBRANCH   2   3
BRANCH   1  22
HETATM   22  C10 UNL     1      24.456   1.885   1.158  1.00  0.00     0.072 A 
HETATM   23  C9  UNL     1      23.324   2.628   1.337  1.00  0.00     0.170 A 
HETATM   24  C7  UNL     1      22.104   2.036   1.683  1.00  0.00     0.118 A 
HETATM   25  F1  UNL     1      23.337   3.996   1.186  1.00  0.00    -0.202 F 
HETATM   26  C6  UNL     1      22.010   0.678   1.859  1.00  0.00     0.021 A 
HETATM   27  C25 UNL     1      23.196  -0.094   1.668  1.00  0.00     0.096 A 
HETATM   28  C22 UNL     1      24.375   0.520   1.327  1.00  0.00     0.022 A 
HETATM   29  O9  UNL     1      23.434  -1.393   1.756  1.00  0.00    -0.321 OA
HETATM   30  C23 UNL     1      25.331  -0.478   1.214  1.00  0.00     0.040 A 
HETATM   31  C24 UNL     1      24.673  -1.653   1.497  1.00  0.00     0.143 A 
BRANCH  24  32
HETATM   32  O1  UNL     1      21.022   2.930   1.804  1.00  0.00    -0.352 OA
HETATM   33  C8  UNL     1      20.383   3.216   0.512  1.00  0.00     0.210 C 
ENDBRANCH  24  32
BRANCH  26  34
HETATM   34  C3  UNL     1      20.824   0.035   2.414  1.00  0.00    -0.015 C 
HETATM   35  C4  UNL     1      21.057  -1.347   3.030  1.00  0.00     0.020 C 
HETATM   36  C5  UNL     1      20.078  -0.498   1.064  1.00  0.00     0.020 C 
BRANCH  34  37
HETATM   37  C2  UNL     1      19.682   0.746   3.007  1.00  0.00     0.009 C 
HETATM   38  C1  UNL     1      18.346   0.624   2.357  1.00  0.00     0.006 C 
ENDBRANCH  34  37
ENDBRANCH  26  34
ENDBRANCH   1  22
TORSDOF 12
ENDMDL
MODEL 2
REMARK VINA RESULT: -9.031872791      1.256      2.663
REMARK  12 active torsions:
REMARK  status: ('A' for Active; 'I' for Inactive)
REMARK    1  A    between atoms: C2_2  and  C3_3 
REMARK    2  A    between atoms: C3_3  and  C6_6 
REMARK    3  A    between atoms: C7_7  and  O1_8 
REMARK    4  A    between atoms: C10_12  and  C11_13 
REMARK    5  A    between atoms: C12_14  and  C13_15 
REMARK    6  A    between atoms: C13_15  and  O2_16 
REMARK    7  A    between atoms: O2_16  and  C14_17 
REMARK    8  A    between atoms: C14_17  and  C15_18 
REMARK    9  A    between atoms: C16_20  and  C18_22 
REMARK   10  A    between atoms: C19_25  and  O6_26 
REMARK   11  A    between atoms: C20_28  and  O7_29 
REMARK   12  A    between atoms: C21_31  and  O8_32 
ROOT
HETATM    1  C11 UNL     1      26.113   3.056   0.845  1.00  0.00    -0.061 C 
HETATM    2  C12 UNL     1      27.083   3.536   0.312  1.00  0.00    -0.075 C 
ENDROOT
BRANCH   2   3
HETATM    3  C13 UNL     1      28.262   4.103  -0.357  1.00  0.00     0.261 C 
BRANCH   3   4
HETATM    4  O2  UNL     1      28.292   3.851  -1.702  1.00  0.00    -0.377 OA
BRANCH   4   5
HETATM    5  C14 UNL     1      28.036   2.566  -2.094  1.00  0.00     0.203 C 
BRANCH   5   6
HETATM    6  C15 UNL     1      29.270   1.757  -2.450  1.00  0.00     0.178 C 
HETATM    7  O3  UNL     1      29.971   1.444  -1.350  1.00  0.00    -0.357 OA
HETATM    8  C16 UNL     1      29.857   0.227  -0.785  1.00  0.00     0.173 C 
HETATM    9  C17 UNL     1      28.663   0.117   0.174  1.00  0.00     0.061 C 
HETATM   10  C19 UNL     1      29.928  -0.948  -1.704  1.00  0.00     0.194 C 
HETATM   11  C20 UNL     1      29.571  -0.645  -3.126  1.00  0.00     0.181 C 
HETATM   12  C21 UNL     1      28.813   0.619  -3.312  1.00  0.00     0.180 C 
BRANCH   8  13
HETATM   13  C18 UNL     1      31.047   0.084   0.141  1.00  0.00     0.211 C 
HETATM   14  O4  UNL     1      31.801  -0.909  -0.067  1.00  0.00    -0.646 OA
HETATM   15  O5  UNL     1      31.321   0.957   1.154  1.00  0.00    -0.646 OA
ENDBRANCH   8  13
BRANCH  10  16
HETATM   16  O6  UNL     1      29.055  -1.931  -1.181  1.00  0.00    -0.389 OA
ATOM     17  H6  UNL     1      29.200  -2.723  -1.685  1.00  0.00     0.210 HD
ENDBRANCH  10  16
BRANCH  11  18
HETATM   18  O7  UNL     1      28.760  -1.702  -3.596  1.00  0.00    -0.390 OA
ATOM     19  H7  UNL     1      28.740  -1.648  -4.544  1.00  0.00     0.210 HD
ENDBRANCH  11  18
BRANCH  12  20
HETATM   20  O8  UNL     1      27.424   0.381  -3.160  1.00  0.00    -0.390 OA
ATOM     21  H8  UNL     1      27.158   0.451  -2.251  1.00  0.00     0.210 HD
ENDBRANCH  12  20
ENDBRANCH   5   6
ENDBRANCH   4   5
ENDBRANCH   3   4
ENDBRANCH   2   3
BRANCH   1  22
HETATM   22  C10 UNL     1      24.951   2.470   1.460  1.00  0.00     0.072 A 
HETATM   23  C9  UNL     1      24.813   1.113   1.536  1.00  0.00     0.170 A 
HETATM   24  C7  UNL     1      23.692   0.521   2.129  1.00  0.00     0.118 A 
HETATM   25  F1  UNL     1      25.774   0.269   1.028  1.00  0.00    -0.202 F 
HETATM   26  C6  UNL     1      22.686   1.295   2.651  1.00  0.00     0.021 A 
HETATM   27  C25 UNL     1      22.837   2.713   2.571  1.00  0.00     0.096 A 
HETATM   28  C22 UNL     1      23.951   3.259   1.985  1.00  0.00     0.022 A 
HETATM   29  O9  UNL     1      22.068   3.712   2.974  1.00  0.00    -0.321 OA
HETATM   30  C23 UNL     1      23.811   4.636   2.058  1.00  0.00     0.040 A 
HETATM   31  C24 UNL     1      22.607   4.852   2.690  1.00  0.00     0.143 A 
BRANCH  24  32
HETATM   32  O1  UNL     1      23.708  -0.887   2.156  1.00  0.00    -0.352 OA
HETATM   33  C8  UNL     1      23.209  -1.478   0.906  1.00  0.00     0.210 C 
ENDBRANCH  24  32
BRANCH  26  34
HETATM   34  C3  UNL     1      21.412   0.738   3.093  1.00  0.00    -0.015 C 
HETATM   35  C4  UNL     1      20.205   1.096   2.222  1.00  0.00     0.020 C 
HETATM   36  C5  UNL     1      21.033   1.730   4.333  1.00  0.00     0.020 C 
BRANCH  34  37
HETATM   37  C2  UNL     1      21.253  -0.539   3.802  1.00  0.00     0.009 C 
HETATM   38  C1  UNL     1      20.289  -1.542   3.265  1.00  0.00     0.006 C 
ENDBRANCH  34  37
ENDBRANCH  26  34
ENDBRANCH   1  22
TORSDOF 12
ENDMDL
MODEL 3
REMARK VINA RESULT: -9.014482868      0.968      1.268
REMARK  12 active torsions:
REMARK  status: ('A' for Active; 'I' for Inactive)
REMARK    1  A    between atoms: C2_2  and  C3_3 
REMARK    2  A    between atoms: C3_3  and  C6_6 
REMARK    3  A    between atoms: C7_7  and  O1_8 
REMARK    4  A    between atoms: C10_12  and  C11_13 
REMARK    5  A    between atoms: C12_14  and  C13_15 
REMARK    6  A    between atoms: C13_15  and  O2_16 
REMARK    7  A    between atoms: O2_16  and  C14_17 
REMARK    8  A    between atoms: C14_17  and  C15_18 
REMARK    9  A    between atoms: C16_20  and  C18_22 
REMARK   10  A    between atoms: C19_25  and  O6_26 
REMARK   11  A    between atoms: C20_28  and  O7_29 
REMARK   12  A    between atoms: C21_31  and  O8_32 
ROOT
HETATM    1  C11 UNL     1      25.562   1.916   0.577  1.00  0.00    -0.061 C 
HETATM    2  C12 UNL     1      26.522   2.630   0.424  1.00  0.00    -0.075 C 
ENDROOT
BRANCH   2   3
HETATM    3  C13 UNL     1      27.678   3.519   0.246  1.00  0.00     0.261 C 
BRANCH   3   4
HETATM    4  O2  UNL     1      28.105   3.595  -1.052  1.00  0.00    -0.377 OA
BRANCH   4   5
HETATM    5  C14 UNL     1      27.904   2.490  -1.833  1.00  0.00     0.203 C 
BRANCH   5   6
HETATM    6  C15 UNL     1      29.176   1.800  -2.289  1.00  0.00     0.178 C 
HETATM    7  O3  UNL     1      29.921   1.427  -1.238  1.00  0.00    -0.357 OA
HETATM    8  C16 UNL     1      29.896   0.156  -0.793  1.00  0.00     0.173 C 
HETATM    9  C17 UNL     1      28.735  -0.122   0.172  1.00  0.00     0.061 C 
HETATM   10  C19 UNL     1      30.018  -0.917  -1.825  1.00  0.00     0.194 C 
HETATM   11  C20 UNL     1      29.608  -0.501  -3.203  1.00  0.00     0.181 C 
HETATM   12  C21 UNL     1      28.769   0.724  -3.250  1.00  0.00     0.180 C 
BRANCH   8  13
HETATM   13  C18 UNL     1      31.115  -0.000   0.092  1.00  0.00     0.211 C 
HETATM   14  O4  UNL     1      31.829  -1.022  -0.114  1.00  0.00    -0.646 OA
HETATM   15  O5  UNL     1      31.455   0.891   1.070  1.00  0.00    -0.646 OA
ENDBRANCH   8  13
BRANCH  10  16
HETATM   16  O6  UNL     1      29.220  -2.000  -1.385  1.00  0.00    -0.389 OA
ATOM     17  H6  UNL     1      28.346  -1.855  -1.729  1.00  0.00     0.210 HD
ENDBRANCH  10  16
BRANCH  11  18
HETATM   18  O7  UNL     1      28.852  -1.557  -3.760  1.00  0.00    -0.390 OA
ATOM     19  H7  UNL     1      28.928  -1.496  -4.705  1.00  0.00     0.210 HD
ENDBRANCH  11  18
BRANCH  12  20
HETATM   20  O8  UNL     1      27.402   0.384  -3.097  1.00  0.00    -0.390 OA
ATOM     21  H8  UNL     1      26.850   1.157  -3.101  1.00  0.00     0.210 HD
ENDBRANCH  12  20
ENDBRANCH   5   6
ENDBRANCH   4   5
ENDBRANCH   3   4
ENDBRANCH   2   3
BRANCH   1  22
HETATM   22  C10 UNL     1      24.403   1.084   0.770  1.00  0.00     0.072 A 
HETATM   23  C9  UNL     1      23.145   1.606   0.661  1.00  0.00     0.170 A 
HETATM   24  C7  UNL     1      22.004   0.816   0.844  1.00  0.00     0.118 A 
HETATM   25  F1  UNL     1      22.947   2.936   0.365  1.00  0.00    -0.202 F 
HETATM   26  C6  UNL     1      22.118  -0.518   1.149  1.00  0.00     0.021 A 
HETATM   27  C25 UNL     1      23.435  -1.058   1.260  1.00  0.00     0.096 A 
HETATM   28  C22 UNL     1      24.531  -0.255   1.070  1.00  0.00     0.022 A 
HETATM   29  O9  UNL     1      23.876  -2.275   1.531  1.00  0.00    -0.321 OA
HETATM   30  C23 UNL     1      25.651  -1.054   1.241  1.00  0.00     0.040 A 
HETATM   31  C24 UNL     1      25.168  -2.310   1.529  1.00  0.00     0.143 A 
BRANCH  24  32
HETATM   32  O1  UNL     1      20.780   1.491   0.671  1.00  0.00    -0.352 OA
HETATM   33  C8  UNL     1      20.331   2.163   1.899  1.00  0.00     0.210 C 
ENDBRANCH  24  32
BRANCH  26  34
HETATM   34  C3  UNL     1      20.977  -1.335   1.549  1.00  0.00    -0.015 C 
HETATM   35  C4  UNL     1      20.840  -1.572   3.055  1.00  0.00     0.020 C 
HETATM   36  C5  UNL     1      21.504  -2.835   1.182  1.00  0.00     0.020 C 
BRANCH  34  37
HETATM   37  C2  UNL     1      19.693  -1.392   0.837  1.00  0.00     0.009 C 
HETATM   38  C1  UNL     1      19.654  -2.006  -0.521  1.00  0.00     0.006 C 
ENDBRANCH  34  37
ENDBRANCH  26  34
ENDBRANCH   1  22
TORSDOF 12
ENDMDL
MODEL 4
REMARK VINA RESULT: -8.829401142      1.130      2.531
REMARK  12 active torsions:
REMARK  status: ('A' for Active; 'I' for Inactive)
REMARK    1  A    between atoms: C2_2  and  C3_3 
REMARK    2  A    between atoms: C3_3  and  C6_6 
REMARK    3  A    between atoms: C7_7  and  O1_8 
REMARK    4  A    between atoms: C10_12  and  C11_13 
REMARK    5  A    between atoms: C12_14  and  C13_15 
REMARK    6  A    between atoms: C13_15  and  O2_16 
REMARK    7  A    between atoms: O2_16  and  C14_17 
REMARK    8  A    between atoms: C14_17  and  C15_18 
REMARK    9  A    between atoms: C16_20  and  C18_22 
REMARK   10  A    between atoms: C19_25  and  O6_26 
REMARK   11  A    between atoms: C20_28  and  O7_29 
REMARK   12  A    between atoms: C21_31  and  O8_32 
ROOT
HETATM    1  C11 UNL     1      25.783   2.949   0.776  1.00  0.00    -0.061 C 
HETATM    2  C12 UNL     1      26.834   3.492   0.541  1.00  0.00    -0.075 C 
ENDROOT
BRANCH   2   3
HETATM    3  C13 UNL     1      28.118   4.137   0.234  1.00  0.00     0.261 C 
BRANCH   3   4
HETATM    4  O2  UNL     1      28.470   4.038  -1.085  1.00  0.00    -0.377 OA
BRANCH   4   5
HETATM    5  C14 UNL     1      28.080   2.903  -1.743  1.00  0.00     0.203 C 
BRANCH   5   6
HETATM    6  C15 UNL     1      29.223   2.016  -2.200  1.00  0.00     0.178 C 
HETATM    7  O3  UNL     1      29.986   1.645  -1.161  1.00  0.00    -0.357 OA
HETATM    8  C16 UNL     1      29.833   0.432  -0.594  1.00  0.00     0.173 C 
HETATM    9  C17 UNL     1      28.714   0.395   0.456  1.00  0.00     0.061 C 
HETATM   10  C19 UNL     1      29.750  -0.735  -1.522  1.00  0.00     0.194 C 
HETATM   11  C20 UNL     1      29.304  -0.394  -2.909  1.00  0.00     0.181 C 
HETATM   12  C21 UNL     1      28.622   0.920  -3.028  1.00  0.00     0.180 C 
BRANCH   8  13
HETATM   13  C18 UNL     1      31.080   0.199   0.233  1.00  0.00     0.211 C 
HETATM   14  O4  UNL     1      31.743  -0.843  -0.036  1.00  0.00    -0.646 OA
HETATM   15  O5  UNL     1      31.496   1.043   1.223  1.00  0.00    -0.646 OA
ENDBRANCH   8  13
BRANCH  10  16
HETATM   16  O6  UNL     1      28.856  -1.662  -0.935  1.00  0.00    -0.389 OA
ATOM     17  H6  UNL     1      27.983  -1.299  -1.031  1.00  0.00     0.210 HD
ENDBRANCH  10  16
BRANCH  11  18
HETATM   18  O7  UNL     1      28.386  -1.388  -3.318  1.00  0.00    -0.390 OA
ATOM     19  H7  UNL     1      28.424  -1.440  -4.265  1.00  0.00     0.210 HD
ENDBRANCH  11  18
BRANCH  12  20
HETATM   20  O8  UNL     1      27.237   0.776  -2.767  1.00  0.00    -0.390 OA
ATOM     21  H8  UNL     1      26.883   0.002  -3.188  1.00  0.00     0.210 HD
ENDBRANCH  12  20
ENDBRANCH   5   6
ENDBRANCH   4   5
ENDBRANCH   3   4
ENDBRANCH   2   3
BRANCH   1  22
HETATM   22  C10 UNL     1      24.530   2.289   1.035  1.00  0.00     0.072 A 
HETATM   23  C9  UNL     1      24.324   1.001   0.627  1.00  0.00     0.170 A 
HETATM   24  C7  UNL     1      23.114   0.340   0.868  1.00  0.00     0.118 A 
HETATM   25  F1  UNL     1      25.301   0.300  -0.042  1.00  0.00    -0.202 F 
HETATM   26  C6  UNL     1      22.088   0.974   1.522  1.00  0.00     0.021 A 
HETATM   27  C25 UNL     1      22.310   2.318   1.948  1.00  0.00     0.096 A 
HETATM   28  C22 UNL     1      23.509   2.935   1.698  1.00  0.00     0.022 A 
HETATM   29  O9  UNL     1      21.543   3.184   2.591  1.00  0.00    -0.321 OA
HETATM   30  C23 UNL     1      23.422   4.214   2.225  1.00  0.00     0.040 A 
HETATM   31  C24 UNL     1      22.162   4.304   2.770  1.00  0.00     0.143 A 
BRANCH  24  32
HETATM   32  O1  UNL     1      23.065  -0.993   0.411  1.00  0.00    -0.352 OA
HETATM   33  C8  UNL     1      23.545  -1.949   1.419  1.00  0.00     0.210 C 
ENDBRANCH  24  32
BRANCH  26  34
HETATM   34  C3  UNL     1      20.746   0.408   1.618  1.00  0.00    -0.015 C 
HETATM   35  C4  UNL     1      20.305  -0.434   0.418  1.00  0.00     0.020 C 
HETATM   36  C5  UNL     1      19.818   1.706   1.273  1.00  0.00     0.020 C 
BRANCH  34  37
HETATM   37  C2  UNL     1      20.086   0.016   2.872  1.00  0.00     0.009 C 
HETATM   38  C1  UNL     1      20.770  -0.961   3.766  1.00  0.00     0.006 C 
ENDBRANCH  34  37
ENDBRANCH  26  34
ENDBRANCH   1  22
TORSDOF 12
ENDMDL
MODEL 5
REMARK VINA RESULT: -8.553879462      2.099      3.496
REMARK  12 active torsions:
REMARK  status: ('A' for Active; 'I' for Inactive)
REMARK    1  A    between atoms: C2_2  and  C3_3 
REMARK    2  A    between atoms: C3_3  and  C6_6 
REMARK    3  A    between atoms: C7_7  and  O1_8 
REMARK    4  A    between atoms: C10_12  and  C11_13 
REMARK    5  A    between atoms: C12_14  and  C13_15 
REMARK    6  A    between atoms: C13_15  and  O2_16 
REMARK    7  A    between atoms: O2_16  and  C14_17 
REMARK    8  A    between atoms: C14_17  and  C15_18 
REMARK    9  A    between atoms: C16_20  and  C18_22 
REMARK   10  A    between atoms: C19_25  and  O6_26 
REMARK   11  A    between atoms: C20_28  and  O7_29 
REMARK   12  A    between atoms: C21_31  and  O8_32 
ROOT
HETATM    1  C11 UNL     1      26.746   4.329   0.123  1.00  0.00    -0.061 C 
HETATM    2  C12 UNL     1      27.768   4.415  -0.510  1.00  0.00    -0.075 C 
ENDROOT
BRANCH   2   3
HETATM    3  C13 UNL     1      29.028   4.511  -1.261  1.00  0.00     0.261 C 
BRANCH   3   4
HETATM    4  O2  UNL     1      28.956   3.948  -2.507  1.00  0.00    -0.377 OA
BRANCH   4   5
HETATM    5  C14 UNL     1      28.419   2.692  -2.586  1.00  0.00     0.203 C 
BRANCH   5   6
HETATM    6  C15 UNL     1      29.439   1.577  -2.720  1.00  0.00     0.178 C 
HETATM    7  O3  UNL     1      30.095   1.387  -1.566  1.00  0.00    -0.357 OA
HETATM    8  C16 UNL     1      29.744   0.391  -0.731  1.00  0.00     0.173 C 
HETATM    9  C17 UNL     1      28.589   0.769   0.207  1.00  0.00     0.061 C 
HETATM   10  C19 UNL     1      29.532  -0.954  -1.345  1.00  0.00     0.194 C 
HETATM   11  C20 UNL     1      29.198  -0.924  -2.803  1.00  0.00     0.181 C 
HETATM   12  C21 UNL     1      28.720   0.394  -3.296  1.00  0.00     0.180 C 
BRANCH   8  13
HETATM   13  C18 UNL     1      30.908   0.216   0.223  1.00  0.00     0.211 C 
HETATM   14  O4  UNL     1      31.631  -0.805   0.041  1.00  0.00    -0.646 OA
HETATM   15  O5  UNL     1      31.191   1.090   1.233  1.00  0.00    -0.646 OA
ENDBRANCH   8  13
BRANCH  10  16
HETATM   16  O6  UNL     1      28.488  -1.576  -0.619  1.00  0.00    -0.389 OA
ATOM     17  H6  UNL     1      27.870  -1.910  -1.258  1.00  0.00     0.210 HD
ENDBRANCH  10  16
BRANCH  11  18
HETATM   18  O7  UNL     1      28.164  -1.861  -3.024  1.00  0.00    -0.390 OA
ATOM     19  H7  UNL     1      28.217  -2.137  -3.931  1.00  0.00     0.210 HD
ENDBRANCH  11  18
BRANCH  12  20
HETATM   20  O8  UNL     1      27.319   0.503  -3.115  1.00  0.00    -0.390 OA
ATOM     21  H8  UNL     1      26.877   0.684  -3.936  1.00  0.00     0.210 HD
ENDBRANCH  12  20
ENDBRANCH   5   6
ENDBRANCH   4   5
ENDBRANCH   3   4
ENDBRANCH   2   3
BRANCH   1  22
HETATM   22  C10 UNL     1      25.537   4.212   0.897  1.00  0.00     0.072 A 
HETATM   23  C9  UNL     1      24.919   3.002   1.045  1.00  0.00     0.170 A 
HETATM   24  C7  UNL     1      23.744   2.865   1.792  1.00  0.00     0.118 A 
HETATM   25  F1  UNL     1      25.429   1.865   0.461  1.00  0.00    -0.202 F 
HETATM   26  C6  UNL     1      23.169   3.954   2.398  1.00  0.00     0.021 A 
HETATM   27  C25 UNL     1      23.820   5.215   2.242  1.00  0.00     0.096 A 
HETATM   28  C22 UNL     1      24.973   5.312   1.505  1.00  0.00     0.022 A 
HETATM   29  O9  UNL     1      23.532   6.425   2.692  1.00  0.00    -0.321 OA
HETATM   30  C23 UNL     1      25.361   6.643   1.537  1.00  0.00     0.040 A 
HETATM   31  C24 UNL     1      24.412   7.286   2.299  1.00  0.00     0.143 A 
BRANCH  24  32
HETATM   32  O1  UNL     1      23.243   1.551   1.875  1.00  0.00    -0.352 OA
HETATM   33  C8  UNL     1      24.195   0.626   2.507  1.00  0.00     0.210 C 
ENDBRANCH  24  32
BRANCH  26  34
HETATM   34  C3  UNL     1      21.846   3.906   3.012  1.00  0.00    -0.015 C 
HETATM   35  C4  UNL     1      21.461   2.560   3.631  1.00  0.00     0.020 C 
HETATM   36  C5  UNL     1      20.881   3.780   1.702  1.00  0.00     0.020 C 
BRANCH  34  37
HETATM   37  C2  UNL     1      21.172   5.048   3.649  1.00  0.00     0.009 C 
HETATM   38  C1  UNL     1      19.694   4.996   3.831  1.00  0.00     0.006 C 
ENDBRANCH  34  37
ENDBRANCH  26  34
ENDBRANCH   1  22
TORSDOF 12
ENDMDL
