MODEL 1
REMARK VINA RESULT: -8.109321067      0.000      0.000
REMARK  13 active torsions:
REMARK  status: ('A' for Active; 'I' for Inactive)
REMARK    1  A    between atoms: C3_5  and  C4_6 
REMARK    2  A    between atoms: C5_7  and  C6_8 
REMARK    3  A    between atoms: C6_8  and  C7_9 
REMARK    4  A    between atoms: C7_9  and  C8_10 
REMARK    5  A    between atoms: C8_10  and  C9_11 
REMARK    6  A    between atoms: C9_11  and  C10_12 
REMARK    7  A    between atoms: N3_21  and  C15_22 
REMARK    8  A    between atoms: C16_24  and  C17_25 
REMARK    9  A    between atoms: C17_25  and  O2_26 
REMARK   10  A    between atoms: C17_25  and  C18_28 
REMARK   11  A    between atoms: C18_28  and  O3_29 
REMARK   12  A    between atoms: C19_31  and  O4_32 
REMARK   13  A    between atoms: C20_34  and  O5_35 
ROOT
HETATM    1  C1  UNL     1      28.365   6.209   0.002  1.00  0.00     0.069 C 
HETATM    2  C2  UNL     1      27.519   5.054   0.315  1.00  0.00     0.023 A 
HETATM    3  N1  UNL     1      27.897   3.775   0.144  1.00  0.00    -0.338 N 
ATOM      4  H1  UNL     1      28.829   3.589  -0.226  1.00  0.00     0.168 HD
HETATM    5  C3  UNL     1      27.102   2.729   0.439  1.00  0.00     0.163 A 
HETATM    6  N2  UNL     1      25.866   2.942   0.929  1.00  0.00    -0.320 N 
ATOM      7  H2  UNL     1      25.259   2.154   1.154  1.00  0.00     0.169 HD
HETATM    8  C11 UNL     1      25.431   4.224   1.123  1.00  0.00     0.125 A 
HETATM    9  C12 UNL     1      26.239   5.302   0.823  1.00  0.00     0.050 A 
HETATM   10  C13 UNL     1      25.527   6.427   1.122  1.00  0.00     0.043 A 
HETATM   11  S1  UNL     1      26.146   8.089   0.907  1.00  0.00    -0.050 SA
HETATM   12  C14 UNL     1      24.309   6.007   1.595  1.00  0.00     0.116 A 
HETATM   13  N3  UNL     1      24.240   4.662   1.599  1.00  0.00    -0.311 N 
ENDROOT
BRANCH  13  14
HETATM   14  C15 UNL     1      23.131   3.826   2.021  1.00  0.00     0.261 C 
HETATM   15  O1  UNL     1      23.653   2.606   2.447  1.00  0.00    -0.353 OA
HETATM   16  C16 UNL     1      22.650   1.670   2.373  1.00  0.00     0.186 C 
HETATM   17  C19 UNL     1      21.650   2.128   1.361  1.00  0.00     0.182 C 
HETATM   18  C20 UNL     1      22.221   3.461   0.873  1.00  0.00     0.198 C 
BRANCH  16  19
HETATM   19  C17 UNL     1      23.248   0.328   1.963  1.00  0.00     0.173 C 
BRANCH  19  20
HETATM   20  O2  UNL     1      24.599   0.388   2.278  1.00  0.00    -0.391 OA
ATOM     21  H2  UNL     1      25.070   0.317   1.456  1.00  0.00     0.210 HD
ENDBRANCH  19  20
BRANCH  19  22
HETATM   22  C18 UNL     1      23.093   0.153   0.468  1.00  0.00     0.198 C 
BRANCH  22  23
HETATM   23  O3  UNL     1      24.257   0.436  -0.213  1.00  0.00    -0.398 OA
ATOM     24  H3  UNL     1      24.124   1.076  -0.903  1.00  0.00     0.209 HD
ENDBRANCH  22  23
ENDBRANCH  19  22
ENDBRANCH  16  19
BRANCH  17  25
HETATM   25  O4  UNL     1      20.433   2.331   2.025  1.00  0.00    -0.390 OA
ATOM     26  H4  UNL     1      20.299   3.267   2.106  1.00  0.00     0.210 HD
ENDBRANCH  17  25
BRANCH  18  27
HETATM   27  O5  UNL     1      21.160   4.351   0.817  1.00  0.00    -0.388 OA
ATOM     28  H5  UNL     1      21.317   4.995   0.137  1.00  0.00     0.210 HD
ENDBRANCH  18  27
ENDBRANCH  13  14
BRANCH   5  29
HETATM   29  C4  UNL     1      27.562   1.365   0.235  1.00  0.00    -0.030 C 
HETATM   30  C5  UNL     1      27.963   0.239   0.070  1.00  0.00    -0.098 C 
BRANCH  30  31
HETATM   31  C6  UNL     1      28.469  -1.113  -0.130  1.00  0.00     0.094 C 
BRANCH  31  32
HETATM   32  C7  UNL     1      29.904  -1.127  -0.580  1.00  0.00     0.012 C 
BRANCH  32  33
HETATM   33  C8  UNL     1      30.063  -1.978  -1.837  1.00  0.00     0.002 C 
BRANCH  33  34
HETATM   34  C9  UNL     1      29.102  -1.573  -2.909  1.00  0.00     0.011 C 
BRANCH  34  35
HETATM   35  C10 UNL     1      29.538  -0.320  -3.636  1.00  0.00     0.085 C 
HETATM   36 BR1  UNL     1      28.091   0.951  -3.537  1.00  0.00    -0.097 Br
ENDBRANCH  34  35
ENDBRANCH  33  34
ENDBRANCH  32  33
ENDBRANCH  31  32
ENDBRANCH  30  31
ENDBRANCH   5  29
TORSDOF 13
ENDMDL
MODEL 2
REMARK VINA RESULT: -8.064348642      1.740      2.294
REMARK  13 active torsions:
REMARK  status: ('A' for Active; 'I' for Inactive)
REMARK    1  A    between atoms: C3_5  and  C4_6 
REMARK    2  A    between atoms: C5_7  and  C6_8 
REMARK    3  A    between atoms: C6_8  and  C7_9 
REMARK    4  A    between atoms: C7_9  and  C8_10 
REMARK    5  A    between atoms: C8_10  and  C9_11 
REMARK    6  A    between atoms: C9_11  and  C10_12 
REMARK    7  A    between atoms: N3_21  and  C15_22 
REMARK    8  A    between atoms: C16_24  and  C17_25 
REMARK    9  A    between atoms: C17_25  and  O2_26 
REMARK   10  A    between atoms: C17_25  and  C18_28 
REMARK   11  A    between atoms: C18_28  and  O3_29 
REMARK   12  A    between atoms: C19_31  and  O4_32 
REMARK   13  A    between atoms: C20_34  and  O5_35 
ROOT
HETATM    1  C1  UNL     1      28.036   6.751  -1.062  1.00  0.00     0.069 C 
HETATM    2  C2  UNL     1      27.684   5.363  -0.747  1.00  0.00     0.023 A 
HETATM    3  N1  UNL     1      28.166   4.296  -1.410  1.00  0.00    -0.338 N 
ATOM      4  H1  UNL     1      28.816   4.455  -2.180  1.00  0.00     0.168 HD
HETATM    5  C3  UNL     1      27.829   3.029  -1.104  1.00  0.00     0.163 A 
HETATM    6  N2  UNL     1      26.973   2.788  -0.092  1.00  0.00    -0.320 N 
ATOM      7  H2  UNL     1      26.714   1.830   0.144  1.00  0.00     0.169 HD
HETATM    8  C11 UNL     1      26.454   3.836   0.615  1.00  0.00     0.125 A 
HETATM    9  C12 UNL     1      26.794   5.138   0.307  1.00  0.00     0.050 A 
HETATM   10  C13 UNL     1      26.120   5.941   1.181  1.00  0.00     0.043 A 
HETATM   11  S1  UNL     1      26.229   7.724   1.189  1.00  0.00    -0.050 SA
HETATM   12  C14 UNL     1      25.391   5.111   1.995  1.00  0.00     0.116 A 
HETATM   13  N3  UNL     1      25.587   3.822   1.656  1.00  0.00    -0.311 N 
ENDROOT
BRANCH  13  14
HETATM   14  C15 UNL     1      25.005   2.640   2.265  1.00  0.00     0.261 C 
HETATM   15  O1  UNL     1      25.442   1.529   1.546  1.00  0.00    -0.353 OA
HETATM   16  C16 UNL     1      24.552   0.506   1.769  1.00  0.00     0.186 C 
HETATM   17  C19 UNL     1      23.237   1.100   2.155  1.00  0.00     0.182 C 
HETATM   18  C20 UNL     1      23.502   2.607   2.125  1.00  0.00     0.198 C 
BRANCH  16  19
HETATM   19  C17 UNL     1      24.412  -0.322   0.496  1.00  0.00     0.173 C 
BRANCH  19  20
HETATM   20  O2  UNL     1      25.158   0.329  -0.479  1.00  0.00    -0.391 OA
ATOM     21  H2  UNL     1      25.251  -0.284  -1.199  1.00  0.00     0.210 HD
ENDBRANCH  19  20
BRANCH  19  22
HETATM   22  C18 UNL     1      22.958  -0.345   0.079  1.00  0.00     0.198 C 
BRANCH  22  23
HETATM   23  O3  UNL     1      22.793  -0.023  -1.251  1.00  0.00    -0.398 OA
ATOM     24  H3  UNL     1      21.936  -0.270  -1.577  1.00  0.00     0.209 HD
ENDBRANCH  22  23
ENDBRANCH  19  22
ENDBRANCH  16  19
BRANCH  17  25
HETATM   25  O4  UNL     1      22.944   0.680   3.459  1.00  0.00    -0.390 OA
ATOM     26  H4  UNL     1      22.006   0.762   3.586  1.00  0.00     0.210 HD
ENDBRANCH  17  25
BRANCH  18  27
HETATM   27  O5  UNL     1      22.915   3.135   3.264  1.00  0.00    -0.388 OA
ATOM     28  H5  UNL     1      22.232   3.748   3.017  1.00  0.00     0.210 HD
ENDBRANCH  18  27
ENDBRANCH  13  14
BRANCH   5  29
HETATM   29  C4  UNL     1      28.379   1.911  -1.853  1.00  0.00    -0.030 C 
HETATM   30  C5  UNL     1      28.831   0.994  -2.493  1.00  0.00    -0.098 C 
BRANCH  30  31
HETATM   31  C6  UNL     1      29.365  -0.107  -3.285  1.00  0.00     0.094 C 
BRANCH  31  32
HETATM   32  C7  UNL     1      28.978  -1.451  -2.732  1.00  0.00     0.012 C 
BRANCH  32  33
HETATM   33  C8  UNL     1      30.150  -2.080  -1.985  1.00  0.00     0.002 C 
BRANCH  33  34
HETATM   34  C9  UNL     1      30.210  -1.629  -0.561  1.00  0.00     0.011 C 
BRANCH  34  35
HETATM   35  C10 UNL     1      31.494  -0.898  -0.236  1.00  0.00     0.085 C 
HETATM   36 BR1  UNL     1      31.023   0.789   0.571  1.00  0.00    -0.097 Br
ENDBRANCH  34  35
ENDBRANCH  33  34
ENDBRANCH  32  33
ENDBRANCH  31  32
ENDBRANCH  30  31
ENDBRANCH   5  29
TORSDOF 13
ENDMDL
MODEL 3
REMARK VINA RESULT: -8.038287866      1.758      2.383
REMARK  13 active torsions:
REMARK  status: ('A' for Active; 'I' for Inactive)
REMARK    1  A    between atoms: C3_5  and  C4_6 
REMARK    2  A    between atoms: C5_7  and  C6_8 
REMARK    3  A    between atoms: C6_8  and  C7_9 
REMARK    4  A    between atoms: C7_9  and  C8_10 
REMARK    5  A    between atoms: C8_10  and  C9_11 
REMARK    6  A    between atoms: C9_11  and  C10_12 
REMARK    7  A    between atoms: N3_21  and  C15_22 
REMARK    8  A    between atoms: C16_24  and  C17_25 
REMARK    9  A    between atoms: C17_25  and  O2_26 
REMARK   10  A    between atoms: C17_25  and  C18_28 
REMARK   11  A    between atoms: C18_28  and  O3_29 
REMARK   12  A    between atoms: C19_31  and  O4_32 
REMARK   13  A    between atoms: C20_34  and  O5_35 
ROOT
HETATM    1  C1  UNL     1      28.055   5.721   0.303  1.00  0.00     0.069 C 
HETATM    2  C2  UNL     1      27.689   4.305   0.419  1.00  0.00     0.023 A 
HETATM    3  N1  UNL     1      28.543   3.288   0.212  1.00  0.00    -0.338 N 
ATOM      4  H1  UNL     1      29.507   3.506  -0.042  1.00  0.00     0.168 HD
HETATM    5  C3  UNL     1      28.185   1.994   0.324  1.00  0.00     0.163 A 
HETATM    6  N2  UNL     1      26.920   1.675   0.658  1.00  0.00    -0.320 N 
ATOM      7  H2  UNL     1      26.643   0.697   0.744  1.00  0.00     0.169 HD
HETATM    8  C11 UNL     1      26.011   2.671   0.881  1.00  0.00     0.125 A 
HETATM    9  C12 UNL     1      26.370   3.999   0.767  1.00  0.00     0.050 A 
HETATM   10  C13 UNL     1      25.256   4.736   1.046  1.00  0.00     0.043 A 
HETATM   11  S1  UNL     1      25.208   6.522   1.032  1.00  0.00    -0.050 SA
HETATM   12  C14 UNL     1      24.252   3.842   1.321  1.00  0.00     0.116 A 
HETATM   13  N3  UNL     1      24.703   2.577   1.222  1.00  0.00    -0.311 N 
ENDROOT
BRANCH  13  14
HETATM   14  C15 UNL     1      23.963   1.346   1.433  1.00  0.00     0.261 C 
HETATM   15  O1  UNL     1      24.848   0.397   1.944  1.00  0.00    -0.353 OA
HETATM   16  C16 UNL     1      24.326  -0.847   1.686  1.00  0.00     0.186 C 
HETATM   17  C19 UNL     1      23.410  -0.741   0.510  1.00  0.00     0.182 C 
HETATM   18  C20 UNL     1      23.478   0.742   0.137  1.00  0.00     0.198 C 
BRANCH  16  19
HETATM   19  C17 UNL     1      25.467  -1.815   1.389  1.00  0.00     0.173 C 
BRANCH  19  20
HETATM   20  O2  UNL     1      25.954  -1.473   0.133  1.00  0.00    -0.391 OA
ATOM     21  H2  UNL     1      25.713  -2.183  -0.451  1.00  0.00     0.210 HD
ENDBRANCH  19  20
BRANCH  19  22
HETATM   22  C18 UNL     1      24.920  -3.225   1.343  1.00  0.00     0.198 C 
BRANCH  22  23
HETATM   23  O3  UNL     1      25.453  -3.958   0.305  1.00  0.00    -0.398 OA
ATOM     24  H3  UNL     1      25.000  -3.801  -0.516  1.00  0.00     0.209 HD
ENDBRANCH  22  23
ENDBRANCH  19  22
ENDBRANCH  16  19
BRANCH  17  25
HETATM   25  O4  UNL     1      22.121  -1.079   0.942  1.00  0.00    -0.390 OA
ATOM     26  H4  UNL     1      21.734  -0.305   1.333  1.00  0.00     0.210 HD
ENDBRANCH  17  25
BRANCH  18  27
HETATM   27  O5  UNL     1      22.176   1.149  -0.109  1.00  0.00    -0.388 OA
ATOM     28  H5  UNL     1      22.159   1.732  -0.859  1.00  0.00     0.210 HD
ENDBRANCH  18  27
ENDBRANCH  13  14
BRANCH   5  29
HETATM   29  C4  UNL     1      29.150   0.933   0.089  1.00  0.00    -0.030 C 
HETATM   30  C5  UNL     1      29.941   0.048  -0.124  1.00  0.00    -0.098 C 
BRANCH  30  31
HETATM   31  C6  UNL     1      30.884  -1.030  -0.399  1.00  0.00     0.094 C 
BRANCH  31  32
HETATM   32  C7  UNL     1      30.217  -2.234  -1.005  1.00  0.00     0.012 C 
BRANCH  32  33
HETATM   33  C8  UNL     1      30.355  -2.213  -2.525  1.00  0.00     0.002 C 
BRANCH  33  34
HETATM   34  C9  UNL     1      29.145  -1.634  -3.187  1.00  0.00     0.011 C 
BRANCH  34  35
HETATM   35  C10 UNL     1      29.444  -0.345  -3.919  1.00  0.00     0.085 C 
HETATM   36 BR1  UNL     1      28.102   0.944  -3.414  1.00  0.00    -0.097 Br
ENDBRANCH  34  35
ENDBRANCH  33  34
ENDBRANCH  32  33
ENDBRANCH  31  32
ENDBRANCH  30  31
ENDBRANCH   5  29
TORSDOF 13
ENDMDL
MODEL 4
REMARK VINA RESULT: -8.034549501      2.409      3.376
REMARK  13 active torsions:
REMARK  status: ('A' for Active; 'I' for Inactive)
REMARK    1  A    between atoms: C3_5  and  C4_6 
REMARK    2  A    between atoms: C5_7  and  C6_8 
REMARK    3  A    between atoms: C6_8  and  C7_9 
REMARK    4  A    between atoms: C7_9  and  C8_10 
REMARK    5  A    between atoms: C8_10  and  C9_11 
REMARK    6  A    between atoms: C9_11  and  C10_12 
REMARK    7  A    between atoms: N3_21  and  C15_22 
REMARK    8  A    between atoms: C16_24  and  C17_25 
REMARK    9  A    between atoms: C17_25  and  O2_26 
REMARK   10  A    between atoms: C17_25  and  C18_28 
REMARK   11  A    between atoms: C18_28  and  O3_29 
REMARK   12  A    between atoms: C19_31  and  O4_32 
REMARK   13  A    between atoms: C20_34  and  O5_35 
ROOT
HETATM    1  C1  UNL     1      26.501  10.148   1.109  1.00  0.00     0.069 C 
HETATM    2  C2  UNL     1      26.362   8.703   0.907  1.00  0.00     0.023 A 
HETATM    3  N1  UNL     1      27.105   7.989   0.043  1.00  0.00    -0.338 N 
ATOM      4  H1  UNL     1      27.811   8.475  -0.509  1.00  0.00     0.168 HD
HETATM    5  C3  UNL     1      26.959   6.660  -0.127  1.00  0.00     0.163 A 
HETATM    6  N2  UNL     1      26.036   5.990   0.588  1.00  0.00    -0.320 N 
ATOM      7  H2  UNL     1      25.921   4.984   0.463  1.00  0.00     0.169 HD
HETATM    8  C11 UNL     1      25.253   6.668   1.481  1.00  0.00     0.125 A 
HETATM    9  C12 UNL     1      25.396   8.029   1.661  1.00  0.00     0.050 A 
HETATM   10  C13 UNL     1      24.484   8.402   2.604  1.00  0.00     0.043 A 
HETATM   11  S1  UNL     1      24.275  10.078   3.187  1.00  0.00    -0.050 SA
HETATM   12  C14 UNL     1      23.813   7.263   2.974  1.00  0.00     0.116 A 
HETATM   13  N3  UNL     1      24.275   6.198   2.292  1.00  0.00    -0.311 N 
ENDROOT
BRANCH  13  14
HETATM   14  C15 UNL     1      23.835   4.818   2.388  1.00  0.00     0.261 C 
HETATM   15  O1  UNL     1      24.970   4.010   2.446  1.00  0.00    -0.353 OA
HETATM   16  C16 UNL     1      24.610   2.747   2.043  1.00  0.00     0.186 C 
HETATM   17  C19 UNL     1      23.400   2.856   1.174  1.00  0.00     0.182 C 
HETATM   18  C20 UNL     1      23.116   4.360   1.142  1.00  0.00     0.198 C 
BRANCH  16  19
HETATM   19  C17 UNL     1      25.767   2.119   1.272  1.00  0.00     0.173 C 
BRANCH  19  20
HETATM   20  O2  UNL     1      26.381   3.153   0.576  1.00  0.00    -0.391 OA
ATOM     21  H2  UNL     1      26.068   3.096  -0.320  1.00  0.00     0.210 HD
ENDBRANCH  19  20
BRANCH  19  22
HETATM   22  C18 UNL     1      25.215   1.113   0.285  1.00  0.00     0.198 C 
BRANCH  22  23
HETATM   23  O3  UNL     1      26.196   0.285  -0.217  1.00  0.00    -0.398 OA
ATOM     24  H3  UNL     1      25.896  -0.612  -0.310  1.00  0.00     0.209 HD
ENDBRANCH  22  23
ENDBRANCH  19  22
ENDBRANCH  16  19
BRANCH  17  25
HETATM   25  O4  UNL     1      22.354   2.174   1.810  1.00  0.00    -0.390 OA
ATOM     26  H4  UNL     1      22.670   1.887   2.658  1.00  0.00     0.210 HD
ENDBRANCH  17  25
BRANCH  18  27
HETATM   27  O5  UNL     1      21.749   4.510   1.310  1.00  0.00    -0.388 OA
ATOM     28  H5  UNL     1      21.288   4.041   0.624  1.00  0.00     0.210 HD
ENDBRANCH  18  27
ENDBRANCH  13  14
BRANCH   5  29
HETATM   29  C4  UNL     1      27.790   5.937  -1.075  1.00  0.00    -0.030 C 
HETATM   30  C5  UNL     1      28.475   5.318  -1.852  1.00  0.00    -0.098 C 
BRANCH  30  31
HETATM   31  C6  UNL     1      29.301   4.553  -2.777  1.00  0.00     0.094 C 
BRANCH  31  32
HETATM   32  C7  UNL     1      28.590   3.341  -3.313  1.00  0.00     0.012 C 
BRANCH  32  33
HETATM   33  C8  UNL     1      28.366   2.317  -2.203  1.00  0.00     0.002 C 
BRANCH  33  34
HETATM   34  C9  UNL     1      28.715   0.932  -2.645  1.00  0.00     0.011 C 
BRANCH  34  35
HETATM   35  C10 UNL     1      29.493   0.166  -1.597  1.00  0.00     0.085 C 
HETATM   36 BR1  UNL     1      29.696   1.313  -0.060  1.00  0.00    -0.097 Br
ENDBRANCH  34  35
ENDBRANCH  33  34
ENDBRANCH  32  33
ENDBRANCH  31  32
ENDBRANCH  30  31
ENDBRANCH   5  29
TORSDOF 13
ENDMDL
MODEL 5
REMARK VINA RESULT: -7.991734793      1.392      1.667
REMARK  13 active torsions:
REMARK  status: ('A' for Active; 'I' for Inactive)
REMARK    1  A    between atoms: C3_5  and  C4_6 
REMARK    2  A    between atoms: C5_7  and  C6_8 
REMARK    3  A    between atoms: C6_8  and  C7_9 
REMARK    4  A    between atoms: C7_9  and  C8_10 
REMARK    5  A    between atoms: C8_10  and  C9_11 
REMARK    6  A    between atoms: C9_11  and  C10_12 
REMARK    7  A    between atoms: N3_21  and  C15_22 
REMARK    8  A    between atoms: C16_24  and  C17_25 
REMARK    9  A    between atoms: C17_25  and  O2_26 
REMARK   10  A    between atoms: C17_25  and  C18_28 
REMARK   11  A    between atoms: C18_28  and  O3_29 
REMARK   12  A    between atoms: C19_31  and  O4_32 
REMARK   13  A    between atoms: C20_34  and  O5_35 
ROOT
HETATM    1  C1  UNL     1      28.319   6.162  -0.763  1.00  0.00     0.069 C 
HETATM    2  C2  UNL     1      27.998   4.842  -0.212  1.00  0.00     0.023 A 
HETATM    3  N1  UNL     1      28.766   3.750  -0.377  1.00  0.00    -0.338 N 
ATOM      4  H1  UNL     1      29.626   3.838  -0.917  1.00  0.00     0.168 HD
HETATM    5  C3  UNL     1      28.450   2.547   0.139  1.00  0.00     0.163 A 
HETATM    6  N2  UNL     1      27.321   2.399   0.857  1.00  0.00    -0.320 N 
ATOM      7  H2  UNL     1      27.077   1.490   1.250  1.00  0.00     0.169 HD
HETATM    8  C11 UNL     1      26.504   3.477   1.056  1.00  0.00     0.125 A 
HETATM    9  C12 UNL     1      26.819   4.714   0.531  1.00  0.00     0.050 A 
HETATM   10  C13 UNL     1      25.820   5.567   0.898  1.00  0.00     0.043 A 
HETATM   11  S1  UNL     1      25.770   7.298   0.458  1.00  0.00    -0.050 SA
HETATM   12  C14 UNL     1      24.926   4.831   1.635  1.00  0.00     0.116 A 
HETATM   13  N3  UNL     1      25.335   3.552   1.737  1.00  0.00    -0.311 N 
ENDROOT
BRANCH  13  14
HETATM   14  C15 UNL     1      24.678   2.457   2.428  1.00  0.00     0.261 C 
HETATM   15  O1  UNL     1      24.939   1.286   1.718  1.00  0.00    -0.353 OA
HETATM   16  C16 UNL     1      23.965   0.372   2.042  1.00  0.00     0.186 C 
HETATM   17  C19 UNL     1      22.754   1.115   2.502  1.00  0.00     0.182 C 
HETATM   18  C20 UNL     1      23.174   2.583   2.400  1.00  0.00     0.198 C 
BRANCH  16  19
HETATM   19  C17 UNL     1      23.641  -0.471   0.813  1.00  0.00     0.173 C 
BRANCH  19  20
HETATM   20  O2  UNL     1      24.825  -0.587   0.095  1.00  0.00    -0.391 OA
ATOM     21  H2  UNL     1      25.457  -0.986   0.682  1.00  0.00     0.210 HD
ENDBRANCH  19  20
BRANCH  19  22
HETATM   22  C18 UNL     1      22.617   0.258  -0.030  1.00  0.00     0.198 C 
BRANCH  22  23
HETATM   23  O3  UNL     1      22.731  -0.050  -1.368  1.00  0.00    -0.398 OA
ATOM     24  H3  UNL     1      22.034  -0.623  -1.666  1.00  0.00     0.209 HD
ENDBRANCH  22  23
ENDBRANCH  19  22
ENDBRANCH  16  19
BRANCH  17  25
HETATM   25  O4  UNL     1      22.519   0.765   3.838  1.00  0.00    -0.390 OA
ATOM     26  H4  UNL     1      21.974   1.442   4.223  1.00  0.00     0.210 HD
ENDBRANCH  17  25
BRANCH  18  27
HETATM   27  O5  UNL     1      22.736   3.203   3.558  1.00  0.00    -0.388 OA
ATOM     28  H5  UNL     1      23.470   3.338   4.147  1.00  0.00     0.210 HD
ENDBRANCH  18  27
ENDBRANCH  13  14
BRANCH   5  29
HETATM   29  C4  UNL     1      29.318   1.399  -0.069  1.00  0.00    -0.030 C 
HETATM   30  C5  UNL     1      30.043   0.447  -0.222  1.00  0.00    -0.098 C 
BRANCH  30  31
HETATM   31  C6  UNL     1      30.928  -0.700  -0.386  1.00  0.00     0.094 C 
BRANCH  31  32
HETATM   32  C7  UNL     1      30.191  -1.935  -0.823  1.00  0.00     0.012 C 
BRANCH  32  33
HETATM   33  C8  UNL     1      30.335  -2.140  -2.329  1.00  0.00     0.002 C 
BRANCH  33  34
HETATM   34  C9  UNL     1      29.154  -1.611  -3.078  1.00  0.00     0.011 C 
BRANCH  34  35
HETATM   35  C10 UNL     1      29.472  -0.348  -3.848  1.00  0.00     0.085 C 
HETATM   36 BR1  UNL     1      28.074   0.930  -3.488  1.00  0.00    -0.097 Br
ENDBRANCH  34  35
ENDBRANCH  33  34
ENDBRANCH  32  33
ENDBRANCH  31  32
ENDBRANCH  30  31
ENDBRANCH   5  29
TORSDOF 13
ENDMDL
