MODEL 1
REMARK VINA RESULT: -8.506986007      0.000      0.000
REMARK  12 active torsions:
REMARK  status: ('A' for Active; 'I' for Inactive)
REMARK    1  A    between atoms: C4_4  and  C5_5 
REMARK    2  A    between atoms: C5_5  and  O2_7 
REMARK    3  A    between atoms: O2_7  and  C6_8 
REMARK    4  A    between atoms: C6_8  and  C21_28 
REMARK    5  A    between atoms: C7_9  and  C8_10 
REMARK    6  A    between atoms: C9_11  and  C10_12 
REMARK    7  A    between atoms: C11_13  and  O3_14 
REMARK    8  A    between atoms: C14_18  and  O4_19 
REMARK    9  A    between atoms: C18_24  and  C19_25 
REMARK   10  A    between atoms: C21_28  and  C22_29 
REMARK   11  A    between atoms: C22_29  and  C23_31 
REMARK   12  A    between atoms: C23_31  and  C24_32 
ROOT
HETATM    1  C8  UNL     1      18.264  15.707   6.297  1.00  0.00    -0.001 C 
HETATM    2  C9  UNL     1      17.155  14.986   6.301  1.00  0.00    -0.019 C 
ENDROOT
BRANCH   1   3
HETATM    3  C7  UNL     1      18.432  16.984   6.926  1.00  0.00     0.033 C 
HETATM    4  C6  UNL     1      19.381  17.336   7.761  1.00  0.00     0.059 C 
BRANCH   4   5
HETATM    5  O2  UNL     1      19.394  18.654   8.292  1.00  0.00    -0.280 OA
BRANCH   5   6
HETATM    6  C5  UNL     1      20.628  19.332   8.234  1.00  0.00     0.288 C 
HETATM    7  O1  UNL     1      20.963  19.945   9.278  1.00  0.00    -0.260 OA
BRANCH   6   8
HETATM    8  C4  UNL     1      21.411  19.284   7.020  1.00  0.00     0.084 C 
HETATM    9  C2  UNL     1      21.100  20.004   5.975  1.00  0.00    -0.082 C 
HETATM   10  C1  UNL     1      21.939  19.925   4.736  1.00  0.00     0.043 C 
HETATM   11  C3  UNL     1      19.936  20.905   5.975  1.00  0.00     0.043 C 
ENDBRANCH   6   8
ENDBRANCH   5   6
ENDBRANCH   4   5
BRANCH   4  12
HETATM   12  C21 UNL     1      20.445  16.420   8.186  1.00  0.00     0.102 C 
BRANCH  12  13
HETATM   13  C22 UNL     1      20.312  15.890   9.580  1.00  0.00     0.186 C 
HETATM   14  F1  UNL     1      21.009  16.784  10.404  1.00  0.00    -0.248 F 
BRANCH  13  15
HETATM   15  C23 UNL     1      20.853  14.530   9.764  1.00  0.00     0.150 C 
BRANCH  15  16
HETATM   16  C24 UNL     1      19.847  13.481   9.751  1.00  0.00     0.175 C 
HETATM   17  O5  UNL     1      19.502  12.819  10.745  1.00  0.00    -0.648 OA
HETATM   18  O6  UNL     1      19.193  13.162   8.541  1.00  0.00    -0.648 OA
ENDBRANCH  15  16
ENDBRANCH  13  15
ENDBRANCH  12  13
ENDBRANCH   4  12
ENDBRANCH   1   3
BRANCH   2  19
HETATM   19  C10 UNL     1      15.884  15.327   6.935  1.00  0.00     0.047 C 
HETATM   20  C11 UNL     1      15.304  14.027   7.528  1.00  0.00     0.131 C 
HETATM   21  C12 UNL     1      14.072  14.306   8.328  1.00  0.00     0.028 C 
HETATM   22  C13 UNL     1      12.942  13.330   8.222  1.00  0.00     0.040 C 
HETATM   23  C15 UNL     1      13.222  15.271   7.501  1.00  0.00    -0.007 C 
HETATM   24  C14 UNL     1      12.025  14.535   7.952  1.00  0.00     0.127 C 
HETATM   25  C16 UNL     1      13.437  16.669   7.909  1.00  0.00     0.013 C 
HETATM   26  C20 UNL     1      13.603  15.176   6.062  1.00  0.00     0.024 C 
HETATM   27  C17 UNL     1      14.314  17.258   6.793  1.00  0.00     0.012 C 
HETATM   28  C18 UNL     1      14.886  16.025   6.075  1.00  0.00    -0.018 C 
BRANCH  20  29
HETATM   29  O3  UNL     1      16.292  13.597   8.446  1.00  0.00    -0.394 OA
ATOM     30  H3  UNL     1      16.877  14.342   8.520  1.00  0.00     0.210 HD
ENDBRANCH  20  29
BRANCH  24  31
HETATM   31  O4  UNL     1      11.423  14.976   9.108  1.00  0.00    -0.395 OA
ATOM     32  H4  UNL     1      11.596  15.897   9.260  1.00  0.00     0.210 HD
ENDBRANCH  24  31
BRANCH  28  33
HETATM   33  C19 UNL     1      15.312  16.347   4.690  1.00  0.00     0.124 C 
HETATM   34 CL1  UNL     1      15.612  18.072   4.435  1.00  0.00    -0.130 Cl
ENDBRANCH  28  33
ENDBRANCH   2  19
TORSDOF 12
ENDMDL
MODEL 2
REMARK VINA RESULT: -8.457978721      2.717      3.628
REMARK  12 active torsions:
REMARK  status: ('A' for Active; 'I' for Inactive)
REMARK    1  A    between atoms: C4_4  and  C5_5 
REMARK    2  A    between atoms: C5_5  and  O2_7 
REMARK    3  A    between atoms: O2_7  and  C6_8 
REMARK    4  A    between atoms: C6_8  and  C21_28 
REMARK    5  A    between atoms: C7_9  and  C8_10 
REMARK    6  A    between atoms: C9_11  and  C10_12 
REMARK    7  A    between atoms: C11_13  and  O3_14 
REMARK    8  A    between atoms: C14_18  and  O4_19 
REMARK    9  A    between atoms: C18_24  and  C19_25 
REMARK   10  A    between atoms: C21_28  and  C22_29 
REMARK   11  A    between atoms: C22_29  and  C23_31 
REMARK   12  A    between atoms: C23_31  and  C24_32 
ROOT
HETATM    1  C8  UNL     1      16.855  18.552   7.507  1.00  0.00    -0.001 C 
HETATM    2  C9  UNL     1      15.594  18.171   7.393  1.00  0.00    -0.019 C 
ENDROOT
BRANCH   1   3
HETATM    3  C7  UNL     1      17.882  18.338   6.530  1.00  0.00     0.033 C 
HETATM    4  C6  UNL     1      18.859  17.462   6.588  1.00  0.00     0.059 C 
BRANCH   4   5
HETATM    5  O2  UNL     1      19.795  17.386   5.522  1.00  0.00    -0.280 OA
BRANCH   5   6
HETATM    6  C5  UNL     1      21.064  17.945   5.773  1.00  0.00     0.288 C 
HETATM    7  O1  UNL     1      21.976  17.125   6.045  1.00  0.00    -0.260 OA
BRANCH   6   8
HETATM    8  C4  UNL     1      21.238  19.378   5.704  1.00  0.00     0.084 C 
HETATM    9  C2  UNL     1      21.288  20.114   6.782  1.00  0.00    -0.082 C 
HETATM   10  C1  UNL     1      21.470  21.597   6.666  1.00  0.00     0.043 C 
HETATM   11  C3  UNL     1      21.172  19.527   8.127  1.00  0.00     0.043 C 
ENDBRANCH   6   8
ENDBRANCH   5   6
ENDBRANCH   4   5
BRANCH   4  12
HETATM   12  C21 UNL     1      19.039  16.548   7.720  1.00  0.00     0.102 C 
BRANCH  12  13
HETATM   13  C22 UNL     1      19.213  15.107   7.356  1.00  0.00     0.186 C 
HETATM   14  F1  UNL     1      18.176  14.803   6.464  1.00  0.00    -0.248 F 
BRANCH  13  15
HETATM   15  C23 UNL     1      19.158  14.182   8.504  1.00  0.00     0.150 C 
BRANCH  15  16
HETATM   16  C24 UNL     1      20.327  14.232   9.367  1.00  0.00     0.175 C 
HETATM   17  O5  UNL     1      21.326  13.501   9.250  1.00  0.00    -0.648 OA
HETATM   18  O6  UNL     1      20.368  15.166  10.426  1.00  0.00    -0.648 OA
ENDBRANCH  15  16
ENDBRANCH  13  15
ENDBRANCH  12  13
ENDBRANCH   4  12
ENDBRANCH   1   3
BRANCH   2  19
HETATM   19  C10 UNL     1      14.984  17.462   6.271  1.00  0.00     0.047 C 
HETATM   20  C11 UNL     1      13.876  18.372   5.701  1.00  0.00     0.131 C 
HETATM   21  C12 UNL     1      13.295  17.790   4.453  1.00  0.00     0.028 C 
HETATM   22  C13 UNL     1      11.816  17.912   4.255  1.00  0.00     0.040 C 
HETATM   23  C15 UNL     1      13.063  16.304   4.728  1.00  0.00    -0.007 C 
HETATM   24  C14 UNL     1      11.806  16.402   3.963  1.00  0.00     0.127 C 
HETATM   25  C16 UNL     1      14.178  15.481   4.232  1.00  0.00     0.013 C 
HETATM   26  C20 UNL     1      12.973  16.070   6.198  1.00  0.00     0.024 C 
HETATM   27  C17 UNL     1      14.955  15.092   5.499  1.00  0.00     0.012 C 
HETATM   28  C18 UNL     1      14.469  16.094   6.559  1.00  0.00    -0.018 C 
BRANCH  20  29
HETATM   29  O3  UNL     1      14.562  19.549   5.316  1.00  0.00    -0.394 OA
ATOM     30  H3  UNL     1      13.888  20.218   5.312  1.00  0.00     0.210 HD
ENDBRANCH  20  29
BRANCH  24  31
HETATM   31  O4  UNL     1      11.879  16.153   2.611  1.00  0.00    -0.395 OA
ATOM     32  H4  UNL     1      11.958  15.223   2.435  1.00  0.00     0.210 HD
ENDBRANCH  24  31
BRANCH  28  33
HETATM   33  C19 UNL     1      14.681  15.579   7.936  1.00  0.00     0.124 C 
HETATM   34 CL1  UNL     1      15.435  13.979   7.974  1.00  0.00    -0.130 Cl
ENDBRANCH  28  33
ENDBRANCH   2  19
TORSDOF 12
ENDMDL
MODEL 3
REMARK VINA RESULT: -8.179917519      1.369      1.507
REMARK  12 active torsions:
REMARK  status: ('A' for Active; 'I' for Inactive)
REMARK    1  A    between atoms: C4_4  and  C5_5 
REMARK    2  A    between atoms: C5_5  and  O2_7 
REMARK    3  A    between atoms: O2_7  and  C6_8 
REMARK    4  A    between atoms: C6_8  and  C21_28 
REMARK    5  A    between atoms: C7_9  and  C8_10 
REMARK    6  A    between atoms: C9_11  and  C10_12 
REMARK    7  A    between atoms: C11_13  and  O3_14 
REMARK    8  A    between atoms: C14_18  and  O4_19 
REMARK    9  A    between atoms: C18_24  and  C19_25 
REMARK   10  A    between atoms: C21_28  and  C22_29 
REMARK   11  A    between atoms: C22_29  and  C23_31 
REMARK   12  A    between atoms: C23_31  and  C24_32 
ROOT
HETATM    1  C8  UNL     1      18.130  14.556   6.485  1.00  0.00    -0.001 C 
HETATM    2  C9  UNL     1      16.950  13.961   6.478  1.00  0.00    -0.019 C 
ENDROOT
BRANCH   1   3
HETATM    3  C7  UNL     1      18.434  15.799   7.132  1.00  0.00     0.033 C 
HETATM    4  C6  UNL     1      19.381  16.021   8.013  1.00  0.00     0.059 C 
BRANCH   4   5
HETATM    5  O2  UNL     1      19.541  17.326   8.554  1.00  0.00    -0.280 OA
BRANCH   5   6
HETATM    6  C5  UNL     1      20.042  18.304   7.671  1.00  0.00     0.288 C 
HETATM    7  O1  UNL     1      19.438  19.406   7.680  1.00  0.00    -0.260 OA
BRANCH   6   8
HETATM    8  C4  UNL     1      21.181  17.995   6.837  1.00  0.00     0.084 C 
HETATM    9  C2  UNL     1      21.076  17.913   5.537  1.00  0.00    -0.082 C 
HETATM   10  C1  UNL     1      22.283  17.591   4.710  1.00  0.00     0.043 C 
HETATM   11  C3  UNL     1      19.794  18.131   4.849  1.00  0.00     0.043 C 
ENDBRANCH   6   8
ENDBRANCH   5   6
ENDBRANCH   4   5
BRANCH   4  12
HETATM   12  C21 UNL     1      20.294  14.973   8.480  1.00  0.00     0.102 C 
BRANCH  12  13
HETATM   13  C22 UNL     1      19.814  14.187   9.659  1.00  0.00     0.186 C 
HETATM   14  F1  UNL     1      20.506  14.688  10.769  1.00  0.00    -0.248 F 
BRANCH  13  15
HETATM   15  C23 UNL     1      20.045  12.734   9.553  1.00  0.00     0.150 C 
BRANCH  15  16
HETATM   16  C24 UNL     1      18.838  11.929   9.645  1.00  0.00     0.175 C 
HETATM   17  O5  UNL     1      17.733  12.350  10.028  1.00  0.00    -0.648 OA
HETATM   18  O6  UNL     1      18.884  10.565   9.281  1.00  0.00    -0.648 OA
ENDBRANCH  15  16
ENDBRANCH  13  15
ENDBRANCH  12  13
ENDBRANCH   4  12
ENDBRANCH   1   3
BRANCH   2  19
HETATM   19  C10 UNL     1      15.721  14.430   7.114  1.00  0.00     0.047 C 
HETATM   20  C11 UNL     1      14.861  13.187   7.421  1.00  0.00     0.131 C 
HETATM   21  C12 UNL     1      13.647  13.559   8.210  1.00  0.00     0.028 C 
HETATM   22  C13 UNL     1      12.363  12.865   7.873  1.00  0.00     0.040 C 
HETATM   23  C15 UNL     1      13.061  14.808   7.552  1.00  0.00    -0.007 C 
HETATM   24  C14 UNL     1      11.716  14.259   7.804  1.00  0.00     0.127 C 
HETATM   25  C16 UNL     1      13.506  16.036   8.230  1.00  0.00     0.013 C 
HETATM   26  C20 UNL     1      13.528  14.901   6.138  1.00  0.00     0.024 C 
HETATM   27  C17 UNL     1      14.562  16.630   7.285  1.00  0.00     0.012 C 
HETATM   28  C18 UNL     1      14.944  15.458   6.366  1.00  0.00    -0.018 C 
BRANCH  20  29
HETATM   29  O3  UNL     1      15.676  12.408   8.278  1.00  0.00    -0.394 OA
ATOM     30  H3  UNL     1      15.141  12.284   9.053  1.00  0.00     0.210 HD
ENDBRANCH  20  29
BRANCH  24  31
HETATM   31  O4  UNL     1      11.120  14.594   8.999  1.00  0.00    -0.395 OA
ATOM     32  H4  UNL     1      10.959  13.826   9.533  1.00  0.00     0.210 HD
ENDBRANCH  24  31
BRANCH  28  33
HETATM   33  C19 UNL     1      15.529  15.933   5.087  1.00  0.00     0.124 C 
HETATM   34 CL1  UNL     1      15.973  17.646   5.117  1.00  0.00    -0.130 Cl
ENDBRANCH  28  33
ENDBRANCH   2  19
TORSDOF 12
ENDMDL
MODEL 4
REMARK VINA RESULT: -8.128259006      2.969      5.301
REMARK  12 active torsions:
REMARK  status: ('A' for Active; 'I' for Inactive)
REMARK    1  A    between atoms: C4_4  and  C5_5 
REMARK    2  A    between atoms: C5_5  and  O2_7 
REMARK    3  A    between atoms: O2_7  and  C6_8 
REMARK    4  A    between atoms: C6_8  and  C21_28 
REMARK    5  A    between atoms: C7_9  and  C8_10 
REMARK    6  A    between atoms: C9_11  and  C10_12 
REMARK    7  A    between atoms: C11_13  and  O3_14 
REMARK    8  A    between atoms: C14_18  and  O4_19 
REMARK    9  A    between atoms: C18_24  and  C19_25 
REMARK   10  A    between atoms: C21_28  and  C22_29 
REMARK   11  A    between atoms: C22_29  and  C23_31 
REMARK   12  A    between atoms: C23_31  and  C24_32 
ROOT
HETATM    1  C8  UNL     1      16.291  18.366   7.641  1.00  0.00    -0.001 C 
HETATM    2  C9  UNL     1      15.011  18.436   7.318  1.00  0.00    -0.019 C 
ENDROOT
BRANCH   1   3
HETATM    3  C7  UNL     1      17.288  17.609   6.942  1.00  0.00     0.033 C 
HETATM    4  C6  UNL     1      18.547  17.934   6.763  1.00  0.00     0.059 C 
BRANCH   4   5
HETATM    5  O2  UNL     1      19.400  17.057   6.041  1.00  0.00    -0.280 OA
BRANCH   5   6
HETATM    6  C5  UNL     1      20.492  16.528   6.757  1.00  0.00     0.288 C 
HETATM    7  O1  UNL     1      21.616  17.016   6.477  1.00  0.00    -0.260 OA
BRANCH   6   8
HETATM    8  C4  UNL     1      20.265  15.492   7.740  1.00  0.00     0.084 C 
HETATM    9  C2  UNL     1      20.446  15.707   9.016  1.00  0.00    -0.082 C 
HETATM   10  C1  UNL     1      20.199  14.605  10.001  1.00  0.00     0.043 C 
HETATM   11  C3  UNL     1      20.889  17.015   9.525  1.00  0.00     0.043 C 
ENDBRANCH   6   8
ENDBRANCH   5   6
ENDBRANCH   4   5
BRANCH   4  12
HETATM   12  C21 UNL     1      19.126  19.181   7.275  1.00  0.00     0.102 C 
BRANCH  12  13
HETATM   13  C22 UNL     1      19.541  20.168   6.229  1.00  0.00     0.186 C 
HETATM   14  F1  UNL     1      19.066  19.667   5.010  1.00  0.00    -0.248 F 
BRANCH  13  15
HETATM   15  C23 UNL     1      20.999  20.376   6.139  1.00  0.00     0.150 C 
BRANCH  15  16
HETATM   16  C24 UNL     1      21.557  21.169   7.222  1.00  0.00     0.175 C 
HETATM   17  O5  UNL     1      21.749  20.753   8.378  1.00  0.00    -0.648 OA
HETATM   18  O6  UNL     1      21.918  22.513   6.984  1.00  0.00    -0.648 OA
ENDBRANCH  15  16
ENDBRANCH  13  15
ENDBRANCH  12  13
ENDBRANCH   4  12
ENDBRANCH   1   3
BRANCH   2  19
HETATM   19  C10 UNL     1      14.345  17.771   6.201  1.00  0.00     0.047 C 
HETATM   20  C11 UNL     1      13.495  18.833   5.474  1.00  0.00     0.131 C 
HETATM   21  C12 UNL     1      12.893  18.274   4.225  1.00  0.00     0.028 C 
HETATM   22  C13 UNL     1      11.490  18.677   3.893  1.00  0.00     0.040 C 
HETATM   23  C15 UNL     1      12.336  16.897   4.585  1.00  0.00    -0.007 C 
HETATM   24  C14 UNL     1      11.184  17.181   3.709  1.00  0.00     0.127 C 
HETATM   25  C16 UNL     1      13.284  15.823   4.247  1.00  0.00     0.013 C 
HETATM   26  C20 UNL     1      12.097  16.816   6.055  1.00  0.00     0.024 C 
HETATM   27  C17 UNL     1      13.873  15.397   5.601  1.00  0.00     0.012 C 
HETATM   28  C18 UNL     1      13.535  16.567   6.541  1.00  0.00    -0.018 C 
BRANCH  20  29
HETATM   29  O3  UNL     1      14.438  19.807   5.067  1.00  0.00    -0.394 OA
ATOM     30  H3  UNL     1      14.399  19.783   4.118  1.00  0.00     0.210 HD
ENDBRANCH  20  29
BRANCH  24  31
HETATM   31  O4  UNL     1      11.296  16.804   2.390  1.00  0.00    -0.395 OA
ATOM     32  H4  UNL     1      10.823  17.398   1.819  1.00  0.00     0.210 HD
ENDBRANCH  24  31
BRANCH  28  33
HETATM   33  C19 UNL     1      13.539  16.142   7.964  1.00  0.00     0.124 C 
HETATM   34 CL1  UNL     1      14.451  14.653   8.246  1.00  0.00    -0.130 Cl
ENDBRANCH  28  33
ENDBRANCH   2  19
TORSDOF 12
ENDMDL
MODEL 5
REMARK VINA RESULT: -8.107077067      2.971      5.307
REMARK  12 active torsions:
REMARK  status: ('A' for Active; 'I' for Inactive)
REMARK    1  A    between atoms: C4_4  and  C5_5 
REMARK    2  A    between atoms: C5_5  and  O2_7 
REMARK    3  A    between atoms: O2_7  and  C6_8 
REMARK    4  A    between atoms: C6_8  and  C21_28 
REMARK    5  A    between atoms: C7_9  and  C8_10 
REMARK    6  A    between atoms: C9_11  and  C10_12 
REMARK    7  A    between atoms: C11_13  and  O3_14 
REMARK    8  A    between atoms: C14_18  and  O4_19 
REMARK    9  A    between atoms: C18_24  and  C19_25 
REMARK   10  A    between atoms: C21_28  and  C22_29 
REMARK   11  A    between atoms: C22_29  and  C23_31 
REMARK   12  A    between atoms: C23_31  and  C24_32 
ROOT
HETATM    1  C8  UNL     1      16.591  18.512   7.595  1.00  0.00    -0.001 C 
HETATM    2  C9  UNL     1      15.300  18.300   7.404  1.00  0.00    -0.019 C 
ENDROOT
BRANCH   1   3
HETATM    3  C7  UNL     1      17.648  18.048   6.746  1.00  0.00     0.033 C 
HETATM    4  C6  UNL     1      18.923  18.349   6.833  1.00  0.00     0.059 C 
BRANCH   4   5
HETATM    5  O2  UNL     1      19.838  17.792   5.900  1.00  0.00    -0.280 OA
BRANCH   5   6
HETATM    6  C5  UNL     1      20.591  16.691   6.354  1.00  0.00     0.288 C 
HETATM    7  O1  UNL     1      21.837  16.791   6.222  1.00  0.00    -0.260 OA
BRANCH   6   8
HETATM    8  C4  UNL     1      19.912  15.551   6.927  1.00  0.00     0.084 C 
HETATM    9  C2  UNL     1      19.979  15.285   8.205  1.00  0.00    -0.082 C 
HETATM   10  C1  UNL     1      19.259  14.093   8.758  1.00  0.00     0.043 C 
HETATM   11  C3  UNL     1      20.747  16.131   9.132  1.00  0.00     0.043 C 
ENDBRANCH   6   8
ENDBRANCH   5   6
ENDBRANCH   4   5
BRANCH   4  12
HETATM   12  C21 UNL     1      19.458  19.250   7.859  1.00  0.00     0.102 C 
BRANCH  12  13
HETATM   13  C22 UNL     1      20.779  19.874   7.534  1.00  0.00     0.186 C 
HETATM   14  F1  UNL     1      21.392  20.148   8.764  1.00  0.00    -0.248 F 
BRANCH  13  15
HETATM   15  C23 UNL     1      20.684  21.117   6.747  1.00  0.00     0.150 C 
BRANCH  15  16
HETATM   16  C24 UNL     1      21.865  21.962   6.820  1.00  0.00     0.175 C 
HETATM   17  O5  UNL     1      23.005  21.618   6.464  1.00  0.00    -0.648 OA
HETATM   18  O6  UNL     1      21.747  23.276   7.326  1.00  0.00    -0.648 OA
ENDBRANCH  15  16
ENDBRANCH  13  15
ENDBRANCH  12  13
ENDBRANCH   4  12
ENDBRANCH   1   3
BRANCH   2  19
HETATM   19  C10 UNL     1      14.680  17.560   6.307  1.00  0.00     0.047 C 
HETATM   20  C11 UNL     1      13.698  18.519   5.603  1.00  0.00     0.131 C 
HETATM   21  C12 UNL     1      13.127  17.892   4.373  1.00  0.00     0.028 C 
HETATM   22  C13 UNL     1      11.679  18.135   4.080  1.00  0.00     0.040 C 
HETATM   23  C15 UNL     1      12.736  16.462   4.749  1.00  0.00    -0.007 C 
HETATM   24  C14 UNL     1      11.535  16.614   3.906  1.00  0.00     0.127 C 
HETATM   25  C16 UNL     1      13.788  15.499   4.385  1.00  0.00     0.013 C 
HETATM   26  C20 UNL     1      12.549  16.362   6.225  1.00  0.00     0.024 C 
HETATM   27  C17 UNL     1      14.458  15.147   5.723  1.00  0.00     0.012 C 
HETATM   28  C18 UNL     1      14.019  16.275   6.670  1.00  0.00    -0.018 C 
BRANCH  20  29
HETATM   29  O3  UNL     1      14.516  19.590   5.168  1.00  0.00    -0.394 OA
ATOM     30  H3  UNL     1      15.316  19.487   5.670  1.00  0.00     0.210 HD
ENDBRANCH  20  29
BRANCH  24  31
HETATM   31  O4  UNL     1      11.652  16.247   2.585  1.00  0.00    -0.395 OA
ATOM     32  H4  UNL     1      11.289  15.382   2.433  1.00  0.00     0.210 HD
ENDBRANCH  24  31
BRANCH  28  33
HETATM   33  C19 UNL     1      14.110  15.860   8.093  1.00  0.00     0.124 C 
HETATM   34 CL1  UNL     1      14.251  14.109   8.302  1.00  0.00    -0.130 Cl
ENDBRANCH  28  33
ENDBRANCH   2  19
TORSDOF 12
ENDMDL
