MODEL 1
REMARK VINA RESULT: -8.865868949      0.000      0.000
REMARK  7 active torsions:
REMARK  status: ('A' for Active; 'I' for Inactive)
REMARK    1  A    between atoms: C7_7  and  C8_8 
REMARK    2  A    between atoms: C8_8  and  C9_9 
REMARK    3  A    between atoms: C11_11  and  C12_12 
REMARK    4  A    between atoms: C13_15  and  C14_16 
REMARK    5  A    between atoms: C15_20  and  C16_21 
REMARK    6  A    between atoms: C17_23  and  C18_24 
REMARK    7  A    between atoms: C21_29  and  C22_30 
ROOT
HETATM    1  C9  UNL     1      16.736  15.094   6.499  1.00  0.00     0.109 C 
HETATM    2  C10 UNL     1      15.869  14.760   7.699  1.00  0.00     0.047 C 
HETATM    3  C11 UNL     1      14.814  15.793   7.784  1.00  0.00     0.120 C 
HETATM    4  C13 UNL     1      15.106  16.687   6.548  1.00  0.00     0.188 C 
HETATM    5  N2  UNL     1      16.416  16.480   6.246  1.00  0.00    -0.367 N 
HETATM    6  C15 UNL     1      17.161  17.120   5.316  1.00  0.00     0.107 C 
ENDROOT
BRANCH   1   7
HETATM    7  C8  UNL     1      18.165  14.823   6.674  1.00  0.00     0.001 C 
BRANCH   7   8
HETATM    8  C7  UNL     1      18.906  14.928   7.917  1.00  0.00    -0.078 C 
HETATM    9  C2  UNL     1      19.723  16.240   7.929  1.00  0.00     0.010 C 
HETATM   10  C1  UNL     1      20.778  16.247   6.886  1.00  0.00     0.015 C 
HETATM   11  C3  UNL     1      20.252  16.437   9.327  1.00  0.00     0.009 C 
HETATM   12  C4  UNL     1      21.149  15.330   9.748  1.00  0.00     0.001 C 
HETATM   13  C5  UNL     1      20.850  13.985   9.186  1.00  0.00     0.004 C 
HETATM   14  C6  UNL     1      19.438  13.829   8.687  1.00  0.00     0.034 C 
ENDBRANCH   7   8
ENDBRANCH   1   7
BRANCH   4  15
HETATM   15  C14 UNL     1      14.698  18.042   7.054  1.00  0.00     0.255 C 
HETATM   16  N1  UNL     1      13.473  18.612   6.659  1.00  0.00    -0.060 NA
HETATM   17  O3  UNL     1      15.457  18.606   7.812  1.00  0.00    -0.275 OA
ENDBRANCH   4  15
BRANCH   6  18
HETATM   18  C16 UNL     1      16.925  18.549   4.959  1.00  0.00     0.037 A 
HETATM   19  S1  UNL     1      15.687  19.207   4.013  1.00  0.00    -0.086 SA
HETATM   20  C17 UNL     1      16.328  20.805   3.753  1.00  0.00     0.055 A 
HETATM   21  C20 UNL     1      17.523  20.729   4.440  1.00  0.00     0.040 A 
HETATM   22  C21 UNL     1      17.822  19.580   5.059  1.00  0.00     0.060 A 
BRANCH  20  23
HETATM   23  C18 UNL     1      15.682  21.896   2.985  1.00  0.00     0.273 C 
HETATM   24  C19 UNL     1      15.629  23.204   3.730  1.00  0.00     0.096 C 
HETATM   25  F1  UNL     1      14.407  21.518   2.593  1.00  0.00    -0.201 F 
HETATM   26  F2  UNL     1      16.396  22.021   1.799  1.00  0.00    -0.201 F 
ENDBRANCH  20  23
BRANCH  22  27
HETATM   27  C22 UNL     1      19.024  19.425   5.928  1.00  0.00     0.210 C 
HETATM   28  O4  UNL     1      19.134  19.518   7.112  1.00  0.00    -0.644 OA
HETATM   29  O5  UNL     1      20.216  19.139   5.226  1.00  0.00    -0.644 OA
ENDBRANCH  22  27
ENDBRANCH   6  18
BRANCH   3  30
HETATM   30  C12 UNL     1      13.460  15.336   7.887  1.00  0.00     0.179 C 
HETATM   31  O1  UNL     1      12.924  15.163   8.972  1.00  0.00    -0.648 OA
HETATM   32  O2  UNL     1      12.730  15.094   6.746  1.00  0.00    -0.648 OA
ENDBRANCH   3  30
TORSDOF 7
ENDMDL
MODEL 2
REMARK VINA RESULT: -8.484620154      3.037      4.370
REMARK  7 active torsions:
REMARK  status: ('A' for Active; 'I' for Inactive)
REMARK    1  A    between atoms: C7_7  and  C8_8 
REMARK    2  A    between atoms: C8_8  and  C9_9 
REMARK    3  A    between atoms: C11_11  and  C12_12 
REMARK    4  A    between atoms: C13_15  and  C14_16 
REMARK    5  A    between atoms: C15_20  and  C16_21 
REMARK    6  A    between atoms: C17_23  and  C18_24 
REMARK    7  A    between atoms: C21_29  and  C22_30 
ROOT
HETATM    1  C9  UNL     1      18.251  14.261   6.929  1.00  0.00     0.109 C 
HETATM    2  C10 UNL     1      18.267  13.536   8.262  1.00  0.00     0.047 C 
HETATM    3  C11 UNL     1      16.870  13.162   8.578  1.00  0.00     0.120 C 
HETATM    4  C13 UNL     1      16.088  13.668   7.336  1.00  0.00     0.188 C 
HETATM    5  N2  UNL     1      16.864  14.639   6.784  1.00  0.00    -0.367 N 
HETATM    6  C15 UNL     1      16.558  15.452   5.748  1.00  0.00     0.107 C 
ENDROOT
BRANCH   1   7
HETATM    7  C8  UNL     1      19.199  15.373   6.819  1.00  0.00     0.001 C 
BRANCH   7   8
HETATM    8  C7  UNL     1      19.380  16.436   7.790  1.00  0.00    -0.078 C 
HETATM    9  C2  UNL     1      19.227  17.809   7.097  1.00  0.00     0.010 C 
HETATM   10  C1  UNL     1      20.301  18.051   6.101  1.00  0.00     0.015 C 
HETATM   11  C3  UNL     1      19.153  18.860   8.175  1.00  0.00     0.009 C 
HETATM   12  C4  UNL     1      20.383  18.897   9.008  1.00  0.00     0.001 C 
HETATM   13  C5  UNL     1      21.094  17.603   9.197  1.00  0.00     0.004 C 
HETATM   14  C6  UNL     1      20.236  16.390   8.952  1.00  0.00     0.034 C 
ENDBRANCH   7   8
ENDBRANCH   1   7
BRANCH   4  15
HETATM   15  C14 UNL     1      14.776  14.071   7.951  1.00  0.00     0.255 C 
HETATM   16  N1  UNL     1      13.631  13.272   7.775  1.00  0.00    -0.060 NA
HETATM   17  O3  UNL     1      14.757  15.093   8.602  1.00  0.00    -0.275 OA
ENDBRANCH   4  15
BRANCH   6  18
HETATM   18  C16 UNL     1      15.162  15.907   5.484  1.00  0.00     0.037 A 
HETATM   19  S1  UNL     1      13.939  15.113   4.627  1.00  0.00    -0.086 SA
HETATM   20  C17 UNL     1      12.808  16.424   4.438  1.00  0.00     0.055 A 
HETATM   21  C20 UNL     1      13.478  17.450   5.074  1.00  0.00     0.040 A 
HETATM   22  C21 UNL     1      14.674  17.182   5.612  1.00  0.00     0.060 A 
BRANCH  20  23
HETATM   23  C18 UNL     1      11.491  16.356   3.760  1.00  0.00     0.273 C 
HETATM   24  C19 UNL     1      10.326  16.338   4.714  1.00  0.00     0.096 C 
HETATM   25  F1  UNL     1      11.438  15.253   2.922  1.00  0.00    -0.201 F 
HETATM   26  F2  UNL     1      11.427  17.453   2.909  1.00  0.00    -0.201 F 
ENDBRANCH  20  23
BRANCH  22  27
HETATM   27  C22 UNL     1      15.431  18.178   6.426  1.00  0.00     0.210 C 
HETATM   28  O4  UNL     1      15.377  18.417   7.592  1.00  0.00    -0.644 OA
HETATM   29  O5  UNL     1      16.336  18.967   5.682  1.00  0.00    -0.644 OA
ENDBRANCH  22  27
ENDBRANCH   6  18
BRANCH   3  30
HETATM   30  C12 UNL     1      16.625  11.793   8.925  1.00  0.00     0.179 C 
HETATM   31  O1  UNL     1      16.806  11.379  10.061  1.00  0.00    -0.648 OA
HETATM   32  O2  UNL     1      16.162  10.917   7.970  1.00  0.00    -0.648 OA
ENDBRANCH   3  30
TORSDOF 7
ENDMDL
MODEL 3
REMARK VINA RESULT: -8.258093106      3.435      6.115
REMARK  7 active torsions:
REMARK  status: ('A' for Active; 'I' for Inactive)
REMARK    1  A    between atoms: C7_7  and  C8_8 
REMARK    2  A    between atoms: C8_8  and  C9_9 
REMARK    3  A    between atoms: C11_11  and  C12_12 
REMARK    4  A    between atoms: C13_15  and  C14_16 
REMARK    5  A    between atoms: C15_20  and  C16_21 
REMARK    6  A    between atoms: C17_23  and  C18_24 
REMARK    7  A    between atoms: C21_29  and  C22_30 
ROOT
HETATM    1  C9  UNL     1      13.854  15.040   8.312  1.00  0.00     0.109 C 
HETATM    2  C10 UNL     1      13.967  13.541   8.107  1.00  0.00     0.047 C 
HETATM    3  C11 UNL     1      15.342  13.259   7.641  1.00  0.00     0.120 C 
HETATM    4  C13 UNL     1      16.001  14.665   7.645  1.00  0.00     0.188 C 
HETATM    5  N2  UNL     1      14.975  15.553   7.557  1.00  0.00    -0.367 N 
HETATM    6  C15 UNL     1      15.053  16.896   7.414  1.00  0.00     0.107 C 
ENDROOT
BRANCH   1   7
HETATM    7  C8  UNL     1      12.559  15.619   7.944  1.00  0.00     0.001 C 
BRANCH   7   8
HETATM    8  C7  UNL     1      11.782  15.287   6.765  1.00  0.00    -0.078 C 
HETATM    9  C2  UNL     1      11.832  16.459   5.759  1.00  0.00     0.010 C 
HETATM   10  C1  UNL     1      11.169  17.676   6.289  1.00  0.00     0.015 C 
HETATM   11  C3  UNL     1      11.248  15.970   4.458  1.00  0.00     0.009 C 
HETATM   12  C4  UNL     1       9.832  15.546   4.603  1.00  0.00     0.001 C 
HETATM   13  C5  UNL     1       9.443  14.974   5.920  1.00  0.00     0.004 C 
HETATM   14  C6  UNL     1      10.602  14.455   6.730  1.00  0.00     0.034 C 
ENDBRANCH   7   8
ENDBRANCH   1   7
BRANCH   4  15
HETATM   15  C14 UNL     1      16.948  14.556   6.482  1.00  0.00     0.255 C 
HETATM   16  N1  UNL     1      18.332  14.739   6.668  1.00  0.00    -0.060 NA
HETATM   17  O3  UNL     1      16.472  14.296   5.398  1.00  0.00    -0.275 OA
ENDBRANCH   4  15
BRANCH   6  18
HETATM   18  C16 UNL     1      16.165  17.549   6.665  1.00  0.00     0.037 A 
HETATM   19  S1  UNL     1      17.595  18.217   7.274  1.00  0.00    -0.086 SA
HETATM   20  C17 UNL     1      18.134  19.096   5.871  1.00  0.00     0.055 A 
HETATM   21  C20 UNL     1      17.124  18.813   4.973  1.00  0.00     0.040 A 
HETATM   22  C21 UNL     1      16.125  18.019   5.378  1.00  0.00     0.060 A 
BRANCH  20  23
HETATM   23  C18 UNL     1      19.372  19.904   5.763  1.00  0.00     0.273 C 
HETATM   24  C19 UNL     1      20.489  19.197   5.041  1.00  0.00     0.096 C 
HETATM   25  F1  UNL     1      19.796  20.304   7.021  1.00  0.00    -0.201 F 
HETATM   26  F2  UNL     1      19.021  21.083   5.116  1.00  0.00    -0.201 F 
ENDBRANCH  20  23
BRANCH  22  27
HETATM   27  C22 UNL     1      15.048  17.550   4.460  1.00  0.00     0.210 C 
HETATM   28  O4  UNL     1      14.849  16.469   3.998  1.00  0.00    -0.644 OA
HETATM   29  O5  UNL     1      14.139  18.557   4.069  1.00  0.00    -0.644 OA
ENDBRANCH  22  27
ENDBRANCH   6  18
BRANCH   3  30
HETATM   30  C12 UNL     1      16.076  12.251   8.347  1.00  0.00     0.179 C 
HETATM   31  O1  UNL     1      16.682  12.505   9.378  1.00  0.00    -0.648 OA
HETATM   32  O2  UNL     1      16.096  10.960   7.872  1.00  0.00    -0.648 OA
ENDBRANCH   3  30
TORSDOF 7
ENDMDL
MODEL 4
REMARK VINA RESULT: -8.067696653      3.517      6.297
REMARK  7 active torsions:
REMARK  status: ('A' for Active; 'I' for Inactive)
REMARK    1  A    between atoms: C7_7  and  C8_8 
REMARK    2  A    between atoms: C8_8  and  C9_9 
REMARK    3  A    between atoms: C11_11  and  C12_12 
REMARK    4  A    between atoms: C13_15  and  C14_16 
REMARK    5  A    between atoms: C15_20  and  C16_21 
REMARK    6  A    between atoms: C17_23  and  C18_24 
REMARK    7  A    between atoms: C21_29  and  C22_30 
ROOT
HETATM    1  C9  UNL     1      13.439  16.898   7.501  1.00  0.00     0.109 C 
HETATM    2  C10 UNL     1      13.104  15.436   7.269  1.00  0.00     0.047 C 
HETATM    3  C11 UNL     1      14.383  14.707   7.118  1.00  0.00     0.120 C 
HETATM    4  C13 UNL     1      15.442  15.823   7.327  1.00  0.00     0.188 C 
HETATM    5  N2  UNL     1      14.806  16.991   7.042  1.00  0.00    -0.367 N 
HETATM    6  C15 UNL     1      15.344  18.230   6.974  1.00  0.00     0.107 C 
ENDROOT
BRANCH   1   7
HETATM    7  C8  UNL     1      12.520  17.850   6.871  1.00  0.00     0.001 C 
BRANCH   7   8
HETATM    8  C7  UNL     1      11.583  17.550   5.806  1.00  0.00    -0.078 C 
HETATM    9  C2  UNL     1      12.214  17.900   4.439  1.00  0.00     0.010 C 
HETATM   10  C1  UNL     1      12.460  19.357   4.297  1.00  0.00     0.015 C 
HETATM   11  C3  UNL     1      11.325  17.328   3.365  1.00  0.00     0.009 C 
HETATM   12  C4  UNL     1       9.957  17.905   3.402  1.00  0.00     0.001 C 
HETATM   13  C5  UNL     1       9.442  18.302   4.740  1.00  0.00     0.004 C 
HETATM   14  C6  UNL     1      10.143  17.630   5.891  1.00  0.00     0.034 C 
ENDBRANCH   7   8
ENDBRANCH   1   7
BRANCH   4  15
HETATM   15  C14 UNL     1      16.541  15.370   6.407  1.00  0.00     0.255 C 
HETATM   16  N1  UNL     1      17.828  15.101   6.911  1.00  0.00    -0.060 NA
HETATM   17  O3  UNL     1      16.267  15.239   5.233  1.00  0.00    -0.275 OA
ENDBRANCH   4  15
BRANCH   6  18
HETATM   18  C16 UNL     1      16.748  18.460   6.524  1.00  0.00     0.037 A 
HETATM   19  S1  UNL     1      18.149  18.580   7.464  1.00  0.00    -0.086 SA
HETATM   20  C17 UNL     1      19.249  19.228   6.280  1.00  0.00     0.055 A 
HETATM   21  C20 UNL     1      18.426  19.324   5.175  1.00  0.00     0.040 A 
HETATM   22  C21 UNL     1      17.154  18.925   5.301  1.00  0.00     0.060 A 
BRANCH  20  23
HETATM   23  C18 UNL     1      20.679  19.552   6.494  1.00  0.00     0.273 C 
HETATM   24  C19 UNL     1      21.359  20.102   5.269  1.00  0.00     0.096 C 
HETATM   25  F1  UNL     1      21.360  18.438   6.959  1.00  0.00    -0.201 F 
HETATM   26  F2  UNL     1      20.725  20.461   7.545  1.00  0.00    -0.201 F 
ENDBRANCH  20  23
BRANCH  22  27
HETATM   27  C22 UNL     1      16.211  18.870   4.146  1.00  0.00     0.210 C 
HETATM   28  O4  UNL     1      15.562  17.963   3.726  1.00  0.00    -0.644 OA
HETATM   29  O5  UNL     1      16.091  20.086   3.436  1.00  0.00    -0.644 OA
ENDBRANCH  22  27
ENDBRANCH   6  18
BRANCH   3  30
HETATM   30  C12 UNL     1      14.569  13.543   7.933  1.00  0.00     0.179 C 
HETATM   31  O1  UNL     1      14.767  13.629   9.135  1.00  0.00    -0.648 OA
HETATM   32  O2  UNL     1      14.514  12.292   7.362  1.00  0.00    -0.648 OA
ENDBRANCH   3  30
TORSDOF 7
ENDMDL
MODEL 5
REMARK VINA RESULT: -8.043772393      3.618      6.702
REMARK  7 active torsions:
REMARK  status: ('A' for Active; 'I' for Inactive)
REMARK    1  A    between atoms: C7_7  and  C8_8 
REMARK    2  A    between atoms: C8_8  and  C9_9 
REMARK    3  A    between atoms: C11_11  and  C12_12 
REMARK    4  A    between atoms: C13_15  and  C14_16 
REMARK    5  A    between atoms: C15_20  and  C16_21 
REMARK    6  A    between atoms: C17_23  and  C18_24 
REMARK    7  A    between atoms: C21_29  and  C22_30 
ROOT
HETATM    1  C9  UNL     1      13.046  17.506   7.027  1.00  0.00     0.109 C 
HETATM    2  C10 UNL     1      12.162  16.464   6.368  1.00  0.00     0.047 C 
HETATM    3  C11 UNL     1      13.046  15.396   5.851  1.00  0.00     0.120 C 
HETATM    4  C13 UNL     1      14.456  15.870   6.297  1.00  0.00     0.188 C 
HETATM    5  N2  UNL     1      14.351  17.214   6.480  1.00  0.00    -0.367 N 
HETATM    6  C15 UNL     1      15.343  18.089   6.762  1.00  0.00     0.107 C 
ENDROOT
BRANCH   1   7
HETATM    7  C8  UNL     1      12.608  18.893   6.846  1.00  0.00     0.001 C 
BRANCH   7   8
HETATM    8  C7  UNL     1      11.635  19.358   5.876  1.00  0.00    -0.078 C 
HETATM    9  C2  UNL     1      12.358  19.832   4.595  1.00  0.00     0.010 C 
HETATM   10  C1  UNL     1      13.207  21.023   4.844  1.00  0.00     0.015 C 
HETATM   11  C3  UNL     1      11.310  20.046   3.531  1.00  0.00     0.009 C 
HETATM   12  C4  UNL     1      10.324  21.088   3.918  1.00  0.00     0.001 C 
HETATM   13  C5  UNL     1      10.029  21.214   5.370  1.00  0.00     0.004 C 
HETATM   14  C6  UNL     1      10.370  19.988   6.174  1.00  0.00     0.034 C 
ENDBRANCH   7   8
ENDBRANCH   1   7
BRANCH   4  15
HETATM   15  C14 UNL     1      15.313  15.371   5.167  1.00  0.00     0.255 C 
HETATM   16  N1  UNL     1      16.334  14.432   5.406  1.00  0.00    -0.060 NA
HETATM   17  O3  UNL     1      15.078  15.801   4.058  1.00  0.00    -0.275 OA
ENDBRANCH   4  15
BRANCH   6  18
HETATM   18  C16 UNL     1      16.735  17.896   6.264  1.00  0.00     0.037 A 
HETATM   19  S1  UNL     1      18.034  17.136   7.036  1.00  0.00    -0.086 SA
HETATM   20  C17 UNL     1      19.341  17.669   6.016  1.00  0.00     0.055 A 
HETATM   21  C20 UNL     1      18.664  18.447   5.099  1.00  0.00     0.040 A 
HETATM   22  C21 UNL     1      17.335  18.556   5.223  1.00  0.00     0.060 A 
BRANCH  20  23
HETATM   23  C18 UNL     1      20.773  17.320   6.170  1.00  0.00     0.273 C 
HETATM   24  C19 UNL     1      21.495  17.155   4.859  1.00  0.00     0.096 C 
HETATM   25  F1  UNL     1      20.909  16.173   6.937  1.00  0.00    -0.201 F 
HETATM   26  F2  UNL     1      21.346  18.329   6.936  1.00  0.00    -0.201 F 
ENDBRANCH  20  23
BRANCH  22  27
HETATM   27  C22 UNL     1      16.490  19.268   4.222  1.00  0.00     0.210 C 
HETATM   28  O4  UNL     1      15.598  18.864   3.542  1.00  0.00    -0.644 OA
HETATM   29  O5  UNL     1      16.819  20.631   4.049  1.00  0.00    -0.644 OA
ENDBRANCH  22  27
ENDBRANCH   6  18
BRANCH   3  30
HETATM   30  C12 UNL     1      12.723  14.049   6.215  1.00  0.00     0.179 C 
HETATM   31  O1  UNL     1      11.988  13.359   5.524  1.00  0.00    -0.648 OA
HETATM   32  O2  UNL     1      13.256  13.501   7.359  1.00  0.00    -0.648 OA
ENDBRANCH   3  30
TORSDOF 7
ENDMDL
