MODEL 1
REMARK VINA RESULT: -9.006631903      0.000      0.000
REMARK  9 active torsions:
REMARK  status: ('A' for Active; 'I' for Inactive)
REMARK    1  A    between atoms: C5_5  and  C6_6 
REMARK    2  A    between atoms: C9_9  and  O1_10 
REMARK    3  A    between atoms: C19_23  and  N1_24 
REMARK    4  A    between atoms: N1_24  and  C20_26 
REMARK    5  A    between atoms: C20_26  and  C21_27 
REMARK    6  A    between atoms: C21_27  and  O3_28 
REMARK    7  A    between atoms: O3_28  and  C22_29 
REMARK    8  A    between atoms: C22_29  and  C23_30 
REMARK    9  A    between atoms: C26_34  and  O4_35 
ROOT
HETATM    1  C1  UNL     1      21.274  15.691  10.394  1.00  0.00     0.049 C 
HETATM    2  C2  UNL     1      20.490  16.168   9.137  1.00  0.00     0.091 A 
HETATM    3  C3  UNL     1      20.045  17.583   9.242  1.00  0.00     0.068 C 
HETATM    4  C4  UNL     1      20.780  18.551   8.407  1.00  0.00    -0.014 C 
HETATM    5  C5  UNL     1      20.689  18.958   7.172  1.00  0.00    -0.025 C 
HETATM    6  C9  UNL     1      19.727  18.538   6.089  1.00  0.00     0.096 C 
HETATM    7  C10 UNL     1      18.330  18.386   6.439  1.00  0.00     0.202 C 
HETATM    8  F1  UNL     1      18.128  19.429   7.403  1.00  0.00    -0.228 F 
HETATM    9  C11 UNL     1      17.648  17.154   6.749  1.00  0.00    -0.023 C 
HETATM   10  C12 UNL     1      18.015  15.915   6.998  1.00  0.00     0.006 C 
HETATM   11  C13 UNL     1      19.293  15.209   7.071  1.00  0.00     0.008 C 
HETATM   12  C14 UNL     1      20.127  15.230   8.260  1.00  0.00     0.180 A 
HETATM   13  O2  UNL     1      21.367  16.042   7.942  1.00  0.00    -0.365 OA
HETATM   14  C15 UNL     1      16.185  17.603   6.678  1.00  0.00    -0.011 C 
HETATM   15  C16 UNL     1      15.784  18.549   7.730  1.00  0.00     0.021 C 
HETATM   16  C17 UNL     1      15.194  16.480   6.644  1.00  0.00     0.016 C 
HETATM   17  C18 UNL     1      13.870  16.973   6.156  1.00  0.00     0.026 C 
HETATM   18  C19 UNL     1      13.905  17.695   4.863  1.00  0.00     0.077 C 
HETATM   19  C24 UNL     1      14.947  18.833   4.880  1.00  0.00     0.033 C 
HETATM   20  C25 UNL     1      16.221  18.136   5.263  1.00  0.00     0.033 C 
HETATM   21  C26 UNL     1      17.450  18.931   5.273  1.00  0.00     0.174 C 
ENDROOT
BRANCH  18  22
HETATM   22  N1  UNL     1      12.618  18.167   4.468  1.00  0.00    -0.415 N 
ATOM     23  H1  UNL     1      11.956  17.569   3.973  1.00  0.00     0.153 HD
BRANCH  22  24
HETATM   24  C20 UNL     1      12.308  19.510   4.799  1.00  0.00     0.140 C 
BRANCH  24  25
HETATM   25  C21 UNL     1      11.670  20.225   3.638  1.00  0.00     0.186 C 
BRANCH  25  26
HETATM   26  O3  UNL     1      12.277  21.323   3.180  1.00  0.00    -0.387 OA
BRANCH  26  27
HETATM   27  C22 UNL     1      13.351  21.888   3.748  1.00  0.00     0.199 C 
BRANCH  27  28
HETATM   28  C23 UNL     1      14.506  22.220   2.818  1.00  0.00     0.248 C 
HETATM   29  F2  UNL     1      15.323  21.106   2.709  1.00  0.00    -0.253 F 
ENDBRANCH  27  28
ENDBRANCH  26  27
ENDBRANCH  25  26
ENDBRANCH  24  25
ENDBRANCH  22  24
ENDBRANCH  18  22
BRANCH  21  30
HETATM   30  O4  UNL     1      18.095  18.823   4.054  1.00  0.00    -0.391 OA
ATOM     31  H4  UNL     1      18.189  17.917   3.786  1.00  0.00     0.210 HD
ENDBRANCH  21  30
BRANCH   6  32
HETATM   32  O1  UNL     1      20.316  17.755   5.136  1.00  0.00    -0.360 OA
ATOM     33  H1  UNL     1      19.684  17.262   4.625  1.00  0.00     0.217 HD
ENDBRANCH   6  32
BRANCH   5  34
HETATM   34  C6  UNL     1      21.703  20.013   6.731  1.00  0.00     0.021 A 
HETATM   35  C7  UNL     1      21.271  20.899   5.580  1.00  0.00     0.010 A 
HETATM   36  C8  UNL     1      21.647  21.420   6.972  1.00  0.00     0.010 A 
ENDBRANCH   5  34
TORSDOF 9
ENDMDL
MODEL 2
REMARK VINA RESULT: -8.830557983      2.129      2.842
REMARK  9 active torsions:
REMARK  status: ('A' for Active; 'I' for Inactive)
REMARK    1  A    between atoms: C5_5  and  C6_6 
REMARK    2  A    between atoms: C9_9  and  O1_10 
REMARK    3  A    between atoms: C19_23  and  N1_24 
REMARK    4  A    between atoms: N1_24  and  C20_26 
REMARK    5  A    between atoms: C20_26  and  C21_27 
REMARK    6  A    between atoms: C21_27  and  O3_28 
REMARK    7  A    between atoms: O3_28  and  C22_29 
REMARK    8  A    between atoms: C22_29  and  C23_30 
REMARK    9  A    between atoms: C26_34  and  O4_35 
ROOT
HETATM    1  C1  UNL     1      21.246  15.681  10.341  1.00  0.00     0.049 C 
HETATM    2  C2  UNL     1      20.454  16.150   9.085  1.00  0.00     0.091 A 
HETATM    3  C3  UNL     1      20.052  17.580   9.163  1.00  0.00     0.068 C 
HETATM    4  C4  UNL     1      20.801  18.504   8.291  1.00  0.00    -0.014 C 
HETATM    5  C5  UNL     1      20.699  18.883   7.048  1.00  0.00    -0.025 C 
HETATM    6  C9  UNL     1      19.705  18.465   5.993  1.00  0.00     0.096 C 
HETATM    7  C10 UNL     1      18.311  18.364   6.370  1.00  0.00     0.202 C 
HETATM    8  F1  UNL     1      18.157  19.436   7.311  1.00  0.00    -0.228 F 
HETATM    9  C11 UNL     1      17.599  17.160   6.723  1.00  0.00    -0.023 C 
HETATM   10  C12 UNL     1      17.933  15.918   6.997  1.00  0.00     0.006 C 
HETATM   11  C13 UNL     1      19.191  15.176   7.066  1.00  0.00     0.008 C 
HETATM   12  C14 UNL     1      20.047  15.201   8.239  1.00  0.00     0.180 A 
HETATM   13  O2  UNL     1      21.305  15.968   7.879  1.00  0.00    -0.365 OA
HETATM   14  C15 UNL     1      16.148  17.652   6.667  1.00  0.00    -0.011 C 
HETATM   15  C16 UNL     1      15.795  18.635   7.701  1.00  0.00     0.021 C 
HETATM   16  C17 UNL     1      15.125  16.558   6.678  1.00  0.00     0.016 C 
HETATM   17  C18 UNL     1      13.806  17.078   6.201  1.00  0.00     0.026 C 
HETATM   18  C19 UNL     1      13.840  17.767   4.890  1.00  0.00     0.077 C 
HETATM   19  C24 UNL     1      14.915  18.873   4.860  1.00  0.00     0.033 C 
HETATM   20  C25 UNL     1      16.175  18.148   5.238  1.00  0.00     0.033 C 
HETATM   21  C26 UNL     1      17.426  18.906   5.207  1.00  0.00     0.174 C 
ENDROOT
BRANCH  18  22
HETATM   22  N1  UNL     1      12.561  18.267   4.506  1.00  0.00    -0.415 N 
ATOM     23  H1  UNL     1      12.422  19.243   4.243  1.00  0.00     0.153 HD
BRANCH  22  24
HETATM   24  C20 UNL     1      11.491  17.336   4.507  1.00  0.00     0.140 C 
BRANCH  24  25
HETATM   25  C21 UNL     1      11.449  16.551   3.223  1.00  0.00     0.186 C 
BRANCH  25  26
HETATM   26  O3  UNL     1      11.750  15.251   3.283  1.00  0.00    -0.387 OA
BRANCH  26  27
HETATM   27  C22 UNL     1      11.025  14.335   3.940  1.00  0.00     0.199 C 
BRANCH  27  28
HETATM   28  C23 UNL     1      11.706  13.659   5.118  1.00  0.00     0.248 C 
HETATM   29  F2  UNL     1      13.033  14.057   5.154  1.00  0.00    -0.253 F 
ENDBRANCH  27  28
ENDBRANCH  26  27
ENDBRANCH  25  26
ENDBRANCH  24  25
ENDBRANCH  22  24
ENDBRANCH  18  22
BRANCH  21  30
HETATM   30  O4  UNL     1      18.045  18.749   3.979  1.00  0.00    -0.391 OA
ATOM     31  H4  UNL     1      17.959  19.527   3.441  1.00  0.00     0.210 HD
ENDBRANCH  21  30
BRANCH   6  32
HETATM   32  O1  UNL     1      20.253  17.641   5.049  1.00  0.00    -0.360 OA
ATOM     33  H1  UNL     1      19.608  17.083   4.631  1.00  0.00     0.217 HD
ENDBRANCH   6  32
BRANCH   5  34
HETATM   34  C6  UNL     1      21.736  19.896   6.563  1.00  0.00     0.021 A 
HETATM   35  C7  UNL     1      21.274  20.833   5.464  1.00  0.00     0.010 A 
HETATM   36  C8  UNL     1      21.770  21.297   6.839  1.00  0.00     0.010 A 
ENDBRANCH   5  34
TORSDOF 9
ENDMDL
MODEL 3
REMARK VINA RESULT: -8.785504541      1.681      1.813
REMARK  9 active torsions:
REMARK  status: ('A' for Active; 'I' for Inactive)
REMARK    1  A    between atoms: C5_5  and  C6_6 
REMARK    2  A    between atoms: C9_9  and  O1_10 
REMARK    3  A    between atoms: C19_23  and  N1_24 
REMARK    4  A    between atoms: N1_24  and  C20_26 
REMARK    5  A    between atoms: C20_26  and  C21_27 
REMARK    6  A    between atoms: C21_27  and  O3_28 
REMARK    7  A    between atoms: O3_28  and  C22_29 
REMARK    8  A    between atoms: C22_29  and  C23_30 
REMARK    9  A    between atoms: C26_34  and  O4_35 
ROOT
HETATM    1  C1  UNL     1      21.242  15.813  10.399  1.00  0.00     0.049 C 
HETATM    2  C2  UNL     1      20.449  16.235   9.129  1.00  0.00     0.091 A 
HETATM    3  C3  UNL     1      19.974  17.644   9.192  1.00  0.00     0.068 C 
HETATM    4  C4  UNL     1      20.689  18.601   8.328  1.00  0.00    -0.014 C 
HETATM    5  C5  UNL     1      20.589  18.969   7.082  1.00  0.00    -0.025 C 
HETATM    6  C9  UNL     1      19.635  18.497   6.013  1.00  0.00     0.096 C 
HETATM    7  C10 UNL     1      18.242  18.327   6.368  1.00  0.00     0.202 C 
HETATM    8  F1  UNL     1      18.018  19.394   7.300  1.00  0.00    -0.228 F 
HETATM    9  C11 UNL     1      17.586  17.090   6.715  1.00  0.00    -0.023 C 
HETATM   10  C12 UNL     1      17.978  15.867   7.000  1.00  0.00     0.006 C 
HETATM   11  C13 UNL     1      19.271  15.190   7.093  1.00  0.00     0.008 C 
HETATM   12  C14 UNL     1      20.104  15.264   8.280  1.00  0.00     0.180 A 
HETATM   13  O2  UNL     1      21.327  16.092   7.938  1.00  0.00    -0.365 OA
HETATM   14  C15 UNL     1      16.114  17.507   6.632  1.00  0.00    -0.011 C 
HETATM   15  C16 UNL     1      15.694  18.475   7.655  1.00  0.00     0.021 C 
HETATM   16  C17 UNL     1      15.147  16.363   6.632  1.00  0.00     0.016 C 
HETATM   17  C18 UNL     1      13.812  16.813   6.130  1.00  0.00     0.026 C 
HETATM   18  C19 UNL     1      13.832  17.498   4.817  1.00  0.00     0.077 C 
HETATM   19  C24 UNL     1      14.850  18.656   4.799  1.00  0.00     0.033 C 
HETATM   20  C25 UNL     1      16.139  17.998   5.201  1.00  0.00     0.033 C 
HETATM   21  C26 UNL     1      17.351  18.818   5.187  1.00  0.00     0.174 C 
ENDROOT
BRANCH  18  22
HETATM   22  N1  UNL     1      12.536  17.930   4.409  1.00  0.00    -0.415 N 
ATOM     23  H1  UNL     1      12.409  18.691   3.741  1.00  0.00     0.153 HD
BRANCH  22  24
HETATM   24  C20 UNL     1      11.432  17.247   4.979  1.00  0.00     0.140 C 
BRANCH  24  25
HETATM   25  C21 UNL     1      10.276  18.180   5.218  1.00  0.00     0.186 C 
BRANCH  25  26
HETATM   26  O3  UNL     1      10.259  18.862   6.367  1.00  0.00    -0.387 OA
BRANCH  26  27
HETATM   27  C22 UNL     1      10.349  20.196   6.457  1.00  0.00     0.199 C 
BRANCH  27  28
HETATM   28  C23 UNL     1      11.737  20.760   6.710  1.00  0.00     0.248 C 
HETATM   29  F2  UNL     1      12.570  19.729   7.114  1.00  0.00    -0.253 F 
ENDBRANCH  27  28
ENDBRANCH  26  27
ENDBRANCH  25  26
ENDBRANCH  24  25
ENDBRANCH  22  24
ENDBRANCH  18  22
BRANCH  21  30
HETATM   30  O4  UNL     1      17.997  18.688   3.971  1.00  0.00    -0.391 OA
ATOM     31  H4  UNL     1      18.933  18.568   4.082  1.00  0.00     0.210 HD
ENDBRANCH  21  30
BRANCH   6  32
HETATM   32  O1  UNL     1      20.240  17.698   5.082  1.00  0.00    -0.360 OA
ATOM     33  H1  UNL     1      20.045  16.777   5.208  1.00  0.00     0.217 HD
ENDBRANCH   6  32
BRANCH   5  34
HETATM   34  C6  UNL     1      21.581  20.031   6.609  1.00  0.00     0.021 A 
HETATM   35  C7  UNL     1      21.062  20.993   5.558  1.00  0.00     0.010 A 
HETATM   36  C8  UNL     1      21.580  21.422   6.937  1.00  0.00     0.010 A 
ENDBRANCH   5  34
TORSDOF 9
ENDMDL
MODEL 4
REMARK VINA RESULT: -8.662784163      2.243      2.670
REMARK  9 active torsions:
REMARK  status: ('A' for Active; 'I' for Inactive)
REMARK    1  A    between atoms: C5_5  and  C6_6 
REMARK    2  A    between atoms: C9_9  and  O1_10 
REMARK    3  A    between atoms: C19_23  and  N1_24 
REMARK    4  A    between atoms: N1_24  and  C20_26 
REMARK    5  A    between atoms: C20_26  and  C21_27 
REMARK    6  A    between atoms: C21_27  and  O3_28 
REMARK    7  A    between atoms: O3_28  and  C22_29 
REMARK    8  A    between atoms: C22_29  and  C23_30 
REMARK    9  A    between atoms: C26_34  and  O4_35 
ROOT
HETATM    1  C1  UNL     1      21.364  15.683  10.166  1.00  0.00     0.049 C 
HETATM    2  C2  UNL     1      20.481  16.153   8.974  1.00  0.00     0.091 A 
HETATM    3  C3  UNL     1      20.112  17.591   9.067  1.00  0.00     0.068 C 
HETATM    4  C4  UNL     1      20.803  18.493   8.127  1.00  0.00    -0.014 C 
HETATM    5  C5  UNL     1      20.607  18.861   6.892  1.00  0.00    -0.025 C 
HETATM    6  C9  UNL     1      19.524  18.451   5.925  1.00  0.00     0.096 C 
HETATM    7  C10 UNL     1      18.163  18.379   6.416  1.00  0.00     0.202 C 
HETATM    8  F1  UNL     1      18.105  19.463   7.353  1.00  0.00    -0.228 F 
HETATM    9  C11 UNL     1      17.462  17.192   6.839  1.00  0.00    -0.023 C 
HETATM   10  C12 UNL     1      17.796  15.946   7.099  1.00  0.00     0.006 C 
HETATM   11  C13 UNL     1      19.042  15.182   7.074  1.00  0.00     0.008 C 
HETATM   12  C14 UNL     1      19.990  15.204   8.174  1.00  0.00     0.180 A 
HETATM   13  O2  UNL     1      21.228  15.944   7.705  1.00  0.00    -0.365 OA
HETATM   14  C15 UNL     1      16.020  17.709   6.895  1.00  0.00    -0.011 C 
HETATM   15  C16 UNL     1      15.769  18.709   7.942  1.00  0.00     0.021 C 
HETATM   16  C17 UNL     1      14.982  16.634   7.001  1.00  0.00     0.016 C 
HETATM   17  C18 UNL     1      13.639  17.174   6.626  1.00  0.00     0.026 C 
HETATM   18  C19 UNL     1      13.578  17.848   5.309  1.00  0.00     0.077 C 
HETATM   19  C24 UNL     1      14.665  18.934   5.179  1.00  0.00     0.033 C 
HETATM   20  C25 UNL     1      15.939  18.190   5.462  1.00  0.00     0.033 C 
HETATM   21  C26 UNL     1      17.197  18.925   5.321  1.00  0.00     0.174 C 
ENDROOT
BRANCH  18  22
HETATM   22  N1  UNL     1      12.280  18.367   5.024  1.00  0.00    -0.415 N 
ATOM     23  H1  UNL     1      11.992  18.601   4.073  1.00  0.00     0.153 HD
BRANCH  22  24
HETATM   24  C20 UNL     1      11.411  18.542   6.130  1.00  0.00     0.140 C 
BRANCH  24  25
HETATM   25  C21 UNL     1      11.159  20.000   6.402  1.00  0.00     0.186 C 
BRANCH  25  26
HETATM   26  O3  UNL     1       9.978  20.335   6.931  1.00  0.00    -0.387 OA
BRANCH  26  27
HETATM   27  C22 UNL     1       8.799  19.852   6.519  1.00  0.00     0.199 C 
BRANCH  27  28
HETATM   28  C23 UNL     1       7.960  19.142   7.568  1.00  0.00     0.248 C 
HETATM   29  F2  UNL     1       7.865  19.955   8.686  1.00  0.00    -0.253 F 
ENDBRANCH  27  28
ENDBRANCH  26  27
ENDBRANCH  25  26
ENDBRANCH  24  25
ENDBRANCH  22  24
ENDBRANCH  18  22
BRANCH  21  30
HETATM   30  O4  UNL     1      17.712  18.744   4.050  1.00  0.00    -0.391 OA
ATOM     31  H4  UNL     1      18.161  19.521   3.740  1.00  0.00     0.210 HD
ENDBRANCH  21  30
BRANCH   6  32
HETATM   32  O1  UNL     1      19.980  17.607   4.950  1.00  0.00    -0.360 OA
ATOM     33  H1  UNL     1      19.327  16.971   4.682  1.00  0.00     0.217 HD
ENDBRANCH   6  32
BRANCH   5  34
HETATM   34  C6  UNL     1      21.619  19.849   6.313  1.00  0.00     0.021 A 
HETATM   35  C7  UNL     1      21.042  20.934   5.423  1.00  0.00     0.010 A 
HETATM   36  C8  UNL     1      21.828  21.205   6.712  1.00  0.00     0.010 A 
ENDBRANCH   5  34
TORSDOF 9
ENDMDL
MODEL 5
REMARK VINA RESULT: -8.634741401      2.669      7.735
REMARK  9 active torsions:
REMARK  status: ('A' for Active; 'I' for Inactive)
REMARK    1  A    between atoms: C5_5  and  C6_6 
REMARK    2  A    between atoms: C9_9  and  O1_10 
REMARK    3  A    between atoms: C19_23  and  N1_24 
REMARK    4  A    between atoms: N1_24  and  C20_26 
REMARK    5  A    between atoms: C20_26  and  C21_27 
REMARK    6  A    between atoms: C21_27  and  O3_28 
REMARK    7  A    between atoms: O3_28  and  C22_29 
REMARK    8  A    between atoms: C22_29  and  C23_30 
REMARK    9  A    between atoms: C26_34  and  O4_35 
ROOT
HETATM    1  C1  UNL     1       9.646  16.339   4.807  1.00  0.00     0.049 C 
HETATM    2  C2  UNL     1      11.060  16.660   5.373  1.00  0.00     0.091 A 
HETATM    3  C3  UNL     1      12.083  16.816   4.305  1.00  0.00     0.068 C 
HETATM    4  C4  UNL     1      12.534  18.195   4.046  1.00  0.00    -0.014 C 
HETATM    5  C5  UNL     1      13.433  18.983   4.567  1.00  0.00    -0.025 C 
HETATM    6  C9  UNL     1      14.388  18.732   5.707  1.00  0.00     0.096 C 
HETATM    7  C10 UNL     1      15.070  17.455   5.757  1.00  0.00     0.202 C 
HETATM    8  F1  UNL     1      15.299  17.161   4.372  1.00  0.00    -0.228 F 
HETATM    9  C11 UNL     1      14.698  16.311   6.552  1.00  0.00    -0.023 C 
HETATM   10  C12 UNL     1      13.648  15.964   7.266  1.00  0.00     0.006 C 
HETATM   11  C13 UNL     1      12.366  16.587   7.589  1.00  0.00     0.008 C 
HETATM   12  C14 UNL     1      11.225  16.531   6.691  1.00  0.00     0.180 A 
HETATM   13  O2  UNL     1      10.995  17.928   6.147  1.00  0.00    -0.365 OA
HETATM   14  C15 UNL     1      15.963  15.453   6.440  1.00  0.00    -0.011 C 
HETATM   15  C16 UNL     1      16.228  14.927   5.093  1.00  0.00     0.021 C 
HETATM   16  C17 UNL     1      16.030  14.320   7.417  1.00  0.00     0.016 C 
HETATM   17  C18 UNL     1      17.434  13.816   7.530  1.00  0.00     0.026 C 
HETATM   18  C19 UNL     1      18.449  14.850   7.839  1.00  0.00     0.077 C 
HETATM   19  C24 UNL     1      18.365  16.036   6.857  1.00  0.00     0.033 C 
HETATM   20  C25 UNL     1      16.935  16.484   6.971  1.00  0.00     0.033 C 
HETATM   21  C26 UNL     1      16.540  17.680   6.224  1.00  0.00     0.174 C 
ENDROOT
BRANCH  18  22
HETATM   22  N1  UNL     1      19.769  14.313   7.903  1.00  0.00    -0.415 N 
ATOM     23  H1  UNL     1      20.220  13.897   7.088  1.00  0.00     0.153 HD
BRANCH  22  24
HETATM   24  C20 UNL     1      20.423  14.390   9.159  1.00  0.00     0.140 C 
BRANCH  24  25
HETATM   25  C21 UNL     1      20.539  15.816   9.627  1.00  0.00     0.186 C 
BRANCH  25  26
HETATM   26  O3  UNL     1      21.423  16.601   9.005  1.00  0.00    -0.387 OA
BRANCH  26  27
HETATM   27  C22 UNL     1      21.138  17.804   8.491  1.00  0.00     0.199 C 
BRANCH  27  28
HETATM   28  C23 UNL     1      20.416  18.774   9.412  1.00  0.00     0.248 C 
HETATM   29  F2  UNL     1      19.216  19.137   8.823  1.00  0.00    -0.253 F 
ENDBRANCH  27  28
ENDBRANCH  26  27
ENDBRANCH  25  26
ENDBRANCH  24  25
ENDBRANCH  22  24
ENDBRANCH  18  22
BRANCH  21  30
HETATM   30  O4  UNL     1      16.655  18.800   7.029  1.00  0.00    -0.391 OA
ATOM     31  H4  UNL     1      16.700  19.598   6.515  1.00  0.00     0.210 HD
ENDBRANCH  21  30
BRANCH   6  32
HETATM   32  O1  UNL     1      14.037  19.402   6.845  1.00  0.00    -0.360 OA
ATOM     33  H1  UNL     1      13.228  19.080   7.225  1.00  0.00     0.217 HD
ENDBRANCH   6  32
BRANCH   5  34
HETATM   34  C6  UNL     1      13.549  20.376   3.950  1.00  0.00     0.021 A 
HETATM   35  C7  UNL     1      12.253  20.985   3.453  1.00  0.00     0.010 A 
HETATM   36  C8  UNL     1      13.141  21.616   4.532  1.00  0.00     0.010 A 
ENDBRANCH   5  34
TORSDOF 9
ENDMDL
