MODEL 1
REMARK VINA RESULT: -10.327060682      0.000      0.000
REMARK  9 active torsions:
REMARK  status: ('A' for Active; 'I' for Inactive)
REMARK    1  A    between atoms: C2_2  and  C3_3 
REMARK    2  A    between atoms: C3_3  and  C4_5 
REMARK    3  A    between atoms: C9_13  and  C10_14 
REMARK       I    between atoms: C10_14  and  N2_16 
REMARK    4  A    between atoms: N2_16  and  C11_18 
REMARK    5  A    between atoms: C11_18  and  C12_19 
REMARK    6  A    between atoms: C11_18  and  C19_26 
REMARK    7  A    between atoms: C12_19  and  C13_20 
REMARK    8  A    between atoms: C19_26  and  C20_28 
REMARK       I    between atoms: C20_28  and  N3_30 
REMARK    9  A    between atoms: N3_30  and  C21_32 
ROOT
HETATM    1  C10 UNL     1     -21.214  -4.122  -1.088  1.00  0.00     0.225 C 
HETATM    2  O2  UNL     1     -22.276  -4.027  -1.751  1.00  0.00    -0.273 OA
HETATM    3  N2  UNL     1     -20.339  -3.019  -1.079  1.00  0.00    -0.349 N 
ATOM      4  H2  UNL     1     -19.472  -3.072  -0.546  1.00  0.00     0.163 HD
ENDROOT
BRANCH   3   5
HETATM    5  C11 UNL     1     -20.652  -1.796  -1.820  1.00  0.00     0.164 C 
BRANCH   5   6
HETATM    6  C12 UNL     1     -20.015  -1.852  -3.198  1.00  0.00     0.038 C 
BRANCH   6   7
HETATM    7  C13 UNL     1     -20.957  -1.272  -4.264  1.00  0.00    -0.012 C 
HETATM    8  C14 UNL     1     -22.296  -1.036  -3.645  1.00  0.00     0.005 C 
HETATM    9  C15 UNL     1     -22.806   0.376  -3.862  1.00  0.00     0.000 C 
HETATM   10  C16 UNL     1     -22.641   0.761  -5.296  1.00  0.00     0.000 C 
HETATM   11  C17 UNL     1     -21.195   0.792  -5.667  1.00  0.00     0.000 C 
HETATM   12  C18 UNL     1     -20.308  -0.008  -4.772  1.00  0.00     0.005 C 
ENDBRANCH   6   7
ENDBRANCH   5   6
BRANCH   5  13
HETATM   13  C19 UNL     1     -19.983  -0.694  -1.077  1.00  0.00     0.238 C 
HETATM   14  O3  UNL     1     -20.479  -0.186  -0.015  1.00  0.00    -0.285 OA
BRANCH  13  15
HETATM   15  C20 UNL     1     -18.723  -0.175  -1.578  1.00  0.00     0.289 C 
HETATM   16  O4  UNL     1     -18.585   0.991  -1.996  1.00  0.00    -0.264 OA
HETATM   17  N3  UNL     1     -17.571  -1.030  -1.603  1.00  0.00    -0.347 N 
ATOM     18  H3  UNL     1     -17.635  -1.993  -1.272  1.00  0.00     0.163 HD
BRANCH  17  19
HETATM   19  C21 UNL     1     -16.326  -0.512  -2.101  1.00  0.00     0.118 C 
HETATM   20  C22 UNL     1     -15.585   0.279  -1.021  1.00  0.00     0.204 C 
HETATM   21  O5  UNL     1     -14.225  -0.012  -1.263  1.00  0.00    -0.319 OA
HETATM   22  C23 UNL     1     -14.071  -1.192  -1.968  1.00  0.00     0.260 C 
HETATM   23  O6  UNL     1     -12.988  -1.835  -2.118  1.00  0.00    -0.265 OA
HETATM   24  C24 UNL     1     -15.379  -1.585  -2.524  1.00  0.00     0.138 C 
ENDBRANCH  17  19
ENDBRANCH  13  15
ENDBRANCH   5  13
ENDBRANCH   3   5
BRANCH   1  25
HETATM   25  C9  UNL     1     -20.933  -5.356  -0.362  1.00  0.00     0.115 C 
HETATM   26  C6  UNL     1     -21.529  -6.605  -0.981  1.00  0.00     0.200 C 
HETATM   27  C5  UNL     1     -20.734  -7.686  -0.248  1.00  0.00     0.046 C 
HETATM   28  N1  UNL     1     -20.991  -6.457  -2.334  1.00  0.00    -0.070 N 
HETATM   29  C4  UNL     1     -19.472  -7.038   0.219  1.00  0.00     0.065 C 
HETATM   30  C8  UNL     1     -19.466  -5.780  -0.631  1.00  0.00     0.037 C 
HETATM   31  C7  UNL     1     -19.571  -6.162  -2.064  1.00  0.00     0.239 C 
ATOM     32  H12 UNL     1     -21.159  -7.248  -2.956  1.00  0.00     0.277 HD
ATOM     33  H11 UNL     1     -21.472  -5.773  -2.919  1.00  0.00     0.277 HD
BRANCH  29  34
HETATM   34  C3  UNL     1     -18.229  -7.768   0.040  1.00  0.00     0.145 C 
HETATM   35  O1  UNL     1     -18.331  -8.966  -0.309  1.00  0.00    -0.296 OA
BRANCH  34  36
HETATM   36  C2  UNL     1     -16.850  -7.308   0.208  1.00  0.00     0.083 C 
HETATM   37  C1  UNL     1     -16.079  -7.970   1.340  1.00  0.00     0.030 C 
HETATM   38  C25 UNL     1     -16.575  -5.826   0.130  1.00  0.00     0.029 C 
HETATM   39  C26 UNL     1     -15.183  -6.238  -0.412  1.00  0.00     0.081 C 
HETATM   40  C27 UNL     1     -15.951  -7.423  -1.039  1.00  0.00     0.257 C 
HETATM   41  F1  UNL     1     -15.246  -8.595  -1.048  1.00  0.00    -0.205 F 
HETATM   42  F2  UNL     1     -16.535  -7.057  -2.211  1.00  0.00    -0.205 F 
ENDBRANCH  34  36
ENDBRANCH  29  34
ENDBRANCH   1  25
TORSDOF 9
ENDMDL
MODEL 2
REMARK VINA RESULT: -9.905316306      3.046      6.989
REMARK  9 active torsions:
REMARK  status: ('A' for Active; 'I' for Inactive)
REMARK    1  A    between atoms: C2_2  and  C3_3 
REMARK    2  A    between atoms: C3_3  and  C4_5 
REMARK    3  A    between atoms: C9_13  and  C10_14 
REMARK       I    between atoms: C10_14  and  N2_16 
REMARK    4  A    between atoms: N2_16  and  C11_18 
REMARK    5  A    between atoms: C11_18  and  C12_19 
REMARK    6  A    between atoms: C11_18  and  C19_26 
REMARK    7  A    between atoms: C12_19  and  C13_20 
REMARK    8  A    between atoms: C19_26  and  C20_28 
REMARK       I    between atoms: C20_28  and  N3_30 
REMARK    9  A    between atoms: N3_30  and  C21_32 
ROOT
HETATM    1  C10 UNL     1     -20.441  -6.146  -2.313  1.00  0.00     0.225 C 
HETATM    2  O2  UNL     1     -21.107  -7.210  -2.343  1.00  0.00    -0.273 OA
HETATM    3  N2  UNL     1     -19.138  -6.197  -1.782  1.00  0.00    -0.349 N 
ATOM      4  H2  UNL     1     -18.577  -5.345  -1.748  1.00  0.00     0.163 HD
ENDROOT
BRANCH   3   5
HETATM    5  C11 UNL     1     -18.572  -7.449  -1.277  1.00  0.00     0.164 C 
BRANCH   5   6
HETATM    6  C12 UNL     1     -18.532  -7.422   0.241  1.00  0.00     0.038 C 
BRANCH   6   7
HETATM    7  C13 UNL     1     -19.569  -8.386   0.836  1.00  0.00    -0.012 C 
HETATM    8  C14 UNL     1     -20.805  -7.616   1.169  1.00  0.00     0.005 C 
HETATM    9  C15 UNL     1     -22.059  -8.224   0.571  1.00  0.00     0.000 C 
HETATM   10  C16 UNL     1     -22.083  -9.696   0.829  1.00  0.00     0.000 C 
HETATM   11  C17 UNL     1     -20.940 -10.367   0.141  1.00  0.00     0.000 C 
HETATM   12  C18 UNL     1     -19.801  -9.462  -0.196  1.00  0.00     0.005 C 
ENDBRANCH   6   7
ENDBRANCH   5   6
BRANCH   5  13
HETATM   13  C19 UNL     1     -17.160  -7.471  -1.748  1.00  0.00     0.238 C 
HETATM   14  O3  UNL     1     -16.407  -8.492  -1.604  1.00  0.00    -0.285 OA
BRANCH  13  15
HETATM   15  C20 UNL     1     -16.620  -6.287  -2.393  1.00  0.00     0.289 C 
HETATM   16  O4  UNL     1     -16.963  -5.916  -3.532  1.00  0.00    -0.264 OA
HETATM   17  N3  UNL     1     -15.643  -5.495  -1.703  1.00  0.00    -0.347 N 
ATOM     18  H3  UNL     1     -15.331  -5.758  -0.768  1.00  0.00     0.163 HD
BRANCH  17  19
HETATM   19  C21 UNL     1     -15.111  -4.324  -2.345  1.00  0.00     0.118 C 
HETATM   20  C22 UNL     1     -16.053  -3.130  -2.187  1.00  0.00     0.204 C 
HETATM   21  O5  UNL     1     -15.181  -2.028  -2.046  1.00  0.00    -0.319 OA
HETATM   22  C23 UNL     1     -13.928  -2.419  -1.614  1.00  0.00     0.260 C 
HETATM   23  O6  UNL     1     -13.021  -1.653  -1.165  1.00  0.00    -0.265 OA
HETATM   24  C24 UNL     1     -13.811  -3.882  -1.761  1.00  0.00     0.138 C 
ENDBRANCH  17  19
ENDBRANCH  13  15
ENDBRANCH   5  13
ENDBRANCH   3   5
BRANCH   1  25
HETATM   25  C9  UNL     1     -21.036  -4.915  -2.822  1.00  0.00     0.115 C 
HETATM   26  C6  UNL     1     -22.480  -4.693  -2.414  1.00  0.00     0.200 C 
HETATM   27  C5  UNL     1     -22.638  -3.209  -2.744  1.00  0.00     0.046 C 
HETATM   28  N1  UNL     1     -22.324  -4.843  -0.966  1.00  0.00    -0.070 N 
HETATM   29  C4  UNL     1     -21.263  -2.626  -2.734  1.00  0.00     0.065 C 
HETATM   30  C8  UNL     1     -20.497  -3.714  -2.003  1.00  0.00     0.037 C 
HETATM   31  C7  UNL     1     -21.158  -3.980  -0.698  1.00  0.00     0.239 C 
ATOM     32  H12 UNL     1     -23.156  -4.630  -0.416  1.00  0.00     0.277 HD
ATOM     33  H11 UNL     1     -22.236  -5.805  -0.637  1.00  0.00     0.277 HD
BRANCH  29  34
HETATM   34  C3  UNL     1     -21.075  -1.349  -2.068  1.00  0.00     0.145 C 
HETATM   35  O1  UNL     1     -21.990  -0.979  -1.299  1.00  0.00    -0.296 OA
BRANCH  34  36
HETATM   36  C2  UNL     1     -19.955  -0.411  -2.160  1.00  0.00     0.083 C 
HETATM   37  C1  UNL     1     -19.817   0.303  -3.497  1.00  0.00     0.030 C 
HETATM   38  C25 UNL     1     -18.617  -0.834  -1.606  1.00  0.00     0.029 C 
HETATM   39  C26 UNL     1     -18.393   0.673  -1.327  1.00  0.00     0.081 C 
HETATM   40  C27 UNL     1     -19.919   0.695  -1.086  1.00  0.00     0.257 C 
HETATM   41  F1  UNL     1     -20.529   1.840  -1.518  1.00  0.00    -0.205 F 
HETATM   42  F2  UNL     1     -20.217   0.287   0.176  1.00  0.00    -0.205 F 
ENDBRANCH  34  36
ENDBRANCH  29  34
ENDBRANCH   1  25
TORSDOF 9
ENDMDL
MODEL 3
REMARK VINA RESULT: -9.852494509      2.836      7.193
REMARK  9 active torsions:
REMARK  status: ('A' for Active; 'I' for Inactive)
REMARK    1  A    between atoms: C2_2  and  C3_3 
REMARK    2  A    between atoms: C3_3  and  C4_5 
REMARK    3  A    between atoms: C9_13  and  C10_14 
REMARK       I    between atoms: C10_14  and  N2_16 
REMARK    4  A    between atoms: N2_16  and  C11_18 
REMARK    5  A    between atoms: C11_18  and  C12_19 
REMARK    6  A    between atoms: C11_18  and  C19_26 
REMARK    7  A    between atoms: C12_19  and  C13_20 
REMARK    8  A    between atoms: C19_26  and  C20_28 
REMARK       I    between atoms: C20_28  and  N3_30 
REMARK    9  A    between atoms: N3_30  and  C21_32 
ROOT
HETATM    1  C10 UNL     1     -20.285  -6.718  -2.225  1.00  0.00     0.225 C 
HETATM    2  O2  UNL     1     -20.707  -7.884  -2.025  1.00  0.00    -0.273 OA
HETATM    3  N2  UNL     1     -18.952  -6.428  -1.874  1.00  0.00    -0.349 N 
ATOM      4  H2  UNL     1     -18.587  -5.488  -2.028  1.00  0.00     0.163 HD
ENDROOT
BRANCH   3   5
HETATM    5  C11 UNL     1     -18.081  -7.450  -1.289  1.00  0.00     0.164 C 
BRANCH   5   6
HETATM    6  C12 UNL     1     -18.412  -7.627   0.183  1.00  0.00     0.038 C 
BRANCH   6   7
HETATM    7  C13 UNL     1     -18.558  -9.115   0.539  1.00  0.00    -0.012 C 
HETATM    8  C14 UNL     1     -19.954  -9.361   1.009  1.00  0.00     0.005 C 
HETATM    9  C15 UNL     1     -20.632 -10.500   0.273  1.00  0.00     0.000 C 
HETATM   10  C16 UNL     1     -19.718 -11.680   0.206  1.00  0.00     0.000 C 
HETATM   11  C17 UNL     1     -18.498 -11.352  -0.591  1.00  0.00     0.000 C 
HETATM   12  C18 UNL     1     -18.205  -9.893  -0.705  1.00  0.00     0.005 C 
ENDBRANCH   6   7
ENDBRANCH   5   6
BRANCH   5  13
HETATM   13  C19 UNL     1     -16.704  -6.891  -1.360  1.00  0.00     0.238 C 
HETATM   14  O3  UNL     1     -15.725  -7.400  -0.716  1.00  0.00    -0.285 OA
BRANCH  13  15
HETATM   15  C20 UNL     1     -16.463  -5.725  -2.190  1.00  0.00     0.289 C 
HETATM   16  O4  UNL     1     -16.719  -5.692  -3.409  1.00  0.00    -0.264 OA
HETATM   17  N3  UNL     1     -15.905  -4.543  -1.598  1.00  0.00    -0.347 N 
ATOM     18  H3  UNL     1     -15.678  -4.522  -0.603  1.00  0.00     0.163 HD
BRANCH  17  19
HETATM   19  C21 UNL     1     -15.669  -3.391  -2.423  1.00  0.00     0.118 C 
HETATM   20  C22 UNL     1     -16.838  -2.408  -2.348  1.00  0.00     0.204 C 
HETATM   21  O5  UNL     1     -16.219  -1.140  -2.416  1.00  0.00    -0.319 OA
HETATM   22  C23 UNL     1     -14.892  -1.198  -2.034  1.00  0.00     0.260 C 
HETATM   23  O6  UNL     1     -14.152  -0.205  -1.757  1.00  0.00    -0.265 OA
HETATM   24  C24 UNL     1     -14.469  -2.610  -2.001  1.00  0.00     0.138 C 
ENDBRANCH  17  19
ENDBRANCH  13  15
ENDBRANCH   5  13
ENDBRANCH   3   5
BRANCH   1  25
HETATM   25  C9  UNL     1     -21.179  -5.724  -2.808  1.00  0.00     0.115 C 
HETATM   26  C6  UNL     1     -22.549  -5.649  -2.162  1.00  0.00     0.200 C 
HETATM   27  C5  UNL     1     -23.039  -4.306  -2.703  1.00  0.00     0.046 C 
HETATM   28  N1  UNL     1     -22.126  -5.474  -0.771  1.00  0.00    -0.070 N 
HETATM   29  C4  UNL     1     -21.818  -3.528  -3.070  1.00  0.00     0.065 C 
HETATM   30  C8  UNL     1     -20.748  -4.313  -2.333  1.00  0.00     0.037 C 
HETATM   31  C7  UNL     1     -21.116  -4.405  -0.896  1.00  0.00     0.239 C 
ATOM     32  H12 UNL     1     -22.879  -5.284  -0.110  1.00  0.00     0.277 HD
ATOM     33  H11 UNL     1     -21.803  -6.323  -0.306  1.00  0.00     0.277 HD
BRANCH  29  34
HETATM   34  C3  UNL     1     -21.766  -2.128  -2.685  1.00  0.00     0.145 C 
HETATM   35  O1  UNL     1     -22.389  -1.811  -1.647  1.00  0.00    -0.296 OA
BRANCH  34  36
HETATM   36  C2  UNL     1     -21.083  -1.011  -3.339  1.00  0.00     0.083 C 
HETATM   37  C1  UNL     1     -21.989  -0.048  -4.091  1.00  0.00     0.030 C 
HETATM   38  C25 UNL     1     -19.809  -1.295  -4.096  1.00  0.00     0.029 C 
HETATM   39  C26 UNL     1     -19.403   0.150  -3.711  1.00  0.00     0.081 C 
HETATM   40  C27 UNL     1     -20.205  -0.136  -2.421  1.00  0.00     0.257 C 
HETATM   41  F1  UNL     1     -20.892   0.947  -1.948  1.00  0.00    -0.205 F 
HETATM   42  F2  UNL     1     -19.449  -0.817  -1.520  1.00  0.00    -0.205 F 
ENDBRANCH  34  36
ENDBRANCH  29  34
ENDBRANCH   1  25
TORSDOF 9
ENDMDL
MODEL 4
REMARK VINA RESULT: -9.843866925      0.939      1.289
REMARK  9 active torsions:
REMARK  status: ('A' for Active; 'I' for Inactive)
REMARK    1  A    between atoms: C2_2  and  C3_3 
REMARK    2  A    between atoms: C3_3  and  C4_5 
REMARK    3  A    between atoms: C9_13  and  C10_14 
REMARK       I    between atoms: C10_14  and  N2_16 
REMARK    4  A    between atoms: N2_16  and  C11_18 
REMARK    5  A    between atoms: C11_18  and  C12_19 
REMARK    6  A    between atoms: C11_18  and  C19_26 
REMARK    7  A    between atoms: C12_19  and  C13_20 
REMARK    8  A    between atoms: C19_26  and  C20_28 
REMARK       I    between atoms: C20_28  and  N3_30 
REMARK    9  A    between atoms: N3_30  and  C21_32 
ROOT
HETATM    1  C10 UNL     1     -21.145  -4.056  -0.887  1.00  0.00     0.225 C 
HETATM    2  O2  UNL     1     -22.244  -3.949  -1.485  1.00  0.00    -0.273 OA
HETATM    3  N2  UNL     1     -20.225  -2.996  -0.999  1.00  0.00    -0.349 N 
ATOM      4  H2  UNL     1     -19.327  -3.060  -0.521  1.00  0.00     0.163 HD
ENDROOT
BRANCH   3   5
HETATM    5  C11 UNL     1     -20.534  -1.803  -1.790  1.00  0.00     0.164 C 
BRANCH   5   6
HETATM    6  C12 UNL     1     -19.884  -1.911  -3.159  1.00  0.00     0.038 C 
BRANCH   6   7
HETATM    7  C13 UNL     1     -20.804  -1.341  -4.250  1.00  0.00    -0.012 C 
HETATM    8  C14 UNL     1     -22.149  -1.077  -3.656  1.00  0.00     0.005 C 
HETATM    9  C15 UNL     1     -22.639   0.336  -3.908  1.00  0.00     0.000 C 
HETATM   10  C16 UNL     1     -22.448   0.691  -5.347  1.00  0.00     0.000 C 
HETATM   11  C17 UNL     1     -20.997   0.698  -5.697  1.00  0.00     0.000 C 
HETATM   12  C18 UNL     1     -20.132  -0.095  -4.773  1.00  0.00     0.005 C 
ENDBRANCH   6   7
ENDBRANCH   5   6
BRANCH   5  13
HETATM   13  C19 UNL     1     -19.874  -0.671  -1.084  1.00  0.00     0.238 C 
HETATM   14  O3  UNL     1     -20.388  -0.114  -0.056  1.00  0.00    -0.285 OA
BRANCH  13  15
HETATM   15  C20 UNL     1     -18.602  -0.182  -1.583  1.00  0.00     0.289 C 
HETATM   16  O4  UNL     1     -18.433   0.983  -1.990  1.00  0.00    -0.264 OA
HETATM   17  N3  UNL     1     -17.473  -1.067  -1.618  1.00  0.00    -0.347 N 
ATOM     18  H3  UNL     1     -17.562  -2.031  -1.295  1.00  0.00     0.163 HD
BRANCH  17  19
HETATM   19  C21 UNL     1     -16.215  -0.578  -2.113  1.00  0.00     0.118 C 
HETATM   20  C22 UNL     1     -15.475   0.228  -1.043  1.00  0.00     0.204 C 
HETATM   21  O5  UNL     1     -14.116  -0.088  -1.262  1.00  0.00    -0.319 OA
HETATM   22  C23 UNL     1     -13.971  -1.285  -1.938  1.00  0.00     0.260 C 
HETATM   23  O6  UNL     1     -12.895  -1.946  -2.061  1.00  0.00    -0.265 OA
HETATM   24  C24 UNL     1     -15.279  -1.673  -2.500  1.00  0.00     0.138 C 
ENDBRANCH  17  19
ENDBRANCH  13  15
ENDBRANCH   5  13
ENDBRANCH   3   5
BRANCH   1  25
HETATM   25  C9  UNL     1     -20.869  -5.259  -0.109  1.00  0.00     0.115 C 
HETATM   26  C6  UNL     1     -21.858  -6.390  -0.318  1.00  0.00     0.200 C 
HETATM   27  C5  UNL     1     -21.076  -7.558   0.284  1.00  0.00     0.046 C 
HETATM   28  N1  UNL     1     -21.788  -6.474  -1.778  1.00  0.00    -0.070 N 
HETATM   29  C4  UNL     1     -19.634  -7.172   0.233  1.00  0.00     0.065 C 
HETATM   30  C8  UNL     1     -19.682  -6.020  -0.755  1.00  0.00     0.037 C 
HETATM   31  C7  UNL     1     -20.330  -6.483  -2.010  1.00  0.00     0.239 C 
ATOM     32  H12 UNL     1     -22.297  -7.256  -2.191  1.00  0.00     0.277 HD
ATOM     33  H11 UNL     1     -22.302  -5.750  -2.279  1.00  0.00     0.277 HD
BRANCH  29  34
HETATM   34  C3  UNL     1     -18.681  -8.173  -0.213  1.00  0.00     0.145 C 
HETATM   35  O1  UNL     1     -19.143  -9.307  -0.473  1.00  0.00    -0.296 OA
BRANCH  34  36
HETATM   36  C2  UNL     1     -17.235  -8.055  -0.408  1.00  0.00     0.083 C 
HETATM   37  C1  UNL     1     -16.810  -7.415  -1.722  1.00  0.00     0.030 C 
HETATM   38  C25 UNL     1     -16.364  -9.232  -0.046  1.00  0.00     0.029 C 
HETATM   39  C26 UNL     1     -15.276  -8.174   0.264  1.00  0.00     0.081 C 
HETATM   40  C27 UNL     1     -16.471  -7.297   0.697  1.00  0.00     0.257 C 
HETATM   41  F1  UNL     1     -16.323  -5.973   0.392  1.00  0.00    -0.205 F 
HETATM   42  F2  UNL     1     -16.852  -7.589   1.969  1.00  0.00    -0.205 F 
ENDBRANCH  34  36
ENDBRANCH  29  34
ENDBRANCH   1  25
TORSDOF 9
ENDMDL
MODEL 5
REMARK VINA RESULT: -9.843074134      1.699      2.357
REMARK  9 active torsions:
REMARK  status: ('A' for Active; 'I' for Inactive)
REMARK    1  A    between atoms: C2_2  and  C3_3 
REMARK    2  A    between atoms: C3_3  and  C4_5 
REMARK    3  A    between atoms: C9_13  and  C10_14 
REMARK       I    between atoms: C10_14  and  N2_16 
REMARK    4  A    between atoms: N2_16  and  C11_18 
REMARK    5  A    between atoms: C11_18  and  C12_19 
REMARK    6  A    between atoms: C11_18  and  C19_26 
REMARK    7  A    between atoms: C12_19  and  C13_20 
REMARK    8  A    between atoms: C19_26  and  C20_28 
REMARK       I    between atoms: C20_28  and  N3_30 
REMARK    9  A    between atoms: N3_30  and  C21_32 
ROOT
HETATM    1  C10 UNL     1     -20.312  -2.598  -0.544  1.00  0.00     0.225 C 
HETATM    2  O2  UNL     1     -21.341  -1.898  -0.372  1.00  0.00    -0.273 OA
HETATM    3  N2  UNL     1     -19.219  -2.013  -1.212  1.00  0.00    -0.349 N 
ATOM      4  H2  UNL     1     -18.372  -2.561  -1.362  1.00  0.00     0.163 HD
ENDROOT
BRANCH   3   5
HETATM    5  C11 UNL     1     -19.275  -0.632  -1.696  1.00  0.00     0.164 C 
BRANCH   5   6
HETATM    6  C12 UNL     1     -19.683  -0.615  -3.159  1.00  0.00     0.038 C 
BRANCH   6   7
HETATM    7  C13 UNL     1     -20.729   0.478  -3.426  1.00  0.00    -0.012 C 
HETATM    8  C14 UNL     1     -21.483   0.129  -4.667  1.00  0.00     0.005 C 
HETATM    9  C15 UNL     1     -22.986   0.139  -4.468  1.00  0.00     0.000 C 
HETATM   10  C16 UNL     1     -23.396   1.385  -3.750  1.00  0.00     0.000 C 
HETATM   11  C17 UNL     1     -22.805   1.416  -2.379  1.00  0.00     0.000 C 
HETATM   12  C18 UNL     1     -21.606   0.546  -2.199  1.00  0.00     0.005 C 
ENDBRANCH   6   7
ENDBRANCH   5   6
BRANCH   5  13
HETATM   13  C19 UNL     1     -17.877  -0.126  -1.630  1.00  0.00     0.238 C 
HETATM   14  O3  UNL     1     -17.572   0.967  -1.044  1.00  0.00    -0.285 OA
BRANCH  13  15
HETATM   15  C20 UNL     1     -16.822  -0.903  -2.255  1.00  0.00     0.289 C 
HETATM   16  O4  UNL     1     -16.927  -1.403  -3.392  1.00  0.00    -0.264 OA
HETATM   17  N3  UNL     1     -15.592  -1.116  -1.548  1.00  0.00    -0.347 N 
ATOM     18  H3  UNL     1     -15.458  -0.727  -0.614  1.00  0.00     0.163 HD
BRANCH  17  19
HETATM   19  C21 UNL     1     -14.550  -1.886  -2.171  1.00  0.00     0.118 C 
HETATM   20  C22 UNL     1     -13.231  -1.750  -1.409  1.00  0.00     0.204 C 
HETATM   21  O5  UNL     1     -12.645  -3.031  -1.518  1.00  0.00    -0.319 OA
HETATM   22  C23 UNL     1     -13.589  -4.005  -1.784  1.00  0.00     0.260 C 
HETATM   23  O6  UNL     1     -13.413  -5.258  -1.694  1.00  0.00    -0.265 OA
HETATM   24  C24 UNL     1     -14.844  -3.348  -2.196  1.00  0.00     0.138 C 
ENDBRANCH  17  19
ENDBRANCH  13  15
ENDBRANCH   5  13
ENDBRANCH   3   5
BRANCH   1  25
HETATM   25  C9  UNL     1     -20.290  -3.971  -0.051  1.00  0.00     0.115 C 
HETATM   26  C6  UNL     1     -21.477  -4.814  -0.473  1.00  0.00     0.200 C 
HETATM   27  C5  UNL     1     -20.950  -6.214  -0.158  1.00  0.00     0.046 C 
HETATM   28  N1  UNL     1     -21.400  -4.593  -1.918  1.00  0.00    -0.070 N 
HETATM   29  C4  UNL     1     -19.461  -6.115  -0.161  1.00  0.00     0.065 C 
HETATM   30  C8  UNL     1     -19.265  -4.790  -0.876  1.00  0.00     0.037 C 
HETATM   31  C7  UNL     1     -19.969  -4.835  -2.184  1.00  0.00     0.239 C 
ATOM     32  H12 UNL     1     -22.045  -5.152  -2.477  1.00  0.00     0.277 HD
ATOM     33  H11 UNL     1     -21.754  -3.691  -2.238  1.00  0.00     0.277 HD
BRANCH  29  34
HETATM   34  C3  UNL     1     -18.714  -7.162  -0.836  1.00  0.00     0.145 C 
HETATM   35  O1  UNL     1     -19.387  -8.082  -1.354  1.00  0.00    -0.296 OA
BRANCH  34  36
HETATM   36  C2  UNL     1     -17.268  -7.307  -1.008  1.00  0.00     0.083 C 
HETATM   37  C1  UNL     1     -16.686  -6.601  -2.223  1.00  0.00     0.030 C 
HETATM   38  C25 UNL     1     -16.654  -8.670  -0.800  1.00  0.00     0.029 C 
HETATM   39  C26 UNL     1     -15.390  -7.896  -0.348  1.00  0.00     0.081 C 
HETATM   40  C27 UNL     1     -16.405  -6.864   0.191  1.00  0.00     0.257 C 
HETATM   41  F1  UNL     1     -15.993  -5.566   0.065  1.00  0.00    -0.205 F 
HETATM   42  F2  UNL     1     -16.874  -7.236   1.412  1.00  0.00    -0.205 F 
ENDBRANCH  34  36
ENDBRANCH  29  34
ENDBRANCH   1  25
TORSDOF 9
ENDMDL
