MODEL 1
REMARK VINA RESULT: -9.082187957      0.000      0.000
REMARK  12 active torsions:
REMARK  status: ('A' for Active; 'I' for Inactive)
REMARK    1  A    between atoms: C2_2  and  C4_4 
REMARK    2  A    between atoms: C4_4  and  N1_5 
REMARK    3  A    between atoms: C4_4  and  C11_16 
REMARK       I    between atoms: N1_5  and  C5_7 
REMARK    4  A    between atoms: C5_7  and  C6_9 
REMARK       I    between atoms: C11_16  and  N2_18 
REMARK    5  A    between atoms: N2_18  and  C12_20 
REMARK    6  A    between atoms: C12_20  and  C13_21 
REMARK    7  A    between atoms: C12_20  and  C16_24 
REMARK    8  A    between atoms: C16_24  and  C18_26 
REMARK    9  A    between atoms: C18_26  and  S1_27 
REMARK   10  A    between atoms: S1_27  and  C19_28 
REMARK   11  A    between atoms: C19_28  and  O3_29 
REMARK   12  A    between atoms: C19_28  and  N3_31 
REMARK       I    between atoms: N4_34  and  C22_35 
ROOT
HETATM    1  C12 UNL     1     -15.209  -3.748  -2.197  1.00  0.00     0.092 C 
ENDROOT
BRANCH   1   2
HETATM    2  N2  UNL     1     -16.211  -2.722  -1.989  1.00  0.00    -0.354 N 
HETATM    3  C11 UNL     1     -16.458  -1.628  -2.834  1.00  0.00     0.241 C 
HETATM    4  O2  UNL     1     -15.719  -1.548  -3.882  1.00  0.00    -0.271 OA
ATOM      5  H2  UNL     1     -16.788  -2.801  -1.152  1.00  0.00     0.162 HD
BRANCH   3   6
HETATM    6  C4  UNL     1     -17.439  -0.557  -2.688  1.00  0.00     0.180 C 
BRANCH   6   7
HETATM    7  C2  UNL     1     -17.498  -0.092  -1.235  1.00  0.00     0.009 C 
HETATM    8  C1  UNL     1     -18.749   0.679  -0.909  1.00  0.00     0.012 C 
HETATM    9  C3  UNL     1     -16.304   0.735  -0.839  1.00  0.00     0.012 C 
ENDBRANCH   6   7
BRANCH   6  10
HETATM   10  N1  UNL     1     -18.778  -0.984  -3.061  1.00  0.00    -0.347 N 
HETATM   11  C5  UNL     1     -19.436  -0.410  -4.168  1.00  0.00     0.222 C 
HETATM   12  O1  UNL     1     -18.796   0.494  -4.805  1.00  0.00    -0.273 OA
ATOM     13  H1  UNL     1     -19.246  -1.707  -2.516  1.00  0.00     0.163 HD
BRANCH  11  14
HETATM   14  C6  UNL     1     -20.772  -0.753  -4.647  1.00  0.00     0.084 C 
HETATM   15  C7  UNL     1     -21.613  -1.503  -3.655  1.00  0.00     0.020 C 
HETATM   16  C8  UNL     1     -22.621  -0.462  -3.145  1.00  0.00     0.080 C 
HETATM   17  C9  UNL     1     -22.878   0.420  -4.361  1.00  0.00     0.244 C 
HETATM   18  F1  UNL     1     -23.822  -0.106  -5.210  1.00  0.00    -0.206 F 
HETATM   19  F2  UNL     1     -23.259   1.684  -3.919  1.00  0.00    -0.206 F 
HETATM   20  C10 UNL     1     -21.544   0.484  -5.020  1.00  0.00     0.093 C 
ENDBRANCH  11  14
ENDBRANCH   6  10
ENDBRANCH   3   6
ENDBRANCH   1   2
BRANCH   1  21
HETATM   21  C13 UNL     1     -14.008  -3.503  -1.299  1.00  0.00     0.001 C 
HETATM   22  C14 UNL     1     -13.452  -2.129  -1.407  1.00  0.00     0.011 C 
HETATM   23  C15 UNL     1     -12.905  -4.449  -1.809  1.00  0.00     0.011 C 
ENDBRANCH   1  21
BRANCH   1  24
HETATM   24  C16 UNL     1     -15.782  -5.129  -2.041  1.00  0.00     0.014 C 
HETATM   25  C17 UNL     1     -16.282  -5.435  -0.673  1.00  0.00     0.012 C 
BRANCH  24  26
HETATM   26  C18 UNL     1     -16.792  -5.469  -3.128  1.00  0.00     0.089 C 
BRANCH  26  27
HETATM   27  S1  UNL     1     -18.337  -6.021  -2.493  1.00  0.00    -0.086 SA
BRANCH  27  28
HETATM   28  C19 UNL     1     -19.535  -4.913  -1.963  1.00  0.00     0.177 C 
BRANCH  28  29
HETATM   29  O3  UNL     1     -19.200  -3.634  -2.158  1.00  0.00    -0.341 OA
ATOM     30  H3  UNL     1     -18.629  -3.502  -2.906  1.00  0.00     0.220 HD
ENDBRANCH  28  29
BRANCH  28  31
HETATM   31  N3  UNL     1     -20.768  -5.133  -1.373  1.00  0.00    -0.353 N 
HETATM   32  C20 UNL     1     -21.826  -4.185  -1.277  1.00  0.00     0.145 C 
HETATM   33  C21 UNL     1     -22.885  -4.657  -2.295  1.00  0.00     0.147 C 
HETATM   34  N4  UNL     1     -23.299  -5.953  -1.827  1.00  0.00    -0.333 N 
HETATM   35  C22 UNL     1     -24.546  -6.438  -2.319  1.00  0.00     0.330 C 
HETATM   36  C23 UNL     1     -22.554  -6.758  -0.921  1.00  0.00     0.147 C 
HETATM   37  N5  UNL     1     -25.358  -5.708  -3.219  1.00  0.00    -0.040 NA
HETATM   38  O4  UNL     1     -24.996  -7.574  -1.965  1.00  0.00    -0.251 OA
HETATM   39  C24 UNL     1     -21.099  -6.463  -0.797  1.00  0.00     0.145 C 
ENDBRANCH  28  31
ENDBRANCH  27  28
ENDBRANCH  26  27
ENDBRANCH  24  26
ENDBRANCH   1  24
TORSDOF 12
ENDMDL
MODEL 2
REMARK VINA RESULT: -8.800573588      2.691      4.058
REMARK  12 active torsions:
REMARK  status: ('A' for Active; 'I' for Inactive)
REMARK    1  A    between atoms: C2_2  and  C4_4 
REMARK    2  A    between atoms: C4_4  and  N1_5 
REMARK    3  A    between atoms: C4_4  and  C11_16 
REMARK       I    between atoms: N1_5  and  C5_7 
REMARK    4  A    between atoms: C5_7  and  C6_9 
REMARK       I    between atoms: C11_16  and  N2_18 
REMARK    5  A    between atoms: N2_18  and  C12_20 
REMARK    6  A    between atoms: C12_20  and  C13_21 
REMARK    7  A    between atoms: C12_20  and  C16_24 
REMARK    8  A    between atoms: C16_24  and  C18_26 
REMARK    9  A    between atoms: C18_26  and  S1_27 
REMARK   10  A    between atoms: S1_27  and  C19_28 
REMARK   11  A    between atoms: C19_28  and  O3_29 
REMARK   12  A    between atoms: C19_28  and  N3_31 
REMARK       I    between atoms: N4_34  and  C22_35 
ROOT
HETATM    1  C12 UNL     1     -15.377  -3.745  -2.220  1.00  0.00     0.092 C 
ENDROOT
BRANCH   1   2
HETATM    2  N2  UNL     1     -16.354  -2.701  -1.985  1.00  0.00    -0.354 N 
HETATM    3  C11 UNL     1     -16.592  -1.592  -2.813  1.00  0.00     0.241 C 
HETATM    4  O2  UNL     1     -15.868  -1.515  -3.871  1.00  0.00    -0.271 OA
ATOM      5  H2  UNL     1     -16.920  -2.778  -1.140  1.00  0.00     0.162 HD
BRANCH   3   6
HETATM    6  C4  UNL     1     -17.548  -0.503  -2.639  1.00  0.00     0.180 C 
BRANCH   6   7
HETATM    7  C2  UNL     1     -17.550  -0.032  -1.187  1.00  0.00     0.009 C 
HETATM    8  C1  UNL     1     -18.740   0.825  -0.843  1.00  0.00     0.012 C 
HETATM    9  C3  UNL     1     -16.295   0.710  -0.812  1.00  0.00     0.012 C 
ENDBRANCH   6   7
BRANCH   6  10
HETATM   10  N1  UNL     1     -18.906  -0.907  -2.966  1.00  0.00    -0.347 N 
HETATM   11  C5  UNL     1     -19.539  -0.431  -4.132  1.00  0.00     0.222 C 
HETATM   12  O1  UNL     1     -18.859   0.365  -4.865  1.00  0.00    -0.273 OA
ATOM     13  H1  UNL     1     -19.406  -1.542  -2.344  1.00  0.00     0.163 HD
BRANCH  11  14
HETATM   14  C6  UNL     1     -20.891  -0.764  -4.573  1.00  0.00     0.084 C 
HETATM   15  C7  UNL     1     -21.708  -1.511  -3.560  1.00  0.00     0.020 C 
HETATM   16  C8  UNL     1     -22.694  -0.465  -3.018  1.00  0.00     0.080 C 
HETATM   17  C9  UNL     1     -22.980   0.422  -4.224  1.00  0.00     0.244 C 
HETATM   18  F1  UNL     1     -23.951  -0.095  -5.047  1.00  0.00    -0.206 F 
HETATM   19  F2  UNL     1     -23.339   1.687  -3.767  1.00  0.00    -0.206 F 
HETATM   20  C10 UNL     1     -21.665   0.479  -4.921  1.00  0.00     0.093 C 
ENDBRANCH  11  14
ENDBRANCH   6  10
ENDBRANCH   3   6
ENDBRANCH   1   2
BRANCH   1  21
HETATM   21  C13 UNL     1     -14.140  -3.513  -1.369  1.00  0.00     0.001 C 
HETATM   22  C14 UNL     1     -13.488  -2.199  -1.610  1.00  0.00     0.011 C 
HETATM   23  C15 UNL     1     -13.122  -4.580  -1.811  1.00  0.00     0.011 C 
ENDBRANCH   1  21
BRANCH   1  24
HETATM   24  C16 UNL     1     -15.966  -5.115  -2.032  1.00  0.00     0.014 C 
HETATM   25  C17 UNL     1     -16.426  -5.400  -0.646  1.00  0.00     0.012 C 
BRANCH  24  26
HETATM   26  C18 UNL     1     -17.017  -5.449  -3.082  1.00  0.00     0.089 C 
BRANCH  26  27
HETATM   27  S1  UNL     1     -18.648  -5.535  -2.430  1.00  0.00    -0.086 SA
BRANCH  27  28
HETATM   28  C19 UNL     1     -19.357  -7.034  -1.986  1.00  0.00     0.177 C 
BRANCH  28  29
HETATM   29  O3  UNL     1     -20.636  -7.146  -2.354  1.00  0.00    -0.341 OA
ATOM     30  H3  UNL     1     -20.970  -8.034  -2.296  1.00  0.00     0.220 HD
ENDBRANCH  28  29
BRANCH  28  31
HETATM   31  N3  UNL     1     -18.821  -8.120  -1.316  1.00  0.00    -0.353 N 
HETATM   32  C20 UNL     1     -18.189  -9.243  -1.923  1.00  0.00     0.145 C 
HETATM   33  C21 UNL     1     -16.685  -9.066  -1.632  1.00  0.00     0.147 C 
HETATM   34  N4  UNL     1     -16.575  -9.114  -0.198  1.00  0.00    -0.333 N 
HETATM   35  C22 UNL     1     -15.281  -9.396   0.332  1.00  0.00     0.330 C 
HETATM   36  C23 UNL     1     -17.658  -8.904   0.700  1.00  0.00     0.147 C 
HETATM   37  N5  UNL     1     -14.146  -9.622  -0.482  1.00  0.00    -0.040 NA
HETATM   38  O4  UNL     1     -15.084  -9.458   1.586  1.00  0.00    -0.251 OA
HETATM   39  C24 UNL     1     -18.842  -8.172   0.170  1.00  0.00     0.145 C 
ENDBRANCH  28  31
ENDBRANCH  27  28
ENDBRANCH  26  27
ENDBRANCH  24  26
ENDBRANCH   1  24
TORSDOF 12
ENDMDL
MODEL 3
REMARK VINA RESULT: -8.692542708      3.936      6.098
REMARK  12 active torsions:
REMARK  status: ('A' for Active; 'I' for Inactive)
REMARK    1  A    between atoms: C2_2  and  C4_4 
REMARK    2  A    between atoms: C4_4  and  N1_5 
REMARK    3  A    between atoms: C4_4  and  C11_16 
REMARK       I    between atoms: N1_5  and  C5_7 
REMARK    4  A    between atoms: C5_7  and  C6_9 
REMARK       I    between atoms: C11_16  and  N2_18 
REMARK    5  A    between atoms: N2_18  and  C12_20 
REMARK    6  A    between atoms: C12_20  and  C13_21 
REMARK    7  A    between atoms: C12_20  and  C16_24 
REMARK    8  A    between atoms: C16_24  and  C18_26 
REMARK    9  A    between atoms: C18_26  and  S1_27 
REMARK   10  A    between atoms: S1_27  and  C19_28 
REMARK   11  A    between atoms: C19_28  and  O3_29 
REMARK   12  A    between atoms: C19_28  and  N3_31 
REMARK       I    between atoms: N4_34  and  C22_35 
ROOT
HETATM    1  C12 UNL     1     -16.666  -1.028  -2.491  1.00  0.00     0.092 C 
ENDROOT
BRANCH   1   2
HETATM    2  N2  UNL     1     -18.081  -1.032  -2.180  1.00  0.00    -0.354 N 
HETATM    3  C11 UNL     1     -19.091  -0.408  -2.929  1.00  0.00     0.241 C 
HETATM    4  O2  UNL     1     -18.706   0.217  -3.983  1.00  0.00    -0.271 OA
ATOM      5  H2  UNL     1     -18.369  -1.533  -1.340  1.00  0.00     0.162 HD
BRANCH   3   6
HETATM    6  C4  UNL     1     -20.528  -0.363  -2.676  1.00  0.00     0.180 C 
BRANCH   6   7
HETATM    7  C2  UNL     1     -20.884   0.890  -1.881  1.00  0.00     0.009 C 
HETATM    8  C1  UNL     1     -20.397   0.848  -0.457  1.00  0.00     0.012 C 
HETATM    9  C3  UNL     1     -22.361   1.180  -1.878  1.00  0.00     0.012 C 
ENDBRANCH   6   7
BRANCH   6  10
HETATM   10  N1  UNL     1     -20.986  -1.509  -1.907  1.00  0.00    -0.347 N 
HETATM   11  C5  UNL     1     -21.501  -2.652  -2.552  1.00  0.00     0.222 C 
HETATM   12  O1  UNL     1     -21.543  -2.615  -3.829  1.00  0.00    -0.273 OA
ATOM     13  H1  UNL     1     -20.935  -1.486  -0.889  1.00  0.00     0.163 HD
BRANCH  11  14
HETATM   14  C6  UNL     1     -21.986  -3.864  -1.897  1.00  0.00     0.084 C 
HETATM   15  C7  UNL     1     -22.072  -5.063  -2.796  1.00  0.00     0.020 C 
HETATM   16  C8  UNL     1     -20.875  -5.935  -2.386  1.00  0.00     0.080 C 
HETATM   17  C9  UNL     1     -20.747  -5.690  -0.887  1.00  0.00     0.244 C 
HETATM   18  F1  UNL     1     -21.597  -6.474  -0.145  1.00  0.00    -0.206 F 
HETATM   19  F2  UNL     1     -19.422  -5.906  -0.515  1.00  0.00    -0.206 F 
HETATM   20  C10 UNL     1     -21.093  -4.249  -0.748  1.00  0.00     0.093 C 
ENDBRANCH  11  14
ENDBRANCH   6  10
ENDBRANCH   3   6
ENDBRANCH   1   2
BRANCH   1  21
HETATM   21  C13 UNL     1     -15.904  -0.193  -1.476  1.00  0.00     0.001 C 
HETATM   22  C14 UNL     1     -16.754   0.790  -0.754  1.00  0.00     0.011 C 
HETATM   23  C15 UNL     1     -14.893   0.636  -2.290  1.00  0.00     0.011 C 
ENDBRANCH   1  21
BRANCH   1  24
HETATM   24  C16 UNL     1     -16.119  -2.422  -2.628  1.00  0.00     0.014 C 
HETATM   25  C17 UNL     1     -14.777  -2.617  -2.017  1.00  0.00     0.012 C 
BRANCH  24  26
HETATM   26  C18 UNL     1     -17.121  -3.486  -2.201  1.00  0.00     0.089 C 
BRANCH  26  27
HETATM   27  S1  UNL     1     -16.702  -5.100  -2.764  1.00  0.00    -0.086 SA
BRANCH  27  28
HETATM   28  C19 UNL     1     -15.730  -6.153  -1.820  1.00  0.00     0.177 C 
BRANCH  28  29
HETATM   29  O3  UNL     1     -14.419  -5.944  -1.971  1.00  0.00    -0.341 OA
ATOM     30  H3  UNL     1     -13.880  -6.581  -1.517  1.00  0.00     0.220 HD
ENDBRANCH  28  29
BRANCH  28  31
HETATM   31  N3  UNL     1     -16.086  -7.167  -0.949  1.00  0.00    -0.353 N 
HETATM   32  C20 UNL     1     -16.732  -8.384  -1.308  1.00  0.00     0.145 C 
HETATM   33  C21 UNL     1     -15.641  -9.469  -1.196  1.00  0.00     0.147 C 
HETATM   34  N4  UNL     1     -15.257  -9.469   0.191  1.00  0.00    -0.333 N 
HETATM   35  C22 UNL     1     -14.584 -10.633   0.665  1.00  0.00     0.330 C 
HETATM   36  C23 UNL     1     -15.508  -8.400   1.095  1.00  0.00     0.147 C 
HETATM   37  N5  UNL     1     -14.295 -11.747  -0.159  1.00  0.00    -0.040 NA
HETATM   38  O4  UNL     1     -14.204 -10.726   1.874  1.00  0.00    -0.251 OA
HETATM   39  C24 UNL     1     -15.769  -7.060   0.500  1.00  0.00     0.145 C 
ENDBRANCH  28  31
ENDBRANCH  27  28
ENDBRANCH  26  27
ENDBRANCH  24  26
ENDBRANCH   1  24
TORSDOF 12
ENDMDL
MODEL 4
REMARK VINA RESULT: -8.680743732      3.369      5.100
REMARK  12 active torsions:
REMARK  status: ('A' for Active; 'I' for Inactive)
REMARK    1  A    between atoms: C2_2  and  C4_4 
REMARK    2  A    between atoms: C4_4  and  N1_5 
REMARK    3  A    between atoms: C4_4  and  C11_16 
REMARK       I    between atoms: N1_5  and  C5_7 
REMARK    4  A    between atoms: C5_7  and  C6_9 
REMARK       I    between atoms: C11_16  and  N2_18 
REMARK    5  A    between atoms: N2_18  and  C12_20 
REMARK    6  A    between atoms: C12_20  and  C13_21 
REMARK    7  A    between atoms: C12_20  and  C16_24 
REMARK    8  A    between atoms: C16_24  and  C18_26 
REMARK    9  A    between atoms: C18_26  and  S1_27 
REMARK   10  A    between atoms: S1_27  and  C19_28 
REMARK   11  A    between atoms: C19_28  and  O3_29 
REMARK   12  A    between atoms: C19_28  and  N3_31 
REMARK       I    between atoms: N4_34  and  C22_35 
ROOT
HETATM    1  C12 UNL     1     -16.452  -1.168  -2.527  1.00  0.00     0.092 C 
ENDROOT
BRANCH   1   2
HETATM    2  N2  UNL     1     -17.856  -1.135  -2.170  1.00  0.00    -0.354 N 
HETATM    3  C11 UNL     1     -18.860  -0.418  -2.840  1.00  0.00     0.241 C 
HETATM    4  O2  UNL     1     -18.480   0.263  -3.860  1.00  0.00    -0.271 OA
ATOM      5  H2  UNL     1     -18.140  -1.682  -1.357  1.00  0.00     0.162 HD
BRANCH   3   6
HETATM    6  C4  UNL     1     -20.286  -0.332  -2.536  1.00  0.00     0.180 C 
BRANCH   6   7
HETATM    7  C2  UNL     1     -20.575   0.925  -1.719  1.00  0.00     0.009 C 
HETATM    8  C1  UNL     1     -20.104   0.825  -0.292  1.00  0.00     0.012 C 
HETATM    9  C3  UNL     1     -22.032   1.301  -1.723  1.00  0.00     0.012 C 
ENDBRANCH   6   7
BRANCH   6  10
HETATM   10  N1  UNL     1     -20.752  -1.470  -1.761  1.00  0.00    -0.347 N 
HETATM   11  C5  UNL     1     -21.406  -2.551  -2.388  1.00  0.00     0.222 C 
HETATM   12  O1  UNL     1     -21.564  -2.464  -3.653  1.00  0.00    -0.273 OA
ATOM     13  H1  UNL     1     -20.604  -1.488  -0.752  1.00  0.00     0.163 HD
BRANCH  11  14
HETATM   14  C6  UNL     1     -21.914  -3.749  -1.726  1.00  0.00     0.084 C 
HETATM   15  C7  UNL     1     -22.977  -4.479  -2.495  1.00  0.00     0.020 C 
HETATM   16  C8  UNL     1     -22.260  -5.716  -3.058  1.00  0.00     0.080 C 
HETATM   17  C9  UNL     1     -21.245  -6.069  -1.977  1.00  0.00     0.244 C 
HETATM   18  F1  UNL     1     -21.788  -6.821  -0.963  1.00  0.00    -0.206 F 
HETATM   19  F2  UNL     1     -20.178  -6.736  -2.572  1.00  0.00    -0.206 F 
HETATM   20  C10 UNL     1     -20.807  -4.737  -1.476  1.00  0.00     0.093 C 
ENDBRANCH  11  14
ENDBRANCH   6  10
ENDBRANCH   3   6
ENDBRANCH   1   2
BRANCH   1  21
HETATM   21  C13 UNL     1     -15.639  -0.335  -1.550  1.00  0.00     0.001 C 
HETATM   22  C14 UNL     1     -16.453   0.634  -0.771  1.00  0.00     0.011 C 
HETATM   23  C15 UNL     1     -14.685   0.510  -2.415  1.00  0.00     0.011 C 
ENDBRANCH   1  21
BRANCH   1  24
HETATM   24  C16 UNL     1     -15.941  -2.575  -2.659  1.00  0.00     0.014 C 
HETATM   25  C17 UNL     1     -14.661  -2.834  -1.946  1.00  0.00     0.012 C 
BRANCH  24  26
HETATM   26  C18 UNL     1     -17.009  -3.616  -2.349  1.00  0.00     0.089 C 
BRANCH  26  27
HETATM   27  S1  UNL     1     -16.500  -5.261  -2.706  1.00  0.00    -0.086 SA
BRANCH  27  28
HETATM   28  C19 UNL     1     -15.687  -6.220  -1.538  1.00  0.00     0.177 C 
BRANCH  28  29
HETATM   29  O3  UNL     1     -14.393  -6.410  -1.814  1.00  0.00    -0.341 OA
ATOM     30  H3  UNL     1     -13.815  -6.170  -1.100  1.00  0.00     0.220 HD
ENDBRANCH  28  29
BRANCH  28  31
HETATM   31  N3  UNL     1     -16.154  -6.819  -0.382  1.00  0.00    -0.353 N 
HETATM   32  C20 UNL     1     -17.278  -6.391   0.381  1.00  0.00     0.145 C 
HETATM   33  C21 UNL     1     -18.380  -7.432   0.096  1.00  0.00     0.147 C 
HETATM   34  N4  UNL     1     -17.854  -8.677   0.591  1.00  0.00    -0.333 N 
HETATM   35  C22 UNL     1     -18.801  -9.712   0.843  1.00  0.00     0.330 C 
HETATM   36  C23 UNL     1     -16.477  -8.925   0.841  1.00  0.00     0.147 C 
HETATM   37  N5  UNL     1     -20.192  -9.557   0.628  1.00  0.00    -0.040 NA
HETATM   38  O4  UNL     1     -18.433 -10.848   1.279  1.00  0.00    -0.251 OA
HETATM   39  C24 UNL     1     -15.495  -8.041   0.153  1.00  0.00     0.145 C 
ENDBRANCH  28  31
ENDBRANCH  27  28
ENDBRANCH  26  27
ENDBRANCH  24  26
ENDBRANCH   1  24
TORSDOF 12
ENDMDL
MODEL 5
REMARK VINA RESULT: -8.503585603      1.032      1.056
REMARK  12 active torsions:
REMARK  status: ('A' for Active; 'I' for Inactive)
REMARK    1  A    between atoms: C2_2  and  C4_4 
REMARK    2  A    between atoms: C4_4  and  N1_5 
REMARK    3  A    between atoms: C4_4  and  C11_16 
REMARK       I    between atoms: N1_5  and  C5_7 
REMARK    4  A    between atoms: C5_7  and  C6_9 
REMARK       I    between atoms: C11_16  and  N2_18 
REMARK    5  A    between atoms: N2_18  and  C12_20 
REMARK    6  A    between atoms: C12_20  and  C13_21 
REMARK    7  A    between atoms: C12_20  and  C16_24 
REMARK    8  A    between atoms: C16_24  and  C18_26 
REMARK    9  A    between atoms: C18_26  and  S1_27 
REMARK   10  A    between atoms: S1_27  and  C19_28 
REMARK   11  A    between atoms: C19_28  and  O3_29 
REMARK   12  A    between atoms: C19_28  and  N3_31 
REMARK       I    between atoms: N4_34  and  C22_35 
ROOT
HETATM    1  C12 UNL     1     -15.266  -3.814  -2.151  1.00  0.00     0.092 C 
ENDROOT
BRANCH   1   2
HETATM    2  N2  UNL     1     -16.244  -2.762  -1.960  1.00  0.00    -0.354 N 
HETATM    3  C11 UNL     1     -16.479  -1.687  -2.831  1.00  0.00     0.241 C 
HETATM    4  O2  UNL     1     -15.751  -1.650  -3.889  1.00  0.00    -0.271 OA
ATOM      5  H2  UNL     1     -16.814  -2.808  -1.115  1.00  0.00     0.162 HD
BRANCH   3   6
HETATM    6  C4  UNL     1     -17.437  -0.592  -2.703  1.00  0.00     0.180 C 
BRANCH   6   7
HETATM    7  C2  UNL     1     -17.421  -0.044  -1.278  1.00  0.00     0.009 C 
HETATM    8  C1  UNL     1     -18.589   0.858  -0.977  1.00  0.00     0.012 C 
HETATM    9  C3  UNL     1     -16.148   0.687  -0.948  1.00  0.00     0.012 C 
ENDBRANCH   6   7
BRANCH   6  10
HETATM   10  N1  UNL     1     -18.797  -1.016  -2.990  1.00  0.00    -0.347 N 
HETATM   11  C5  UNL     1     -19.524  -0.440  -4.051  1.00  0.00     0.222 C 
HETATM   12  O1  UNL     1     -18.925   0.464  -4.727  1.00  0.00    -0.273 OA
ATOM     13  H1  UNL     1     -19.231  -1.739  -2.416  1.00  0.00     0.163 HD
BRANCH  11  14
HETATM   14  C6  UNL     1     -20.889  -0.780  -4.444  1.00  0.00     0.084 C 
HETATM   15  C7  UNL     1     -21.709  -1.409  -3.355  1.00  0.00     0.020 C 
HETATM   16  C8  UNL     1     -22.664  -0.294  -2.903  1.00  0.00     0.080 C 
HETATM   17  C9  UNL     1     -22.946   0.483  -4.183  1.00  0.00     0.244 C 
HETATM   18  F1  UNL     1     -23.939  -0.086  -4.943  1.00  0.00    -0.206 F 
HETATM   19  F2  UNL     1     -23.270   1.793  -3.843  1.00  0.00    -0.206 F 
HETATM   20  C10 UNL     1     -21.639   0.443  -4.898  1.00  0.00     0.093 C 
ENDBRANCH  11  14
ENDBRANCH   6  10
ENDBRANCH   3   6
ENDBRANCH   1   2
BRANCH   1  21
HETATM   21  C13 UNL     1     -14.050  -3.570  -1.275  1.00  0.00     0.001 C 
HETATM   22  C14 UNL     1     -13.588  -2.157  -1.276  1.00  0.00     0.011 C 
HETATM   23  C15 UNL     1     -12.909  -4.390  -1.905  1.00  0.00     0.011 C 
ENDBRANCH   1  21
BRANCH   1  24
HETATM   24  C16 UNL     1     -15.865  -5.178  -1.951  1.00  0.00     0.014 C 
HETATM   25  C17 UNL     1     -15.609  -5.770  -0.610  1.00  0.00     0.012 C 
BRANCH  24  26
HETATM   26  C18 UNL     1     -17.333  -5.237  -2.350  1.00  0.00     0.089 C 
BRANCH  26  27
HETATM   27  S1  UNL     1     -18.166  -6.657  -1.730  1.00  0.00    -0.086 SA
BRANCH  27  28
HETATM   28  C19 UNL     1     -19.149  -6.576  -0.326  1.00  0.00     0.177 C 
BRANCH  28  29
HETATM   29  O3  UNL     1     -18.519  -6.961   0.787  1.00  0.00    -0.341 OA
ATOM     30  H3  UNL     1     -19.064  -7.473   1.373  1.00  0.00     0.220 HD
ENDBRANCH  28  29
BRANCH  28  31
HETATM   31  N3  UNL     1     -20.468  -6.186  -0.172  1.00  0.00    -0.353 N 
HETATM   32  C20 UNL     1     -21.016  -4.931  -0.562  1.00  0.00     0.145 C 
HETATM   33  C21 UNL     1     -21.864  -5.232  -1.814  1.00  0.00     0.147 C 
HETATM   34  N4  UNL     1     -22.891  -6.133  -1.361  1.00  0.00    -0.333 N 
HETATM   35  C22 UNL     1     -24.048  -6.247  -2.186  1.00  0.00     0.330 C 
HETATM   36  C23 UNL     1     -22.820  -6.897  -0.163  1.00  0.00     0.147 C 
HETATM   37  N5  UNL     1     -24.210  -5.525  -3.393  1.00  0.00    -0.040 NA
HETATM   38  O4  UNL     1     -25.007  -7.019  -1.871  1.00  0.00    -0.251 OA
HETATM   39  C24 UNL     1     -21.465  -7.121   0.415  1.00  0.00     0.145 C 
ENDBRANCH  28  31
ENDBRANCH  27  28
ENDBRANCH  26  27
ENDBRANCH  24  26
ENDBRANCH   1  24
TORSDOF 12
ENDMDL
