MODEL 1
REMARK VINA RESULT: -9.472342867      0.000      0.000
REMARK  10 active torsions:
REMARK  status: ('A' for Active; 'I' for Inactive)
REMARK    1  A    between atoms: N1_2  and  C2_3 
REMARK    2  A    between atoms: N1_2  and  C20_34 
REMARK    3  A    between atoms: C2_3  and  C3_4 
REMARK    4  A    between atoms: C3_4  and  C4_5 
REMARK    5  A    between atoms: C4_5  and  C5_6 
REMARK    6  A    between atoms: C5_6  and  C6_7 
REMARK    7  A    between atoms: C6_7  and  N2_8 
REMARK    8  A    between atoms: C6_7  and  C7_12 
REMARK       I    between atoms: C7_12  and  N3_14 
REMARK    9  A    between atoms: C12_19  and  C13_20 
REMARK       I    between atoms: C13_20  and  N4_22 
REMARK   10  A    between atoms: C18_29  and  C19_30 
ROOT
HETATM    1  C7  UNL     1     -21.850  -3.343  -2.181  1.00  0.00     0.266 C 
HETATM    2  O1  UNL     1     -22.235  -2.776  -3.235  1.00  0.00    -0.270 OA
HETATM    3  N3  UNL     1     -22.144  -4.694  -2.010  1.00  0.00    -0.263 N 
HETATM    4  C8  UNL     1     -22.906  -5.396  -3.036  1.00  0.00     0.148 C 
HETATM    5  C9  UNL     1     -23.901  -6.279  -2.329  1.00  0.00     0.022 C 
HETATM    6  C10 UNL     1     -23.290  -7.289  -1.425  1.00  0.00     0.004 C 
HETATM    7  C11 UNL     1     -21.848  -7.596  -1.649  1.00  0.00     0.033 C 
HETATM    8  C12 UNL     1     -20.896  -6.481  -1.268  1.00  0.00     0.191 C 
HETATM    9  N5  UNL     1     -21.658  -5.297  -0.858  1.00  0.00    -0.122 NA
ENDROOT
BRANCH   1  10
HETATM   10  C6  UNL     1     -21.100  -2.600  -1.148  1.00  0.00     0.276 C 
BRANCH  10  11
HETATM   11  C5  UNL     1     -21.215  -1.107  -1.259  1.00  0.00     0.043 C 
BRANCH  11  12
HETATM   12  C4  UNL     1     -20.346  -0.284  -0.411  1.00  0.00     0.004 C 
BRANCH  12  13
HETATM   13  C3  UNL     1     -19.417   0.692  -1.104  1.00  0.00     0.030 C 
BRANCH  13  14
HETATM   14  C2  UNL     1     -18.021   0.192  -1.151  1.00  0.00     0.272 C 
BRANCH  14  15
HETATM   15  N1  UNL     1     -17.319   0.324  -2.434  1.00  0.00     0.088 N 
HETATM   16  C1  UNL     1     -18.321  -0.371  -3.336  1.00  0.00     0.310 C 
BRANCH  15  17
HETATM   17  C20 UNL     1     -16.121  -0.499  -2.494  1.00  0.00     0.222 C 
HETATM   18  C21 UNL     1     -15.140  -0.040  -1.379  1.00  0.00     0.036 C 
HETATM   19  C22 UNL     1     -13.822  -0.724  -1.747  1.00  0.00     0.002 C 
HETATM   20  C23 UNL     1     -13.732  -2.078  -1.110  1.00  0.00     0.000 C 
HETATM   21  C24 UNL     1     -14.212  -3.195  -1.979  1.00  0.00     0.000 C 
HETATM   22  C25 UNL     1     -15.420  -2.872  -2.819  1.00  0.00     0.002 C 
HETATM   23  C26 UNL     1     -16.385  -1.944  -2.108  1.00  0.00     0.036 C 
ENDBRANCH  15  17
ENDBRANCH  14  15
ENDBRANCH  13  14
ENDBRANCH  12  13
ENDBRANCH  11  12
ENDBRANCH  10  11
BRANCH  10  24
HETATM   24  N2  UNL     1     -19.708  -3.039  -1.158  1.00  0.00    -0.066 N 
ATOM     25  H23 UNL     1     -19.401  -3.274  -2.102  1.00  0.00     0.275 HD
ATOM     26  H22 UNL     1     -19.073  -2.264  -0.971  1.00  0.00     0.275 HD
ATOM     27  H21 UNL     1     -19.550  -3.813  -0.513  1.00  0.00     0.275 HD
ENDBRANCH  10  24
ENDBRANCH   1  10
BRANCH   8  28
HETATM   28  C13 UNL     1     -19.966  -6.879  -0.187  1.00  0.00     0.241 C 
HETATM   29  O2  UNL     1     -20.418  -6.810   1.015  1.00  0.00    -0.271 OA
HETATM   30  N4  UNL     1     -18.646  -7.318  -0.386  1.00  0.00    -0.336 N 
HETATM   31  C14 UNL     1     -17.880  -7.721   0.806  1.00  0.00     0.133 C 
HETATM   32  C18 UNL     1     -18.032  -7.354  -1.680  1.00  0.00     0.193 C 
HETATM   33  C15 UNL     1     -16.433  -7.328   0.704  1.00  0.00     0.099 C 
HETATM   34  C16 UNL     1     -15.807  -7.763  -0.596  1.00  0.00     0.247 C 
HETATM   35  F1  UNL     1     -15.123  -6.721  -1.184  1.00  0.00    -0.206 F 
HETATM   36  F2  UNL     1     -14.879  -8.786  -0.418  1.00  0.00    -0.206 F 
HETATM   37  C17 UNL     1     -16.843  -8.302  -1.565  1.00  0.00     0.115 C 
BRANCH  32  38
HETATM   38  C19 UNL     1     -17.526  -5.994  -2.080  1.00  0.00     0.197 C 
HETATM   39  O3  UNL     1     -17.046  -5.852  -3.216  1.00  0.00    -0.646 OA
HETATM   40  O4  UNL     1     -17.583  -4.911  -1.223  1.00  0.00    -0.646 OA
ENDBRANCH  32  38
ENDBRANCH   8  28
TORSDOF 10
ENDMDL
MODEL 2
REMARK VINA RESULT: -9.080183344      3.307      8.638
REMARK  10 active torsions:
REMARK  status: ('A' for Active; 'I' for Inactive)
REMARK    1  A    between atoms: N1_2  and  C2_3 
REMARK    2  A    between atoms: N1_2  and  C20_34 
REMARK    3  A    between atoms: C2_3  and  C3_4 
REMARK    4  A    between atoms: C3_4  and  C4_5 
REMARK    5  A    between atoms: C4_5  and  C5_6 
REMARK    6  A    between atoms: C5_6  and  C6_7 
REMARK    7  A    between atoms: C6_7  and  N2_8 
REMARK    8  A    between atoms: C6_7  and  C7_12 
REMARK       I    between atoms: C7_12  and  N3_14 
REMARK    9  A    between atoms: C12_19  and  C13_20 
REMARK       I    between atoms: C13_20  and  N4_22 
REMARK   10  A    between atoms: C18_29  and  C19_30 
ROOT
HETATM    1  C7  UNL     1     -17.121  -3.604  -2.329  1.00  0.00     0.266 C 
HETATM    2  O1  UNL     1     -16.431  -4.376  -3.042  1.00  0.00    -0.270 OA
HETATM    3  N3  UNL     1     -16.672  -2.300  -2.137  1.00  0.00    -0.263 N 
HETATM    4  C8  UNL     1     -15.413  -1.881  -2.741  1.00  0.00     0.148 C 
HETATM    5  C9  UNL     1     -14.680  -1.052  -1.718  1.00  0.00     0.022 C 
HETATM    6  C10 UNL     1     -15.414   0.162  -1.273  1.00  0.00     0.004 C 
HETATM    7  C11 UNL     1     -16.516   0.636  -2.160  1.00  0.00     0.033 C 
HETATM    8  C12 UNL     1     -17.738  -0.259  -2.184  1.00  0.00     0.191 C 
HETATM    9  N5  UNL     1     -17.487  -1.464  -1.386  1.00  0.00    -0.122 NA
ENDROOT
BRANCH   1  10
HETATM   10  C6  UNL     1     -18.381  -4.065  -1.710  1.00  0.00     0.276 C 
BRANCH  10  11
HETATM   11  C5  UNL     1     -18.194  -5.029  -0.575  1.00  0.00     0.043 C 
BRANCH  11  12
HETATM   12  C4  UNL     1     -18.387  -6.458  -0.844  1.00  0.00     0.004 C 
BRANCH  12  13
HETATM   13  C3  UNL     1     -19.240  -7.243   0.131  1.00  0.00     0.030 C 
BRANCH  13  14
HETATM   14  C2  UNL     1     -20.409  -6.460   0.602  1.00  0.00     0.272 C 
BRANCH  14  15
HETATM   15  N1  UNL     1     -21.690  -7.175   0.679  1.00  0.00     0.088 N 
HETATM   16  C1  UNL     1     -21.174  -8.600   0.735  1.00  0.00     0.310 C 
BRANCH  15  17
HETATM   17  C20 UNL     1     -22.442  -7.094  -0.564  1.00  0.00     0.222 C 
HETATM   18  C21 UNL     1     -23.953  -7.279  -0.250  1.00  0.00     0.036 C 
HETATM   19  C22 UNL     1     -24.587  -7.511  -1.623  1.00  0.00     0.002 C 
HETATM   20  C23 UNL     1     -24.993  -6.209  -2.244  1.00  0.00     0.000 C 
HETATM   21  C24 UNL     1     -23.962  -5.616  -3.149  1.00  0.00     0.000 C 
HETATM   22  C25 UNL     1     -22.539  -5.779  -2.683  1.00  0.00     0.002 C 
HETATM   23  C26 UNL     1     -22.414  -5.703  -1.174  1.00  0.00     0.036 C 
ENDBRANCH  15  17
ENDBRANCH  14  15
ENDBRANCH  13  14
ENDBRANCH  12  13
ENDBRANCH  11  12
ENDBRANCH  10  11
BRANCH  10  24
HETATM   24  N2  UNL     1     -19.252  -4.610  -2.747  1.00  0.00    -0.066 N 
ATOM     25  H23 UNL     1     -19.198  -4.059  -3.604  1.00  0.00     0.275 HD
ATOM     26  H22 UNL     1     -18.895  -5.496  -3.104  1.00  0.00     0.275 HD
ATOM     27  H21 UNL     1     -20.215  -4.701  -2.425  1.00  0.00     0.275 HD
ENDBRANCH  10  24
ENDBRANCH   1  10
BRANCH   8  28
HETATM   28  C13 UNL     1     -18.950   0.430  -1.687  1.00  0.00     0.241 C 
HETATM   29  O2  UNL     1     -18.868   0.971  -0.524  1.00  0.00    -0.271 OA
HETATM   30  N4  UNL     1     -20.163   0.527  -2.391  1.00  0.00    -0.336 N 
HETATM   31  C14 UNL     1     -21.251   1.294  -1.761  1.00  0.00     0.133 C 
HETATM   32  C18 UNL     1     -20.373  -0.111  -3.657  1.00  0.00     0.193 C 
HETATM   33  C15 UNL     1     -22.598   0.680  -2.023  1.00  0.00     0.099 C 
HETATM   34  C16 UNL     1     -22.825   0.391  -3.485  1.00  0.00     0.247 C 
HETATM   35  F1  UNL     1     -23.287  -0.895  -3.665  1.00  0.00    -0.206 F 
HETATM   36  F2  UNL     1     -23.785   1.231  -4.045  1.00  0.00    -0.206 F 
HETATM   37  C17 UNL     1     -21.561   0.596  -4.301  1.00  0.00     0.115 C 
BRANCH  32  38
HETATM   38  C19 UNL     1     -20.714  -1.566  -3.484  1.00  0.00     0.197 C 
HETATM   39  O3  UNL     1     -20.784  -2.282  -4.495  1.00  0.00    -0.646 OA
HETATM   40  O4  UNL     1     -20.948  -2.120  -2.239  1.00  0.00    -0.646 OA
ENDBRANCH  32  38
ENDBRANCH   8  28
TORSDOF 10
ENDMDL
MODEL 3
REMARK VINA RESULT: -8.957617136      3.007      4.888
REMARK  10 active torsions:
REMARK  status: ('A' for Active; 'I' for Inactive)
REMARK    1  A    between atoms: N1_2  and  C2_3 
REMARK    2  A    between atoms: N1_2  and  C20_34 
REMARK    3  A    between atoms: C2_3  and  C3_4 
REMARK    4  A    between atoms: C3_4  and  C4_5 
REMARK    5  A    between atoms: C4_5  and  C5_6 
REMARK    6  A    between atoms: C5_6  and  C6_7 
REMARK    7  A    between atoms: C6_7  and  N2_8 
REMARK    8  A    between atoms: C6_7  and  C7_12 
REMARK       I    between atoms: C7_12  and  N3_14 
REMARK    9  A    between atoms: C12_19  and  C13_20 
REMARK       I    between atoms: C13_20  and  N4_22 
REMARK   10  A    between atoms: C18_29  and  C19_30 
ROOT
HETATM    1  C7  UNL     1     -19.980  -4.428  -1.310  1.00  0.00     0.266 C 
HETATM    2  O1  UNL     1     -19.767  -3.418  -0.593  1.00  0.00    -0.270 OA
HETATM    3  N3  UNL     1     -18.973  -5.384  -1.425  1.00  0.00    -0.263 N 
HETATM    4  C8  UNL     1     -17.704  -5.172  -0.738  1.00  0.00     0.148 C 
HETATM    5  C9  UNL     1     -16.608  -5.584  -1.687  1.00  0.00     0.022 C 
HETATM    6  C10 UNL     1     -16.676  -7.005  -2.120  1.00  0.00     0.004 C 
HETATM    7  C11 UNL     1     -17.495  -7.920  -1.275  1.00  0.00     0.033 C 
HETATM    8  C12 UNL     1     -18.989  -7.685  -1.351  1.00  0.00     0.191 C 
HETATM    9  N5  UNL     1     -19.265  -6.509  -2.183  1.00  0.00    -0.122 NA
ENDROOT
BRANCH   1  10
HETATM   10  C6  UNL     1     -21.268  -4.605  -2.012  1.00  0.00     0.276 C 
BRANCH  10  11
HETATM   11  C5  UNL     1     -21.562  -3.545  -3.034  1.00  0.00     0.043 C 
BRANCH  11  12
HETATM   12  C4  UNL     1     -22.503  -2.480  -2.672  1.00  0.00     0.004 C 
BRANCH  12  13
HETATM   13  C3  UNL     1     -22.081  -1.052  -2.949  1.00  0.00     0.030 C 
BRANCH  13  14
HETATM   14  C2  UNL     1     -21.170  -0.528  -1.902  1.00  0.00     0.272 C 
BRANCH  14  15
HETATM   15  N1  UNL     1     -20.067   0.327  -2.358  1.00  0.00     0.088 N 
HETATM   16  C1  UNL     1     -20.084  -0.015  -3.835  1.00  0.00     0.310 C 
BRANCH  15  17
HETATM   17  C20 UNL     1     -18.775  -0.137  -1.877  1.00  0.00     0.222 C 
HETATM   18  C21 UNL     1     -18.168  -1.110  -2.926  1.00  0.00     0.036 C 
HETATM   19  C22 UNL     1     -17.009  -1.776  -2.181  1.00  0.00     0.002 C 
HETATM   20  C23 UNL     1     -15.747  -0.987  -2.352  1.00  0.00     0.000 C 
HETATM   21  C24 UNL     1     -15.492   0.001  -1.260  1.00  0.00     0.000 C 
HETATM   22  C25 UNL     1     -16.718   0.707  -0.742  1.00  0.00     0.002 C 
HETATM   23  C26 UNL     1     -17.736   0.971  -1.834  1.00  0.00     0.036 C 
ENDBRANCH  15  17
ENDBRANCH  14  15
ENDBRANCH  13  14
ENDBRANCH  12  13
ENDBRANCH  11  12
ENDBRANCH  10  11
BRANCH  10  24
HETATM   24  N2  UNL     1     -22.338  -4.720  -1.026  1.00  0.00    -0.066 N 
ATOM     25  H23 UNL     1     -22.082  -4.273  -0.147  1.00  0.00     0.275 HD
ATOM     26  H22 UNL     1     -23.137  -4.138  -1.276  1.00  0.00     0.275 HD
ATOM     27  H21 UNL     1     -22.618  -5.691  -0.882  1.00  0.00     0.275 HD
ENDBRANCH  10  24
ENDBRANCH   1  10
BRANCH   8  28
HETATM   28  C13 UNL     1     -19.717  -8.859  -1.883  1.00  0.00     0.241 C 
HETATM   29  O2  UNL     1     -19.367  -9.274  -3.048  1.00  0.00    -0.271 OA
HETATM   30  N4  UNL     1     -20.748  -9.536  -1.209  1.00  0.00    -0.336 N 
HETATM   31  C14 UNL     1     -21.328 -10.718  -1.872  1.00  0.00     0.133 C 
HETATM   32  C18 UNL     1     -21.258  -9.101   0.057  1.00  0.00     0.193 C 
HETATM   33  C15 UNL     1     -22.808 -10.825  -1.636  1.00  0.00     0.099 C 
HETATM   34  C16 UNL     1     -23.170 -10.708  -0.177  1.00  0.00     0.247 C 
HETATM   35  F1  UNL     1     -24.193  -9.802   0.002  1.00  0.00    -0.206 F 
HETATM   36  F2  UNL     1     -23.621 -11.915   0.352  1.00  0.00    -0.206 F 
HETATM   37  C17 UNL     1     -21.975 -10.301   0.666  1.00  0.00     0.115 C 
BRANCH  32  38
HETATM   38  C19 UNL     1     -22.249  -7.982  -0.111  1.00  0.00     0.197 C 
HETATM   39  O3  UNL     1     -22.644  -7.383   0.902  1.00  0.00    -0.646 OA
HETATM   40  O4  UNL     1     -22.726  -7.606  -1.353  1.00  0.00    -0.646 OA
ENDBRANCH  32  38
ENDBRANCH   8  28
TORSDOF 10
ENDMDL
MODEL 4
REMARK VINA RESULT: -8.888713088      1.380      1.944
REMARK  10 active torsions:
REMARK  status: ('A' for Active; 'I' for Inactive)
REMARK    1  A    between atoms: N1_2  and  C2_3 
REMARK    2  A    between atoms: N1_2  and  C20_34 
REMARK    3  A    between atoms: C2_3  and  C3_4 
REMARK    4  A    between atoms: C3_4  and  C4_5 
REMARK    5  A    between atoms: C4_5  and  C5_6 
REMARK    6  A    between atoms: C5_6  and  C6_7 
REMARK    7  A    between atoms: C6_7  and  N2_8 
REMARK    8  A    between atoms: C6_7  and  C7_12 
REMARK       I    between atoms: C7_12  and  N3_14 
REMARK    9  A    between atoms: C12_19  and  C13_20 
REMARK       I    between atoms: C13_20  and  N4_22 
REMARK   10  A    between atoms: C18_29  and  C19_30 
ROOT
HETATM    1  C7  UNL     1     -22.452  -4.324  -2.232  1.00  0.00     0.266 C 
HETATM    2  O1  UNL     1     -22.974  -3.816  -3.256  1.00  0.00    -0.270 OA
HETATM    3  N3  UNL     1     -22.985  -5.511  -1.735  1.00  0.00    -0.263 N 
HETATM    4  C8  UNL     1     -24.139  -6.108  -2.397  1.00  0.00     0.148 C 
HETATM    5  C9  UNL     1     -25.074  -6.590  -1.318  1.00  0.00     0.022 C 
HETATM    6  C10 UNL     1     -24.481  -7.602  -0.403  1.00  0.00     0.004 C 
HETATM    7  C11 UNL     1     -23.266  -8.313  -0.893  1.00  0.00     0.033 C 
HETATM    8  C12 UNL     1     -22.020  -7.457  -0.971  1.00  0.00     0.191 C 
HETATM    9  N5  UNL     1     -22.349  -6.068  -0.634  1.00  0.00    -0.122 NA
ENDROOT
BRANCH   1  10
HETATM   10  C6  UNL     1     -21.297  -3.683  -1.569  1.00  0.00     0.276 C 
BRANCH  10  11
HETATM   11  C5  UNL     1     -21.496  -2.228  -1.258  1.00  0.00     0.043 C 
BRANCH  11  12
HETATM   12  C4  UNL     1     -20.669  -1.628  -0.206  1.00  0.00     0.004 C 
BRANCH  12  13
HETATM   13  C3  UNL     1     -20.257  -0.180  -0.382  1.00  0.00     0.030 C 
BRANCH  13  14
HETATM   14  C2  UNL     1     -20.516   0.308  -1.759  1.00  0.00     0.272 C 
BRANCH  14  15
HETATM   15  N1  UNL     1     -19.340   0.525  -2.611  1.00  0.00     0.088 N 
HETATM   16  C1  UNL     1     -19.734  -0.331  -3.798  1.00  0.00     0.310 C 
BRANCH  15  17
HETATM   17  C20 UNL     1     -18.144  -0.104  -2.071  1.00  0.00     0.222 C 
HETATM   18  C21 UNL     1     -17.646  -1.181  -3.075  1.00  0.00     0.036 C 
HETATM   19  C22 UNL     1     -16.621  -1.983  -2.271  1.00  0.00     0.002 C 
HETATM   20  C23 UNL     1     -15.254  -1.385  -2.412  1.00  0.00     0.000 C 
HETATM   21  C24 UNL     1     -14.899  -0.414  -1.333  1.00  0.00     0.000 C 
HETATM   22  C25 UNL     1     -16.029   0.471  -0.878  1.00  0.00     0.002 C 
HETATM   23  C26 UNL     1     -16.960   0.847  -2.013  1.00  0.00     0.036 C 
ENDBRANCH  15  17
ENDBRANCH  14  15
ENDBRANCH  13  14
ENDBRANCH  12  13
ENDBRANCH  11  12
ENDBRANCH  10  11
BRANCH  10  24
HETATM   24  N2  UNL     1     -20.099  -3.908  -2.372  1.00  0.00    -0.066 N 
ATOM     25  H23 UNL     1     -19.483  -3.096  -2.354  1.00  0.00     0.275 HD
ATOM     26  H22 UNL     1     -19.480  -4.588  -1.931  1.00  0.00     0.275 HD
ATOM     27  H21 UNL     1     -20.329  -4.180  -3.327  1.00  0.00     0.275 HD
ENDBRANCH  10  24
ENDBRANCH   1  10
BRANCH   8  28
HETATM   28  C13 UNL     1     -20.943  -7.947  -0.081  1.00  0.00     0.241 C 
HETATM   29  O2  UNL     1     -21.174  -7.899   1.182  1.00  0.00    -0.271 OA
HETATM   30  N4  UNL     1     -19.707  -8.452  -0.522  1.00  0.00    -0.336 N 
HETATM   31  C14 UNL     1     -18.772  -8.942   0.507  1.00  0.00     0.133 C 
HETATM   32  C18 UNL     1     -19.329  -8.472  -1.904  1.00  0.00     0.193 C 
HETATM   33  C15 UNL     1     -17.343  -8.627   0.163  1.00  0.00     0.099 C 
HETATM   34  C16 UNL     1     -16.980  -9.046  -1.238  1.00  0.00     0.247 C 
HETATM   35  F1  UNL     1     -16.346  -8.022  -1.907  1.00  0.00    -0.206 F 
HETATM   36  F2  UNL     1     -16.099 -10.125  -1.254  1.00  0.00    -0.206 F 
HETATM   37  C17 UNL     1     -18.200  -9.489  -2.025  1.00  0.00     0.115 C 
BRANCH  32  38
HETATM   38  C19 UNL     1     -18.818  -7.128  -2.347  1.00  0.00     0.197 C 
HETATM   39  O3  UNL     1     -18.585  -6.953  -3.554  1.00  0.00    -0.646 OA
HETATM   40  O4  UNL     1     -18.603  -6.095  -1.455  1.00  0.00    -0.646 OA
ENDBRANCH  32  38
ENDBRANCH   8  28
TORSDOF 10
ENDMDL
MODEL 5
REMARK VINA RESULT: -8.855462290      2.503      3.182
REMARK  10 active torsions:
REMARK  status: ('A' for Active; 'I' for Inactive)
REMARK    1  A    between atoms: N1_2  and  C2_3 
REMARK    2  A    between atoms: N1_2  and  C20_34 
REMARK    3  A    between atoms: C2_3  and  C3_4 
REMARK    4  A    between atoms: C3_4  and  C4_5 
REMARK    5  A    between atoms: C4_5  and  C5_6 
REMARK    6  A    between atoms: C5_6  and  C6_7 
REMARK    7  A    between atoms: C6_7  and  N2_8 
REMARK    8  A    between atoms: C6_7  and  C7_12 
REMARK       I    between atoms: C7_12  and  N3_14 
REMARK    9  A    between atoms: C12_19  and  C13_20 
REMARK       I    between atoms: C13_20  and  N4_22 
REMARK   10  A    between atoms: C18_29  and  C19_30 
ROOT
HETATM    1  C7  UNL     1     -21.814  -4.558  -2.134  1.00  0.00     0.266 C 
HETATM    2  O1  UNL     1     -21.785  -3.872  -3.186  1.00  0.00    -0.270 OA
HETATM    3  N3  UNL     1     -22.841  -5.485  -1.974  1.00  0.00    -0.263 N 
HETATM    4  C8  UNL     1     -23.858  -5.611  -3.012  1.00  0.00     0.148 C 
HETATM    5  C9  UNL     1     -25.189  -5.750  -2.319  1.00  0.00     0.022 C 
HETATM    6  C10 UNL     1     -25.289  -6.928  -1.417  1.00  0.00     0.004 C 
HETATM    7  C11 UNL     1     -24.294  -8.018  -1.630  1.00  0.00     0.033 C 
HETATM    8  C12 UNL     1     -22.875  -7.665  -1.233  1.00  0.00     0.191 C 
HETATM    9  N5  UNL     1     -22.809  -6.259  -0.822  1.00  0.00    -0.122 NA
ENDROOT
BRANCH   1  10
HETATM   10  C6  UNL     1     -20.782  -4.391  -1.089  1.00  0.00     0.276 C 
BRANCH  10  11
HETATM   11  C5  UNL     1     -20.136  -3.036  -1.073  1.00  0.00     0.043 C 
BRANCH  11  12
HETATM   12  C4  UNL     1     -20.741  -1.992  -0.241  1.00  0.00     0.004 C 
BRANCH  12  13
HETATM   13  C3  UNL     1     -20.370  -0.555  -0.544  1.00  0.00     0.030 C 
BRANCH  13  14
HETATM   14  C2  UNL     1     -20.563  -0.221  -1.976  1.00  0.00     0.272 C 
BRANCH  14  15
HETATM   15  N1  UNL     1     -19.372   0.217  -2.715  1.00  0.00     0.088 N 
HETATM   16  C1  UNL     1     -19.547  -0.608  -3.975  1.00  0.00     0.310 C 
BRANCH  15  17
HETATM   17  C20 UNL     1     -18.140  -0.268  -2.113  1.00  0.00     0.222 C 
HETATM   18  C21 UNL     1     -17.485  -1.302  -3.071  1.00  0.00     0.036 C 
HETATM   19  C22 UNL     1     -16.415  -1.974  -2.208  1.00  0.00     0.002 C 
HETATM   20  C23 UNL     1     -15.116  -1.233  -2.306  1.00  0.00     0.000 C 
HETATM   21  C24 UNL     1     -14.915  -0.210  -1.235  1.00  0.00     0.000 C 
HETATM   22  C25 UNL     1     -16.152   0.554  -0.847  1.00  0.00     0.002 C 
HETATM   23  C26 UNL     1     -17.069   0.806  -2.028  1.00  0.00     0.036 C 
ENDBRANCH  15  17
ENDBRANCH  14  15
ENDBRANCH  13  14
ENDBRANCH  12  13
ENDBRANCH  11  12
ENDBRANCH  10  11
BRANCH  10  24
HETATM   24  N2  UNL     1     -19.798  -5.461  -1.214  1.00  0.00    -0.066 N 
ATOM     25  H23 UNL     1     -19.388  -5.481  -2.147  1.00  0.00     0.275 HD
ATOM     26  H22 UNL     1     -18.957  -5.257  -0.674  1.00  0.00     0.275 HD
ATOM     27  H21 UNL     1     -20.189  -6.368  -0.961  1.00  0.00     0.275 HD
ENDBRANCH  10  24
ENDBRANCH   1  10
BRANCH   8  28
HETATM   28  C13 UNL     1     -22.363  -8.531  -0.148  1.00  0.00     0.241 C 
HETATM   29  O2  UNL     1     -22.713  -8.220   1.050  1.00  0.00    -0.271 OA
HETATM   30  N4  UNL     1     -21.533  -9.649  -0.338  1.00  0.00    -0.336 N 
HETATM   31  C14 UNL     1     -21.159 -10.425   0.858  1.00  0.00     0.133 C 
HETATM   32  C18 UNL     1     -21.029 -10.027  -1.625  1.00  0.00     0.193 C 
HETATM   33  C15 UNL     1     -19.748 -10.937   0.778  1.00  0.00     0.099 C 
HETATM   34  C16 UNL     1     -19.464 -11.647  -0.521  1.00  0.00     0.247 C 
HETATM   35  F1  UNL     1     -18.296 -11.186  -1.087  1.00  0.00    -0.206 F 
HETATM   36  F2  UNL     1     -19.297 -13.018  -0.346  1.00  0.00    -0.206 F 
HETATM   37  C17 UNL     1     -20.606 -11.487  -1.509  1.00  0.00     0.115 C 
BRANCH  32  38
HETATM   38  C19 UNL     1     -19.826  -9.205  -2.000  1.00  0.00     0.197 C 
HETATM   39  O3  UNL     1     -19.324  -9.368  -3.124  1.00  0.00    -0.646 OA
HETATM   40  O4  UNL     1     -19.271  -8.280  -1.134  1.00  0.00    -0.646 OA
ENDBRANCH  32  38
ENDBRANCH   8  28
TORSDOF 10
ENDMDL
