MODEL 1
REMARK VINA RESULT: -7.017241777      0.000      0.000
REMARK  15 active torsions:
REMARK  status: ('A' for Active; 'I' for Inactive)
REMARK    1  A    between atoms: C5_5  and  C6_6 
REMARK    2  A    between atoms: C5_5  and  C9_15 
REMARK    3  A    between atoms: C6_6  and  C7_7 
REMARK    4  A    between atoms: C6_6  and  N1_9 
REMARK    5  A    between atoms: N1_9  and  S1_11 
REMARK    6  A    between atoms: C9_15  and  O3_16 
REMARK    7  A    between atoms: C9_15  and  C15_23 
REMARK    8  A    between atoms: O3_16  and  C10_17 
REMARK    9  A    between atoms: C10_17  and  C11_19 
REMARK   10  A    between atoms: C15_23  and  N2_25 
REMARK   11  A    between atoms: N2_25  and  C17_26 
REMARK   12  A    between atoms: C17_26  and  O5_27 
REMARK   13  A    between atoms: C17_26  and  C18_29 
REMARK   14  A    between atoms: C18_29  and  C20_32 
REMARK       I    between atoms: C20_32  and  N3_34 
REMARK   15  A    between atoms: N3_34  and  C21_36 
ROOT
HETATM    1  C1  UNL     1     -21.923 -10.708  -1.785  1.00  0.00     0.102 C 
HETATM    2  C2  UNL     1     -20.897 -10.049  -1.650  1.00  0.00    -0.153 C 
HETATM    3  C3  UNL     1     -19.654  -9.278  -1.524  1.00  0.00    -0.011 C 
HETATM    4  C4  UNL     1     -18.563  -9.658  -2.438  1.00  0.00     0.058 C 
HETATM    5  C5  UNL     1     -19.584  -8.339  -0.607  1.00  0.00     0.014 C 
ENDROOT
BRANCH   5   6
HETATM    6  C6  UNL     1     -18.336  -7.544  -0.470  1.00  0.00     0.158 C 
BRANCH   6   7
HETATM    7  C7  UNL     1     -18.317  -6.290  -1.256  1.00  0.00     0.252 C 
HETATM    8  F1  UNL     1     -18.280  -5.201  -0.420  1.00  0.00    -0.253 F 
ENDBRANCH   6   7
BRANCH   6   9
HETATM    9  N1  UNL     1     -17.878  -7.337   0.858  1.00  0.00    -0.308 N 
ATOM     10  H1  UNL     1     -18.495  -7.070   1.625  1.00  0.00     0.172 HD
BRANCH   9  11
HETATM   11  S1  UNL     1     -16.191  -7.576   1.053  1.00  0.00     0.223 S 
HETATM   12  C8  UNL     1     -15.587  -8.647  -0.222  1.00  0.00     0.185 C 
HETATM   13  O1  UNL     1     -15.882  -8.146   2.410  1.00  0.00    -0.206 OA
HETATM   14  O2  UNL     1     -15.453  -6.270   0.947  1.00  0.00    -0.206 OA
ENDBRANCH   9  11
ENDBRANCH   6   9
ENDBRANCH   5   6
BRANCH   5  15
HETATM   15  C9  UNL     1     -20.731  -8.113   0.306  1.00  0.00     0.101 C 
BRANCH  15  16
HETATM   16  O3  UNL     1     -20.786  -8.860   1.454  1.00  0.00    -0.279 OA
BRANCH  16  17
HETATM   17  C10 UNL     1     -21.531  -9.971   1.765  1.00  0.00     0.271 C 
HETATM   18  O4  UNL     1     -22.772  -9.905   1.530  1.00  0.00    -0.264 OA
BRANCH  17  19
HETATM   19  C11 UNL     1     -20.864 -11.167   2.339  1.00  0.00     0.037 C 
HETATM   20  C12 UNL     1     -20.930 -11.048   3.844  1.00  0.00     0.025 C 
HETATM   21  C13 UNL     1     -21.637 -12.390   1.856  1.00  0.00     0.025 C 
HETATM   22  C14 UNL     1     -19.447 -11.209   1.831  1.00  0.00     0.025 C 
ENDBRANCH  17  19
ENDBRANCH  16  17
ENDBRANCH  15  16
BRANCH  15  23
HETATM   23  C15 UNL     1     -21.097  -6.643   0.529  1.00  0.00     0.219 C 
HETATM   24  C16 UNL     1     -21.545  -6.370   1.930  1.00  0.00     0.055 C 
BRANCH  23  25
HETATM   25  N2  UNL     1     -22.101  -6.252  -0.367  1.00  0.00    -0.413 NA
BRANCH  25  26
HETATM   26  C17 UNL     1     -23.061  -5.871  -1.231  1.00  0.00     0.235 C 
BRANCH  26  27
HETATM   27  O5  UNL     1     -24.360  -5.927  -1.035  1.00  0.00    -0.336 OA
ATOM     28  H5  UNL     1     -25.027  -6.079  -1.694  1.00  0.00     0.220 HD
ENDBRANCH  26  27
BRANCH  26  29
HETATM   29  C18 UNL     1     -22.778  -5.327  -2.593  1.00  0.00     0.256 C 
HETATM   30  C19 UNL     1     -24.073  -5.533  -3.451  1.00  0.00     0.073 C 
HETATM   31  F2  UNL     1     -21.856  -6.120  -3.208  1.00  0.00    -0.223 F 
BRANCH  29  32
HETATM   32  C20 UNL     1     -22.433  -3.904  -2.674  1.00  0.00     0.267 C 
HETATM   33  O6  UNL     1     -23.366  -3.034  -2.781  1.00  0.00    -0.269 OA
HETATM   34  N3  UNL     1     -21.102  -3.441  -2.628  1.00  0.00    -0.350 N 
ATOM     35  H3  UNL     1     -20.343  -4.120  -2.564  1.00  0.00     0.163 HD
BRANCH  34  36
HETATM   36  C21 UNL     1     -20.784  -2.045  -2.669  1.00  0.00     0.022 C 
HETATM   37  C22 UNL     1     -19.264  -1.915  -2.613  1.00  0.00     0.037 C 
HETATM   38  C23 UNL     1     -21.346  -1.215  -1.570  1.00  0.00     0.037 C 
HETATM   39  C24 UNL     1     -21.249  -1.432  -3.983  1.00  0.00     0.037 C 
ENDBRANCH  34  36
ENDBRANCH  29  32
ENDBRANCH  26  29
ENDBRANCH  25  26
ENDBRANCH  23  25
ENDBRANCH  15  23
ENDBRANCH   5  15
TORSDOF 15
ENDMDL
MODEL 2
REMARK VINA RESULT: -7.010756907      3.200      7.417
REMARK  15 active torsions:
REMARK  status: ('A' for Active; 'I' for Inactive)
REMARK    1  A    between atoms: C5_5  and  C6_6 
REMARK    2  A    between atoms: C5_5  and  C9_15 
REMARK    3  A    between atoms: C6_6  and  C7_7 
REMARK    4  A    between atoms: C6_6  and  N1_9 
REMARK    5  A    between atoms: N1_9  and  S1_11 
REMARK    6  A    between atoms: C9_15  and  O3_16 
REMARK    7  A    between atoms: C9_15  and  C15_23 
REMARK    8  A    between atoms: O3_16  and  C10_17 
REMARK    9  A    between atoms: C10_17  and  C11_19 
REMARK   10  A    between atoms: C15_23  and  N2_25 
REMARK   11  A    between atoms: N2_25  and  C17_26 
REMARK   12  A    between atoms: C17_26  and  O5_27 
REMARK   13  A    between atoms: C17_26  and  C18_29 
REMARK   14  A    between atoms: C18_29  and  C20_32 
REMARK       I    between atoms: C20_32  and  N3_34 
REMARK   15  A    between atoms: N3_34  and  C21_36 
ROOT
HETATM    1  C1  UNL     1     -23.068  -5.501  -3.214  1.00  0.00     0.102 C 
HETATM    2  C2  UNL     1     -22.620  -4.417  -2.856  1.00  0.00    -0.153 C 
HETATM    3  C3  UNL     1     -22.121  -3.100  -2.439  1.00  0.00    -0.011 C 
HETATM    4  C4  UNL     1     -22.929  -1.942  -2.857  1.00  0.00     0.058 C 
HETATM    5  C5  UNL     1     -20.997  -3.038  -1.762  1.00  0.00     0.014 C 
ENDROOT
BRANCH   5   6
HETATM    6  C6  UNL     1     -20.480  -1.714  -1.326  1.00  0.00     0.158 C 
BRANCH   6   7
HETATM    7  C7  UNL     1     -20.665  -1.426   0.115  1.00  0.00     0.252 C 
HETATM    8  F1  UNL     1     -20.282  -0.139   0.400  1.00  0.00    -0.253 F 
ENDBRANCH   6   7
BRANCH   6   9
HETATM    9  N1  UNL     1     -19.168  -1.389  -1.760  1.00  0.00    -0.308 N 
ATOM     10  H1  UNL     1     -18.338  -1.900  -1.456  1.00  0.00     0.172 HD
BRANCH   9  11
HETATM   11  S1  UNL     1     -19.106  -0.060  -2.841  1.00  0.00     0.223 S 
HETATM   12  C8  UNL     1     -19.575  -0.586  -4.465  1.00  0.00     0.185 C 
HETATM   13  O1  UNL     1     -17.733   0.553  -2.861  1.00  0.00    -0.206 OA
HETATM   14  O2  UNL     1     -20.061   1.019  -2.412  1.00  0.00    -0.206 OA
ENDBRANCH   9  11
ENDBRANCH   6   9
ENDBRANCH   5   6
BRANCH   5  15
HETATM   15  C9  UNL     1     -20.236  -4.279  -1.477  1.00  0.00     0.101 C 
BRANCH  15  16
HETATM   16  O3  UNL     1     -18.916  -4.150  -1.136  1.00  0.00    -0.279 OA
BRANCH  16  17
HETATM   17  C10 UNL     1     -17.777  -4.293  -1.891  1.00  0.00     0.271 C 
HETATM   18  O4  UNL     1     -17.644  -3.502  -2.870  1.00  0.00    -0.264 OA
BRANCH  17  19
HETATM   19  C11 UNL     1     -16.781  -5.333  -1.531  1.00  0.00     0.037 C 
HETATM   20  C12 UNL     1     -16.913  -6.458  -2.532  1.00  0.00     0.025 C 
HETATM   21  C13 UNL     1     -15.402  -4.687  -1.619  1.00  0.00     0.025 C 
HETATM   22  C14 UNL     1     -17.059  -5.787  -0.122  1.00  0.00     0.025 C 
ENDBRANCH  17  19
ENDBRANCH  16  17
ENDBRANCH  15  16
BRANCH  15  23
HETATM   23  C15 UNL     1     -20.980  -5.308  -0.620  1.00  0.00     0.219 C 
HETATM   24  C16 UNL     1     -20.847  -5.036   0.845  1.00  0.00     0.055 C 
BRANCH  23  25
HETATM   25  N2  UNL     1     -20.515  -6.599  -0.901  1.00  0.00    -0.413 NA
BRANCH  25  26
HETATM   26  C17 UNL     1     -20.061  -7.837  -1.175  1.00  0.00     0.235 C 
BRANCH  26  27
HETATM   27  O5  UNL     1     -19.816  -8.337  -2.366  1.00  0.00    -0.336 OA
ATOM     28  H5  UNL     1     -20.283  -9.046  -2.790  1.00  0.00     0.220 HD
ENDBRANCH  26  27
BRANCH  26  29
HETATM   29  C18 UNL     1     -19.776  -8.864  -0.128  1.00  0.00     0.256 C 
HETATM   30  C19 UNL     1     -20.581 -10.152  -0.514  1.00  0.00     0.073 C 
HETATM   31  F2  UNL     1     -20.343  -8.472   1.048  1.00  0.00    -0.223 F 
BRANCH  29  32
HETATM   32  C20 UNL     1     -18.376  -9.267   0.035  1.00  0.00     0.267 C 
HETATM   33  O6  UNL     1     -17.834  -9.209   1.193  1.00  0.00    -0.269 OA
HETATM   34  N3  UNL     1     -17.589  -9.732  -1.039  1.00  0.00    -0.350 N 
ATOM     35  H3  UNL     1     -17.996  -9.765  -1.974  1.00  0.00     0.163 HD
BRANCH  34  36
HETATM   36  C21 UNL     1     -16.234 -10.159  -0.856  1.00  0.00     0.022 C 
HETATM   37  C22 UNL     1     -15.713 -10.637  -2.209  1.00  0.00     0.037 C 
HETATM   38  C23 UNL     1     -16.023 -11.260   0.122  1.00  0.00     0.037 C 
HETATM   39  C24 UNL     1     -15.363  -8.989  -0.416  1.00  0.00     0.037 C 
ENDBRANCH  34  36
ENDBRANCH  29  32
ENDBRANCH  26  29
ENDBRANCH  25  26
ENDBRANCH  23  25
ENDBRANCH  15  23
ENDBRANCH   5  15
TORSDOF 15
ENDMDL
MODEL 3
REMARK VINA RESULT: -6.954172294      3.038      5.629
REMARK  15 active torsions:
REMARK  status: ('A' for Active; 'I' for Inactive)
REMARK    1  A    between atoms: C5_5  and  C6_6 
REMARK    2  A    between atoms: C5_5  and  C9_15 
REMARK    3  A    between atoms: C6_6  and  C7_7 
REMARK    4  A    between atoms: C6_6  and  N1_9 
REMARK    5  A    between atoms: N1_9  and  S1_11 
REMARK    6  A    between atoms: C9_15  and  O3_16 
REMARK    7  A    between atoms: C9_15  and  C15_23 
REMARK    8  A    between atoms: O3_16  and  C10_17 
REMARK    9  A    between atoms: C10_17  and  C11_19 
REMARK   10  A    between atoms: C15_23  and  N2_25 
REMARK   11  A    between atoms: N2_25  and  C17_26 
REMARK   12  A    between atoms: C17_26  and  O5_27 
REMARK   13  A    between atoms: C17_26  and  C18_29 
REMARK   14  A    between atoms: C18_29  and  C20_32 
REMARK       I    between atoms: C20_32  and  N3_34 
REMARK   15  A    between atoms: N3_34  and  C21_36 
ROOT
HETATM    1  C1  UNL     1     -20.376  -3.003   0.608  1.00  0.00     0.102 C 
HETATM    2  C2  UNL     1     -20.843  -4.137   0.592  1.00  0.00    -0.153 C 
HETATM    3  C3  UNL     1     -21.403  -5.494   0.617  1.00  0.00    -0.011 C 
HETATM    4  C4  UNL     1     -21.421  -6.162   1.930  1.00  0.00     0.058 C 
HETATM    5  C5  UNL     1     -21.814  -6.027  -0.512  1.00  0.00     0.014 C 
ENDROOT
BRANCH   5   6
HETATM    6  C6  UNL     1     -22.390  -7.398  -0.504  1.00  0.00     0.158 C 
BRANCH   6   7
HETATM    7  C7  UNL     1     -23.868  -7.443  -0.445  1.00  0.00     0.252 C 
HETATM    8  F1  UNL     1     -24.385  -7.831  -1.656  1.00  0.00    -0.253 F 
ENDBRANCH   6   7
BRANCH   6   9
HETATM    9  N1  UNL     1     -21.878  -8.288  -1.485  1.00  0.00    -0.308 N 
ATOM     10  H1  UNL     1     -21.697  -8.011  -2.450  1.00  0.00     0.172 HD
BRANCH   9  11
HETATM   11  S1  UNL     1     -21.592  -9.873  -0.897  1.00  0.00     0.223 S 
HETATM   12  C8  UNL     1     -21.257  -9.817   0.841  1.00  0.00     0.185 C 
HETATM   13  O1  UNL     1     -20.452 -10.522  -1.633  1.00  0.00    -0.206 OA
HETATM   14  O2  UNL     1     -22.800 -10.743  -1.106  1.00  0.00    -0.206 OA
ENDBRANCH   9  11
ENDBRANCH   6   9
ENDBRANCH   5   6
BRANCH   5  15
HETATM   15  C9  UNL     1     -21.662  -5.276  -1.782  1.00  0.00     0.101 C 
BRANCH  15  16
HETATM   16  O3  UNL     1     -20.782  -5.769  -2.709  1.00  0.00    -0.279 OA
BRANCH  16  17
HETATM   17  C10 UNL     1     -19.518  -6.287  -2.558  1.00  0.00     0.271 C 
HETATM   18  O4  UNL     1     -19.398  -7.538  -2.703  1.00  0.00    -0.264 OA
BRANCH  17  19
HETATM   19  C11 UNL     1     -18.384  -5.381  -2.247  1.00  0.00     0.037 C 
HETATM   20  C12 UNL     1     -18.024  -5.582  -0.792  1.00  0.00     0.025 C 
HETATM   21  C13 UNL     1     -17.225  -5.782  -3.154  1.00  0.00     0.025 C 
HETATM   22  C14 UNL     1     -18.813  -3.967  -2.538  1.00  0.00     0.025 C 
ENDBRANCH  17  19
ENDBRANCH  16  17
ENDBRANCH  15  16
BRANCH  15  23
HETATM   23  C15 UNL     1     -22.974  -4.784  -2.401  1.00  0.00     0.219 C 
HETATM   24  C16 UNL     1     -23.259  -5.427  -3.721  1.00  0.00     0.055 C 
BRANCH  23  25
HETATM   25  N2  UNL     1     -22.945  -3.392  -2.554  1.00  0.00    -0.413 NA
BRANCH  25  26
HETATM   26  C17 UNL     1     -22.926  -2.054  -2.704  1.00  0.00     0.235 C 
BRANCH  26  27
HETATM   27  O5  UNL     1     -23.876  -1.212  -2.361  1.00  0.00    -0.336 OA
ATOM     28  H5  UNL     1     -23.846  -0.581  -1.652  1.00  0.00     0.220 HD
ENDBRANCH  26  27
BRANCH  26  29
HETATM   29  C18 UNL     1     -21.788  -1.308  -3.321  1.00  0.00     0.256 C 
HETATM   30  C19 UNL     1     -22.406  -0.177  -4.212  1.00  0.00     0.073 C 
HETATM   31  F2  UNL     1     -21.158  -2.117  -4.220  1.00  0.00    -0.223 F 
BRANCH  29  32
HETATM   32  C20 UNL     1     -20.849  -0.662  -2.399  1.00  0.00     0.267 C 
HETATM   33  O6  UNL     1     -21.273  -0.216  -1.277  1.00  0.00    -0.269 OA
HETATM   34  N3  UNL     1     -19.477  -0.515  -2.691  1.00  0.00    -0.350 N 
ATOM     35  H3  UNL     1     -19.123  -0.844  -3.589  1.00  0.00     0.163 HD
BRANCH  34  36
HETATM   36  C21 UNL     1     -18.565   0.084  -1.761  1.00  0.00     0.022 C 
HETATM   37  C22 UNL     1     -17.445  -0.920  -1.502  1.00  0.00     0.037 C 
HETATM   38  C23 UNL     1     -19.136   0.471  -0.444  1.00  0.00     0.037 C 
HETATM   39  C24 UNL     1     -17.934   1.331  -2.366  1.00  0.00     0.037 C 
ENDBRANCH  34  36
ENDBRANCH  29  32
ENDBRANCH  26  29
ENDBRANCH  25  26
ENDBRANCH  23  25
ENDBRANCH  15  23
ENDBRANCH   5  15
TORSDOF 15
ENDMDL
MODEL 4
REMARK VINA RESULT: -6.951774042      3.305      6.444
REMARK  15 active torsions:
REMARK  status: ('A' for Active; 'I' for Inactive)
REMARK    1  A    between atoms: C5_5  and  C6_6 
REMARK    2  A    between atoms: C5_5  and  C9_15 
REMARK    3  A    between atoms: C6_6  and  C7_7 
REMARK    4  A    between atoms: C6_6  and  N1_9 
REMARK    5  A    between atoms: N1_9  and  S1_11 
REMARK    6  A    between atoms: C9_15  and  O3_16 
REMARK    7  A    between atoms: C9_15  and  C15_23 
REMARK    8  A    between atoms: O3_16  and  C10_17 
REMARK    9  A    between atoms: C10_17  and  C11_19 
REMARK   10  A    between atoms: C15_23  and  N2_25 
REMARK   11  A    between atoms: N2_25  and  C17_26 
REMARK   12  A    between atoms: C17_26  and  O5_27 
REMARK   13  A    between atoms: C17_26  and  C18_29 
REMARK   14  A    between atoms: C18_29  and  C20_32 
REMARK       I    between atoms: C20_32  and  N3_34 
REMARK   15  A    between atoms: N3_34  and  C21_36 
ROOT
HETATM    1  C1  UNL     1     -23.918  -5.635  -3.267  1.00  0.00     0.102 C 
HETATM    2  C2  UNL     1     -23.207  -4.706  -2.898  1.00  0.00    -0.153 C 
HETATM    3  C3  UNL     1     -22.386  -3.567  -2.469  1.00  0.00    -0.011 C 
HETATM    4  C4  UNL     1     -22.850  -2.237  -2.900  1.00  0.00     0.058 C 
HETATM    5  C5  UNL     1     -21.298  -3.802  -1.770  1.00  0.00     0.014 C 
ENDROOT
BRANCH   5   6
HETATM    6  C6  UNL     1     -20.458  -2.659  -1.322  1.00  0.00     0.158 C 
BRANCH   6   7
HETATM    7  C7  UNL     1     -20.667  -2.260   0.089  1.00  0.00     0.252 C 
HETATM    8  F1  UNL     1     -20.723  -0.893   0.196  1.00  0.00    -0.253 F 
ENDBRANCH   6   7
BRANCH   6   9
HETATM    9  N1  UNL     1     -19.078  -2.744  -1.643  1.00  0.00    -0.308 N 
ATOM     10  H1  UNL     1     -18.496  -3.545  -1.395  1.00  0.00     0.172 HD
BRANCH   9  11
HETATM   11  S1  UNL     1     -18.479  -1.376  -2.485  1.00  0.00     0.223 S 
HETATM   12  C8  UNL     1     -19.552  -0.988  -3.838  1.00  0.00     0.185 C 
HETATM   13  O1  UNL     1     -17.078  -1.618  -2.975  1.00  0.00    -0.206 OA
HETATM   14  O2  UNL     1     -18.426  -0.176  -1.580  1.00  0.00    -0.206 OA
ENDBRANCH   9  11
ENDBRANCH   6   9
ENDBRANCH   5   6
BRANCH   5  15
HETATM   15  C9  UNL     1     -20.898  -5.199  -1.472  1.00  0.00     0.101 C 
BRANCH  15  16
HETATM   16  O3  UNL     1     -19.560  -5.463  -1.350  1.00  0.00    -0.279 OA
BRANCH  16  17
HETATM   17  C10 UNL     1     -18.743  -6.304  -2.067  1.00  0.00     0.271 C 
HETATM   18  O4  UNL     1     -19.313  -7.096  -2.873  1.00  0.00    -0.264 OA
BRANCH  17  19
HETATM   19  C11 UNL     1     -17.273  -6.244  -1.874  1.00  0.00     0.037 C 
HETATM   20  C12 UNL     1     -16.690  -5.474  -3.037  1.00  0.00     0.025 C 
HETATM   21  C13 UNL     1     -17.020  -5.515  -0.558  1.00  0.00     0.025 C 
HETATM   22  C14 UNL     1     -16.746  -7.653  -1.802  1.00  0.00     0.025 C 
ENDBRANCH  17  19
ENDBRANCH  16  17
ENDBRANCH  15  16
BRANCH  15  23
HETATM   23  C15 UNL     1     -21.749  -5.900  -0.409  1.00  0.00     0.219 C 
HETATM   24  C16 UNL     1     -21.177  -5.758   0.966  1.00  0.00     0.055 C 
BRANCH  23  25
HETATM   25  N2  UNL     1     -21.889  -7.259  -0.719  1.00  0.00    -0.413 NA
BRANCH  25  26
HETATM   26  C17 UNL     1     -22.025  -8.563  -1.026  1.00  0.00     0.235 C 
BRANCH  26  27
HETATM   27  O5  UNL     1     -21.142  -9.321  -1.639  1.00  0.00    -0.336 OA
ATOM     28  H5  UNL     1     -20.815  -9.209  -2.523  1.00  0.00     0.220 HD
ENDBRANCH  26  27
BRANCH  26  29
HETATM   29  C18 UNL     1     -23.250  -9.361  -0.720  1.00  0.00     0.256 C 
HETATM   30  C19 UNL     1     -22.966 -10.152   0.603  1.00  0.00     0.073 C 
HETATM   31  F2  UNL     1     -23.390 -10.341  -1.657  1.00  0.00    -0.223 F 
BRANCH  29  32
HETATM   32  C20 UNL     1     -24.490  -8.608  -0.510  1.00  0.00     0.267 C 
HETATM   33  O6  UNL     1     -24.738  -8.110   0.642  1.00  0.00    -0.269 OA
HETATM   34  N3  UNL     1     -25.432  -8.395  -1.538  1.00  0.00    -0.350 N 
ATOM     35  H3  UNL     1     -25.263  -8.802  -2.458  1.00  0.00     0.163 HD
BRANCH  34  36
HETATM   36  C21 UNL     1     -26.621  -7.623  -1.327  1.00  0.00     0.022 C 
HETATM   37  C22 UNL     1     -27.246  -7.355  -2.694  1.00  0.00     0.037 C 
HETATM   38  C23 UNL     1     -26.436  -6.310  -0.652  1.00  0.00     0.037 C 
HETATM   39  C24 UNL     1     -27.631  -8.416  -0.508  1.00  0.00     0.037 C 
ENDBRANCH  34  36
ENDBRANCH  29  32
ENDBRANCH  26  29
ENDBRANCH  25  26
ENDBRANCH  23  25
ENDBRANCH  15  23
ENDBRANCH   5  15
TORSDOF 15
ENDMDL
MODEL 5
REMARK VINA RESULT: -6.946467301      3.323      6.880
REMARK  15 active torsions:
REMARK  status: ('A' for Active; 'I' for Inactive)
REMARK    1  A    between atoms: C5_5  and  C6_6 
REMARK    2  A    between atoms: C5_5  and  C9_15 
REMARK    3  A    between atoms: C6_6  and  C7_7 
REMARK    4  A    between atoms: C6_6  and  N1_9 
REMARK    5  A    between atoms: N1_9  and  S1_11 
REMARK    6  A    between atoms: C9_15  and  O3_16 
REMARK    7  A    between atoms: C9_15  and  C15_23 
REMARK    8  A    between atoms: O3_16  and  C10_17 
REMARK    9  A    between atoms: C10_17  and  C11_19 
REMARK   10  A    between atoms: C15_23  and  N2_25 
REMARK   11  A    between atoms: N2_25  and  C17_26 
REMARK   12  A    between atoms: C17_26  and  O5_27 
REMARK   13  A    between atoms: C17_26  and  C18_29 
REMARK   14  A    between atoms: C18_29  and  C20_32 
REMARK       I    between atoms: C20_32  and  N3_34 
REMARK   15  A    between atoms: N3_34  and  C21_36 
ROOT
HETATM    1  C1  UNL     1     -23.052  -5.259  -3.441  1.00  0.00     0.102 C 
HETATM    2  C2  UNL     1     -22.571  -4.197  -3.057  1.00  0.00    -0.153 C 
HETATM    3  C3  UNL     1     -22.030  -2.906  -2.615  1.00  0.00    -0.011 C 
HETATM    4  C4  UNL     1     -22.697  -1.708  -3.153  1.00  0.00     0.058 C 
HETATM    5  C5  UNL     1     -20.991  -2.900  -1.811  1.00  0.00     0.014 C 
ENDROOT
BRANCH   5   6
HETATM    6  C6  UNL     1     -20.434  -1.602  -1.348  1.00  0.00     0.158 C 
BRANCH   6   7
HETATM    7  C7  UNL     1     -20.679  -1.303   0.081  1.00  0.00     0.252 C 
HETATM    8  F1  UNL     1     -20.211  -0.052   0.397  1.00  0.00    -0.253 F 
ENDBRANCH   6   7
BRANCH   6   9
HETATM    9  N1  UNL     1     -19.086  -1.343  -1.713  1.00  0.00    -0.308 N 
ATOM     10  H1  UNL     1     -18.301  -1.902  -1.379  1.00  0.00     0.172 HD
BRANCH   9  11
HETATM   11  S1  UNL     1     -18.901  -0.002  -2.765  1.00  0.00     0.223 S 
HETATM   12  C8  UNL     1     -19.304  -0.480  -4.421  1.00  0.00     0.185 C 
HETATM   13  O1  UNL     1     -17.501   0.543  -2.700  1.00  0.00    -0.206 OA
HETATM   14  O2  UNL     1     -19.826   1.116  -2.369  1.00  0.00    -0.206 OA
ENDBRANCH   9  11
ENDBRANCH   6   9
ENDBRANCH   5   6
BRANCH   5  15
HETATM   15  C9  UNL     1     -20.361  -4.182  -1.409  1.00  0.00     0.101 C 
BRANCH  15  16
HETATM   16  O3  UNL     1     -19.035  -4.157  -1.065  1.00  0.00    -0.279 OA
BRANCH  16  17
HETATM   17  C10 UNL     1     -17.910  -4.393  -1.817  1.00  0.00     0.271 C 
HETATM   18  O4  UNL     1     -17.643  -3.547  -2.718  1.00  0.00    -0.264 OA
BRANCH  17  19
HETATM   19  C11 UNL     1     -17.079  -5.593  -1.541  1.00  0.00     0.037 C 
HETATM   20  C12 UNL     1     -17.438  -6.089  -0.159  1.00  0.00     0.025 C 
HETATM   21  C13 UNL     1     -17.425  -6.634  -2.600  1.00  0.00     0.025 C 
HETATM   22  C14 UNL     1     -15.629  -5.199  -1.646  1.00  0.00     0.025 C 
ENDBRANCH  17  19
ENDBRANCH  16  17
ENDBRANCH  15  16
BRANCH  15  23
HETATM   23  C15 UNL     1     -21.208  -5.050  -0.473  1.00  0.00     0.219 C 
HETATM   24  C16 UNL     1     -20.817  -4.894   0.962  1.00  0.00     0.055 C 
BRANCH  23  25
HETATM   25  N2  UNL     1     -21.108  -6.398  -0.842  1.00  0.00    -0.413 NA
BRANCH  25  26
HETATM   26  C17 UNL     1     -21.020  -7.695  -1.194  1.00  0.00     0.235 C 
BRANCH  26  27
HETATM   27  O5  UNL     1     -20.393  -8.183  -2.242  1.00  0.00    -0.336 OA
ATOM     28  H5  UNL     1     -20.699  -8.877  -2.813  1.00  0.00     0.220 HD
ENDBRANCH  26  27
BRANCH  26  29
HETATM   29  C18 UNL     1     -21.661  -8.805  -0.427  1.00  0.00     0.256 C 
HETATM   30  C19 UNL     1     -21.103  -8.737   1.036  1.00  0.00     0.073 C 
HETATM   31  F2  UNL     1     -21.194  -9.998  -0.893  1.00  0.00    -0.223 F 
BRANCH  29  32
HETATM   32  C20 UNL     1     -23.123  -8.779  -0.329  1.00  0.00     0.267 C 
HETATM   33  O6  UNL     1     -23.701  -9.380   0.641  1.00  0.00    -0.269 OA
HETATM   34  N3  UNL     1     -23.935  -8.102  -1.264  1.00  0.00    -0.350 N 
ATOM     35  H3  UNL     1     -23.495  -7.635  -2.056  1.00  0.00     0.163 HD
BRANCH  34  36
HETATM   36  C21 UNL     1     -25.361  -8.053  -1.132  1.00  0.00     0.022 C 
HETATM   37  C22 UNL     1     -25.899  -7.184  -2.266  1.00  0.00     0.037 C 
HETATM   38  C23 UNL     1     -25.880  -7.497   0.146  1.00  0.00     0.037 C 
HETATM   39  C24 UNL     1     -25.958  -9.445  -1.297  1.00  0.00     0.037 C 
ENDBRANCH  34  36
ENDBRANCH  29  32
ENDBRANCH  26  29
ENDBRANCH  25  26
ENDBRANCH  23  25
ENDBRANCH  15  23
ENDBRANCH   5  15
TORSDOF 15
ENDMDL
