MODEL 1
REMARK VINA RESULT: -8.787119830      0.000      0.000
REMARK  10 active torsions:
REMARK  status: ('A' for Active; 'I' for Inactive)
REMARK    1  A    between atoms: C2_2  and  N1_3 
REMARK    2  A    between atoms: C4_5  and  C5_6 
REMARK    3  A    between atoms: C5_6  and  N2_7 
REMARK       I    between atoms: N2_7  and  C6_9 
REMARK    4  A    between atoms: C6_9  and  C7_11 
REMARK    5  A    between atoms: C7_11  and  C8_12 
REMARK    6  A    between atoms: C9_15  and  C11_17 
REMARK    7  A    between atoms: C13_22  and  N3_23 
REMARK       I    between atoms: N3_23  and  C14_25 
REMARK    8  A    between atoms: C14_25  and  C15_27 
REMARK    9  A    between atoms: N4_30  and  C18_31 
REMARK   10  A    between atoms: C18_31  and  C19_32 
ROOT
HETATM    1  N1  UNL     1     -19.431  -3.872  -2.343  1.00  0.00    -0.369 N 
HETATM    2  C3  UNL     1     -18.447  -2.840  -2.092  1.00  0.00     0.161 C 
HETATM    3  C4  UNL     1     -18.894  -1.514  -2.651  1.00  0.00    -0.029 C 
HETATM    4  C9  UNL     1     -20.217  -1.116  -2.040  1.00  0.00     0.084 C 
HETATM    5  C10 UNL     1     -20.160  -0.973  -0.547  1.00  0.00     0.029 C 
HETATM    6  C12 UNL     1     -21.211  -2.203  -2.395  1.00  0.00     0.070 C 
HETATM    7  C13 UNL     1     -20.754  -3.588  -1.966  1.00  0.00     0.187 C 
ENDROOT
BRANCH   7   8
HETATM    8  N3  UNL     1     -21.724  -4.549  -2.485  1.00  0.00    -0.339 N 
HETATM    9  C14 UNL     1     -22.363  -5.467  -1.643  1.00  0.00     0.223 C 
HETATM   10  O4  UNL     1     -22.107  -5.477  -0.407  1.00  0.00    -0.273 OA
ATOM     11  H3  UNL     1     -21.939  -4.552  -3.482  1.00  0.00     0.164 HD
BRANCH   9  12
HETATM   12  C15 UNL     1     -23.359  -6.465  -2.118  1.00  0.00     0.084 C 
HETATM   13  C16 UNL     1     -24.455  -5.878  -2.927  1.00  0.00     0.058 C 
HETATM   14  C17 UNL     1     -25.797  -6.480  -2.744  1.00  0.00     0.059 C 
HETATM   15  N4  UNL     1     -25.891  -7.713  -2.098  1.00  0.00    -0.393 N 
HETATM   16  C25 UNL     1     -24.756  -8.348  -1.572  1.00  0.00     0.122 C 
HETATM   17  C26 UNL     1     -23.849  -7.279  -0.944  1.00  0.00     0.034 C 
BRANCH  15  18
HETATM   18  C18 UNL     1     -27.140  -8.052  -1.517  1.00  0.00     0.126 C 
BRANCH  18  19
HETATM   19  C19 UNL     1     -28.069  -8.550  -2.619  1.00  0.00     0.007 C 
HETATM   20  C20 UNL     1     -27.476  -9.761  -3.287  1.00  0.00     0.036 C 
HETATM   21  C21 UNL     1     -28.544 -10.596  -3.982  1.00  0.00     0.272 C 
HETATM   22  N5  UNL     1     -29.336 -11.245  -2.944  1.00  0.00     0.084 N 
HETATM   23  C22 UNL     1     -28.782 -12.570  -2.683  1.00  0.00     0.309 C 
HETATM   24  C23 UNL     1     -29.336 -10.466  -1.716  1.00  0.00     0.272 C 
HETATM   25  C24 UNL     1     -29.409  -8.971  -2.043  1.00  0.00     0.036 C 
ENDBRANCH  18  19
ENDBRANCH  15  18
ENDBRANCH   9  12
ENDBRANCH   7   8
BRANCH   1  26
HETATM   26  C2  UNL     1     -18.940  -5.148  -2.029  1.00  0.00     0.056 C 
HETATM   27  C1  UNL     1     -18.575  -5.223  -0.565  1.00  0.00     0.054 C 
ENDBRANCH   1  26
BRANCH   4  28
HETATM   28  C11 UNL     1     -20.769   0.147  -2.646  1.00  0.00     0.399 C 
HETATM   29  F1  UNL     1     -20.688   0.120  -4.041  1.00  0.00    -0.170 F 
HETATM   30  F2  UNL     1     -22.174   0.143  -2.427  1.00  0.00    -0.170 F 
HETATM   31  F3  UNL     1     -20.342   1.303  -2.088  1.00  0.00    -0.170 F 
ENDBRANCH   4  28
BRANCH   3  32
HETATM   32  C5  UNL     1     -17.890  -0.466  -2.826  1.00  0.00     0.096 C 
BRANCH  32  33
HETATM   33  N2  UNL     1     -16.546  -0.601  -2.484  1.00  0.00    -0.336 N 
HETATM   34  C6  UNL     1     -15.795  -0.099  -1.436  1.00  0.00     0.231 C 
HETATM   35  O1  UNL     1     -16.258   0.616  -0.539  1.00  0.00    -0.273 OA
ATOM     36  H2  UNL     1     -16.013  -1.183  -3.131  1.00  0.00     0.168 HD
BRANCH  34  37
HETATM   37  C7  UNL     1     -14.320  -0.393  -1.305  1.00  0.00     0.216 C 
BRANCH  37  38
HETATM   38  C8  UNL     1     -13.962  -1.736  -1.758  1.00  0.00     0.181 C 
HETATM   39  O2  UNL     1     -14.740  -2.710  -1.897  1.00  0.00    -0.648 OA
HETATM   40  O3  UNL     1     -12.627  -1.981  -2.073  1.00  0.00    -0.648 OA
ENDBRANCH  37  38
ENDBRANCH  34  37
ENDBRANCH  32  33
ENDBRANCH   3  32
TORSDOF 10
ENDMDL
MODEL 2
REMARK VINA RESULT: -8.744708518      0.928      1.004
REMARK  10 active torsions:
REMARK  status: ('A' for Active; 'I' for Inactive)
REMARK    1  A    between atoms: C2_2  and  N1_3 
REMARK    2  A    between atoms: C4_5  and  C5_6 
REMARK    3  A    between atoms: C5_6  and  N2_7 
REMARK       I    between atoms: N2_7  and  C6_9 
REMARK    4  A    between atoms: C6_9  and  C7_11 
REMARK    5  A    between atoms: C7_11  and  C8_12 
REMARK    6  A    between atoms: C9_15  and  C11_17 
REMARK    7  A    between atoms: C13_22  and  N3_23 
REMARK       I    between atoms: N3_23  and  C14_25 
REMARK    8  A    between atoms: C14_25  and  C15_27 
REMARK    9  A    between atoms: N4_30  and  C18_31 
REMARK   10  A    between atoms: C18_31  and  C19_32 
ROOT
HETATM    1  N1  UNL     1     -20.063  -3.487  -2.649  1.00  0.00    -0.369 N 
HETATM    2  C3  UNL     1     -19.184  -2.349  -2.479  1.00  0.00     0.161 C 
HETATM    3  C4  UNL     1     -19.879  -1.065  -2.854  1.00  0.00    -0.029 C 
HETATM    4  C9  UNL     1     -21.118  -0.884  -2.010  1.00  0.00     0.084 C 
HETATM    5  C10 UNL     1     -20.828  -0.819  -0.539  1.00  0.00     0.029 C 
HETATM    6  C12 UNL     1     -22.017  -2.072  -2.284  1.00  0.00     0.070 C 
HETATM    7  C13 UNL     1     -21.328  -3.405  -2.044  1.00  0.00     0.187 C 
ENDROOT
BRANCH   7   8
HETATM    8  N3  UNL     1     -22.246  -4.457  -2.474  1.00  0.00    -0.339 N 
HETATM    9  C14 UNL     1     -22.602  -5.508  -1.621  1.00  0.00     0.223 C 
HETATM   10  O4  UNL     1     -22.128  -5.563  -0.452  1.00  0.00    -0.273 OA
ATOM     11  H3  UNL     1     -22.635  -4.424  -3.416  1.00  0.00     0.164 HD
BRANCH   9  12
HETATM   12  C15 UNL     1     -23.533  -6.602  -2.007  1.00  0.00     0.084 C 
HETATM   13  C16 UNL     1     -24.691  -6.146  -2.814  1.00  0.00     0.058 C 
HETATM   14  C17 UNL     1     -25.979  -6.831  -2.556  1.00  0.00     0.059 C 
HETATM   15  N4  UNL     1     -25.964  -8.027  -1.838  1.00  0.00    -0.393 N 
HETATM   16  C25 UNL     1     -24.771  -8.546  -1.311  1.00  0.00     0.122 C 
HETATM   17  C26 UNL     1     -23.931  -7.378  -0.773  1.00  0.00     0.034 C 
BRANCH  15  18
HETATM   18  C18 UNL     1     -27.169  -8.421  -1.200  1.00  0.00     0.126 C 
BRANCH  18  19
HETATM   19  C19 UNL     1     -28.169  -8.845  -2.271  1.00  0.00     0.007 C 
HETATM   20  C20 UNL     1     -27.564  -9.904  -3.153  1.00  0.00     0.036 C 
HETATM   21  C21 UNL     1     -28.636 -10.725  -3.856  1.00  0.00     0.272 C 
HETATM   22  N5  UNL     1     -29.270 -11.569  -2.851  1.00  0.00     0.084 N 
HETATM   23  C22 UNL     1     -28.601 -12.867  -2.829  1.00  0.00     0.309 C 
HETATM   24  C23 UNL     1     -29.199 -10.962  -1.532  1.00  0.00     0.272 C 
HETATM   25  C24 UNL     1     -29.409  -9.448  -1.638  1.00  0.00     0.036 C 
ENDBRANCH  18  19
ENDBRANCH  15  18
ENDBRANCH   9  12
ENDBRANCH   7   8
BRANCH   1  26
HETATM   26  C2  UNL     1     -19.373  -4.702  -2.518  1.00  0.00     0.056 C 
HETATM   27  C1  UNL     1     -18.578  -4.717  -1.233  1.00  0.00     0.054 C 
ENDBRANCH   1  26
BRANCH   4  28
HETATM   28  C11 UNL     1     -21.916   0.326  -2.419  1.00  0.00     0.399 C 
HETATM   29  F1  UNL     1     -22.026   0.416  -3.809  1.00  0.00    -0.170 F 
HETATM   30  F2  UNL     1     -23.263   0.100  -2.025  1.00  0.00    -0.170 F 
HETATM   31  F3  UNL     1     -21.576   1.488  -1.813  1.00  0.00    -0.170 F 
ENDBRANCH   4  28
BRANCH   3  32
HETATM   32  C5  UNL     1     -19.055   0.115  -3.105  1.00  0.00     0.096 C 
BRANCH  32  33
HETATM   33  N2  UNL     1     -17.755   0.281  -2.632  1.00  0.00    -0.336 N 
HETATM   34  C6  UNL     1     -17.252   0.706  -1.415  1.00  0.00     0.231 C 
HETATM   35  O1  UNL     1     -17.960   1.027  -0.454  1.00  0.00    -0.273 OA
ATOM     36  H2  UNL     1     -17.035   0.043  -3.315  1.00  0.00     0.168 HD
BRANCH  34  37
HETATM   37  C7  UNL     1     -15.767   0.811  -1.164  1.00  0.00     0.216 C 
BRANCH  37  38
HETATM   38  C8  UNL     1     -15.043  -0.416  -1.493  1.00  0.00     0.181 C 
HETATM   39  O2  UNL     1     -15.510  -1.427  -2.071  1.00  0.00    -0.648 OA
HETATM   40  O3  UNL     1     -13.699  -0.493  -1.137  1.00  0.00    -0.648 OA
ENDBRANCH  37  38
ENDBRANCH  34  37
ENDBRANCH  32  33
ENDBRANCH   3  32
TORSDOF 10
ENDMDL
MODEL 3
REMARK VINA RESULT: -8.740031218      1.882      2.230
REMARK  10 active torsions:
REMARK  status: ('A' for Active; 'I' for Inactive)
REMARK    1  A    between atoms: C2_2  and  N1_3 
REMARK    2  A    between atoms: C4_5  and  C5_6 
REMARK    3  A    between atoms: C5_6  and  N2_7 
REMARK       I    between atoms: N2_7  and  C6_9 
REMARK    4  A    between atoms: C6_9  and  C7_11 
REMARK    5  A    between atoms: C7_11  and  C8_12 
REMARK    6  A    between atoms: C9_15  and  C11_17 
REMARK    7  A    between atoms: C13_22  and  N3_23 
REMARK       I    between atoms: N3_23  and  C14_25 
REMARK    8  A    between atoms: C14_25  and  C15_27 
REMARK    9  A    between atoms: N4_30  and  C18_31 
REMARK   10  A    between atoms: C18_31  and  C19_32 
ROOT
HETATM    1  N1  UNL     1     -20.017  -3.753  -2.566  1.00  0.00    -0.369 N 
HETATM    2  C3  UNL     1     -19.166  -2.587  -2.454  1.00  0.00     0.161 C 
HETATM    3  C4  UNL     1     -19.892  -1.340  -2.889  1.00  0.00    -0.029 C 
HETATM    4  C9  UNL     1     -21.133  -1.147  -2.051  1.00  0.00     0.084 C 
HETATM    5  C10 UNL     1     -20.842  -1.004  -0.585  1.00  0.00     0.029 C 
HETATM    6  C12 UNL     1     -22.004  -2.368  -2.264  1.00  0.00     0.070 C 
HETATM    7  C13 UNL     1     -21.282  -3.672  -1.962  1.00  0.00     0.187 C 
ENDROOT
BRANCH   7   8
HETATM    8  N3  UNL     1     -22.176  -4.765  -2.337  1.00  0.00    -0.339 N 
HETATM    9  C14 UNL     1     -22.546  -5.753  -1.418  1.00  0.00     0.223 C 
HETATM   10  O4  UNL     1     -22.105  -5.714  -0.235  1.00  0.00    -0.273 OA
ATOM     11  H3  UNL     1     -22.538  -4.808  -3.289  1.00  0.00     0.164 HD
BRANCH   9  12
HETATM   12  C15 UNL     1     -23.453  -6.886  -1.746  1.00  0.00     0.084 C 
HETATM   13  C16 UNL     1     -24.708  -6.471  -2.419  1.00  0.00     0.058 C 
HETATM   14  C17 UNL     1     -25.926  -7.233  -2.058  1.00  0.00     0.059 C 
HETATM   15  N4  UNL     1     -25.778  -8.446  -1.385  1.00  0.00    -0.393 N 
HETATM   16  C25 UNL     1     -24.512  -8.913  -0.997  1.00  0.00     0.122 C 
HETATM   17  C26 UNL     1     -23.683  -7.717  -0.507  1.00  0.00     0.034 C 
BRANCH  15  18
HETATM   18  C18 UNL     1     -26.890  -8.923  -0.645  1.00  0.00     0.126 C 
BRANCH  18  19
HETATM   19  C19 UNL     1     -26.472 -10.187   0.099  1.00  0.00     0.007 C 
HETATM   20  C20 UNL     1     -26.900 -10.104   1.540  1.00  0.00     0.036 C 
HETATM   21  C21 UNL     1     -27.003 -11.485   2.173  1.00  0.00     0.272 C 
HETATM   22  N5  UNL     1     -28.173 -12.142   1.601  1.00  0.00     0.084 N 
HETATM   23  C22 UNL     1     -29.323 -11.901   2.467  1.00  0.00     0.309 C 
HETATM   24  C23 UNL     1     -28.456 -11.646   0.264  1.00  0.00     0.272 C 
HETATM   25  C24 UNL     1     -27.146 -11.409  -0.496  1.00  0.00     0.036 C 
ENDBRANCH  18  19
ENDBRANCH  15  18
ENDBRANCH   9  12
ENDBRANCH   7   8
BRANCH   1  26
HETATM   26  C2  UNL     1     -19.298  -4.943  -2.379  1.00  0.00     0.056 C 
HETATM   27  C1  UNL     1     -18.679  -4.970  -1.001  1.00  0.00     0.054 C 
ENDBRANCH   1  26
BRANCH   4  28
HETATM   28  C11 UNL     1     -21.960   0.022  -2.515  1.00  0.00     0.399 C 
HETATM   29  F1  UNL     1     -22.094   0.030  -3.906  1.00  0.00    -0.170 F 
HETATM   30  F2  UNL     1     -23.297  -0.207  -2.086  1.00  0.00    -0.170 F 
HETATM   31  F3  UNL     1     -21.635   1.223  -1.982  1.00  0.00    -0.170 F 
ENDBRANCH   4  28
BRANCH   3  32
HETATM   32  C5  UNL     1     -19.097  -0.154  -3.200  1.00  0.00     0.096 C 
BRANCH  32  33
HETATM   33  N2  UNL     1     -17.818   0.087  -2.703  1.00  0.00    -0.336 N 
HETATM   34  C6  UNL     1     -17.365   0.622  -1.509  1.00  0.00     0.231 C 
HETATM   35  O1  UNL     1     -18.112   0.996  -0.598  1.00  0.00    -0.273 OA
ATOM     36  H2  UNL     1     -17.070  -0.183  -3.343  1.00  0.00     0.168 HD
BRANCH  34  37
HETATM   37  C7  UNL     1     -15.893   0.789  -1.223  1.00  0.00     0.216 C 
BRANCH  37  38
HETATM   38  C8  UNL     1     -15.101  -0.383  -1.591  1.00  0.00     0.181 C 
HETATM   39  O2  UNL     1     -15.543  -1.510  -1.922  1.00  0.00    -0.648 OA
HETATM   40  O3  UNL     1     -13.714  -0.261  -1.580  1.00  0.00    -0.648 OA
ENDBRANCH  37  38
ENDBRANCH  34  37
ENDBRANCH  32  33
ENDBRANCH   3  32
TORSDOF 10
ENDMDL
MODEL 4
REMARK VINA RESULT: -8.502978720      2.335      2.789
REMARK  10 active torsions:
REMARK  status: ('A' for Active; 'I' for Inactive)
REMARK    1  A    between atoms: C2_2  and  N1_3 
REMARK    2  A    between atoms: C4_5  and  C5_6 
REMARK    3  A    between atoms: C5_6  and  N2_7 
REMARK       I    between atoms: N2_7  and  C6_9 
REMARK    4  A    between atoms: C6_9  and  C7_11 
REMARK    5  A    between atoms: C7_11  and  C8_12 
REMARK    6  A    between atoms: C9_15  and  C11_17 
REMARK    7  A    between atoms: C13_22  and  N3_23 
REMARK       I    between atoms: N3_23  and  C14_25 
REMARK    8  A    between atoms: C14_25  and  C15_27 
REMARK    9  A    between atoms: N4_30  and  C18_31 
REMARK   10  A    between atoms: C18_31  and  C19_32 
ROOT
HETATM    1  N1  UNL     1     -19.957  -4.647  -2.284  1.00  0.00    -0.369 N 
HETATM    2  C3  UNL     1     -19.093  -3.485  -2.267  1.00  0.00     0.161 C 
HETATM    3  C4  UNL     1     -19.808  -2.268  -2.795  1.00  0.00    -0.029 C 
HETATM    4  C9  UNL     1     -21.044  -1.998  -1.970  1.00  0.00     0.084 C 
HETATM    5  C10 UNL     1     -20.745  -1.744  -0.521  1.00  0.00     0.029 C 
HETATM    6  C12 UNL     1     -21.929  -3.222  -2.084  1.00  0.00     0.070 C 
HETATM    7  C13 UNL     1     -21.219  -4.506  -1.684  1.00  0.00     0.187 C 
ENDROOT
BRANCH   7   8
HETATM    8  N3  UNL     1     -22.126  -5.615  -1.970  1.00  0.00    -0.339 N 
HETATM    9  C14 UNL     1     -22.618  -6.436  -0.949  1.00  0.00     0.223 C 
HETATM   10  O4  UNL     1     -22.282  -6.227   0.250  1.00  0.00    -0.273 OA
ATOM     11  H3  UNL     1     -22.405  -5.795  -2.934  1.00  0.00     0.164 HD
BRANCH   9  12
HETATM   12  C15 UNL     1     -23.544  -7.577  -1.185  1.00  0.00     0.084 C 
HETATM   13  C16 UNL     1     -24.955  -7.285  -0.832  1.00  0.00     0.058 C 
HETATM   14  C17 UNL     1     -25.726  -8.402  -0.239  1.00  0.00     0.059 C 
HETATM   15  N4  UNL     1     -25.209  -9.694  -0.339  1.00  0.00    -0.393 N 
HETATM   16  C25 UNL     1     -23.958  -9.934  -0.928  1.00  0.00     0.122 C 
HETATM   17  C26 UNL     1     -22.999  -8.811  -0.505  1.00  0.00     0.034 C 
BRANCH  15  18
HETATM   18  C18 UNL     1     -25.671 -10.657   0.595  1.00  0.00     0.126 C 
BRANCH  18  19
HETATM   19  C19 UNL     1     -27.067 -10.253   1.058  1.00  0.00     0.007 C 
HETATM   20  C20 UNL     1     -28.087 -11.229   0.536  1.00  0.00     0.036 C 
HETATM   21  C21 UNL     1     -29.361 -11.205   1.371  1.00  0.00     0.272 C 
HETATM   22  N5  UNL     1     -29.054 -11.826   2.654  1.00  0.00     0.084 N 
HETATM   23  C22 UNL     1     -29.386 -13.246   2.587  1.00  0.00     0.309 C 
HETATM   24  C23 UNL     1     -27.649 -11.669   2.994  1.00  0.00     0.272 C 
HETATM   25  C24 UNL     1     -27.159 -10.279   2.572  1.00  0.00     0.036 C 
ENDBRANCH  18  19
ENDBRANCH  15  18
ENDBRANCH   9  12
ENDBRANCH   7   8
BRANCH   1  26
HETATM   26  C2  UNL     1     -19.250  -5.827  -2.008  1.00  0.00     0.056 C 
HETATM   27  C1  UNL     1     -17.947  -5.848  -2.773  1.00  0.00     0.054 C 
ENDBRANCH   1  26
BRANCH   4  28
HETATM   28  C11 UNL     1     -21.861  -0.859  -2.521  1.00  0.00     0.399 C 
HETATM   29  F1  UNL     1     -22.047  -0.988  -3.900  1.00  0.00    -0.170 F 
HETATM   30  F2  UNL     1     -23.185  -1.007  -2.024  1.00  0.00    -0.170 F 
HETATM   31  F3  UNL     1     -21.487   0.380  -2.125  1.00  0.00    -0.170 F 
ENDBRANCH   4  28
BRANCH   3  32
HETATM   32  C5  UNL     1     -19.003  -1.118  -3.200  1.00  0.00     0.096 C 
BRANCH  32  33
HETATM   33  N2  UNL     1     -17.878  -0.666  -2.512  1.00  0.00    -0.336 N 
HETATM   34  C6  UNL     1     -17.712   0.279  -1.515  1.00  0.00     0.231 C 
HETATM   35  O1  UNL     1     -18.642   0.928  -1.021  1.00  0.00    -0.273 OA
ATOM     36  H2  UNL     1     -17.010  -1.118  -2.800  1.00  0.00     0.168 HD
BRANCH  34  37
HETATM   37  C7  UNL     1     -16.353   0.596  -0.941  1.00  0.00     0.216 C 
BRANCH  37  38
HETATM   38  C8  UNL     1     -15.257  -0.009  -1.697  1.00  0.00     0.181 C 
HETATM   39  O2  UNL     1     -14.410   0.596  -2.398  1.00  0.00    -0.648 OA
HETATM   40  O3  UNL     1     -15.120  -1.394  -1.649  1.00  0.00    -0.648 OA
ENDBRANCH  37  38
ENDBRANCH  34  37
ENDBRANCH  32  33
ENDBRANCH   3  32
TORSDOF 10
ENDMDL
MODEL 5
REMARK VINA RESULT: -8.362683208      1.984      2.561
REMARK  10 active torsions:
REMARK  status: ('A' for Active; 'I' for Inactive)
REMARK    1  A    between atoms: C2_2  and  N1_3 
REMARK    2  A    between atoms: C4_5  and  C5_6 
REMARK    3  A    between atoms: C5_6  and  N2_7 
REMARK       I    between atoms: N2_7  and  C6_9 
REMARK    4  A    between atoms: C6_9  and  C7_11 
REMARK    5  A    between atoms: C7_11  and  C8_12 
REMARK    6  A    between atoms: C9_15  and  C11_17 
REMARK    7  A    between atoms: C13_22  and  N3_23 
REMARK       I    between atoms: N3_23  and  C14_25 
REMARK    8  A    between atoms: C14_25  and  C15_27 
REMARK    9  A    between atoms: N4_30  and  C18_31 
REMARK   10  A    between atoms: C18_31  and  C19_32 
ROOT
HETATM    1  N1  UNL     1     -20.347  -4.682  -1.531  1.00  0.00    -0.369 N 
HETATM    2  C3  UNL     1     -19.252  -3.765  -1.772  1.00  0.00     0.161 C 
HETATM    3  C4  UNL     1     -19.685  -2.620  -2.651  1.00  0.00    -0.029 C 
HETATM    4  C9  UNL     1     -20.835  -1.882  -2.009  1.00  0.00     0.084 C 
HETATM    5  C10 UNL     1     -20.493  -1.307  -0.665  1.00  0.00     0.029 C 
HETATM    6  C12 UNL     1     -21.964  -2.880  -1.846  1.00  0.00     0.070 C 
HETATM    7  C13 UNL     1     -21.550  -4.122  -1.072  1.00  0.00     0.187 C 
ENDROOT
BRANCH   7   8
HETATM    8  N3  UNL     1     -22.674  -5.054  -1.106  1.00  0.00    -0.339 N 
HETATM    9  C14 UNL     1     -23.137  -5.596  -2.310  1.00  0.00     0.223 C 
HETATM   10  O4  UNL     1     -22.581  -5.282  -3.400  1.00  0.00    -0.273 OA
ATOM     11  H3  UNL     1     -23.132  -5.315  -0.233  1.00  0.00     0.164 HD
BRANCH   9  12
HETATM   12  C15 UNL     1     -24.275  -6.549  -2.402  1.00  0.00     0.084 C 
HETATM   13  C16 UNL     1     -25.603  -5.891  -2.459  1.00  0.00     0.058 C 
HETATM   14  C17 UNL     1     -26.706  -6.582  -1.750  1.00  0.00     0.059 C 
HETATM   15  N4  UNL     1     -26.520  -7.909  -1.361  1.00  0.00    -0.393 N 
HETATM   16  C25 UNL     1     -25.298  -8.565  -1.574  1.00  0.00     0.122 C 
HETATM   17  C26 UNL     1     -24.160  -7.572  -1.296  1.00  0.00     0.034 C 
BRANCH  15  18
HETATM   18  C18 UNL     1     -27.337  -8.403  -0.313  1.00  0.00     0.126 C 
BRANCH  18  19
HETATM   19  C19 UNL     1     -26.987  -9.868  -0.073  1.00  0.00     0.007 C 
HETATM   20  C20 UNL     1     -26.730 -10.106   1.390  1.00  0.00     0.036 C 
HETATM   21  C21 UNL     1     -26.910 -11.573   1.758  1.00  0.00     0.272 C 
HETATM   22  N5  UNL     1     -28.338 -11.864   1.705  1.00  0.00     0.084 N 
HETATM   23  C22 UNL     1     -28.910 -11.687   3.036  1.00  0.00     0.309 C 
HETATM   24  C23 UNL     1     -29.019 -10.993   0.761  1.00  0.00     0.272 C 
HETATM   25  C24 UNL     1     -28.141 -10.768  -0.474  1.00  0.00     0.036 C 
ENDBRANCH  18  19
ENDBRANCH  15  18
ENDBRANCH   9  12
ENDBRANCH   7   8
BRANCH   1  26
HETATM   26  C2  UNL     1     -19.913  -5.859  -0.905  1.00  0.00     0.056 C 
HETATM   27  C1  UNL     1     -18.511  -5.681  -0.369  1.00  0.00     0.054 C 
ENDBRANCH   1  26
BRANCH   4  28
HETATM   28  C11 UNL     1     -21.385  -0.797  -2.896  1.00  0.00     0.399 C 
HETATM   29  F1  UNL     1     -21.640  -1.273  -4.184  1.00  0.00    -0.170 F 
HETATM   30  F2  UNL     1     -22.691  -0.485  -2.426  1.00  0.00    -0.170 F 
HETATM   31  F3  UNL     1     -20.722   0.383  -2.861  1.00  0.00    -0.170 F 
ENDBRANCH   4  28
BRANCH   3  32
HETATM   32  C5  UNL     1     -18.648  -1.819  -3.298  1.00  0.00     0.096 C 
BRANCH  32  33
HETATM   33  N2  UNL     1     -17.460  -1.427  -2.685  1.00  0.00    -0.336 N 
HETATM   34  C6  UNL     1     -16.238  -2.059  -2.530  1.00  0.00     0.231 C 
HETATM   35  O1  UNL     1     -15.986  -3.186  -2.973  1.00  0.00    -0.273 OA
ATOM     36  H2  UNL     1     -17.498  -0.496  -2.270  1.00  0.00     0.168 HD
BRANCH  34  37
HETATM   37  C7  UNL     1     -15.095  -1.403  -1.795  1.00  0.00     0.216 C 
BRANCH  37  38
HETATM   38  C8  UNL     1     -15.267   0.040  -1.637  1.00  0.00     0.181 C 
HETATM   39  O2  UNL     1     -14.748   0.936  -2.346  1.00  0.00    -0.648 OA
HETATM   40  O3  UNL     1     -16.084   0.488  -0.603  1.00  0.00    -0.648 OA
ENDBRANCH  37  38
ENDBRANCH  34  37
ENDBRANCH  32  33
ENDBRANCH   3  32
TORSDOF 10
ENDMDL
