MODEL 1
REMARK VINA RESULT: -8.804685815      0.000      0.000
REMARK  10 active torsions:
REMARK  status: ('A' for Active; 'I' for Inactive)
REMARK    1  A    between atoms: N1_2  and  S1_4 
REMARK    2  A    between atoms: S1_4  and  N2_7 
REMARK    3  A    between atoms: N2_7  and  C3_9 
REMARK    4  A    between atoms: C3_9  and  C4_10 
REMARK    5  A    between atoms: C4_10  and  C5_13 
REMARK    6  A    between atoms: C6_15  and  C7_16 
REMARK       I    between atoms: C7_16  and  N3_18 
REMARK    7  A    between atoms: N3_18  and  C8_20 
REMARK    8  A    between atoms: C8_20  and  C9_21 
REMARK    9  A    between atoms: C8_20  and  C18_34 
REMARK       I    between atoms: C9_21  and  N4_23 
REMARK   10  A    between atoms: N4_23  and  C10_25 
ROOT
HETATM    1  C7  UNL     1     -20.049  -6.536  -0.477  1.00  0.00     0.250 C 
HETATM    2  O4  UNL     1     -20.172  -5.544   0.352  1.00  0.00    -0.271 OA
HETATM    3  N3  UNL     1     -18.730  -6.684  -0.974  1.00  0.00    -0.345 N 
ATOM      4  H3  UNL     1     -18.516  -7.440  -1.626  1.00  0.00     0.163 HD
ENDROOT
BRANCH   3   5
HETATM    5  C8  UNL     1     -17.666  -5.755  -0.556  1.00  0.00     0.184 C 
BRANCH   5   6
HETATM    6  C9  UNL     1     -17.547  -4.728  -1.628  1.00  0.00     0.241 C 
HETATM    7  O5  UNL     1     -16.839  -4.947  -2.634  1.00  0.00    -0.271 OA
HETATM    8  N4  UNL     1     -18.250  -3.474  -1.515  1.00  0.00    -0.350 N 
ATOM      9  H4  UNL     1     -18.832  -3.274  -0.703  1.00  0.00     0.163 HD
BRANCH   8  10
HETATM   10  C10 UNL     1     -18.108  -2.491  -2.599  1.00  0.00     0.128 C 
HETATM   11  C11 UNL     1     -19.529  -2.098  -3.067  1.00  0.00     0.109 C 
HETATM   12  S2  UNL     1     -19.899  -1.040  -1.590  1.00  0.00    -0.127 SA
HETATM   13  C12 UNL     1     -18.227  -0.336  -1.535  1.00  0.00     0.009 A 
HETATM   14  C13 UNL     1     -17.753   0.863  -1.039  1.00  0.00     0.019 A 
HETATM   15  C17 UNL     1     -17.436  -1.263  -2.160  1.00  0.00    -0.018 A 
HETATM   16  C14 UNL     1     -16.432   1.185  -1.156  1.00  0.00     0.001 A 
HETATM   17  C15 UNL     1     -15.595   0.269  -1.785  1.00  0.00     0.001 A 
HETATM   18  C16 UNL     1     -16.070  -0.910  -2.272  1.00  0.00     0.011 A 
ENDBRANCH   8  10
ENDBRANCH   5   6
BRANCH   5  19
HETATM   19  C18 UNL     1     -16.362  -6.475  -0.345  1.00  0.00    -0.022 C 
HETATM   20  C19 UNL     1     -16.313  -7.070   1.055  1.00  0.00     0.017 C 
HETATM   21  C20 UNL     1     -16.224  -7.620  -1.316  1.00  0.00     0.017 C 
HETATM   22  C21 UNL     1     -15.181  -5.534  -0.429  1.00  0.00     0.017 C 
ENDBRANCH   5  19
ENDBRANCH   3   5
BRANCH   1  23
HETATM   23  C6  UNL     1     -21.238  -7.304  -0.745  1.00  0.00     0.249 A 
HETATM   24  C5  UNL     1     -22.292  -7.194  -1.691  1.00  0.00     0.234 A 
HETATM   25  O3  UNL     1     -21.161  -7.867  -2.105  1.00  0.00    -0.359 OA
BRANCH  24  26
HETATM   26  C4  UNL     1     -22.841  -5.982  -2.367  1.00  0.00     0.288 C 
HETATM   27  F1  UNL     1     -22.772  -4.940  -1.387  1.00  0.00    -0.202 F 
HETATM   28  F2  UNL     1     -22.250  -5.566  -3.501  1.00  0.00    -0.202 F 
BRANCH  26  29
HETATM   29  C3  UNL     1     -24.373  -6.138  -2.513  1.00  0.00     0.215 C 
BRANCH  29  30
HETATM   30  N2  UNL     1     -25.026  -5.770  -1.273  1.00  0.00    -0.301 N 
ATOM     31  H2  UNL     1     -25.043  -4.840  -0.855  1.00  0.00     0.173 HD
BRANCH  30  32
HETATM   32  S1  UNL     1     -25.770  -7.192  -0.632  1.00  0.00     0.298 S 
HETATM   33  O1  UNL     1     -25.067  -7.683   0.598  1.00  0.00    -0.188 OA
HETATM   34  O2  UNL     1     -25.785  -8.301  -1.643  1.00  0.00    -0.188 OA
BRANCH  32  35
HETATM   35  N1  UNL     1     -27.419  -6.770  -0.298  1.00  0.00    -0.202 NA
HETATM   36  C1  UNL     1     -28.026  -7.723   0.622  1.00  0.00     0.130 C 
HETATM   37  C2  UNL     1     -27.520  -5.434   0.220  1.00  0.00     0.130 C 
ENDBRANCH  32  35
ENDBRANCH  30  32
ENDBRANCH  29  30
ENDBRANCH  26  29
ENDBRANCH  24  26
ENDBRANCH   1  23
TORSDOF 10
ENDMDL
MODEL 2
REMARK VINA RESULT: -8.800116027      1.227      1.385
REMARK  10 active torsions:
REMARK  status: ('A' for Active; 'I' for Inactive)
REMARK    1  A    between atoms: N1_2  and  S1_4 
REMARK    2  A    between atoms: S1_4  and  N2_7 
REMARK    3  A    between atoms: N2_7  and  C3_9 
REMARK    4  A    between atoms: C3_9  and  C4_10 
REMARK    5  A    between atoms: C4_10  and  C5_13 
REMARK    6  A    between atoms: C6_15  and  C7_16 
REMARK       I    between atoms: C7_16  and  N3_18 
REMARK    7  A    between atoms: N3_18  and  C8_20 
REMARK    8  A    between atoms: C8_20  and  C9_21 
REMARK    9  A    between atoms: C8_20  and  C18_34 
REMARK       I    between atoms: C9_21  and  N4_23 
REMARK   10  A    between atoms: N4_23  and  C10_25 
ROOT
HETATM    1  C7  UNL     1     -20.363  -6.305  -0.398  1.00  0.00     0.250 C 
HETATM    2  O4  UNL     1     -20.395  -5.264   0.378  1.00  0.00    -0.271 OA
HETATM    3  N3  UNL     1     -19.061  -6.611  -0.864  1.00  0.00    -0.345 N 
ATOM      4  H3  UNL     1     -18.917  -7.417  -1.473  1.00  0.00     0.163 HD
ENDROOT
BRANCH   3   5
HETATM    5  C8  UNL     1     -17.912  -5.773  -0.475  1.00  0.00     0.184 C 
BRANCH   5   6
HETATM    6  C9  UNL     1     -17.719  -4.775  -1.564  1.00  0.00     0.241 C 
HETATM    7  O5  UNL     1     -17.065  -5.077  -2.585  1.00  0.00    -0.271 OA
HETATM    8  N4  UNL     1     -18.289  -3.456  -1.452  1.00  0.00    -0.350 N 
ATOM      9  H4  UNL     1     -18.826  -3.188  -0.627  1.00  0.00     0.163 HD
BRANCH   8  10
HETATM   10  C10 UNL     1     -18.078  -2.505  -2.553  1.00  0.00     0.128 C 
HETATM   11  C11 UNL     1     -19.469  -2.072  -3.074  1.00  0.00     0.109 C 
HETATM   12  S2  UNL     1     -19.844  -0.966  -1.633  1.00  0.00    -0.127 SA
HETATM   13  C12 UNL     1     -18.149  -0.322  -1.542  1.00  0.00     0.009 A 
HETATM   14  C13 UNL     1     -17.646   0.871  -1.059  1.00  0.00     0.019 A 
HETATM   15  C17 UNL     1     -17.374  -1.292  -2.121  1.00  0.00    -0.018 A 
HETATM   16  C14 UNL     1     -16.311   1.142  -1.142  1.00  0.00     0.001 A 
HETATM   17  C15 UNL     1     -15.490   0.180  -1.724  1.00  0.00     0.001 A 
HETATM   18  C16 UNL     1     -15.994  -0.992  -2.199  1.00  0.00     0.011 A 
ENDBRANCH   8  10
ENDBRANCH   5   6
BRANCH   5  19
HETATM   19  C18 UNL     1     -16.674  -6.602  -0.271  1.00  0.00    -0.022 C 
HETATM   20  C19 UNL     1     -16.741  -7.323   1.068  1.00  0.00     0.017 C 
HETATM   21  C20 UNL     1     -16.563  -7.663  -1.337  1.00  0.00     0.017 C 
HETATM   22  C21 UNL     1     -15.429  -5.746  -0.211  1.00  0.00     0.017 C 
ENDBRANCH   5  19
ENDBRANCH   3   5
BRANCH   1  23
HETATM   23  C6  UNL     1     -21.621  -6.961  -0.647  1.00  0.00     0.249 A 
HETATM   24  C5  UNL     1     -22.589  -6.880  -1.684  1.00  0.00     0.234 A 
HETATM   25  O3  UNL     1     -21.529  -7.737  -1.898  1.00  0.00    -0.359 OA
BRANCH  24  26
HETATM   26  C4  UNL     1     -22.934  -5.734  -2.576  1.00  0.00     0.288 C 
HETATM   27  F1  UNL     1     -22.924  -4.580  -1.728  1.00  0.00    -0.202 F 
HETATM   28  F2  UNL     1     -22.152  -5.506  -3.646  1.00  0.00    -0.202 F 
BRANCH  26  29
HETATM   29  C3  UNL     1     -24.435  -5.812  -2.938  1.00  0.00     0.215 C 
BRANCH  29  30
HETATM   30  N2  UNL     1     -25.238  -5.420  -1.797  1.00  0.00    -0.301 N 
ATOM     31  H2  UNL     1     -24.895  -5.239  -0.854  1.00  0.00     0.173 HD
BRANCH  30  32
HETATM   32  S1  UNL     1     -26.880  -5.313  -2.325  1.00  0.00     0.298 S 
HETATM   33  O1  UNL     1     -27.050  -5.822  -3.725  1.00  0.00    -0.188 OA
HETATM   34  O2  UNL     1     -27.377  -3.898  -2.274  1.00  0.00    -0.188 OA
BRANCH  32  35
HETATM   35  N1  UNL     1     -27.816  -6.236  -1.193  1.00  0.00    -0.202 NA
HETATM   36  C1  UNL     1     -27.711  -7.663  -1.470  1.00  0.00     0.130 C 
HETATM   37  C2  UNL     1     -27.425  -5.953   0.159  1.00  0.00     0.130 C 
ENDBRANCH  32  35
ENDBRANCH  30  32
ENDBRANCH  29  30
ENDBRANCH  26  29
ENDBRANCH  24  26
ENDBRANCH   1  23
TORSDOF 10
ENDMDL
MODEL 3
REMARK VINA RESULT: -8.748656225      3.573      6.463
REMARK  10 active torsions:
REMARK  status: ('A' for Active; 'I' for Inactive)
REMARK    1  A    between atoms: N1_2  and  S1_4 
REMARK    2  A    between atoms: S1_4  and  N2_7 
REMARK    3  A    between atoms: N2_7  and  C3_9 
REMARK    4  A    between atoms: C3_9  and  C4_10 
REMARK    5  A    between atoms: C4_10  and  C5_13 
REMARK    6  A    between atoms: C6_15  and  C7_16 
REMARK       I    between atoms: C7_16  and  N3_18 
REMARK    7  A    between atoms: N3_18  and  C8_20 
REMARK    8  A    between atoms: C8_20  and  C9_21 
REMARK    9  A    between atoms: C8_20  and  C18_34 
REMARK       I    between atoms: C9_21  and  N4_23 
REMARK   10  A    between atoms: N4_23  and  C10_25 
ROOT
HETATM    1  C7  UNL     1     -16.464  -5.021  -2.613  1.00  0.00     0.250 C 
HETATM    2  O4  UNL     1     -16.671  -5.764  -3.657  1.00  0.00    -0.271 OA
HETATM    3  N3  UNL     1     -16.624  -5.722  -1.392  1.00  0.00    -0.345 N 
ATOM      4  H3  UNL     1     -16.474  -5.238  -0.506  1.00  0.00     0.163 HD
ENDROOT
BRANCH   3   5
HETATM    5  C8  UNL     1     -17.005  -7.146  -1.393  1.00  0.00     0.184 C 
BRANCH   5   6
HETATM    6  C9  UNL     1     -18.486  -7.195  -1.249  1.00  0.00     0.241 C 
HETATM    7  O5  UNL     1     -19.156  -8.021  -1.906  1.00  0.00    -0.271 OA
HETATM    8  N4  UNL     1     -19.160  -6.293  -0.348  1.00  0.00    -0.350 N 
ATOM      9  H4  UNL     1     -18.633  -5.612   0.197  1.00  0.00     0.163 HD
BRANCH   8  10
HETATM   10  C10 UNL     1     -20.623  -6.379  -0.234  1.00  0.00     0.128 C 
HETATM   11  C11 UNL     1     -21.021  -5.810   1.148  1.00  0.00     0.109 C 
HETATM   12  S2  UNL     1     -20.743  -4.037   0.679  1.00  0.00    -0.127 SA
HETATM   13  C12 UNL     1     -21.455  -4.247  -0.977  1.00  0.00     0.009 A 
HETATM   14  C13 UNL     1     -22.059  -3.349  -1.836  1.00  0.00     0.019 A 
HETATM   15  C17 UNL     1     -21.315  -5.581  -1.252  1.00  0.00    -0.018 A 
HETATM   16  C14 UNL     1     -22.559  -3.769  -3.035  1.00  0.00     0.001 A 
HETATM   17  C15 UNL     1     -22.436  -5.118  -3.351  1.00  0.00     0.001 A 
HETATM   18  C16 UNL     1     -21.840  -5.997  -2.499  1.00  0.00     0.011 A 
ENDBRANCH   8  10
ENDBRANCH   5   6
BRANCH   5  19
HETATM   19  C18 UNL     1     -16.325  -7.895  -0.279  1.00  0.00    -0.022 C 
HETATM   20  C19 UNL     1     -15.125  -8.660  -0.819  1.00  0.00     0.017 C 
HETATM   21  C20 UNL     1     -15.806  -6.939   0.765  1.00  0.00     0.017 C 
HETATM   22  C21 UNL     1     -17.233  -8.940   0.331  1.00  0.00     0.017 C 
ENDBRANCH   5  19
ENDBRANCH   3   5
BRANCH   1  23
HETATM   23  C6  UNL     1     -16.111  -3.646  -2.860  1.00  0.00     0.249 A 
HETATM   24  C5  UNL     1     -16.793  -2.409  -2.708  1.00  0.00     0.234 A 
HETATM   25  O3  UNL     1     -16.147  -2.897  -1.590  1.00  0.00    -0.359 OA
BRANCH  24  26
HETATM   26  C4  UNL     1     -18.256  -2.116  -2.769  1.00  0.00     0.288 C 
HETATM   27  F1  UNL     1     -18.427  -1.295  -3.930  1.00  0.00    -0.202 F 
HETATM   28  F2  UNL     1     -19.109  -3.153  -2.828  1.00  0.00    -0.202 F 
BRANCH  26  29
HETATM   29  C3  UNL     1     -18.613  -1.109  -1.651  1.00  0.00     0.215 C 
BRANCH  29  30
HETATM   30  N2  UNL     1     -19.202   0.082  -2.229  1.00  0.00    -0.301 N 
ATOM     31  H2  UNL     1     -18.809   0.639  -2.988  1.00  0.00     0.173 HD
BRANCH  30  32
HETATM   32  S1  UNL     1     -20.687   0.386  -1.402  1.00  0.00     0.298 S 
HETATM   33  O1  UNL     1     -20.764   1.795  -0.893  1.00  0.00    -0.188 OA
HETATM   34  O2  UNL     1     -20.863  -0.545  -0.238  1.00  0.00    -0.188 OA
BRANCH  32  35
HETATM   35  N1  UNL     1     -21.955   0.049  -2.536  1.00  0.00    -0.202 NA
HETATM   36  C1  UNL     1     -23.034   1.021  -2.418  1.00  0.00     0.130 C 
HETATM   37  C2  UNL     1     -21.454   0.010  -3.881  1.00  0.00     0.130 C 
ENDBRANCH  32  35
ENDBRANCH  30  32
ENDBRANCH  29  30
ENDBRANCH  26  29
ENDBRANCH  24  26
ENDBRANCH   1  23
TORSDOF 10
ENDMDL
MODEL 4
REMARK VINA RESULT: -8.711680810      2.708      3.123
REMARK  10 active torsions:
REMARK  status: ('A' for Active; 'I' for Inactive)
REMARK    1  A    between atoms: N1_2  and  S1_4 
REMARK    2  A    between atoms: S1_4  and  N2_7 
REMARK    3  A    between atoms: N2_7  and  C3_9 
REMARK    4  A    between atoms: C3_9  and  C4_10 
REMARK    5  A    between atoms: C4_10  and  C5_13 
REMARK    6  A    between atoms: C6_15  and  C7_16 
REMARK       I    between atoms: C7_16  and  N3_18 
REMARK    7  A    between atoms: N3_18  and  C8_20 
REMARK    8  A    between atoms: C8_20  and  C9_21 
REMARK    9  A    between atoms: C8_20  and  C18_34 
REMARK       I    between atoms: C9_21  and  N4_23 
REMARK   10  A    between atoms: N4_23  and  C10_25 
ROOT
HETATM    1  C7  UNL     1     -19.025  -8.353  -0.772  1.00  0.00     0.250 C 
HETATM    2  O4  UNL     1     -19.299  -7.891   0.410  1.00  0.00    -0.271 OA
HETATM    3  N3  UNL     1     -18.079  -7.563  -1.472  1.00  0.00    -0.345 N 
ATOM      4  H3  UNL     1     -17.782  -7.840  -2.408  1.00  0.00     0.163 HD
ENDROOT
BRANCH   3   5
HETATM    5  C8  UNL     1     -17.523  -6.345  -0.857  1.00  0.00     0.184 C 
BRANCH   5   6
HETATM    6  C9  UNL     1     -17.473  -5.309  -1.925  1.00  0.00     0.241 C 
HETATM    7  O5  UNL     1     -17.081  -5.607  -3.074  1.00  0.00    -0.271 OA
HETATM    8  N4  UNL     1     -17.880  -3.954  -1.645  1.00  0.00    -0.350 N 
ATOM      9  H4  UNL     1     -18.203  -3.689  -0.715  1.00  0.00     0.163 HD
BRANCH   8  10
HETATM   10  C10 UNL     1     -17.819  -2.965  -2.730  1.00  0.00     0.128 C 
HETATM   11  C11 UNL     1     -19.265  -2.496  -3.021  1.00  0.00     0.109 C 
HETATM   12  S2  UNL     1     -19.401  -1.441  -1.502  1.00  0.00    -0.127 SA
HETATM   13  C12 UNL     1     -17.701  -0.821  -1.643  1.00  0.00     0.009 A 
HETATM   14  C13 UNL     1     -17.111   0.346  -1.199  1.00  0.00     0.019 A 
HETATM   15  C17 UNL     1     -17.038  -1.777  -2.366  1.00  0.00    -0.018 A 
HETATM   16  C14 UNL     1     -15.798   0.604  -1.471  1.00  0.00     0.001 A 
HETATM   17  C15 UNL     1     -15.091  -0.344  -2.204  1.00  0.00     0.001 A 
HETATM   18  C16 UNL     1     -15.680  -1.492  -2.639  1.00  0.00     0.011 A 
ENDBRANCH   8  10
ENDBRANCH   5   6
BRANCH   5  19
HETATM   19  C18 UNL     1     -16.157  -6.598  -0.280  1.00  0.00    -0.022 C 
HETATM   20  C19 UNL     1     -16.266  -6.914   1.205  1.00  0.00     0.017 C 
HETATM   21  C20 UNL     1     -15.514  -7.793  -0.939  1.00  0.00     0.017 C 
HETATM   22  C21 UNL     1     -15.273  -5.375  -0.372  1.00  0.00     0.017 C 
ENDBRANCH   5  19
ENDBRANCH   3   5
BRANCH   1  23
HETATM   23  C6  UNL     1     -19.704  -9.561  -1.165  1.00  0.00     0.249 A 
HETATM   24  C5  UNL     1     -21.069  -9.911  -1.351  1.00  0.00     0.234 A 
HETATM   25  O3  UNL     1     -20.432  -9.325  -2.426  1.00  0.00    -0.359 OA
BRANCH  24  26
HETATM   26  C4  UNL     1     -22.291  -9.356  -0.697  1.00  0.00     0.288 C 
HETATM   27  F1  UNL     1     -23.369 -10.180  -1.154  1.00  0.00    -0.202 F 
HETATM   28  F2  UNL     1     -22.318  -9.293   0.647  1.00  0.00    -0.202 F 
BRANCH  26  29
HETATM   29  C3  UNL     1     -22.653  -8.011  -1.367  1.00  0.00     0.215 C 
BRANCH  29  30
HETATM   30  N2  UNL     1     -22.214  -6.910  -0.533  1.00  0.00    -0.301 N 
ATOM     31  H2  UNL     1     -22.250  -6.876   0.486  1.00  0.00     0.173 HD
BRANCH  30  32
HETATM   32  S1  UNL     1     -21.623  -5.667  -1.576  1.00  0.00     0.298 S 
HETATM   33  O1  UNL     1     -20.808  -6.225  -2.704  1.00  0.00    -0.188 OA
HETATM   34  O2  UNL     1     -20.774  -4.683  -0.823  1.00  0.00    -0.188 OA
BRANCH  32  35
HETATM   35  N1  UNL     1     -23.017  -4.814  -2.157  1.00  0.00    -0.202 NA
HETATM   36  C1  UNL     1     -22.676  -3.446  -2.526  1.00  0.00     0.130 C 
HETATM   37  C2  UNL     1     -23.623  -5.500  -3.263  1.00  0.00     0.130 C 
ENDBRANCH  32  35
ENDBRANCH  30  32
ENDBRANCH  29  30
ENDBRANCH  26  29
ENDBRANCH  24  26
ENDBRANCH   1  23
TORSDOF 10
ENDMDL
MODEL 5
REMARK VINA RESULT: -8.701332679      4.027      7.222
REMARK  10 active torsions:
REMARK  status: ('A' for Active; 'I' for Inactive)
REMARK    1  A    between atoms: N1_2  and  S1_4 
REMARK    2  A    between atoms: S1_4  and  N2_7 
REMARK    3  A    between atoms: N2_7  and  C3_9 
REMARK    4  A    between atoms: C3_9  and  C4_10 
REMARK    5  A    between atoms: C4_10  and  C5_13 
REMARK    6  A    between atoms: C6_15  and  C7_16 
REMARK       I    between atoms: C7_16  and  N3_18 
REMARK    7  A    between atoms: N3_18  and  C8_20 
REMARK    8  A    between atoms: C8_20  and  C9_21 
REMARK    9  A    between atoms: C8_20  and  C18_34 
REMARK       I    between atoms: C9_21  and  N4_23 
REMARK   10  A    between atoms: N4_23  and  C10_25 
ROOT
HETATM    1  C7  UNL     1     -18.373  -6.833  -2.310  1.00  0.00     0.250 C 
HETATM    2  O4  UNL     1     -18.851  -6.900  -3.516  1.00  0.00    -0.271 OA
HETATM    3  N3  UNL     1     -19.000  -5.839  -1.519  1.00  0.00    -0.345 N 
ATOM      4  H3  UNL     1     -18.710  -5.706  -0.549  1.00  0.00     0.163 HD
ENDROOT
BRANCH   3   5
HETATM    5  C8  UNL     1     -20.067  -4.996  -2.086  1.00  0.00     0.184 C 
BRANCH   5   6
HETATM    6  C9  UNL     1     -19.464  -3.661  -2.355  1.00  0.00     0.241 C 
HETATM    7  O5  UNL     1     -18.343  -3.371  -1.885  1.00  0.00    -0.271 OA
HETATM    8  N4  UNL     1     -20.167  -2.695  -3.162  1.00  0.00    -0.350 N 
ATOM      9  H4  UNL     1     -21.082  -2.910  -3.555  1.00  0.00     0.163 HD
BRANCH   8  10
HETATM   10  C10 UNL     1     -19.532  -1.391  -3.405  1.00  0.00     0.128 C 
HETATM   11  C11 UNL     1     -19.998  -0.893  -4.794  1.00  0.00     0.109 C 
HETATM   12  S2  UNL     1     -21.704  -0.429  -4.234  1.00  0.00    -0.127 SA
HETATM   13  C12 UNL     1     -21.124   0.251  -2.655  1.00  0.00     0.009 A 
HETATM   14  C13 UNL     1     -21.658   1.211  -1.818  1.00  0.00     0.019 A 
HETATM   15  C17 UNL     1     -19.930  -0.379  -2.420  1.00  0.00    -0.018 A 
HETATM   16  C14 UNL     1     -20.997   1.585  -0.684  1.00  0.00     0.001 A 
HETATM   17  C15 UNL     1     -19.781   0.968  -0.410  1.00  0.00     0.001 A 
HETATM   18  C16 UNL     1     -19.260   0.023  -1.241  1.00  0.00     0.011 A 
ENDBRANCH   8  10
ENDBRANCH   5   6
BRANCH   5  19
HETATM   19  C18 UNL     1     -21.236  -4.886  -1.145  1.00  0.00    -0.022 C 
HETATM   20  C19 UNL     1     -21.254  -6.072  -0.191  1.00  0.00     0.017 C 
HETATM   21  C20 UNL     1     -21.123  -3.642  -0.300  1.00  0.00     0.017 C 
HETATM   22  C21 UNL     1     -22.556  -4.936  -1.881  1.00  0.00     0.017 C 
ENDBRANCH   5  19
ENDBRANCH   3   5
BRANCH   1  23
HETATM   23  C6  UNL     1     -17.317  -7.757  -1.983  1.00  0.00     0.249 A 
HETATM   24  C5  UNL     1     -16.632  -8.089  -0.784  1.00  0.00     0.234 A 
HETATM   25  O3  UNL     1     -17.819  -8.752  -1.018  1.00  0.00    -0.359 OA
BRANCH  24  26
HETATM   26  C4  UNL     1     -16.363  -7.250   0.422  1.00  0.00     0.288 C 
HETATM   27  F1  UNL     1     -17.621  -7.153   1.100  1.00  0.00    -0.202 F 
HETATM   28  F2  UNL     1     -15.422  -7.667   1.288  1.00  0.00    -0.202 F 
BRANCH  26  29
HETATM   29  C3  UNL     1     -16.161  -5.783  -0.021  1.00  0.00     0.215 C 
BRANCH  29  30
HETATM   30  N2  UNL     1     -14.753  -5.445   0.017  1.00  0.00    -0.301 N 
ATOM     31  H2  UNL     1     -14.128  -5.559   0.815  1.00  0.00     0.173 HD
BRANCH  30  32
HETATM   32  S1  UNL     1     -14.324  -4.815  -1.534  1.00  0.00     0.298 S 
HETATM   33  O1  UNL     1     -15.429  -4.990  -2.532  1.00  0.00    -0.188 OA
HETATM   34  O2  UNL     1     -13.092  -5.483  -2.071  1.00  0.00    -0.188 OA
BRANCH  32  35
HETATM   35  N1  UNL     1     -13.945  -3.140  -1.291  1.00  0.00    -0.202 NA
HETATM   36  C1  UNL     1     -12.557  -2.863  -1.638  1.00  0.00     0.130 C 
HETATM   37  C2  UNL     1     -14.832  -2.292  -2.036  1.00  0.00     0.130 C 
ENDBRANCH  32  35
ENDBRANCH  30  32
ENDBRANCH  29  30
ENDBRANCH  26  29
ENDBRANCH  24  26
ENDBRANCH   1  23
TORSDOF 10
ENDMDL
