MODEL 1
REMARK VINA RESULT: -10.597477244      0.000      0.000
REMARK  10 active torsions:
REMARK  status: ('A' for Active; 'I' for Inactive)
REMARK    1  A    between atoms: C3_4  and  N1_5 
REMARK       I    between atoms: N1_5  and  C4_7 
REMARK    2  A    between atoms: C4_7  and  C5_9 
REMARK    3  A    between atoms: C5_9  and  C6_12 
REMARK       I    between atoms: C6_12  and  N2_14 
REMARK    4  A    between atoms: N2_14  and  C7_16 
REMARK    5  A    between atoms: C7_16  and  C8_17 
REMARK    6  A    between atoms: C7_16  and  C20_31 
REMARK    7  A    between atoms: C8_17  and  C9_18 
REMARK       I    between atoms: C9_18  and  N3_20 
REMARK    8  A    between atoms: C12_23  and  C13_24 
REMARK    9  A    between atoms: C20_31  and  C21_32 
REMARK   10  A    between atoms: C27_38  and  O5_39 
ROOT
HETATM    1  C7  UNL     1       0.949  -6.368  -1.935  1.00  0.00     0.093 C 
ENDROOT
BRANCH   1   2
HETATM    2  N2  UNL     1       1.459  -7.658  -1.484  1.00  0.00    -0.350 N 
HETATM    3  C6  UNL     1       2.060  -7.855  -0.231  1.00  0.00     0.300 C 
HETATM    4  O3  UNL     1       2.148  -6.834   0.528  1.00  0.00    -0.266 OA
ATOM      5  H2  UNL     1       1.376  -8.459  -2.112  1.00  0.00     0.163 HD
BRANCH   3   6
HETATM    6  C5  UNL     1       2.565  -9.179   0.192  1.00  0.00     0.400 C 
HETATM    7  F1  UNL     1       2.072  -9.541   1.438  1.00  0.00    -0.184 F 
HETATM    8  F2  UNL     1       2.263 -10.180  -0.705  1.00  0.00    -0.184 F 
BRANCH   6   9
HETATM    9  C4  UNL     1       4.039  -9.101   0.314  1.00  0.00     0.300 C 
HETATM   10  N1  UNL     1       4.795  -8.086  -0.338  1.00  0.00    -0.346 N 
ATOM     11  H1  UNL     1       4.292  -7.402  -0.903  1.00  0.00     0.163 HD
HETATM   12  O2  UNL     1       4.710  -9.933   1.008  1.00  0.00    -0.266 OA
BRANCH  10  13
HETATM   13  C3  UNL     1       6.217  -7.968  -0.250  1.00  0.00     0.149 C 
HETATM   14  C2  UNL     1       6.791  -7.093  -1.370  1.00  0.00     0.141 C 
HETATM   15  C1  UNL     1       8.053  -6.612  -0.760  1.00  0.00     0.263 C 
HETATM   16  O1  UNL     1       9.091  -6.216  -1.348  1.00  0.00    -0.265 OA
HETATM   17  O6  UNL     1       7.942  -6.655   0.622  1.00  0.00    -0.288 OA
HETATM   18  C27 UNL     1       6.683  -7.231   0.972  1.00  0.00     0.289 C 
BRANCH  18  19
HETATM   19  O5  UNL     1       6.913  -8.077   2.053  1.00  0.00    -0.369 OA
ATOM     20  H5  UNL     1       6.395  -7.847   2.815  1.00  0.00     0.212 HD
ENDBRANCH  18  19
ENDBRANCH  10  13
ENDBRANCH   6   9
ENDBRANCH   3   6
ENDBRANCH   1   2
BRANCH   1  21
HETATM   21  C8  UNL     1       2.018  -5.710  -2.771  1.00  0.00     0.128 C 
BRANCH  21  22
HETATM   22  C9  UNL     1       2.118  -4.261  -2.698  1.00  0.00     0.221 C 
HETATM   23  O4  UNL     1       1.113  -3.506  -2.738  1.00  0.00    -0.273 OA
HETATM   24  N3  UNL     1       3.395  -3.638  -2.574  1.00  0.00    -0.351 N 
HETATM   25  C10 UNL     1       4.644  -4.341  -2.511  1.00  0.00     0.126 C 
HETATM   26  C19 UNL     1       3.601  -2.210  -2.497  1.00  0.00     0.135 C 
HETATM   27  C11 UNL     1       5.733  -3.293  -2.616  1.00  0.00     0.031 C 
HETATM   28  C12 UNL     1       5.041  -1.979  -2.910  1.00  0.00     0.038 C 
BRANCH  28  29
HETATM   29  C13 UNL     1       5.583  -0.852  -2.149  1.00  0.00    -0.052 A 
HETATM   30  C14 UNL     1       6.930  -0.709  -1.935  1.00  0.00     0.007 A 
HETATM   31  C15 UNL     1       7.437   0.362  -1.211  1.00  0.00     0.001 A 
HETATM   32  C16 UNL     1       6.572   1.315  -0.689  1.00  0.00     0.000 A 
HETATM   33  C17 UNL     1       5.223   1.178  -0.900  1.00  0.00     0.001 A 
HETATM   34  C18 UNL     1       4.753   0.116  -1.614  1.00  0.00     0.007 A 
ENDBRANCH  28  29
ENDBRANCH  21  22
ENDBRANCH   1  21
BRANCH   1  35
HETATM   35  C20 UNL     1      -0.317  -6.505  -2.695  1.00  0.00     0.030 C 
BRANCH  35  36
HETATM   36  C21 UNL     1      -1.586  -6.671  -1.982  1.00  0.00    -0.013 C 
HETATM   37  C22 UNL     1      -2.822  -6.072  -2.543  1.00  0.00     0.005 C 
HETATM   38  C23 UNL     1      -3.732  -5.737  -1.344  1.00  0.00     0.000 C 
HETATM   39  C24 UNL     1      -3.416  -6.621  -0.176  1.00  0.00     0.000 C 
HETATM   40  C25 UNL     1      -2.972  -7.998  -0.503  1.00  0.00     0.000 C 
HETATM   41  C26 UNL     1      -1.925  -8.102  -1.589  1.00  0.00     0.005 C 
ENDBRANCH  35  36
ENDBRANCH   1  35
TORSDOF 10
ENDMDL
MODEL 2
REMARK VINA RESULT: -10.567270676      1.575      2.042
REMARK  10 active torsions:
REMARK  status: ('A' for Active; 'I' for Inactive)
REMARK    1  A    between atoms: C3_4  and  N1_5 
REMARK       I    between atoms: N1_5  and  C4_7 
REMARK    2  A    between atoms: C4_7  and  C5_9 
REMARK    3  A    between atoms: C5_9  and  C6_12 
REMARK       I    between atoms: C6_12  and  N2_14 
REMARK    4  A    between atoms: N2_14  and  C7_16 
REMARK    5  A    between atoms: C7_16  and  C8_17 
REMARK    6  A    between atoms: C7_16  and  C20_31 
REMARK    7  A    between atoms: C8_17  and  C9_18 
REMARK       I    between atoms: C9_18  and  N3_20 
REMARK    8  A    between atoms: C12_23  and  C13_24 
REMARK    9  A    between atoms: C20_31  and  C21_32 
REMARK   10  A    between atoms: C27_38  and  O5_39 
ROOT
HETATM    1  C7  UNL     1       0.597  -5.529  -2.502  1.00  0.00     0.093 C 
ENDROOT
BRANCH   1   2
HETATM    2  N2  UNL     1       1.509  -6.662  -2.392  1.00  0.00    -0.350 N 
HETATM    3  C6  UNL     1       1.489  -7.567  -1.319  1.00  0.00     0.300 C 
HETATM    4  O3  UNL     1       0.618  -7.360  -0.411  1.00  0.00    -0.266 OA
ATOM      5  H2  UNL     1       2.196  -6.804  -3.133  1.00  0.00     0.163 HD
BRANCH   3   6
HETATM    6  C5  UNL     1       2.430  -8.705  -1.243  1.00  0.00     0.400 C 
HETATM    7  F1  UNL     1       2.534  -9.198   0.051  1.00  0.00    -0.184 F 
HETATM    8  F2  UNL     1       2.085  -9.744  -2.079  1.00  0.00    -0.184 F 
BRANCH   6   9
HETATM    9  C4  UNL     1       3.777  -8.228  -1.635  1.00  0.00     0.300 C 
HETATM   10  N1  UNL     1       4.597  -7.478  -0.745  1.00  0.00    -0.346 N 
ATOM     11  H1  UNL     1       4.231  -7.271   0.185  1.00  0.00     0.163 HD
HETATM   12  O2  UNL     1       4.274  -8.461  -2.785  1.00  0.00    -0.266 OA
BRANCH  10  13
HETATM   13  C3  UNL     1       5.902  -6.997  -1.075  1.00  0.00     0.149 C 
HETATM   14  C2  UNL     1       6.327  -5.828  -0.179  1.00  0.00     0.141 C 
HETATM   15  C1  UNL     1       7.804  -5.921  -0.244  1.00  0.00     0.263 C 
HETATM   16  O1  UNL     1       8.643  -5.005  -0.050  1.00  0.00    -0.265 OA
HETATM   17  O6  UNL     1       8.171  -7.219  -0.565  1.00  0.00    -0.288 OA
HETATM   18  C27 UNL     1       6.994  -7.991  -0.808  1.00  0.00     0.289 C 
BRANCH  18  19
HETATM   19  O5  UNL     1       7.262  -8.802  -1.906  1.00  0.00    -0.369 OA
ATOM     20  H5  UNL     1       8.148  -9.145  -1.900  1.00  0.00     0.212 HD
ENDBRANCH  18  19
ENDBRANCH  10  13
ENDBRANCH   6   9
ENDBRANCH   3   6
ENDBRANCH   1   2
BRANCH   1  21
HETATM   21  C8  UNL     1       1.399  -4.324  -2.922  1.00  0.00     0.128 C 
BRANCH  21  22
HETATM   22  C9  UNL     1       2.534  -3.959  -2.089  1.00  0.00     0.221 C 
HETATM   23  O4  UNL     1       2.853  -4.599  -1.056  1.00  0.00    -0.273 OA
HETATM   24  N3  UNL     1       3.339  -2.832  -2.432  1.00  0.00    -0.351 N 
HETATM   25  C10 UNL     1       3.123  -1.991  -3.574  1.00  0.00     0.126 C 
HETATM   26  C19 UNL     1       4.482  -2.386  -1.670  1.00  0.00     0.135 C 
HETATM   27  C11 UNL     1       4.055  -0.807  -3.417  1.00  0.00     0.031 C 
HETATM   28  C12 UNL     1       4.688  -0.933  -2.047  1.00  0.00     0.038 C 
BRANCH  28  29
HETATM   29  C13 UNL     1       6.120  -0.633  -2.039  1.00  0.00    -0.052 A 
HETATM   30  C14 UNL     1       6.598   0.594  -1.654  1.00  0.00     0.007 A 
HETATM   31  C15 UNL     1       7.958   0.871  -1.649  1.00  0.00     0.001 A 
HETATM   32  C16 UNL     1       8.865  -0.106  -2.039  1.00  0.00     0.000 A 
HETATM   33  C17 UNL     1       8.394  -1.336  -2.424  1.00  0.00     0.001 A 
HETATM   34  C18 UNL     1       7.053  -1.581  -2.420  1.00  0.00     0.007 A 
ENDBRANCH  28  29
ENDBRANCH  21  22
ENDBRANCH   1  21
BRANCH   1  35
HETATM   35  C20 UNL     1      -0.510  -5.795  -3.452  1.00  0.00     0.030 C 
BRANCH  35  36
HETATM   36  C21 UNL     1      -1.897  -5.791  -2.982  1.00  0.00    -0.013 C 
HETATM   37  C22 UNL     1      -2.979  -5.367  -3.905  1.00  0.00     0.005 C 
HETATM   38  C23 UNL     1      -4.089  -4.751  -3.028  1.00  0.00     0.000 C 
HETATM   39  C24 UNL     1      -4.036  -5.310  -1.639  1.00  0.00     0.000 C 
HETATM   40  C25 UNL     1      -3.591  -6.720  -1.520  1.00  0.00     0.000 C 
HETATM   41  C26 UNL     1      -2.359  -7.081  -2.319  1.00  0.00     0.005 C 
ENDBRANCH  35  36
ENDBRANCH   1  35
TORSDOF 10
ENDMDL
MODEL 3
REMARK VINA RESULT: -10.446188093      1.728      2.187
REMARK  10 active torsions:
REMARK  status: ('A' for Active; 'I' for Inactive)
REMARK    1  A    between atoms: C3_4  and  N1_5 
REMARK       I    between atoms: N1_5  and  C4_7 
REMARK    2  A    between atoms: C4_7  and  C5_9 
REMARK    3  A    between atoms: C5_9  and  C6_12 
REMARK       I    between atoms: C6_12  and  N2_14 
REMARK    4  A    between atoms: N2_14  and  C7_16 
REMARK    5  A    between atoms: C7_16  and  C8_17 
REMARK    6  A    between atoms: C7_16  and  C20_31 
REMARK    7  A    between atoms: C8_17  and  C9_18 
REMARK       I    between atoms: C9_18  and  N3_20 
REMARK    8  A    between atoms: C12_23  and  C13_24 
REMARK    9  A    between atoms: C20_31  and  C21_32 
REMARK   10  A    between atoms: C27_38  and  O5_39 
ROOT
HETATM    1  C7  UNL     1       0.557  -5.454  -2.513  1.00  0.00     0.093 C 
ENDROOT
BRANCH   1   2
HETATM    2  N2  UNL     1       1.613  -6.460  -2.528  1.00  0.00    -0.350 N 
HETATM    3  C6  UNL     1       1.919  -7.274  -1.426  1.00  0.00     0.300 C 
HETATM    4  O3  UNL     1       1.219  -7.100  -0.373  1.00  0.00    -0.266 OA
ATOM      5  H2  UNL     1       2.157  -6.578  -3.383  1.00  0.00     0.163 HD
BRANCH   3   6
HETATM    6  C5  UNL     1       2.997  -8.284  -1.479  1.00  0.00     0.400 C 
HETATM    7  F1  UNL     1       3.241  -8.840  -0.230  1.00  0.00    -0.184 F 
HETATM    8  F2  UNL     1       2.733  -9.305  -2.366  1.00  0.00    -0.184 F 
BRANCH   6   9
HETATM    9  C4  UNL     1       4.247  -7.614  -1.908  1.00  0.00     0.300 C 
HETATM   10  N1  UNL     1       5.370  -7.492  -1.041  1.00  0.00    -0.346 N 
ATOM     11  H1  UNL     1       5.295  -7.882  -0.102  1.00  0.00     0.163 HD
HETATM   12  O2  UNL     1       4.386  -7.112  -3.071  1.00  0.00    -0.266 OA
BRANCH  10  13
HETATM   13  C3  UNL     1       6.596  -6.857  -1.408  1.00  0.00     0.149 C 
HETATM   14  C2  UNL     1       6.617  -5.376  -1.013  1.00  0.00     0.141 C 
HETATM   15  C1  UNL     1       8.070  -5.116  -0.893  1.00  0.00     0.263 C 
HETATM   16  O1  UNL     1       8.668  -4.015  -0.998  1.00  0.00    -0.265 OA
HETATM   17  O6  UNL     1       8.732  -6.308  -0.635  1.00  0.00    -0.288 OA
HETATM   18  C27 UNL     1       7.790  -7.380  -0.663  1.00  0.00     0.289 C 
BRANCH  18  19
HETATM   19  O5  UNL     1       8.407  -8.442  -1.318  1.00  0.00    -0.369 OA
ATOM     20  H5  UNL     1       9.354  -8.378  -1.308  1.00  0.00     0.212 HD
ENDBRANCH  18  19
ENDBRANCH  10  13
ENDBRANCH   6   9
ENDBRANCH   3   6
ENDBRANCH   1   2
BRANCH   1  21
HETATM   21  C8  UNL     1       1.177  -4.120  -2.843  1.00  0.00     0.128 C 
BRANCH  21  22
HETATM   22  C9  UNL     1       2.222  -3.637  -1.953  1.00  0.00     0.221 C 
HETATM   23  O4  UNL     1       2.381  -4.079  -0.788  1.00  0.00    -0.273 OA
HETATM   24  N3  UNL     1       3.121  -2.620  -2.392  1.00  0.00    -0.351 N 
HETATM   25  C10 UNL     1       3.088  -2.004  -3.688  1.00  0.00     0.126 C 
HETATM   26  C19 UNL     1       4.186  -2.071  -1.587  1.00  0.00     0.135 C 
HETATM   27  C11 UNL     1       4.054  -0.840  -3.635  1.00  0.00     0.031 C 
HETATM   28  C12 UNL     1       4.511  -0.722  -2.196  1.00  0.00     0.038 C 
BRANCH  28  29
HETATM   29  C13 UNL     1       5.946  -0.468  -2.060  1.00  0.00    -0.052 A 
HETATM   30  C14 UNL     1       6.881  -1.270  -2.664  1.00  0.00     0.007 A 
HETATM   31  C15 UNL     1       8.240  -1.022  -2.530  1.00  0.00     0.001 A 
HETATM   32  C16 UNL     1       8.676   0.057  -1.772  1.00  0.00     0.000 A 
HETATM   33  C17 UNL     1       7.746   0.864  -1.166  1.00  0.00     0.001 A 
HETATM   34  C18 UNL     1       6.417   0.598  -1.314  1.00  0.00     0.007 A 
ENDBRANCH  28  29
ENDBRANCH  21  22
ENDBRANCH   1  21
BRANCH   1  35
HETATM   35  C20 UNL     1      -0.539  -5.783  -3.455  1.00  0.00     0.030 C 
BRANCH  35  36
HETATM   36  C21 UNL     1      -1.819  -6.285  -2.948  1.00  0.00    -0.013 C 
HETATM   37  C22 UNL     1      -1.827  -7.277  -1.845  1.00  0.00     0.005 C 
HETATM   38  C23 UNL     1      -3.094  -8.137  -2.036  1.00  0.00     0.000 C 
HETATM   39  C24 UNL     1      -4.143  -7.374  -2.787  1.00  0.00     0.000 C 
HETATM   40  C25 UNL     1      -4.179  -5.909  -2.549  1.00  0.00     0.000 C 
HETATM   41  C26 UNL     1      -2.837  -5.213  -2.589  1.00  0.00     0.005 C 
ENDBRANCH  35  36
ENDBRANCH   1  35
TORSDOF 10
ENDMDL
MODEL 4
REMARK VINA RESULT: -10.390173490      2.682      7.137
REMARK  10 active torsions:
REMARK  status: ('A' for Active; 'I' for Inactive)
REMARK    1  A    between atoms: C3_4  and  N1_5 
REMARK       I    between atoms: N1_5  and  C4_7 
REMARK    2  A    between atoms: C4_7  and  C5_9 
REMARK    3  A    between atoms: C5_9  and  C6_12 
REMARK       I    between atoms: C6_12  and  N2_14 
REMARK    4  A    between atoms: N2_14  and  C7_16 
REMARK    5  A    between atoms: C7_16  and  C8_17 
REMARK    6  A    between atoms: C7_16  and  C20_31 
REMARK    7  A    between atoms: C8_17  and  C9_18 
REMARK       I    between atoms: C9_18  and  N3_20 
REMARK    8  A    between atoms: C12_23  and  C13_24 
REMARK    9  A    between atoms: C20_31  and  C21_32 
REMARK   10  A    between atoms: C27_38  and  O5_39 
ROOT
HETATM    1  C7  UNL     1       3.165  -7.346  -1.250  1.00  0.00     0.093 C 
ENDROOT
BRANCH   1   2
HETATM    2  N2  UNL     1       1.736  -7.125  -1.057  1.00  0.00    -0.350 N 
HETATM    3  C6  UNL     1       0.767  -8.118  -1.269  1.00  0.00     0.300 C 
HETATM    4  O3  UNL     1       1.190  -9.260  -1.650  1.00  0.00    -0.266 OA
ATOM      5  H2  UNL     1       1.426  -6.202  -0.752  1.00  0.00     0.163 HD
BRANCH   3   6
HETATM    6  C5  UNL     1      -0.674  -7.857  -1.062  1.00  0.00     0.400 C 
HETATM    7  F1  UNL     1      -1.430  -9.011  -1.215  1.00  0.00    -0.184 F 
HETATM    8  F2  UNL     1      -0.949  -7.315   0.174  1.00  0.00    -0.184 F 
BRANCH   6   9
HETATM    9  C4  UNL     1      -1.129  -6.898  -2.096  1.00  0.00     0.300 C 
HETATM   10  N1  UNL     1      -2.510  -6.646  -2.330  1.00  0.00    -0.346 N 
ATOM     11  H1  UNL     1      -3.193  -7.149  -1.762  1.00  0.00     0.163 HD
HETATM   12  O2  UNL     1      -0.314  -6.248  -2.829  1.00  0.00    -0.266 OA
BRANCH  10  13
HETATM   13  C3  UNL     1      -3.000  -5.731  -3.313  1.00  0.00     0.149 C 
HETATM   14  C2  UNL     1      -4.402  -6.109  -3.803  1.00  0.00     0.141 C 
HETATM   15  C1  UNL     1      -4.924  -4.801  -4.262  1.00  0.00     0.263 C 
HETATM   16  O1  UNL     1      -5.828  -4.586  -5.109  1.00  0.00    -0.265 OA
HETATM   17  O6  UNL     1      -4.253  -3.780  -3.605  1.00  0.00    -0.288 OA
HETATM   18  C27 UNL     1      -3.233  -4.347  -2.781  1.00  0.00     0.289 C 
BRANCH  18  19
HETATM   19  O5  UNL     1      -2.114  -3.529  -2.905  1.00  0.00    -0.369 OA
ATOM     20  H5  UNL     1      -1.950  -3.265  -3.803  1.00  0.00     0.212 HD
ENDBRANCH  18  19
ENDBRANCH  10  13
ENDBRANCH   6   9
ENDBRANCH   3   6
ENDBRANCH   1   2
BRANCH   1  21
HETATM   21  C8  UNL     1       3.614  -6.504  -2.418  1.00  0.00     0.128 C 
BRANCH  21  22
HETATM   22  C9  UNL     1       3.370  -5.072  -2.335  1.00  0.00     0.221 C 
HETATM   23  O4  UNL     1       2.216  -4.582  -2.260  1.00  0.00    -0.273 OA
HETATM   24  N3  UNL     1       4.466  -4.159  -2.336  1.00  0.00    -0.351 N 
HETATM   25  C10 UNL     1       5.848  -4.541  -2.413  1.00  0.00     0.126 C 
HETATM   26  C19 UNL     1       4.330  -2.723  -2.262  1.00  0.00     0.135 C 
HETATM   27  C11 UNL     1       6.635  -3.263  -2.617  1.00  0.00     0.031 C 
HETATM   28  C12 UNL     1       5.621  -2.157  -2.820  1.00  0.00     0.038 C 
BRANCH  28  29
HETATM   29  C13 UNL     1       5.953  -0.925  -2.104  1.00  0.00    -0.052 A 
HETATM   30  C14 UNL     1       4.982  -0.056  -1.676  1.00  0.00     0.007 A 
HETATM   31  C15 UNL     1       5.306   1.112  -0.998  1.00  0.00     0.001 A 
HETATM   32  C16 UNL     1       6.636   1.417  -0.741  1.00  0.00     0.000 A 
HETATM   33  C17 UNL     1       7.612   0.552  -1.165  1.00  0.00     0.001 A 
HETATM   34  C18 UNL     1       7.267  -0.588  -1.830  1.00  0.00     0.007 A 
ENDBRANCH  28  29
ENDBRANCH  21  22
ENDBRANCH   1  21
BRANCH   1  35
HETATM   35  C20 UNL     1       3.947  -7.032  -0.030  1.00  0.00     0.030 C 
BRANCH  35  36
HETATM   36  C21 UNL     1       5.365  -7.391   0.046  1.00  0.00    -0.013 C 
HETATM   37  C22 UNL     1       6.324  -6.449   0.675  1.00  0.00     0.005 C 
HETATM   38  C23 UNL     1       7.683  -6.674  -0.021  1.00  0.00     0.000 C 
HETATM   39  C24 UNL     1       7.768  -8.062  -0.579  1.00  0.00     0.000 C 
HETATM   40  C25 UNL     1       7.060  -9.117   0.187  1.00  0.00     0.000 C 
HETATM   41  C26 UNL     1       5.653  -8.770   0.622  1.00  0.00     0.005 C 
ENDBRANCH  35  36
ENDBRANCH   1  35
TORSDOF 10
ENDMDL
MODEL 5
REMARK VINA RESULT: -10.374263611      2.228      7.444
REMARK  10 active torsions:
REMARK  status: ('A' for Active; 'I' for Inactive)
REMARK    1  A    between atoms: C3_4  and  N1_5 
REMARK       I    between atoms: N1_5  and  C4_7 
REMARK    2  A    between atoms: C4_7  and  C5_9 
REMARK    3  A    between atoms: C5_9  and  C6_12 
REMARK       I    between atoms: C6_12  and  N2_14 
REMARK    4  A    between atoms: N2_14  and  C7_16 
REMARK    5  A    between atoms: C7_16  and  C8_17 
REMARK    6  A    between atoms: C7_16  and  C20_31 
REMARK    7  A    between atoms: C8_17  and  C9_18 
REMARK       I    between atoms: C9_18  and  N3_20 
REMARK    8  A    between atoms: C12_23  and  C13_24 
REMARK    9  A    between atoms: C20_31  and  C21_32 
REMARK   10  A    between atoms: C27_38  and  O5_39 
ROOT
HETATM    1  C7  UNL     1       5.871  -3.466  -2.520  1.00  0.00     0.093 C 
ENDROOT
BRANCH   1   2
HETATM    2  N2  UNL     1       6.531  -4.190  -1.438  1.00  0.00    -0.350 N 
HETATM    3  C6  UNL     1       7.073  -5.476  -1.590  1.00  0.00     0.300 C 
HETATM    4  O3  UNL     1       6.967  -6.011  -2.743  1.00  0.00    -0.266 OA
ATOM      5  H2  UNL     1       6.601  -3.739  -0.526  1.00  0.00     0.163 HD
BRANCH   3   6
HETATM    6  C5  UNL     1       7.735  -6.179  -0.470  1.00  0.00     0.400 C 
HETATM    7  F1  UNL     1       8.628  -7.140  -0.925  1.00  0.00    -0.184 F 
HETATM    8  F2  UNL     1       8.408  -5.325   0.377  1.00  0.00    -0.184 F 
BRANCH   6   9
HETATM    9  C4  UNL     1       6.699  -6.886   0.318  1.00  0.00     0.300 C 
HETATM   10  N1  UNL     1       5.352  -6.987  -0.130  1.00  0.00    -0.346 N 
ATOM     11  H1  UNL     1       5.110  -6.552  -1.021  1.00  0.00     0.163 HD
HETATM   12  O2  UNL     1       6.956  -7.443   1.436  1.00  0.00    -0.266 OA
BRANCH  10  13
HETATM   13  C3  UNL     1       4.318  -7.659   0.592  1.00  0.00     0.149 C 
HETATM   14  C2  UNL     1       2.926  -7.131   0.227  1.00  0.00     0.141 C 
HETATM   15  C1  UNL     1       2.068  -8.294   0.553  1.00  0.00     0.263 C 
HETATM   16  O1  UNL     1       0.843  -8.293   0.838  1.00  0.00    -0.265 OA
HETATM   17  O6  UNL     1       2.826  -9.455   0.502  1.00  0.00    -0.288 OA
HETATM   18  C27 UNL     1       4.187  -9.112   0.240  1.00  0.00     0.289 C 
BRANCH  18  19
HETATM   19  O5  UNL     1       4.972  -9.932   1.047  1.00  0.00    -0.369 OA
ATOM     20  H5  UNL     1       5.733  -9.482   1.395  1.00  0.00     0.212 HD
ENDBRANCH  18  19
ENDBRANCH  10  13
ENDBRANCH   6   9
ENDBRANCH   3   6
ENDBRANCH   1   2
BRANCH   1  21
HETATM   21  C8  UNL     1       4.395  -3.419  -2.217  1.00  0.00     0.128 C 
BRANCH  21  22
HETATM   22  C9  UNL     1       3.622  -4.619  -2.499  1.00  0.00     0.221 C 
HETATM   23  O4  UNL     1       4.151  -5.746  -2.667  1.00  0.00    -0.273 OA
HETATM   24  N3  UNL     1       2.200  -4.547  -2.595  1.00  0.00    -0.351 N 
HETATM   25  C10 UNL     1       1.429  -3.348  -2.431  1.00  0.00     0.126 C 
HETATM   26  C19 UNL     1       1.344  -5.677  -2.875  1.00  0.00     0.135 C 
HETATM   27  C11 UNL     1       0.012  -3.688  -2.841  1.00  0.00     0.031 C 
HETATM   28  C12 UNL     1       0.051  -5.093  -3.406  1.00  0.00     0.038 C 
BRANCH  28  29
HETATM   29  C13 UNL     1      -1.068  -5.928  -2.967  1.00  0.00    -0.052 A 
HETATM   30  C14 UNL     1      -2.342  -5.730  -3.435  1.00  0.00     0.007 A 
HETATM   31  C15 UNL     1      -3.399  -6.526  -3.013  1.00  0.00     0.001 A 
HETATM   32  C16 UNL     1      -3.174  -7.547  -2.100  1.00  0.00     0.000 A 
HETATM   33  C17 UNL     1      -1.902  -7.750  -1.628  1.00  0.00     0.001 A 
HETATM   34  C18 UNL     1      -0.883  -6.954  -2.058  1.00  0.00     0.007 A 
ENDBRANCH  28  29
ENDBRANCH  21  22
ENDBRANCH   1  21
BRANCH   1  35
HETATM   35  C20 UNL     1       6.426  -2.103  -2.696  1.00  0.00     0.030 C 
BRANCH  35  36
HETATM   36  C21 UNL     1       5.625  -0.932  -2.332  1.00  0.00    -0.013 C 
HETATM   37  C22 UNL     1       6.302   0.286  -1.822  1.00  0.00     0.005 C 
HETATM   38  C23 UNL     1       5.306   0.977  -0.868  1.00  0.00     0.000 C 
HETATM   39  C24 UNL     1       3.896   0.616  -1.224  1.00  0.00     0.000 C 
HETATM   40  C25 UNL     1       3.624   0.393  -2.665  1.00  0.00     0.000 C 
HETATM   41  C26 UNL     1       4.628  -0.476  -3.388  1.00  0.00     0.005 C 
ENDBRANCH  35  36
ENDBRANCH   1  35
TORSDOF 10
ENDMDL
