MODEL 1
REMARK VINA RESULT: -8.486125187      0.000      0.000
REMARK  11 active torsions:
REMARK  status: ('A' for Active; 'I' for Inactive)
REMARK       I    between atoms: C2_2  and  N1_4 
REMARK    1  A    between atoms: N1_4  and  C3_6 
REMARK    2  A    between atoms: C6_9  and  S1_10 
REMARK    3  A    between atoms: S1_10  and  N2_13 
REMARK    4  A    between atoms: N2_13  and  C7_15 
REMARK    5  A    between atoms: C7_15  and  C8_16 
REMARK    6  A    between atoms: C7_15  and  C19_34 
REMARK       I    between atoms: C8_16  and  N3_18 
REMARK    7  A    between atoms: N3_18  and  C9_20 
REMARK    8  A    between atoms: C9_20  and  C10_21 
REMARK    9  A    between atoms: C9_20  and  C15_30 
REMARK       I    between atoms: C10_21  and  N4_23 
REMARK   10  A    between atoms: N4_23  and  C11_24 
REMARK   11  A    between atoms: N4_23  and  C14_27 
ROOT
HETATM    1  C7  UNL     1       7.475  -2.175  -1.658  1.00  0.00     0.192 C 
ENDROOT
BRANCH   1   2
HETATM    2  N2  UNL     1       8.365  -3.124  -2.326  1.00  0.00    -0.301 N 
ATOM      3  H2  UNL     1       8.645  -3.018  -3.301  1.00  0.00     0.173 HD
BRANCH   2   4
HETATM    4  S1  UNL     1       8.897  -4.409  -1.369  1.00  0.00     0.259 S 
HETATM    5  O2  UNL     1       9.391  -3.888  -0.036  1.00  0.00    -0.201 OA
HETATM    6  O3  UNL     1       9.981  -5.228  -2.015  1.00  0.00    -0.201 OA
BRANCH   4   7
HETATM    7  C6  UNL     1       7.584  -5.508  -1.031  1.00  0.00     0.079 A 
HETATM    8  C5  UNL     1       7.162  -5.750   0.266  1.00  0.00     0.027 A 
HETATM    9  C4  UNL     1       6.141  -6.609   0.561  1.00  0.00     0.031 A 
HETATM   10  C3  UNL     1       5.460  -7.296  -0.447  1.00  0.00     0.034 A 
HETATM   11  C24 UNL     1       5.870  -7.061  -1.715  1.00  0.00     0.031 A 
HETATM   12  C23 UNL     1       6.917  -6.181  -2.018  1.00  0.00     0.027 A 
BRANCH  10  13
HETATM   13  N1  UNL     1       4.429  -8.182  -0.098  1.00  0.00    -0.328 N 
HETATM   14  C2  UNL     1       4.620  -9.447   0.476  1.00  0.00     0.218 C 
HETATM   15  C1  UNL     1       3.394 -10.301   0.808  1.00  0.00     0.117 C 
HETATM   16  O1  UNL     1       5.703  -9.983   0.759  1.00  0.00    -0.274 OA
ATOM     17  H1  UNL     1       3.470  -7.883  -0.273  1.00  0.00     0.169 HD
ENDBRANCH  10  13
ENDBRANCH   4   7
ENDBRANCH   2   4
ENDBRANCH   1   2
BRANCH   1  18
HETATM   18  C8  UNL     1       6.200  -2.199  -2.404  1.00  0.00     0.242 C 
HETATM   19  O4  UNL     1       6.205  -2.050  -3.638  1.00  0.00    -0.271 OA
HETATM   20  N3  UNL     1       4.972  -2.389  -1.762  1.00  0.00    -0.345 N 
ATOM     21  H3  UNL     1       4.957  -2.519  -0.750  1.00  0.00     0.163 HD
BRANCH  20  22
HETATM   22  C9  UNL     1       3.694  -2.406  -2.508  1.00  0.00     0.184 C 
BRANCH  22  23
HETATM   23  C10 UNL     1       2.903  -1.204  -2.151  1.00  0.00     0.247 C 
HETATM   24  O5  UNL     1       2.785  -0.899  -0.894  1.00  0.00    -0.271 OA
HETATM   25  N4  UNL     1       2.255  -0.329  -3.035  1.00  0.00    -0.290 N 
BRANCH  25  26
HETATM   26  C11 UNL     1       2.280  -0.454  -4.461  1.00  0.00     0.084 C 
HETATM   27  C12 UNL     1       3.662  -0.028  -5.007  1.00  0.00     0.032 C 
HETATM   28  C13 UNL     1       1.204   0.373  -5.134  1.00  0.00     0.032 C 
ENDBRANCH  25  26
BRANCH  25  29
HETATM   29  C14 UNL     1       1.498   0.791  -2.445  1.00  0.00     0.463 C 
HETATM   30  F1  UNL     1       0.395   0.356  -1.779  1.00  0.00    -0.191 F 
HETATM   31  F2  UNL     1       2.301   1.535  -1.598  1.00  0.00    -0.191 F 
ENDBRANCH  25  29
ENDBRANCH  22  23
BRANCH  22  32
HETATM   32  C15 UNL     1       2.976  -3.700  -2.197  1.00  0.00    -0.022 C 
HETATM   33  C16 UNL     1       3.239  -4.040  -0.742  1.00  0.00     0.017 C 
HETATM   34  C17 UNL     1       3.553  -4.812  -3.012  1.00  0.00     0.017 C 
HETATM   35  C18 UNL     1       1.496  -3.636  -2.486  1.00  0.00     0.017 C 
ENDBRANCH  22  32
ENDBRANCH  20  22
ENDBRANCH   1  18
BRANCH   1  36
HETATM   36  C19 UNL     1       8.058  -0.780  -1.762  1.00  0.00    -0.022 C 
HETATM   37  C20 UNL     1       8.471  -0.370  -3.146  1.00  0.00     0.017 C 
HETATM   38  C21 UNL     1       9.294  -0.645  -0.888  1.00  0.00     0.017 C 
HETATM   39  C22 UNL     1       7.053   0.234  -1.261  1.00  0.00     0.017 C 
ENDBRANCH   1  36
TORSDOF 11
ENDMDL
MODEL 2
REMARK VINA RESULT: -8.434770847      0.238      1.029
REMARK  11 active torsions:
REMARK  status: ('A' for Active; 'I' for Inactive)
REMARK       I    between atoms: C2_2  and  N1_4 
REMARK    1  A    between atoms: N1_4  and  C3_6 
REMARK    2  A    between atoms: C6_9  and  S1_10 
REMARK    3  A    between atoms: S1_10  and  N2_13 
REMARK    4  A    between atoms: N2_13  and  C7_15 
REMARK    5  A    between atoms: C7_15  and  C8_16 
REMARK    6  A    between atoms: C7_15  and  C19_34 
REMARK       I    between atoms: C8_16  and  N3_18 
REMARK    7  A    between atoms: N3_18  and  C9_20 
REMARK    8  A    between atoms: C9_20  and  C10_21 
REMARK    9  A    between atoms: C9_20  and  C15_30 
REMARK       I    between atoms: C10_21  and  N4_23 
REMARK   10  A    between atoms: N4_23  and  C11_24 
REMARK   11  A    between atoms: N4_23  and  C14_27 
ROOT
HETATM    1  C7  UNL     1       7.469  -2.194  -1.647  1.00  0.00     0.192 C 
ENDROOT
BRANCH   1   2
HETATM    2  N2  UNL     1       8.346  -3.159  -2.308  1.00  0.00    -0.301 N 
ATOM      3  H2  UNL     1       8.640  -3.054  -3.279  1.00  0.00     0.173 HD
BRANCH   2   4
HETATM    4  S1  UNL     1       8.837  -4.460  -1.351  1.00  0.00     0.259 S 
HETATM    5  O2  UNL     1       9.322  -3.957  -0.008  1.00  0.00    -0.201 OA
HETATM    6  O3  UNL     1       9.912  -5.298  -1.987  1.00  0.00    -0.201 OA
BRANCH   4   7
HETATM    7  C6  UNL     1       7.497  -5.533  -1.038  1.00  0.00     0.079 A 
HETATM    8  C5  UNL     1       7.113  -6.495  -1.959  1.00  0.00     0.027 A 
HETATM    9  C4  UNL     1       6.065  -7.345  -1.744  1.00  0.00     0.031 A 
HETATM   10  C3  UNL     1       5.316  -7.286  -0.565  1.00  0.00     0.034 A 
HETATM   11  C24 UNL     1       5.688  -6.348   0.336  1.00  0.00     0.031 A 
HETATM   12  C23 UNL     1       6.763  -5.475   0.115  1.00  0.00     0.027 A 
BRANCH  10  13
HETATM   13  N1  UNL     1       4.237  -8.167  -0.394  1.00  0.00    -0.328 N 
HETATM   14  C2  UNL     1       4.278  -9.347   0.362  1.00  0.00     0.218 C 
HETATM   15  C1  UNL     1       3.014 -10.206   0.461  1.00  0.00     0.117 C 
HETATM   16  O1  UNL     1       5.250  -9.801   0.986  1.00  0.00    -0.274 OA
ATOM     17  H1  UNL     1       3.357  -7.930  -0.853  1.00  0.00     0.169 HD
ENDBRANCH  10  13
ENDBRANCH   4   7
ENDBRANCH   2   4
ENDBRANCH   1   2
BRANCH   1  18
HETATM   18  C8  UNL     1       6.188  -2.217  -2.384  1.00  0.00     0.242 C 
HETATM   19  O4  UNL     1       6.185  -2.075  -3.618  1.00  0.00    -0.271 OA
HETATM   20  N3  UNL     1       4.964  -2.397  -1.731  1.00  0.00    -0.345 N 
ATOM     21  H3  UNL     1       4.955  -2.521  -0.719  1.00  0.00     0.163 HD
BRANCH  20  22
HETATM   22  C9  UNL     1       3.680  -2.412  -2.468  1.00  0.00     0.184 C 
BRANCH  22  23
HETATM   23  C10 UNL     1       2.907  -1.193  -2.130  1.00  0.00     0.247 C 
HETATM   24  O5  UNL     1       2.785  -0.872  -0.877  1.00  0.00    -0.271 OA
HETATM   25  N4  UNL     1       2.281  -0.317  -3.029  1.00  0.00    -0.290 N 
BRANCH  25  26
HETATM   26  C11 UNL     1       2.315  -0.458  -4.453  1.00  0.00     0.084 C 
HETATM   27  C12 UNL     1       3.698  -0.031  -4.995  1.00  0.00     0.032 C 
HETATM   28  C13 UNL     1       1.239   0.357  -5.141  1.00  0.00     0.032 C 
ENDBRANCH  25  26
BRANCH  25  29
HETATM   29  C14 UNL     1       1.539   0.822  -2.457  1.00  0.00     0.463 C 
HETATM   30  F1  UNL     1       0.424   0.413  -1.794  1.00  0.00    -0.191 F 
HETATM   31  F2  UNL     1       2.349   1.561  -1.611  1.00  0.00    -0.191 F 
ENDBRANCH  25  29
ENDBRANCH  22  23
BRANCH  22  32
HETATM   32  C15 UNL     1       2.948  -3.690  -2.126  1.00  0.00    -0.022 C 
HETATM   33  C16 UNL     1       3.656  -4.834  -2.828  1.00  0.00     0.017 C 
HETATM   34  C17 UNL     1       1.557  -3.643  -2.671  1.00  0.00     0.017 C 
HETATM   35  C18 UNL     1       2.853  -3.934  -0.640  1.00  0.00     0.017 C 
ENDBRANCH  22  32
ENDBRANCH  20  22
ENDBRANCH   1  18
BRANCH   1  36
HETATM   36  C19 UNL     1       8.063  -0.806  -1.773  1.00  0.00    -0.022 C 
HETATM   37  C20 UNL     1       8.469  -0.417  -3.165  1.00  0.00     0.017 C 
HETATM   38  C21 UNL     1       9.306  -0.670  -0.909  1.00  0.00     0.017 C 
HETATM   39  C22 UNL     1       7.070   0.224  -1.279  1.00  0.00     0.017 C 
ENDBRANCH   1  36
TORSDOF 11
ENDMDL
MODEL 3
REMARK VINA RESULT: -8.131496959      3.435      7.284
REMARK  11 active torsions:
REMARK  status: ('A' for Active; 'I' for Inactive)
REMARK       I    between atoms: C2_2  and  N1_4 
REMARK    1  A    between atoms: N1_4  and  C3_6 
REMARK    2  A    between atoms: C6_9  and  S1_10 
REMARK    3  A    between atoms: S1_10  and  N2_13 
REMARK    4  A    between atoms: N2_13  and  C7_15 
REMARK    5  A    between atoms: C7_15  and  C8_16 
REMARK    6  A    between atoms: C7_15  and  C19_34 
REMARK       I    between atoms: C8_16  and  N3_18 
REMARK    7  A    between atoms: N3_18  and  C9_20 
REMARK    8  A    between atoms: C9_20  and  C10_21 
REMARK    9  A    between atoms: C9_20  and  C15_30 
REMARK       I    between atoms: C10_21  and  N4_23 
REMARK   10  A    between atoms: N4_23  and  C11_24 
REMARK   11  A    between atoms: N4_23  and  C14_27 
ROOT
HETATM    1  C7  UNL     1       3.101  -1.945  -1.670  1.00  0.00     0.192 C 
ENDROOT
BRANCH   1   2
HETATM    2  N2  UNL     1       4.313  -1.812  -2.478  1.00  0.00    -0.301 N 
ATOM      3  H2  UNL     1       4.594  -2.516  -3.161  1.00  0.00     0.173 HD
BRANCH   2   4
HETATM    4  S1  UNL     1       5.213  -0.412  -2.201  1.00  0.00     0.259 S 
HETATM    5  O2  UNL     1       4.758   0.248  -0.916  1.00  0.00    -0.201 OA
HETATM    6  O3  UNL     1       5.134   0.583  -3.326  1.00  0.00    -0.201 OA
BRANCH   4   7
HETATM    7  C6  UNL     1       6.904  -0.798  -2.004  1.00  0.00     0.079 A 
HETATM    8  C5  UNL     1       7.780   0.089  -1.399  1.00  0.00     0.027 A 
HETATM    9  C4  UNL     1       9.109  -0.184  -1.236  1.00  0.00     0.031 A 
HETATM   10  C3  UNL     1       9.659  -1.390  -1.677  1.00  0.00     0.034 A 
HETATM   11  C24 UNL     1       8.806  -2.258  -2.268  1.00  0.00     0.031 A 
HETATM   12  C23 UNL     1       7.444  -1.979  -2.437  1.00  0.00     0.027 A 
BRANCH  10  13
HETATM   13  N1  UNL     1      11.033  -1.621  -1.505  1.00  0.00    -0.328 N 
HETATM   14  C2  UNL     1      11.613  -2.878  -1.278  1.00  0.00     0.218 C 
HETATM   15  C1  UNL     1      13.132  -2.973  -1.114  1.00  0.00     0.117 C 
HETATM   16  O1  UNL     1      11.024  -3.966  -1.191  1.00  0.00    -0.274 OA
ATOM     17  H1  UNL     1      11.656  -0.814  -1.547  1.00  0.00     0.169 HD
ENDBRANCH  10  13
ENDBRANCH   4   7
ENDBRANCH   2   4
ENDBRANCH   1   2
BRANCH   1  18
HETATM   18  C8  UNL     1       3.114  -3.315  -1.116  1.00  0.00     0.242 C 
HETATM   19  O4  UNL     1       2.614  -3.532   0.000  1.00  0.00    -0.271 OA
HETATM   20  N3  UNL     1       3.675  -4.389  -1.814  1.00  0.00    -0.345 N 
ATOM     21  H3  UNL     1       4.082  -4.223  -2.735  1.00  0.00     0.163 HD
BRANCH  20  22
HETATM   22  C9  UNL     1       3.695  -5.760  -1.256  1.00  0.00     0.184 C 
BRANCH  22  23
HETATM   23  C10 UNL     1       4.969  -6.421  -1.628  1.00  0.00     0.247 C 
HETATM   24  O5  UNL     1       5.473  -6.166  -2.798  1.00  0.00    -0.271 OA
HETATM   25  N4  UNL     1       5.718  -7.308  -0.842  1.00  0.00    -0.290 N 
BRANCH  25  26
HETATM   26  C11 UNL     1       5.368  -7.704   0.488  1.00  0.00     0.084 C 
HETATM   27  C12 UNL     1       6.616  -7.659   1.400  1.00  0.00     0.032 C 
HETATM   28  C13 UNL     1       4.765  -9.092   0.540  1.00  0.00     0.032 C 
ENDBRANCH  25  26
BRANCH  25  29
HETATM   29  C14 UNL     1       6.946  -7.868  -1.437  1.00  0.00     0.463 C 
HETATM   30  F1  UNL     1       8.064  -7.302  -0.906  1.00  0.00    -0.191 F 
HETATM   31  F2  UNL     1       6.989  -9.242  -1.276  1.00  0.00    -0.191 F 
ENDBRANCH  25  29
ENDBRANCH  22  23
BRANCH  22  32
HETATM   32  C15 UNL     1       2.476  -6.499  -1.760  1.00  0.00    -0.022 C 
HETATM   33  C16 UNL     1       1.485  -6.596  -0.615  1.00  0.00     0.017 C 
HETATM   34  C17 UNL     1       2.846  -7.899  -2.131  1.00  0.00     0.017 C 
HETATM   35  C18 UNL     1       1.853  -5.849  -2.971  1.00  0.00     0.017 C 
ENDBRANCH  22  32
ENDBRANCH  20  22
ENDBRANCH   1  18
BRANCH   1  36
HETATM   36  C19 UNL     1       1.884  -1.808  -2.563  1.00  0.00    -0.022 C 
HETATM   37  C20 UNL     1       0.816  -2.838  -2.337  1.00  0.00     0.017 C 
HETATM   38  C21 UNL     1       2.275  -1.909  -4.028  1.00  0.00     0.017 C 
HETATM   39  C22 UNL     1       1.257  -0.444  -2.370  1.00  0.00     0.017 C 
ENDBRANCH   1  36
TORSDOF 11
ENDMDL
MODEL 4
REMARK VINA RESULT: -8.026928715      3.261      7.536
REMARK  11 active torsions:
REMARK  status: ('A' for Active; 'I' for Inactive)
REMARK       I    between atoms: C2_2  and  N1_4 
REMARK    1  A    between atoms: N1_4  and  C3_6 
REMARK    2  A    between atoms: C6_9  and  S1_10 
REMARK    3  A    between atoms: S1_10  and  N2_13 
REMARK    4  A    between atoms: N2_13  and  C7_15 
REMARK    5  A    between atoms: C7_15  and  C8_16 
REMARK    6  A    between atoms: C7_15  and  C19_34 
REMARK       I    between atoms: C8_16  and  N3_18 
REMARK    7  A    between atoms: N3_18  and  C9_20 
REMARK    8  A    between atoms: C9_20  and  C10_21 
REMARK    9  A    between atoms: C9_20  and  C15_30 
REMARK       I    between atoms: C10_21  and  N4_23 
REMARK   10  A    between atoms: N4_23  and  C11_24 
REMARK   11  A    between atoms: N4_23  and  C14_27 
ROOT
HETATM    1  C7  UNL     1       4.208  -3.156  -1.824  1.00  0.00     0.192 C 
ENDROOT
BRANCH   1   2
HETATM    2  N2  UNL     1       4.873  -2.453  -2.920  1.00  0.00    -0.301 N 
ATOM      3  H2  UNL     1       4.892  -2.818  -3.872  1.00  0.00     0.173 HD
BRANCH   2   4
HETATM    4  S1  UNL     1       5.609  -0.993  -2.498  1.00  0.00     0.259 S 
HETATM    5  O2  UNL     1       4.998  -0.459  -1.220  1.00  0.00    -0.201 OA
HETATM    6  O3  UNL     1       5.515   0.057  -3.571  1.00  0.00    -0.201 OA
BRANCH   4   7
HETATM    7  C6  UNL     1       7.310  -1.229  -2.189  1.00  0.00     0.079 A 
HETATM    8  C5  UNL     1       8.153  -0.159  -1.938  1.00  0.00     0.027 A 
HETATM    9  C4  UNL     1       9.489  -0.313  -1.698  1.00  0.00     0.031 A 
HETATM   10  C3  UNL     1      10.082  -1.578  -1.692  1.00  0.00     0.034 A 
HETATM   11  C24 UNL     1       9.261  -2.626  -1.937  1.00  0.00     0.031 A 
HETATM   12  C23 UNL     1       7.891  -2.468  -2.184  1.00  0.00     0.027 A 
BRANCH  10  13
HETATM   13  N1  UNL     1      11.461  -1.689  -1.459  1.00  0.00    -0.328 N 
HETATM   14  C2  UNL     1      12.155  -2.898  -1.310  1.00  0.00     0.218 C 
HETATM   15  C1  UNL     1      13.665  -2.859  -1.064  1.00  0.00     0.117 C 
HETATM   16  O1  UNL     1      11.678  -4.043  -1.355  1.00  0.00    -0.274 OA
ATOM     17  H1  UNL     1      11.999  -0.824  -1.392  1.00  0.00     0.169 HD
ENDBRANCH  10  13
ENDBRANCH   4   7
ENDBRANCH   2   4
ENDBRANCH   1   2
BRANCH   1  18
HETATM   18  C8  UNL     1       4.653  -4.564  -1.898  1.00  0.00     0.242 C 
HETATM   19  O4  UNL     1       4.748  -5.122  -3.003  1.00  0.00    -0.271 OA
HETATM   20  N3  UNL     1       4.978  -5.297  -0.751  1.00  0.00    -0.345 N 
ATOM     21  H3  UNL     1       4.910  -4.845   0.161  1.00  0.00     0.163 HD
BRANCH  20  22
HETATM   22  C9  UNL     1       5.416  -6.709  -0.824  1.00  0.00     0.184 C 
BRANCH  22  23
HETATM   23  C10 UNL     1       4.330  -7.585  -0.322  1.00  0.00     0.247 C 
HETATM   24  O5  UNL     1       3.443  -7.066   0.474  1.00  0.00    -0.271 OA
HETATM   25  N4  UNL     1       4.139  -8.941  -0.618  1.00  0.00    -0.290 N 
BRANCH  25  26
HETATM   26  C11 UNL     1       4.974  -9.704  -1.495  1.00  0.00     0.084 C 
HETATM   27  C12 UNL     1       4.136 -10.272  -2.664  1.00  0.00     0.032 C 
HETATM   28  C13 UNL     1       5.671 -10.846  -0.784  1.00  0.00     0.032 C 
ENDBRANCH  25  26
BRANCH  25  29
HETATM   29  C14 UNL     1       2.998  -9.620   0.026  1.00  0.00     0.463 C 
HETATM   30  F1  UNL     1       3.109  -9.613   1.382  1.00  0.00    -0.191 F 
HETATM   31  F2  UNL     1       1.801  -9.036  -0.354  1.00  0.00    -0.191 F 
ENDBRANCH  25  29
ENDBRANCH  22  23
BRANCH  22  32
HETATM   32  C15 UNL     1       6.701  -6.851  -0.040  1.00  0.00    -0.022 C 
HETATM   33  C16 UNL     1       7.297  -5.466   0.131  1.00  0.00     0.017 C 
HETATM   34  C17 UNL     1       7.690  -7.653  -0.823  1.00  0.00     0.017 C 
HETATM   35  C18 UNL     1       6.505  -7.532   1.292  1.00  0.00     0.017 C 
ENDBRANCH  22  32
ENDBRANCH  20  22
ENDBRANCH   1  18
BRANCH   1  36
HETATM   36  C19 UNL     1       2.709  -3.122  -2.041  1.00  0.00    -0.022 C 
HETATM   37  C20 UNL     1       2.023  -4.452  -1.923  1.00  0.00     0.017 C 
HETATM   38  C21 UNL     1       2.376  -2.589  -3.425  1.00  0.00     0.017 C 
HETATM   39  C22 UNL     1       2.067  -2.182  -1.043  1.00  0.00     0.017 C 
ENDBRANCH   1  36
TORSDOF 11
ENDMDL
MODEL 5
REMARK VINA RESULT: -7.867824022      3.184      6.775
REMARK  11 active torsions:
REMARK  status: ('A' for Active; 'I' for Inactive)
REMARK       I    between atoms: C2_2  and  N1_4 
REMARK    1  A    between atoms: N1_4  and  C3_6 
REMARK    2  A    between atoms: C6_9  and  S1_10 
REMARK    3  A    between atoms: S1_10  and  N2_13 
REMARK    4  A    between atoms: N2_13  and  C7_15 
REMARK    5  A    between atoms: C7_15  and  C8_16 
REMARK    6  A    between atoms: C7_15  and  C19_34 
REMARK       I    between atoms: C8_16  and  N3_18 
REMARK    7  A    between atoms: N3_18  and  C9_20 
REMARK    8  A    between atoms: C9_20  and  C10_21 
REMARK    9  A    between atoms: C9_20  and  C15_30 
REMARK       I    between atoms: C10_21  and  N4_23 
REMARK   10  A    between atoms: N4_23  and  C11_24 
REMARK   11  A    between atoms: N4_23  and  C14_27 
ROOT
HETATM    1  C7  UNL     1       2.963  -1.624  -1.535  1.00  0.00     0.192 C 
ENDROOT
BRANCH   1   2
HETATM    2  N2  UNL     1       4.321  -1.744  -2.066  1.00  0.00    -0.301 N 
ATOM      3  H2  UNL     1       4.704  -2.632  -2.391  1.00  0.00     0.173 HD
BRANCH   2   4
HETATM    4  S1  UNL     1       5.208  -0.309  -2.104  1.00  0.00     0.259 S 
HETATM    5  O2  UNL     1       4.855   0.547  -0.907  1.00  0.00    -0.201 OA
HETATM    6  O3  UNL     1       5.004   0.488  -3.363  1.00  0.00    -0.201 OA
BRANCH   4   7
HETATM    7  C6  UNL     1       6.919  -0.642  -2.005  1.00  0.00     0.079 A 
HETATM    8  C5  UNL     1       7.731   0.019  -1.098  1.00  0.00     0.027 A 
HETATM    9  C4  UNL     1       9.073  -0.217  -1.001  1.00  0.00     0.031 A 
HETATM   10  C3  UNL     1       9.704  -1.153  -1.826  1.00  0.00     0.034 A 
HETATM   11  C24 UNL     1       8.914  -1.800  -2.713  1.00  0.00     0.031 A 
HETATM   12  C23 UNL     1       7.537  -1.558  -2.813  1.00  0.00     0.027 A 
BRANCH  10  13
HETATM   13  N1  UNL     1      11.088  -1.351  -1.704  1.00  0.00    -0.328 N 
HETATM   14  C2  UNL     1      11.695  -2.551  -1.308  1.00  0.00     0.218 C 
HETATM   15  C1  UNL     1      13.222  -2.617  -1.226  1.00  0.00     0.117 C 
HETATM   16  O1  UNL     1      11.124  -3.610  -1.002  1.00  0.00    -0.274 OA
ATOM     17  H1  UNL     1      11.698  -0.562  -1.921  1.00  0.00     0.169 HD
ENDBRANCH  10  13
ENDBRANCH   4   7
ENDBRANCH   2   4
ENDBRANCH   1   2
BRANCH   1  18
HETATM   18  C8  UNL     1       2.650  -2.917  -0.890  1.00  0.00     0.242 C 
HETATM   19  O4  UNL     1       2.254  -2.937   0.287  1.00  0.00    -0.271 OA
HETATM   20  N3  UNL     1       2.783  -4.132  -1.569  1.00  0.00    -0.345 N 
ATOM     21  H3  UNL     1       3.100  -4.126  -2.538  1.00  0.00     0.163 HD
BRANCH  20  22
HETATM   22  C9  UNL     1       2.476  -5.427  -0.920  1.00  0.00     0.184 C 
BRANCH  22  23
HETATM   23  C10 UNL     1       3.723  -6.000  -0.358  1.00  0.00     0.247 C 
HETATM   24  O5  UNL     1       3.641  -6.686   0.742  1.00  0.00    -0.271 OA
HETATM   25  N4  UNL     1       5.014  -5.892  -0.892  1.00  0.00    -0.290 N 
BRANCH  25  26
HETATM   26  C11 UNL     1       5.332  -5.212  -2.111  1.00  0.00     0.084 C 
HETATM   27  C12 UNL     1       5.432  -6.226  -3.274  1.00  0.00     0.032 C 
HETATM   28  C13 UNL     1       6.629  -4.433  -2.019  1.00  0.00     0.032 C 
ENDBRANCH  25  26
BRANCH  25  29
HETATM   29  C14 UNL     1       6.114  -6.524  -0.139  1.00  0.00     0.463 C 
HETATM   30  F1  UNL     1       6.943  -7.228  -0.956  1.00  0.00    -0.191 F 
HETATM   31  F2  UNL     1       6.836  -5.575   0.565  1.00  0.00    -0.191 F 
ENDBRANCH  25  29
ENDBRANCH  22  23
BRANCH  22  32
HETATM   32  C15 UNL     1       1.819  -6.329  -1.941  1.00  0.00    -0.022 C 
HETATM   33  C16 UNL     1       1.838  -5.610  -3.277  1.00  0.00     0.017 C 
HETATM   34  C17 UNL     1       0.383  -6.541  -1.585  1.00  0.00     0.017 C 
HETATM   35  C18 UNL     1       2.475  -7.684  -2.038  1.00  0.00     0.017 C 
ENDBRANCH  22  32
ENDBRANCH  20  22
ENDBRANCH   1  18
BRANCH   1  36
HETATM   36  C19 UNL     1       1.991  -1.419  -2.679  1.00  0.00    -0.022 C 
HETATM   37  C20 UNL     1       1.610   0.010  -2.935  1.00  0.00     0.017 C 
HETATM   38  C21 UNL     1       0.694  -2.170  -2.427  1.00  0.00     0.017 C 
HETATM   39  C22 UNL     1       2.579  -1.976  -3.958  1.00  0.00     0.017 C 
ENDBRANCH   1  36
TORSDOF 11
ENDMDL
