MODEL 1
REMARK VINA RESULT: -9.402681940      0.000      0.000
REMARK  10 active torsions:
REMARK  status: ('A' for Active; 'I' for Inactive)
REMARK    1  A    between atoms: C2_2  and  C5_5 
REMARK    2  A    between atoms: C5_5  and  N1_6 
REMARK    3  A    between atoms: C5_5  and  C14_27 
REMARK       I    between atoms: N1_6  and  C6_8 
REMARK    4  A    between atoms: C6_8  and  C7_10 
REMARK       I    between atoms: N2_17  and  C11_18 
REMARK    5  A    between atoms: C11_18  and  C12_20 
REMARK    6  A    between atoms: C12_20  and  N3_21 
REMARK    7  A    between atoms: N3_21  and  S2_23 
REMARK    8  A    between atoms: C14_27  and  C15_28 
REMARK    9  A    between atoms: C14_27  and  C22_35 
REMARK   10  A    between atoms: C15_28  and  C16_29 
ROOT
HETATM    1  N1  UNL     1       2.950  -4.794  -2.392  1.00  0.00    -0.353 N 
ATOM      2  H1  UNL     1       2.904  -5.092  -3.366  1.00  0.00     0.163 HD
HETATM    3  C6  UNL     1       2.390  -5.654  -1.461  1.00  0.00     0.242 C 
HETATM    4  O1  UNL     1       2.343  -5.424  -0.243  1.00  0.00    -0.271 OA
ENDROOT
BRANCH   3   5
HETATM    5  C7  UNL     1       1.806  -6.953  -1.897  1.00  0.00     0.197 C 
HETATM    6  C8  UNL     1       2.631  -8.155  -1.686  1.00  0.00     0.115 C 
HETATM    7  C9  UNL     1       2.940  -8.629  -0.332  1.00  0.00     0.256 C 
HETATM    8  F1  UNL     1       4.072  -8.018   0.180  1.00  0.00    -0.205 F 
HETATM    9  F2  UNL     1       3.337  -9.985  -0.477  1.00  0.00    -0.205 F 
HETATM   10  C10 UNL     1       1.876  -8.638   0.694  1.00  0.00     0.176 C 
HETATM   11  S1  UNL     1       0.276  -8.043   0.075  1.00  0.00    -0.044 SA
HETATM   12  N2  UNL     1       0.469  -7.183  -1.436  1.00  0.00    -0.276 N 
HETATM   13  C11 UNL     1      -0.655  -6.746  -2.151  1.00  0.00     0.248 C 
HETATM   14  O2  UNL     1      -0.555  -6.114  -3.261  1.00  0.00    -0.271 OA
BRANCH  13  15
HETATM   15  C12 UNL     1      -2.046  -6.984  -1.672  1.00  0.00     0.235 C 
BRANCH  15  16
HETATM   16  N3  UNL     1      -2.698  -5.787  -1.251  1.00  0.00    -0.311 N 
ATOM     17  H3  UNL     1      -2.438  -5.245  -0.426  1.00  0.00     0.172 HD
BRANCH  16  18
HETATM   18  S2  UNL     1      -3.984  -5.378  -2.323  1.00  0.00     0.223 S 
HETATM   19  C13 UNL     1      -3.586  -3.858  -3.179  1.00  0.00     0.185 C 
HETATM   20  O3  UNL     1      -4.093  -6.428  -3.421  1.00  0.00    -0.206 OA
HETATM   21  O4  UNL     1      -5.304  -5.263  -1.662  1.00  0.00    -0.206 OA
ENDBRANCH  16  18
ENDBRANCH  15  16
ENDBRANCH  13  15
ENDBRANCH   3   5
BRANCH   1  22
HETATM   22  C5  UNL     1       3.617  -3.474  -2.131  1.00  0.00     0.104 C 
BRANCH  22  23
HETATM   23  C2  UNL     1       2.685  -2.466  -2.623  1.00  0.00    -0.030 C 
HETATM   24  C1  UNL     1       1.233  -2.982  -2.735  1.00  0.00     0.016 C 
HETATM   25  C3  UNL     1       2.952  -1.648  -3.814  1.00  0.00     0.016 C 
HETATM   26  C4  UNL     1       2.530  -1.394  -1.489  1.00  0.00     0.016 C 
ENDBRANCH  22  23
BRANCH  22  27
HETATM   27  C14 UNL     1       5.006  -3.585  -2.579  1.00  0.00     0.099 C 
BRANCH  27  28
HETATM   28  C15 UNL     1       6.157  -2.812  -2.145  1.00  0.00     0.020 C 
BRANCH  28  29
HETATM   29  C16 UNL     1       6.845  -1.733  -2.825  1.00  0.00    -0.014 C 
HETATM   30  C17 UNL     1       5.931  -0.477  -2.651  1.00  0.00     0.005 C 
HETATM   31  C18 UNL     1       6.144   0.173  -1.320  1.00  0.00     0.000 C 
HETATM   32  C19 UNL     1       7.554   0.700  -1.192  1.00  0.00     0.000 C 
HETATM   33  C20 UNL     1       8.395   0.163  -2.317  1.00  0.00     0.000 C 
HETATM   34  C21 UNL     1       8.200  -1.359  -2.305  1.00  0.00     0.005 C 
ENDBRANCH  28  29
ENDBRANCH  27  28
BRANCH  27  35
HETATM   35  C22 UNL     1       5.447  -5.038  -2.381  1.00  0.00     0.237 C 
HETATM   36  N4  UNL     1       5.838  -5.542  -1.120  1.00  0.00    -0.062 NA
HETATM   37  O5  UNL     1       5.450  -5.776  -3.362  1.00  0.00    -0.276 OA
ENDBRANCH  27  35
ENDBRANCH  22  27
ENDBRANCH   1  22
TORSDOF 10
ENDMDL
MODEL 2
REMARK VINA RESULT: -9.400792423      1.077      1.367
REMARK  10 active torsions:
REMARK  status: ('A' for Active; 'I' for Inactive)
REMARK    1  A    between atoms: C2_2  and  C5_5 
REMARK    2  A    between atoms: C5_5  and  N1_6 
REMARK    3  A    between atoms: C5_5  and  C14_27 
REMARK       I    between atoms: N1_6  and  C6_8 
REMARK    4  A    between atoms: C6_8  and  C7_10 
REMARK       I    between atoms: N2_17  and  C11_18 
REMARK    5  A    between atoms: C11_18  and  C12_20 
REMARK    6  A    between atoms: C12_20  and  N3_21 
REMARK    7  A    between atoms: N3_21  and  S2_23 
REMARK    8  A    between atoms: C14_27  and  C15_28 
REMARK    9  A    between atoms: C14_27  and  C22_35 
REMARK   10  A    between atoms: C15_28  and  C16_29 
ROOT
HETATM    1  N1  UNL     1       2.845  -4.744  -2.392  1.00  0.00    -0.353 N 
ATOM      2  H1  UNL     1       2.763  -5.025  -3.369  1.00  0.00     0.163 HD
HETATM    3  C6  UNL     1       2.338  -5.630  -1.456  1.00  0.00     0.242 C 
HETATM    4  O1  UNL     1       2.338  -5.422  -0.233  1.00  0.00    -0.271 OA
ENDROOT
BRANCH   3   5
HETATM    5  C7  UNL     1       1.755  -6.929  -1.890  1.00  0.00     0.197 C 
HETATM    6  C8  UNL     1       2.593  -8.126  -1.706  1.00  0.00     0.115 C 
HETATM    7  C9  UNL     1       2.934  -8.609  -0.363  1.00  0.00     0.256 C 
HETATM    8  F1  UNL     1       4.071  -7.994   0.132  1.00  0.00    -0.205 F 
HETATM    9  F2  UNL     1       3.339  -9.961  -0.528  1.00  0.00    -0.205 F 
HETATM   10  C10 UNL     1       1.890  -8.635   0.684  1.00  0.00     0.176 C 
HETATM   11  S1  UNL     1       0.274  -8.048   0.102  1.00  0.00    -0.044 SA
HETATM   12  N2  UNL     1       0.429  -7.174  -1.405  1.00  0.00    -0.276 N 
HETATM   13  C11 UNL     1      -0.712  -6.740  -2.094  1.00  0.00     0.248 C 
HETATM   14  O2  UNL     1      -0.639  -6.097  -3.200  1.00  0.00    -0.271 OA
BRANCH  13  15
HETATM   15  C12 UNL     1      -2.091  -6.993  -1.589  1.00  0.00     0.235 C 
BRANCH  15  16
HETATM   16  N3  UNL     1      -2.799  -5.791  -1.290  1.00  0.00    -0.311 N 
ATOM     17  H3  UNL     1      -2.553  -4.869  -1.650  1.00  0.00     0.172 HD
BRANCH  16  18
HETATM   18  S2  UNL     1      -4.128  -6.107  -0.238  1.00  0.00     0.223 S 
HETATM   19  C13 UNL     1      -4.192  -7.856   0.133  1.00  0.00     0.185 C 
HETATM   20  O3  UNL     1      -3.893  -5.429   1.106  1.00  0.00    -0.206 OA
HETATM   21  O4  UNL     1      -5.434  -5.646  -0.764  1.00  0.00    -0.206 OA
ENDBRANCH  16  18
ENDBRANCH  15  16
ENDBRANCH  13  15
ENDBRANCH   3   5
BRANCH   1  22
HETATM   22  C5  UNL     1       3.502  -3.419  -2.135  1.00  0.00     0.104 C 
BRANCH  22  23
HETATM   23  C2  UNL     1       2.581  -2.420  -2.664  1.00  0.00    -0.030 C 
HETATM   24  C1  UNL     1       1.122  -2.921  -2.744  1.00  0.00     0.016 C 
HETATM   25  C3  UNL     1       2.850  -1.660  -3.892  1.00  0.00     0.016 C 
HETATM   26  C4  UNL     1       2.450  -1.297  -1.578  1.00  0.00     0.016 C 
ENDBRANCH  22  23
BRANCH  22  27
HETATM   27  C14 UNL     1       4.902  -3.533  -2.547  1.00  0.00     0.099 C 
BRANCH  27  28
HETATM   28  C15 UNL     1       6.035  -2.728  -2.123  1.00  0.00     0.020 C 
BRANCH  28  29
HETATM   29  C16 UNL     1       6.713  -1.656  -2.825  1.00  0.00    -0.014 C 
HETATM   30  C17 UNL     1       5.846  -0.379  -2.577  1.00  0.00     0.005 C 
HETATM   31  C18 UNL     1       6.154   0.241  -1.251  1.00  0.00     0.000 C 
HETATM   32  C19 UNL     1       7.583   0.728  -1.198  1.00  0.00     0.000 C 
HETATM   33  C20 UNL     1       8.341   0.188  -2.379  1.00  0.00     0.000 C 
HETATM   34  C21 UNL     1       8.105  -1.328  -2.380  1.00  0.00     0.005 C 
ENDBRANCH  28  29
ENDBRANCH  27  28
BRANCH  27  35
HETATM   35  C22 UNL     1       5.355  -4.970  -2.275  1.00  0.00     0.237 C 
HETATM   36  N4  UNL     1       5.448  -5.939  -3.300  1.00  0.00    -0.062 NA
HETATM   37  O5  UNL     1       5.647  -5.270  -1.121  1.00  0.00    -0.276 OA
ENDBRANCH  27  35
ENDBRANCH  22  27
ENDBRANCH   1  22
TORSDOF 10
ENDMDL
MODEL 3
REMARK VINA RESULT: -8.973765470      2.492      3.481
REMARK  10 active torsions:
REMARK  status: ('A' for Active; 'I' for Inactive)
REMARK    1  A    between atoms: C2_2  and  C5_5 
REMARK    2  A    between atoms: C5_5  and  N1_6 
REMARK    3  A    between atoms: C5_5  and  C14_27 
REMARK       I    between atoms: N1_6  and  C6_8 
REMARK    4  A    between atoms: C6_8  and  C7_10 
REMARK       I    between atoms: N2_17  and  C11_18 
REMARK    5  A    between atoms: C11_18  and  C12_20 
REMARK    6  A    between atoms: C12_20  and  N3_21 
REMARK    7  A    between atoms: N3_21  and  S2_23 
REMARK    8  A    between atoms: C14_27  and  C15_28 
REMARK    9  A    between atoms: C14_27  and  C22_35 
REMARK   10  A    between atoms: C15_28  and  C16_29 
ROOT
HETATM    1  N1  UNL     1       2.750  -2.887  -2.362  1.00  0.00    -0.353 N 
ATOM      2  H1  UNL     1       2.827  -3.079  -3.361  1.00  0.00     0.163 HD
HETATM    3  C6  UNL     1       2.734  -3.992  -1.527  1.00  0.00     0.242 C 
HETATM    4  O1  UNL     1       2.619  -3.927  -0.293  1.00  0.00    -0.271 OA
ENDROOT
BRANCH   3   5
HETATM    5  C7  UNL     1       2.871  -5.362  -2.092  1.00  0.00     0.197 C 
HETATM    6  C8  UNL     1       4.221  -5.953  -2.080  1.00  0.00     0.115 C 
HETATM    7  C9  UNL     1       4.882  -6.295  -0.815  1.00  0.00     0.256 C 
HETATM    8  F1  UNL     1       5.577  -5.218  -0.291  1.00  0.00    -0.205 F 
HETATM    9  F2  UNL     1       5.912  -7.214  -1.153  1.00  0.00    -0.205 F 
HETATM   10  C10 UNL     1       4.104  -6.951   0.256  1.00  0.00     0.176 C 
HETATM   11  S1  UNL     1       2.372  -7.253  -0.196  1.00  0.00    -0.044 SA
HETATM   12  N2  UNL     1       1.915  -6.306  -1.593  1.00  0.00    -0.276 N 
HETATM   13  C11 UNL     1       0.656  -6.479  -2.187  1.00  0.00     0.248 C 
HETATM   14  O2  UNL     1       0.284  -5.805  -3.211  1.00  0.00    -0.271 OA
BRANCH  13  15
HETATM   15  C12 UNL     1      -0.340  -7.459  -1.669  1.00  0.00     0.235 C 
BRANCH  15  16
HETATM   16  N3  UNL     1      -1.348  -6.849  -0.864  1.00  0.00    -0.311 N 
ATOM     17  H3  UNL     1      -1.809  -5.966  -1.084  1.00  0.00     0.172 HD
BRANCH  16  18
HETATM   18  S2  UNL     1      -1.683  -7.805   0.530  1.00  0.00     0.223 S 
HETATM   19  C13 UNL     1      -0.835  -9.375   0.394  1.00  0.00     0.185 C 
HETATM   20  O3  UNL     1      -1.086  -7.143   1.765  1.00  0.00    -0.206 OA
HETATM   21  O4  UNL     1      -3.127  -8.023   0.778  1.00  0.00    -0.206 OA
ENDBRANCH  16  18
ENDBRANCH  15  16
ENDBRANCH  13  15
ENDBRANCH   3   5
BRANCH   1  22
HETATM   22  C5  UNL     1       2.667  -1.441  -1.968  1.00  0.00     0.104 C 
BRANCH  22  23
HETATM   23  C2  UNL     1       1.708  -0.842  -2.890  1.00  0.00    -0.030 C 
HETATM   24  C1  UNL     1       1.997  -1.178  -4.370  1.00  0.00     0.016 C 
HETATM   25  C3  UNL     1       1.323   0.574  -2.829  1.00  0.00     0.016 C 
HETATM   26  C4  UNL     1       0.344  -1.586  -2.679  1.00  0.00     0.016 C 
ENDBRANCH  22  23
BRANCH  22  27
HETATM   27  C14 UNL     1       4.035  -0.953  -1.788  1.00  0.00     0.099 C 
BRANCH  27  28
HETATM   28  C15 UNL     1       5.079  -0.811  -2.788  1.00  0.00     0.020 C 
BRANCH  28  29
HETATM   29  C16 UNL     1       6.019  -1.798  -3.279  1.00  0.00    -0.014 C 
HETATM   30  C17 UNL     1       7.400  -1.069  -3.341  1.00  0.00     0.005 C 
HETATM   31  C18 UNL     1       8.066  -1.044  -2.001  1.00  0.00     0.000 C 
HETATM   32  C19 UNL     1       8.388  -2.442  -1.529  1.00  0.00     0.000 C 
HETATM   33  C20 UNL     1       7.690  -3.443  -2.409  1.00  0.00     0.000 C 
HETATM   34  C21 UNL     1       6.214  -3.025  -2.441  1.00  0.00     0.005 C 
ENDBRANCH  28  29
ENDBRANCH  27  28
BRANCH  27  35
HETATM   35  C22 UNL     1       3.956   0.433  -1.143  1.00  0.00     0.237 C 
HETATM   36  N4  UNL     1       3.123   0.704  -0.035  1.00  0.00    -0.062 NA
HETATM   37  O5  UNL     1       4.653   1.326  -1.617  1.00  0.00    -0.276 OA
ENDBRANCH  27  35
ENDBRANCH  22  27
ENDBRANCH   1  22
TORSDOF 10
ENDMDL
MODEL 4
REMARK VINA RESULT: -8.966833156      0.976      1.472
REMARK  10 active torsions:
REMARK  status: ('A' for Active; 'I' for Inactive)
REMARK    1  A    between atoms: C2_2  and  C5_5 
REMARK    2  A    between atoms: C5_5  and  N1_6 
REMARK    3  A    between atoms: C5_5  and  C14_27 
REMARK       I    between atoms: N1_6  and  C6_8 
REMARK    4  A    between atoms: C6_8  and  C7_10 
REMARK       I    between atoms: N2_17  and  C11_18 
REMARK    5  A    between atoms: C11_18  and  C12_20 
REMARK    6  A    between atoms: C12_20  and  N3_21 
REMARK    7  A    between atoms: N3_21  and  S2_23 
REMARK    8  A    between atoms: C14_27  and  C15_28 
REMARK    9  A    between atoms: C14_27  and  C22_35 
REMARK   10  A    between atoms: C15_28  and  C16_29 
ROOT
HETATM    1  N1  UNL     1       3.075  -4.567  -2.318  1.00  0.00    -0.353 N 
ATOM      2  H1  UNL     1       3.044  -4.797  -3.311  1.00  0.00     0.163 HD
HETATM    3  C6  UNL     1       2.495  -5.485  -1.458  1.00  0.00     0.242 C 
HETATM    4  O1  UNL     1       2.429  -5.338  -0.228  1.00  0.00    -0.271 OA
ENDROOT
BRANCH   3   5
HETATM    5  C7  UNL     1       1.910  -6.746  -1.991  1.00  0.00     0.197 C 
HETATM    6  C8  UNL     1       2.677  -7.982  -1.758  1.00  0.00     0.115 C 
HETATM    7  C9  UNL     1       2.855  -8.514  -0.402  1.00  0.00     0.256 C 
HETATM    8  F1  UNL     1       3.958  -7.962   0.226  1.00  0.00    -0.205 F 
HETATM    9  F2  UNL     1       3.222  -9.878  -0.566  1.00  0.00    -0.205 F 
HETATM   10  C10 UNL     1       1.708  -8.524   0.530  1.00  0.00     0.176 C 
HETATM   11  S1  UNL     1       0.186  -7.854  -0.197  1.00  0.00    -0.044 SA
HETATM   12  N2  UNL     1       0.532  -6.948  -1.652  1.00  0.00    -0.276 N 
HETATM   13  C11 UNL     1      -0.513  -6.447  -2.442  1.00  0.00     0.248 C 
HETATM   14  O2  UNL     1      -0.300  -5.779  -3.515  1.00  0.00    -0.271 OA
BRANCH  13  15
HETATM   15  C12 UNL     1      -1.946  -6.655  -2.091  1.00  0.00     0.235 C 
BRANCH  15  16
HETATM   16  N3  UNL     1      -2.674  -5.432  -1.994  1.00  0.00    -0.311 N 
ATOM     17  H3  UNL     1      -2.503  -4.710  -1.294  1.00  0.00     0.172 HD
BRANCH  16  18
HETATM   18  S2  UNL     1      -3.882  -5.337  -3.220  1.00  0.00     0.223 S 
HETATM   19  C13 UNL     1      -4.699  -6.921  -3.375  1.00  0.00     0.185 C 
HETATM   20  O3  UNL     1      -4.979  -4.372  -2.789  1.00  0.00    -0.206 OA
HETATM   21  O4  UNL     1      -3.370  -4.894  -4.537  1.00  0.00    -0.206 OA
ENDBRANCH  16  18
ENDBRANCH  15  16
ENDBRANCH  13  15
ENDBRANCH   3   5
BRANCH   1  22
HETATM   22  C5  UNL     1       3.745  -3.273  -1.957  1.00  0.00     0.104 C 
BRANCH  22  23
HETATM   23  C2  UNL     1       2.809  -2.227  -2.355  1.00  0.00    -0.030 C 
HETATM   24  C1  UNL     1       2.898  -0.963  -1.471  1.00  0.00     0.016 C 
HETATM   25  C3  UNL     1       1.386  -2.486  -2.607  1.00  0.00     0.016 C 
HETATM   26  C4  UNL     1       3.312  -1.663  -3.729  1.00  0.00     0.016 C 
ENDBRANCH  22  23
BRANCH  22  27
HETATM   27  C14 UNL     1       5.130  -3.346  -2.426  1.00  0.00     0.099 C 
BRANCH  27  28
HETATM   28  C15 UNL     1       6.271  -2.557  -1.994  1.00  0.00     0.020 C 
BRANCH  28  29
HETATM   29  C16 UNL     1       7.574  -2.415  -2.612  1.00  0.00    -0.014 C 
HETATM   30  C17 UNL     1       7.768  -0.880  -2.833  1.00  0.00     0.005 C 
HETATM   31  C18 UNL     1       8.242  -0.204  -1.585  1.00  0.00     0.000 C 
HETATM   32  C19 UNL     1       9.605  -0.711  -1.177  1.00  0.00     0.000 C 
HETATM   33  C20 UNL     1       9.945  -1.938  -1.979  1.00  0.00     0.000 C 
HETATM   34  C21 UNL     1       8.754  -2.893  -1.822  1.00  0.00     0.005 C 
ENDBRANCH  28  29
ENDBRANCH  27  28
BRANCH  27  35
HETATM   35  C22 UNL     1       5.604  -4.793  -2.261  1.00  0.00     0.237 C 
HETATM   36  N4  UNL     1       5.912  -5.346  -0.997  1.00  0.00    -0.062 NA
HETATM   37  O5  UNL     1       5.709  -5.481  -3.272  1.00  0.00    -0.276 OA
ENDBRANCH  27  35
ENDBRANCH  22  27
ENDBRANCH   1  22
TORSDOF 10
ENDMDL
MODEL 5
REMARK VINA RESULT: -8.956033108      1.462      1.739
REMARK  10 active torsions:
REMARK  status: ('A' for Active; 'I' for Inactive)
REMARK    1  A    between atoms: C2_2  and  C5_5 
REMARK    2  A    between atoms: C5_5  and  N1_6 
REMARK    3  A    between atoms: C5_5  and  C14_27 
REMARK       I    between atoms: N1_6  and  C6_8 
REMARK    4  A    between atoms: C6_8  and  C7_10 
REMARK       I    between atoms: N2_17  and  C11_18 
REMARK    5  A    between atoms: C11_18  and  C12_20 
REMARK    6  A    between atoms: C12_20  and  N3_21 
REMARK    7  A    between atoms: N3_21  and  S2_23 
REMARK    8  A    between atoms: C14_27  and  C15_28 
REMARK    9  A    between atoms: C14_27  and  C22_35 
REMARK   10  A    between atoms: C15_28  and  C16_29 
ROOT
HETATM    1  N1  UNL     1       3.045  -4.858  -2.330  1.00  0.00    -0.353 N 
ATOM      2  H1  UNL     1       3.028  -5.161  -3.304  1.00  0.00     0.163 HD
HETATM    3  C6  UNL     1       2.560  -5.762  -1.399  1.00  0.00     0.242 C 
HETATM    4  O1  UNL     1       2.489  -5.534  -0.182  1.00  0.00    -0.271 OA
ENDROOT
BRANCH   3   5
HETATM    5  C7  UNL     1       2.093  -7.108  -1.833  1.00  0.00     0.197 C 
HETATM    6  C8  UNL     1       3.121  -8.155  -1.964  1.00  0.00     0.115 C 
HETATM    7  C9  UNL     1       3.832  -8.665  -0.786  1.00  0.00     0.256 C 
HETATM    8  F1  UNL     1       4.948  -7.902  -0.488  1.00  0.00    -0.205 F 
HETATM    9  F2  UNL     1       4.386  -9.914  -1.178  1.00  0.00    -0.205 F 
HETATM   10  C10 UNL     1       3.076  -8.942   0.454  1.00  0.00     0.176 C 
HETATM   11  S1  UNL     1       1.300  -8.600   0.303  1.00  0.00    -0.044 SA
HETATM   12  N2  UNL     1       0.969  -7.609  -1.100  1.00  0.00    -0.276 N 
HETATM   13  C11 UNL     1      -0.353  -7.328  -1.474  1.00  0.00     0.248 C 
HETATM   14  O2  UNL     1      -0.636  -6.606  -2.495  1.00  0.00    -0.271 OA
BRANCH  13  15
HETATM   15  C12 UNL     1      -1.524  -7.846  -0.712  1.00  0.00     0.235 C 
BRANCH  15  16
HETATM   16  N3  UNL     1      -1.941  -6.964   0.328  1.00  0.00    -0.311 N 
ATOM     17  H3  UNL     1      -1.369  -6.708   1.134  1.00  0.00     0.172 HD
BRANCH  16  18
HETATM   18  S2  UNL     1      -3.540  -6.388   0.042  1.00  0.00     0.223 S 
HETATM   19  C13 UNL     1      -4.698  -7.743   0.196  1.00  0.00     0.185 C 
HETATM   20  O3  UNL     1      -3.938  -5.407   1.137  1.00  0.00    -0.206 OA
HETATM   21  O4  UNL     1      -3.711  -5.714  -1.265  1.00  0.00    -0.206 OA
ENDBRANCH  16  18
ENDBRANCH  15  16
ENDBRANCH  13  15
ENDBRANCH   3   5
BRANCH   1  22
HETATM   22  C5  UNL     1       3.591  -3.484  -2.071  1.00  0.00     0.104 C 
BRANCH  22  23
HETATM   23  C2  UNL     1       2.592  -2.563  -2.601  1.00  0.00    -0.030 C 
HETATM   24  C1  UNL     1       1.204  -3.214  -2.788  1.00  0.00     0.016 C 
HETATM   25  C3  UNL     1       2.836  -1.710  -3.772  1.00  0.00     0.016 C 
HETATM   26  C4  UNL     1       2.281  -1.524  -1.469  1.00  0.00     0.016 C 
ENDBRANCH  22  23
BRANCH  22  27
HETATM   27  C14 UNL     1       4.996  -3.483  -2.482  1.00  0.00     0.099 C 
BRANCH  27  28
HETATM   28  C15 UNL     1       6.045  -2.553  -2.101  1.00  0.00     0.020 C 
BRANCH  28  29
HETATM   29  C16 UNL     1       7.359  -2.363  -2.684  1.00  0.00    -0.014 C 
HETATM   30  C17 UNL     1       7.510  -0.820  -2.882  1.00  0.00     0.005 C 
HETATM   31  C18 UNL     1       7.932  -0.145  -1.615  1.00  0.00     0.000 C 
HETATM   32  C19 UNL     1       9.300  -0.615  -1.179  1.00  0.00     0.000 C 
HETATM   33  C20 UNL     1       9.697  -1.821  -1.987  1.00  0.00     0.000 C 
HETATM   34  C21 UNL     1       8.533  -2.813  -1.871  1.00  0.00     0.005 C 
ENDBRANCH  28  29
ENDBRANCH  27  28
BRANCH  27  35
HETATM   35  C22 UNL     1       5.584  -4.855  -2.141  1.00  0.00     0.237 C 
HETATM   36  N4  UNL     1       5.795  -5.851  -3.121  1.00  0.00    -0.062 NA
HETATM   37  O5  UNL     1       5.881  -5.077  -0.970  1.00  0.00    -0.276 OA
ENDBRANCH  27  35
ENDBRANCH  22  27
ENDBRANCH   1  22
TORSDOF 10
ENDMDL
