MODEL 1
REMARK VINA RESULT: -10.820022179      0.000      0.000
REMARK  9 active torsions:
REMARK  status: ('A' for Active; 'I' for Inactive)
REMARK    1  A    between atoms: N1_1  and  C1_5 
REMARK    2  A    between atoms: C1_5  and  C2_6 
REMARK    3  A    between atoms: C1_5  and  C4_10 
REMARK    4  A    between atoms: C2_6  and  C3_7 
REMARK    5  A    between atoms: C4_10  and  C5_12 
REMARK    6  A    between atoms: C5_12  and  N2_13 
REMARK    7  A    between atoms: C5_12  and  C21_34 
REMARK       I    between atoms: N2_13  and  C6_15 
REMARK    8  A    between atoms: C6_15  and  C7_17 
REMARK       I    between atoms: N3_21  and  C10_22 
REMARK    9  A    between atoms: C10_22  and  C11_24 
ROOT
HETATM    1  N2  UNL     1       3.256  -2.307  -3.100  1.00  0.00    -0.343 N 
ATOM      2  H2  UNL     1       3.729  -2.545  -3.972  1.00  0.00     0.163 HD
HETATM    3  C6  UNL     1       2.551  -3.320  -2.389  1.00  0.00     0.251 C 
HETATM    4  O4  UNL     1       1.989  -2.984  -1.332  1.00  0.00    -0.270 OA
ENDROOT
BRANCH   1   5
HETATM    5  C5  UNL     1       3.314  -0.938  -2.604  1.00  0.00     0.190 C 
BRANCH   5   6
HETATM    6  C4  UNL     1       2.934   0.018  -3.695  1.00  0.00     0.184 C 
HETATM    7  O3  UNL     1       3.793   0.264  -4.532  1.00  0.00    -0.293 OA
BRANCH   6   8
HETATM    8  C1  UNL     1       1.615   0.666  -3.816  1.00  0.00     0.265 C 
BRANCH   8   9
HETATM    9  N1  UNL     1       1.091   0.366  -5.183  1.00  0.00    -0.068 N 
ATOM     10  H13 UNL     1       0.272   0.918  -5.439  1.00  0.00     0.275 HD
ATOM     11  H12 UNL     1       1.695   0.694  -5.936  1.00  0.00     0.275 HD
ATOM     12  H11 UNL     1       0.928  -0.640  -5.193  1.00  0.00     0.275 HD
ENDBRANCH   8   9
BRANCH   8  13
HETATM   13  C2  UNL     1       0.564   0.185  -2.879  1.00  0.00     0.153 C 
BRANCH  13  14
HETATM   14  C3  UNL     1       0.203   1.057  -1.778  1.00  0.00     0.174 C 
HETATM   15  O1  UNL     1      -0.936   1.339  -1.379  1.00  0.00    -0.648 OA
HETATM   16  O2  UNL     1       1.246   1.678  -1.049  1.00  0.00    -0.648 OA
ENDBRANCH  13  14
ENDBRANCH   8  13
ENDBRANCH   6   8
ENDBRANCH   5   6
BRANCH   5  17
HETATM   17  C21 UNL     1       4.753  -0.705  -2.273  1.00  0.00    -0.025 A 
HETATM   18  C22 UNL     1       5.729  -1.483  -2.842  1.00  0.00     0.013 A 
HETATM   19  C23 UNL     1       7.082  -1.302  -2.545  1.00  0.00     0.046 A 
HETATM   20  C24 UNL     1       7.448  -0.321  -1.659  1.00  0.00     0.154 A 
HETATM   21  F1  UNL     1       8.755  -0.099  -1.333  1.00  0.00    -0.203 F 
HETATM   22  C25 UNL     1       6.473   0.455  -1.091  1.00  0.00     0.155 A 
HETATM   23  F2  UNL     1       6.829   1.433  -0.209  1.00  0.00    -0.203 F 
HETATM   24  C26 UNL     1       5.129   0.272  -1.389  1.00  0.00     0.055 A 
ENDBRANCH   5  17
ENDBRANCH   1   5
BRANCH   3  25
HETATM   25  C7  UNL     1       2.558  -4.677  -2.987  1.00  0.00     0.241 C 
HETATM   26  S1  UNL     1       0.856  -5.303  -3.104  1.00  0.00    -0.133 SA
HETATM   27  C8  UNL     1       1.047  -6.497  -1.701  1.00  0.00     0.096 C 
HETATM   28  C9  UNL     1       2.497  -6.874  -2.100  1.00  0.00     0.138 C 
HETATM   29  N3  UNL     1       3.252  -5.683  -2.231  1.00  0.00    -0.329 N 
HETATM   30  C10 UNL     1       4.595  -5.523  -1.707  1.00  0.00     0.230 C 
HETATM   31  O5  UNL     1       5.129  -4.384  -2.019  1.00  0.00    -0.272 OA
BRANCH  30  32
HETATM   32  C11 UNL     1       5.385  -6.448  -0.907  1.00  0.00     0.042 C 
HETATM   33  C12 UNL     1       4.623  -7.197   0.154  1.00  0.00     0.024 C 
HETATM   34  C13 UNL     1       5.450  -8.336   0.708  1.00  0.00    -0.013 C 
HETATM   35  C14 UNL     1       6.647  -7.712   1.403  1.00  0.00     0.009 C 
HETATM   36  C18 UNL     1       5.908  -9.319  -0.315  1.00  0.00     0.009 C 
HETATM   37  C15 UNL     1       7.440  -6.986   0.363  1.00  0.00    -0.013 C 
HETATM   38  C16 UNL     1       7.941  -7.973  -0.672  1.00  0.00     0.009 C 
HETATM   39  C20 UNL     1       6.642  -5.901  -0.318  1.00  0.00     0.024 C 
HETATM   40  C17 UNL     1       6.737  -8.554  -1.335  1.00  0.00    -0.013 C 
HETATM   41  C19 UNL     1       5.863  -7.523  -1.934  1.00  0.00     0.024 C 
ENDBRANCH  30  32
ENDBRANCH   3  25
TORSDOF 9
ENDMDL
MODEL 2
REMARK VINA RESULT: -10.767193940      0.782      1.294
REMARK  9 active torsions:
REMARK  status: ('A' for Active; 'I' for Inactive)
REMARK    1  A    between atoms: N1_1  and  C1_5 
REMARK    2  A    between atoms: C1_5  and  C2_6 
REMARK    3  A    between atoms: C1_5  and  C4_10 
REMARK    4  A    between atoms: C2_6  and  C3_7 
REMARK    5  A    between atoms: C4_10  and  C5_12 
REMARK    6  A    between atoms: C5_12  and  N2_13 
REMARK    7  A    between atoms: C5_12  and  C21_34 
REMARK       I    between atoms: N2_13  and  C6_15 
REMARK    8  A    between atoms: C6_15  and  C7_17 
REMARK       I    between atoms: N3_21  and  C10_22 
REMARK    9  A    between atoms: C10_22  and  C11_24 
ROOT
HETATM    1  N2  UNL     1       3.752  -2.353  -2.824  1.00  0.00    -0.343 N 
ATOM      2  H2  UNL     1       4.327  -2.613  -3.625  1.00  0.00     0.163 HD
HETATM    3  C6  UNL     1       2.860  -3.311  -2.263  1.00  0.00     0.251 C 
HETATM    4  O4  UNL     1       2.178  -2.949  -1.288  1.00  0.00    -0.270 OA
ENDROOT
BRANCH   1   5
HETATM    5  C5  UNL     1       3.857  -1.008  -2.274  1.00  0.00     0.190 C 
BRANCH   5   6
HETATM    6  C4  UNL     1       3.429  -0.000  -3.299  1.00  0.00     0.184 C 
HETATM    7  O3  UNL     1       4.285   0.376  -4.089  1.00  0.00    -0.293 OA
BRANCH   6   8
HETATM    8  C1  UNL     1       2.066   0.553  -3.408  1.00  0.00     0.265 C 
BRANCH   8   9
HETATM    9  N1  UNL     1       1.366  -0.192  -4.499  1.00  0.00    -0.068 N 
ATOM     10  H13 UNL     1       0.410  -0.461  -4.265  1.00  0.00     0.275 HD
ATOM     11  H12 UNL     1       1.133   0.386  -5.306  1.00  0.00     0.275 HD
ATOM     12  H11 UNL     1       1.974  -0.980  -4.718  1.00  0.00     0.275 HD
ENDBRANCH   8   9
BRANCH   8  13
HETATM   13  C2  UNL     1       1.201   0.394  -2.209  1.00  0.00     0.153 C 
BRANCH  13  14
HETATM   14  C3  UNL     1      -0.044   1.139  -2.182  1.00  0.00     0.174 C 
HETATM   15  O1  UNL     1      -0.764   1.373  -1.200  1.00  0.00    -0.648 OA
HETATM   16  O2  UNL     1      -0.526   1.676  -3.400  1.00  0.00    -0.648 OA
ENDBRANCH  13  14
ENDBRANCH   8  13
ENDBRANCH   6   8
ENDBRANCH   5   6
BRANCH   5  17
HETATM   17  C21 UNL     1       5.317  -0.806  -2.018  1.00  0.00    -0.025 A 
HETATM   18  C22 UNL     1       5.756   0.318  -1.366  1.00  0.00     0.013 A 
HETATM   19  C23 UNL     1       7.113   0.545  -1.122  1.00  0.00     0.046 A 
HETATM   20  C24 UNL     1       8.034  -0.380  -1.544  1.00  0.00     0.154 A 
HETATM   21  F1  UNL     1       9.371  -0.210  -1.331  1.00  0.00    -0.203 F 
HETATM   22  C25 UNL     1       7.594  -1.502  -2.194  1.00  0.00     0.155 A 
HETATM   23  F2  UNL     1       8.503  -2.426  -2.618  1.00  0.00    -0.203 F 
HETATM   24  C26 UNL     1       6.245  -1.723  -2.436  1.00  0.00     0.055 A 
ENDBRANCH   5  17
ENDBRANCH   1   5
BRANCH   3  25
HETATM   25  C7  UNL     1       2.834  -4.648  -2.903  1.00  0.00     0.241 C 
HETATM   26  S1  UNL     1       1.115  -5.211  -3.076  1.00  0.00    -0.133 SA
HETATM   27  C8  UNL     1       1.233  -6.454  -1.709  1.00  0.00     0.096 C 
HETATM   28  C9  UNL     1       2.679  -6.868  -2.089  1.00  0.00     0.138 C 
HETATM   29  N3  UNL     1       3.476  -5.700  -2.166  1.00  0.00    -0.329 N 
HETATM   30  C10 UNL     1       4.812  -5.603  -1.608  1.00  0.00     0.230 C 
HETATM   31  O5  UNL     1       5.391  -4.475  -1.872  1.00  0.00    -0.272 OA
BRANCH  30  32
HETATM   32  C11 UNL     1       5.552  -6.580  -0.822  1.00  0.00     0.042 C 
HETATM   33  C12 UNL     1       4.757  -7.287   0.244  1.00  0.00     0.024 C 
HETATM   34  C13 UNL     1       5.518  -8.478   0.783  1.00  0.00    -0.013 C 
HETATM   35  C14 UNL     1       6.759  -7.932   1.468  1.00  0.00     0.009 C 
HETATM   36  C18 UNL     1       5.903  -9.481  -0.250  1.00  0.00     0.009 C 
HETATM   37  C15 UNL     1       7.584  -7.251   0.422  1.00  0.00    -0.013 C 
HETATM   38  C16 UNL     1       8.011  -8.262  -0.623  1.00  0.00     0.009 C 
HETATM   39  C20 UNL     1       6.847  -6.116  -0.244  1.00  0.00     0.024 C 
HETATM   40  C17 UNL     1       6.766  -8.763  -1.275  1.00  0.00    -0.013 C 
HETATM   41  C19 UNL     1       5.952  -7.677  -1.859  1.00  0.00     0.024 C 
ENDBRANCH  30  32
ENDBRANCH   3  25
TORSDOF 9
ENDMDL
MODEL 3
REMARK VINA RESULT: -10.744748444      1.077      2.421
REMARK  9 active torsions:
REMARK  status: ('A' for Active; 'I' for Inactive)
REMARK    1  A    between atoms: N1_1  and  C1_5 
REMARK    2  A    between atoms: C1_5  and  C2_6 
REMARK    3  A    between atoms: C1_5  and  C4_10 
REMARK    4  A    between atoms: C2_6  and  C3_7 
REMARK    5  A    between atoms: C4_10  and  C5_12 
REMARK    6  A    between atoms: C5_12  and  N2_13 
REMARK    7  A    between atoms: C5_12  and  C21_34 
REMARK       I    between atoms: N2_13  and  C6_15 
REMARK    8  A    between atoms: C6_15  and  C7_17 
REMARK       I    between atoms: N3_21  and  C10_22 
REMARK    9  A    between atoms: C10_22  and  C11_24 
ROOT
HETATM    1  N2  UNL     1       2.943  -2.038  -2.307  1.00  0.00    -0.343 N 
ATOM      2  H2  UNL     1       3.178  -1.999  -3.298  1.00  0.00     0.163 HD
HETATM    3  C6  UNL     1       2.588  -3.286  -1.721  1.00  0.00     0.251 C 
HETATM    4  O4  UNL     1       2.309  -3.286  -0.509  1.00  0.00    -0.270 OA
ENDROOT
BRANCH   1   5
HETATM    5  C5  UNL     1       2.976  -0.816  -1.515  1.00  0.00     0.190 C 
BRANCH   5   6
HETATM    6  C4  UNL     1       2.095   0.224  -2.140  1.00  0.00     0.184 C 
HETATM    7  O3  UNL     1       2.163   1.353  -1.672  1.00  0.00    -0.293 OA
BRANCH   6   8
HETATM    8  C1  UNL     1       1.170  -0.029  -3.260  1.00  0.00     0.265 C 
BRANCH   8   9
HETATM    9  N1  UNL     1      -0.140   0.601  -2.912  1.00  0.00    -0.068 N 
ATOM     10  H13 UNL     1      -0.058   1.564  -2.585  1.00  0.00     0.275 HD
ATOM     11  H12 UNL     1      -0.728   0.800  -3.721  1.00  0.00     0.275 HD
ATOM     12  H11 UNL     1      -0.569  -0.028  -2.235  1.00  0.00     0.275 HD
ENDBRANCH   8   9
BRANCH   8  13
HETATM   13  C2  UNL     1       1.555   0.565  -4.569  1.00  0.00     0.153 C 
BRANCH  13  14
HETATM   14  C3  UNL     1       2.827   0.159  -5.137  1.00  0.00     0.174 C 
HETATM   15  O1  UNL     1       3.667   0.876  -5.699  1.00  0.00    -0.648 OA
HETATM   16  O2  UNL     1       3.185  -1.209  -5.059  1.00  0.00    -0.648 OA
ENDBRANCH  13  14
ENDBRANCH   8  13
ENDBRANCH   6   8
ENDBRANCH   5   6
BRANCH   5  17
HETATM   17  C21 UNL     1       4.388  -0.332  -1.606  1.00  0.00    -0.025 A 
HETATM   18  C22 UNL     1       4.774   0.807  -0.947  1.00  0.00     0.013 A 
HETATM   19  C23 UNL     1       6.081   1.295  -1.021  1.00  0.00     0.046 A 
HETATM   20  C24 UNL     1       7.007   0.618  -1.774  1.00  0.00     0.154 A 
HETATM   21  F1  UNL     1       8.298   1.049  -1.880  1.00  0.00    -0.203 F 
HETATM   22  C25 UNL     1       6.621  -0.519  -2.432  1.00  0.00     0.155 A 
HETATM   23  F2  UNL     1       7.536  -1.197  -3.183  1.00  0.00    -0.203 F 
HETATM   24  C26 UNL     1       5.321  -1.000  -2.356  1.00  0.00     0.055 A 
ENDBRANCH   5  17
ENDBRANCH   1   5
BRANCH   3  25
HETATM   25  C7  UNL     1       2.586  -4.466  -2.621  1.00  0.00     0.241 C 
HETATM   26  S1  UNL     1       0.877  -5.001  -2.926  1.00  0.00    -0.133 SA
HETATM   27  C8  UNL     1       1.000  -6.496  -1.839  1.00  0.00     0.096 C 
HETATM   28  C9  UNL     1       2.455  -6.806  -2.280  1.00  0.00     0.138 C 
HETATM   29  N3  UNL     1       3.236  -5.638  -2.107  1.00  0.00    -0.329 N 
HETATM   30  C10 UNL     1       4.566  -5.642  -1.527  1.00  0.00     0.230 C 
HETATM   31  O5  UNL     1       5.131  -4.477  -1.548  1.00  0.00    -0.272 OA
BRANCH  30  32
HETATM   32  C11 UNL     1       5.312  -6.750  -0.948  1.00  0.00     0.042 C 
HETATM   33  C12 UNL     1       5.817  -7.772  -1.931  1.00  0.00     0.024 C 
HETATM   34  C13 UNL     1       6.823  -8.695  -1.281  1.00  0.00    -0.013 C 
HETATM   35  C14 UNL     1       6.079  -9.469  -0.206  1.00  0.00     0.009 C 
HETATM   36  C18 UNL     1       8.002  -8.001  -0.688  1.00  0.00     0.009 C 
HETATM   37  C15 UNL     1       5.593  -8.477   0.803  1.00  0.00    -0.013 C 
HETATM   38  C16 UNL     1       6.779  -7.781   1.440  1.00  0.00     0.009 C 
HETATM   39  C20 UNL     1       4.666  -7.449   0.202  1.00  0.00     0.024 C 
HETATM   40  C17 UNL     1       7.473  -7.028   0.354  1.00  0.00    -0.013 C 
HETATM   41  C19 UNL     1       6.582  -6.075  -0.339  1.00  0.00     0.024 C 
ENDBRANCH  30  32
ENDBRANCH   3  25
TORSDOF 9
ENDMDL
MODEL 4
REMARK VINA RESULT: -10.585415128      0.700      1.396
REMARK  9 active torsions:
REMARK  status: ('A' for Active; 'I' for Inactive)
REMARK    1  A    between atoms: N1_1  and  C1_5 
REMARK    2  A    between atoms: C1_5  and  C2_6 
REMARK    3  A    between atoms: C1_5  and  C4_10 
REMARK    4  A    between atoms: C2_6  and  C3_7 
REMARK    5  A    between atoms: C4_10  and  C5_12 
REMARK    6  A    between atoms: C5_12  and  N2_13 
REMARK    7  A    between atoms: C5_12  and  C21_34 
REMARK       I    between atoms: N2_13  and  C6_15 
REMARK    8  A    between atoms: C6_15  and  C7_17 
REMARK       I    between atoms: N3_21  and  C10_22 
REMARK    9  A    between atoms: C10_22  and  C11_24 
ROOT
HETATM    1  N2  UNL     1       3.627  -2.590  -2.938  1.00  0.00    -0.343 N 
ATOM      2  H2  UNL     1       4.100  -2.871  -3.797  1.00  0.00     0.163 HD
HETATM    3  C6  UNL     1       2.747  -3.505  -2.294  1.00  0.00     0.251 C 
HETATM    4  O4  UNL     1       2.192  -3.120  -1.250  1.00  0.00    -0.270 OA
ENDROOT
BRANCH   1   5
HETATM    5  C5  UNL     1       3.865  -1.260  -2.392  1.00  0.00     0.190 C 
BRANCH   5   6
HETATM    6  C4  UNL     1       3.437  -0.217  -3.380  1.00  0.00     0.184 C 
HETATM    7  O3  UNL     1       4.295   0.195  -4.149  1.00  0.00    -0.293 OA
BRANCH   6   8
HETATM    8  C1  UNL     1       2.070   0.331  -3.477  1.00  0.00     0.265 C 
BRANCH   8   9
HETATM    9  N1  UNL     1       1.326  -0.492  -4.478  1.00  0.00    -0.068 N 
ATOM     10  H13 UNL     1       0.435  -0.850  -4.135  1.00  0.00     0.275 HD
ATOM     11  H12 UNL     1       0.946   0.049  -5.255  1.00  0.00     0.275 HD
ATOM     12  H11 UNL     1       1.979  -1.221  -4.765  1.00  0.00     0.275 HD
ENDBRANCH   8   9
BRANCH   8  13
HETATM   13  C2  UNL     1       1.254   0.269  -2.235  1.00  0.00     0.153 C 
BRANCH  13  14
HETATM   14  C3  UNL     1       0.064   1.097  -2.178  1.00  0.00     0.174 C 
HETATM   15  O1  UNL     1      -0.617   1.374  -1.179  1.00  0.00    -0.648 OA
HETATM   16  O2  UNL     1      -0.405   1.674  -3.382  1.00  0.00    -0.648 OA
ENDBRANCH  13  14
ENDBRANCH   8  13
ENDBRANCH   6   8
ENDBRANCH   5   6
BRANCH   5  17
HETATM   17  C21 UNL     1       5.349  -1.162  -2.239  1.00  0.00    -0.025 A 
HETATM   18  C22 UNL     1       6.167  -2.105  -2.808  1.00  0.00     0.013 A 
HETATM   19  C23 UNL     1       7.557  -2.052  -2.674  1.00  0.00     0.046 A 
HETATM   20  C24 UNL     1       8.122  -1.031  -1.953  1.00  0.00     0.154 A 
HETATM   21  F1  UNL     1       9.473  -0.930  -1.790  1.00  0.00    -0.203 F 
HETATM   22  C25 UNL     1       7.304  -0.091  -1.385  1.00  0.00     0.155 A 
HETATM   23  F2  UNL     1       7.858   0.927  -0.665  1.00  0.00    -0.203 F 
HETATM   24  C26 UNL     1       5.923  -0.147  -1.521  1.00  0.00     0.055 A 
ENDBRANCH   5  17
ENDBRANCH   1   5
BRANCH   3  25
HETATM   25  C7  UNL     1       2.579  -4.831  -2.938  1.00  0.00     0.241 C 
HETATM   26  S1  UNL     1       0.817  -5.267  -2.993  1.00  0.00    -0.133 SA
HETATM   27  C8  UNL     1       0.941  -6.530  -1.644  1.00  0.00     0.096 C 
HETATM   28  C9  UNL     1       2.323  -7.043  -2.128  1.00  0.00     0.138 C 
HETATM   29  N3  UNL     1       3.195  -5.934  -2.255  1.00  0.00    -0.329 N 
HETATM   30  C10 UNL     1       4.570  -5.939  -1.793  1.00  0.00     0.230 C 
HETATM   31  O5  UNL     1       5.208  -4.852  -2.091  1.00  0.00    -0.272 OA
BRANCH  30  32
HETATM   32  C11 UNL     1       5.291  -6.974  -1.067  1.00  0.00     0.042 C 
HETATM   33  C12 UNL     1       5.751  -8.144  -1.896  1.00  0.00     0.024 C 
HETATM   34  C13 UNL     1       6.739  -8.994  -1.128  1.00  0.00    -0.013 C 
HETATM   35  C14 UNL     1       5.987  -9.580   0.054  1.00  0.00     0.009 C 
HETATM   36  C18 UNL     1       7.945  -8.258  -0.653  1.00  0.00     0.009 C 
HETATM   37  C15 UNL     1       5.544  -8.438   0.914  1.00  0.00    -0.013 C 
HETATM   38  C16 UNL     1       6.759  -7.694   1.432  1.00  0.00     0.009 C 
HETATM   39  C20 UNL     1       4.641  -7.479   0.178  1.00  0.00     0.024 C 
HETATM   40  C17 UNL     1       7.461  -7.129   0.242  1.00  0.00    -0.013 C 
HETATM   41  C19 UNL     1       6.588  -6.259  -0.574  1.00  0.00     0.024 C 
ENDBRANCH  30  32
ENDBRANCH   3  25
TORSDOF 9
ENDMDL
MODEL 5
REMARK VINA RESULT: -10.573931852      0.895      1.797
REMARK  9 active torsions:
REMARK  status: ('A' for Active; 'I' for Inactive)
REMARK    1  A    between atoms: N1_1  and  C1_5 
REMARK    2  A    between atoms: C1_5  and  C2_6 
REMARK    3  A    between atoms: C1_5  and  C4_10 
REMARK    4  A    between atoms: C2_6  and  C3_7 
REMARK    5  A    between atoms: C4_10  and  C5_12 
REMARK    6  A    between atoms: C5_12  and  N2_13 
REMARK    7  A    between atoms: C5_12  and  C21_34 
REMARK       I    between atoms: N2_13  and  C6_15 
REMARK    8  A    between atoms: C6_15  and  C7_17 
REMARK       I    between atoms: N3_21  and  C10_22 
REMARK    9  A    between atoms: C10_22  and  C11_24 
ROOT
HETATM    1  N2  UNL     1       3.666  -2.538  -2.892  1.00  0.00    -0.343 N 
ATOM      2  H2  UNL     1       4.132  -2.793  -3.763  1.00  0.00     0.163 HD
HETATM    3  C6  UNL     1       2.811  -3.482  -2.256  1.00  0.00     0.251 C 
HETATM    4  O4  UNL     1       2.262  -3.128  -1.197  1.00  0.00    -0.270 OA
ENDROOT
BRANCH   1   5
HETATM    5  C5  UNL     1       3.886  -1.215  -2.323  1.00  0.00     0.190 C 
BRANCH   5   6
HETATM    6  C4  UNL     1       3.495  -0.159  -3.313  1.00  0.00     0.184 C 
HETATM    7  O3  UNL     1       4.371   0.230  -4.074  1.00  0.00    -0.293 OA
BRANCH   6   8
HETATM    8  C1  UNL     1       2.145   0.426  -3.421  1.00  0.00     0.265 C 
BRANCH   8   9
HETATM    9  N1  UNL     1       1.418  -0.318  -4.493  1.00  0.00    -0.068 N 
ATOM     10  H13 UNL     1       0.598  -0.824  -4.159  1.00  0.00     0.275 HD
ATOM     11  H12 UNL     1       0.925   0.286  -5.151  1.00  0.00     0.275 HD
ATOM     12  H11 UNL     1       2.120  -0.915  -4.930  1.00  0.00     0.275 HD
ENDBRANCH   8   9
BRANCH   8  13
HETATM   13  C2  UNL     1       1.287   0.309  -2.212  1.00  0.00     0.153 C 
BRANCH  13  14
HETATM   14  C3  UNL     1       0.077   1.110  -2.174  1.00  0.00     0.174 C 
HETATM   15  O1  UNL     1      -0.622   1.377  -1.186  1.00  0.00    -0.648 OA
HETATM   16  O2  UNL     1      -0.392   1.667  -3.388  1.00  0.00    -0.648 OA
ENDBRANCH  13  14
ENDBRANCH   8  13
ENDBRANCH   6   8
ENDBRANCH   5   6
BRANCH   5  17
HETATM   17  C21 UNL     1       5.364  -1.123  -2.116  1.00  0.00    -0.025 A 
HETATM   18  C22 UNL     1       5.913  -0.007  -1.537  1.00  0.00     0.013 A 
HETATM   19  C23 UNL     1       7.291   0.119  -1.341  1.00  0.00     0.046 A 
HETATM   20  C24 UNL     1       8.120  -0.899  -1.737  1.00  0.00     0.154 A 
HETATM   21  F1  UNL     1       9.473  -0.830  -1.568  1.00  0.00    -0.203 F 
HETATM   22  C25 UNL     1       7.570  -2.013  -2.314  1.00  0.00     0.155 A 
HETATM   23  F2  UNL     1       8.388  -3.030  -2.712  1.00  0.00    -0.203 F 
HETATM   24  C26 UNL     1       6.201  -2.134  -2.508  1.00  0.00     0.055 A 
ENDBRANCH   5  17
ENDBRANCH   1   5
BRANCH   3  25
HETATM   25  C7  UNL     1       2.659  -4.798  -2.925  1.00  0.00     0.241 C 
HETATM   26  S1  UNL     1       0.898  -5.235  -3.023  1.00  0.00    -0.133 SA
HETATM   27  C8  UNL     1       0.997  -6.520  -1.692  1.00  0.00     0.096 C 
HETATM   28  C9  UNL     1       2.389  -7.022  -2.156  1.00  0.00     0.138 C 
HETATM   29  N3  UNL     1       3.262  -5.911  -2.246  1.00  0.00    -0.329 N 
HETATM   30  C10 UNL     1       4.627  -5.921  -1.756  1.00  0.00     0.230 C 
HETATM   31  O5  UNL     1       5.270  -4.829  -2.023  1.00  0.00    -0.272 OA
BRANCH  30  32
HETATM   32  C11 UNL     1       5.334  -6.967  -1.031  1.00  0.00     0.042 C 
HETATM   33  C12 UNL     1       5.767  -8.147  -1.860  1.00  0.00     0.024 C 
HETATM   34  C13 UNL     1       6.745  -9.013  -1.096  1.00  0.00    -0.013 C 
HETATM   35  C14 UNL     1       5.991  -9.582   0.094  1.00  0.00     0.009 C 
HETATM   36  C18 UNL     1       7.968  -8.298  -0.633  1.00  0.00     0.009 C 
HETATM   37  C15 UNL     1       5.576  -8.428   0.952  1.00  0.00    -0.013 C 
HETATM   38  C16 UNL     1       6.807  -7.706   1.459  1.00  0.00     0.009 C 
HETATM   39  C20 UNL     1       4.684  -7.456   0.220  1.00  0.00     0.024 C 
HETATM   40  C17 UNL     1       7.510  -7.157   0.262  1.00  0.00    -0.013 C 
HETATM   41  C19 UNL     1       6.648  -6.274  -0.550  1.00  0.00     0.024 C 
ENDBRANCH  30  32
ENDBRANCH   3  25
TORSDOF 9
ENDMDL
