MODEL 1
REMARK VINA RESULT: -7.129364448      0.000      0.000
REMARK  13 active torsions:
REMARK  status: ('A' for Active; 'I' for Inactive)
REMARK    1  A    between atoms: C2_2  and  C3_3 
REMARK    2  A    between atoms: C2_2  and  C6_11 
REMARK    3  A    between atoms: C3_3  and  O1_4 
REMARK    4  A    between atoms: C3_3  and  O2_6 
REMARK    5  A    between atoms: O2_6  and  C4_7 
REMARK    6  A    between atoms: C4_7  and  C5_8 
REMARK    7  A    between atoms: C8_13  and  O5_14 
REMARK    8  A    between atoms: O5_14  and  C9_15 
REMARK    9  A    between atoms: C13_20  and  O7_21 
REMARK   10  A    between atoms: O7_21  and  C14_22 
REMARK   11  A    between atoms: C18_27  and  O9_28 
REMARK   12  A    between atoms: C18_27  and  C19_30 
REMARK   13  A    between atoms: C22_33  and  O10_34 
ROOT
HETATM    1  C6  UNL     1     -17.999   2.428   2.854  1.00  0.00    -0.037 C 
HETATM    2  C7  UNL     1     -17.514   1.076   3.081  1.00  0.00     0.041 C 
HETATM    3  C8  UNL     1     -18.117  -0.218   2.708  1.00  0.00     0.057 C 
HETATM    4  C11 UNL     1     -19.630  -0.368   2.822  1.00  0.00     0.073 C 
HETATM    5  C12 UNL     1     -20.216   0.966   2.692  1.00  0.00     0.034 C 
HETATM    6  C13 UNL     1     -21.479   1.217   1.916  1.00  0.00     0.169 C 
HETATM    7  C16 UNL     1     -21.478   2.749   1.931  1.00  0.00    -0.013 A 
HETATM    8  C17 UNL     1     -22.098   3.918   1.880  1.00  0.00     0.023 A 
HETATM    9  C18 UNL     1     -20.852   4.717   2.018  1.00  0.00     0.115 A 
HETATM   10  C22 UNL     1     -20.165   3.445   2.038  1.00  0.00     0.127 A 
HETATM   11  C23 UNL     1     -19.338   2.980   3.256  1.00  0.00     0.070 C 
HETATM   12  C24 UNL     1     -20.195   1.839   3.891  1.00  0.00    -0.030 C 
HETATM   13  C25 UNL     1     -19.354   1.327   5.068  1.00  0.00     0.016 C 
HETATM   14  C26 UNL     1     -21.415   2.227   4.557  1.00  0.00     0.016 C 
ENDROOT
BRANCH   1  15
HETATM   15  C2  UNL     1     -16.838   3.335   3.122  1.00  0.00    -0.006 C 
HETATM   16  C1  UNL     1     -15.818   2.797   3.818  1.00  0.00     0.024 C 
BRANCH  15  17
HETATM   17  C3  UNL     1     -16.694   4.752   2.721  1.00  0.00     0.291 C 
BRANCH  17  18
HETATM   18  O1  UNL     1     -17.255   5.628   3.662  1.00  0.00    -0.367 OA
ATOM     19  H1  UNL     1     -18.021   6.076   3.323  1.00  0.00     0.213 HD
ENDBRANCH  17  18
BRANCH  17  20
HETATM   20  O2  UNL     1     -17.082   4.996   1.425  1.00  0.00    -0.347 OA
BRANCH  20  21
HETATM   21  C4  UNL     1     -16.325   5.859   0.698  1.00  0.00     0.284 C 
BRANCH  21  22
HETATM   22  C5  UNL     1     -14.931   5.479   0.594  1.00  0.00     0.197 C 
HETATM   23  O3  UNL     1     -14.565   4.465  -0.030  1.00  0.00    -0.646 OA
HETATM   24  O4  UNL     1     -13.977   6.285   1.220  1.00  0.00    -0.646 OA
ENDBRANCH  21  22
ENDBRANCH  20  21
ENDBRANCH  17  20
ENDBRANCH  15  17
ENDBRANCH   1  15
BRANCH   3  25
HETATM   25  O5  UNL     1     -17.598  -0.831   1.549  1.00  0.00    -0.284 OA
BRANCH  25  26
HETATM   26  C9  UNL     1     -16.415  -1.429   1.356  1.00  0.00     0.259 C 
HETATM   27  C10 UNL     1     -15.115  -0.797   1.611  1.00  0.00     0.126 C 
HETATM   28  O6  UNL     1     -16.492  -2.585   0.934  1.00  0.00    -0.265 OA
ENDBRANCH  25  26
ENDBRANCH   3  25
BRANCH  10  29
HETATM   29  O10 UNL     1     -19.494   3.351   0.795  1.00  0.00    -0.381 OA
ATOM     30  H10 UNL     1     -18.856   4.053   0.738  1.00  0.00     0.211 HD
ENDBRANCH  10  29
BRANCH   9  31
HETATM   31  O9  UNL     1     -20.808   5.506   3.178  1.00  0.00    -0.382 OA
ATOM     32  H9  UNL     1     -20.323   6.317   3.074  1.00  0.00     0.211 HD
ENDBRANCH   9  31
BRANCH   9  33
HETATM   33  C19 UNL     1     -20.815   5.662   0.849  1.00  0.00     0.019 C 
HETATM   34  C20 UNL     1     -22.082   6.200   0.334  1.00  0.00     0.013 C 
HETATM   35  C21 UNL     1     -19.973   6.863   1.318  1.00  0.00     0.013 C 
ENDBRANCH   9  33
BRANCH   6  36
HETATM   36  O7  UNL     1     -22.633   0.654   2.373  1.00  0.00    -0.311 OA
BRANCH  36  37
HETATM   37  C14 UNL     1     -22.769  -0.666   2.794  1.00  0.00     0.255 C 
HETATM   38  C15 UNL     1     -23.020  -1.075   4.176  1.00  0.00     0.126 C 
HETATM   39  O8  UNL     1     -22.666  -1.554   1.907  1.00  0.00    -0.266 OA
ENDBRANCH  36  37
ENDBRANCH   6  36
TORSDOF 13
ENDMDL
MODEL 2
REMARK VINA RESULT: -7.005858608      3.432      7.691
REMARK  13 active torsions:
REMARK  status: ('A' for Active; 'I' for Inactive)
REMARK    1  A    between atoms: C2_2  and  C3_3 
REMARK    2  A    between atoms: C2_2  and  C6_11 
REMARK    3  A    between atoms: C3_3  and  O1_4 
REMARK    4  A    between atoms: C3_3  and  O2_6 
REMARK    5  A    between atoms: O2_6  and  C4_7 
REMARK    6  A    between atoms: C4_7  and  C5_8 
REMARK    7  A    between atoms: C8_13  and  O5_14 
REMARK    8  A    between atoms: O5_14  and  C9_15 
REMARK    9  A    between atoms: C13_20  and  O7_21 
REMARK   10  A    between atoms: O7_21  and  C14_22 
REMARK   11  A    between atoms: C18_27  and  O9_28 
REMARK   12  A    between atoms: C18_27  and  C19_30 
REMARK   13  A    between atoms: C22_33  and  O10_34 
ROOT
HETATM    1  C6  UNL     1     -19.597   8.745   0.604  1.00  0.00    -0.037 C 
HETATM    2  C7  UNL     1     -20.331   9.986   0.411  1.00  0.00     0.041 C 
HETATM    3  C8  UNL     1     -21.710  10.337   0.799  1.00  0.00     0.057 C 
HETATM    4  C11 UNL     1     -22.791   9.270   0.665  1.00  0.00     0.073 C 
HETATM    5  C12 UNL     1     -22.136   7.966   0.759  1.00  0.00     0.034 C 
HETATM    6  C13 UNL     1     -22.745   6.814   1.511  1.00  0.00     0.169 C 
HETATM    7  C16 UNL     1     -21.564   5.838   1.466  1.00  0.00    -0.013 A 
HETATM    8  C17 UNL     1     -21.058   4.615   1.484  1.00  0.00     0.023 A 
HETATM    9  C18 UNL     1     -19.650   5.068   1.350  1.00  0.00     0.115 A 
HETATM   10  C22 UNL     1     -20.191   6.409   1.365  1.00  0.00     0.127 A 
HETATM   11  C23 UNL     1     -20.028   7.372   0.170  1.00  0.00     0.070 C 
HETATM   12  C24 UNL     1     -21.457   7.455  -0.456  1.00  0.00    -0.030 C 
HETATM   13  C25 UNL     1     -21.321   8.458  -1.609  1.00  0.00     0.016 C 
HETATM   14  C26 UNL     1     -21.939   6.284  -1.148  1.00  0.00     0.016 C 
ENDROOT
BRANCH   1  15
HETATM   15  C2  UNL     1     -18.160   9.068   0.336  1.00  0.00    -0.006 C 
HETATM   16  C1  UNL     1     -17.862   9.431  -0.927  1.00  0.00     0.024 C 
BRANCH  15  17
HETATM   17  C3  UNL     1     -17.035   9.018   1.295  1.00  0.00     0.291 C 
BRANCH  17  18
HETATM   18  O1  UNL     1     -16.018   9.927   0.966  1.00  0.00    -0.367 OA
ATOM     19  H1  UNL     1     -15.546  10.230   1.732  1.00  0.00     0.213 HD
ENDBRANCH  17  18
BRANCH  17  20
HETATM   20  O2  UNL     1     -16.588   7.744   1.548  1.00  0.00    -0.347 OA
BRANCH  20  21
HETATM   21  C4  UNL     1     -15.384   7.388   1.028  1.00  0.00     0.284 C 
BRANCH  21  22
HETATM   22  C5  UNL     1     -15.466   6.390  -0.020  1.00  0.00     0.197 C 
HETATM   23  O3  UNL     1     -16.507   6.202  -0.676  1.00  0.00    -0.646 OA
HETATM   24  O4  UNL     1     -14.331   5.623  -0.292  1.00  0.00    -0.646 OA
ENDBRANCH  21  22
ENDBRANCH  20  21
ENDBRANCH  17  20
ENDBRANCH  15  17
ENDBRANCH   1  15
BRANCH   3  25
HETATM   25  O5  UNL     1     -21.845  11.099   1.978  1.00  0.00    -0.284 OA
BRANCH  25  26
HETATM   26  C9  UNL     1     -22.556  12.214   2.199  1.00  0.00     0.259 C 
HETATM   27  C10 UNL     1     -24.018  12.255   2.311  1.00  0.00     0.126 C 
HETATM   28  O6  UNL     1     -21.876  13.237   2.303  1.00  0.00    -0.265 OA
ENDBRANCH  25  26
ENDBRANCH   3  25
BRANCH  10  29
HETATM   29  O10 UNL     1     -19.829   6.954   2.620  1.00  0.00    -0.381 OA
ATOM     30  H10 UNL     1     -19.043   6.519   2.928  1.00  0.00     0.211 HD
ENDBRANCH  10  29
BRANCH   9  31
HETATM   31  O9  UNL     1     -19.019   4.628   0.175  1.00  0.00    -0.382 OA
ATOM     32  H9  UNL     1     -18.206   5.080  -0.018  1.00  0.00     0.211 HD
ENDBRANCH   9  31
BRANCH   9  33
HETATM   33  C19 UNL     1     -18.891   4.466   2.500  1.00  0.00     0.019 C 
HETATM   34  C20 UNL     1     -19.208   3.092   2.913  1.00  0.00     0.013 C 
HETATM   35  C21 UNL     1     -17.413   4.477   2.070  1.00  0.00     0.013 C 
ENDBRANCH   9  33
BRANCH   6  36
HETATM   36  O7  UNL     1     -23.916   6.295   1.047  1.00  0.00    -0.311 OA
BRANCH  36  37
HETATM   37  C14 UNL     1     -25.154   6.430   1.669  1.00  0.00     0.255 C 
HETATM   38  C15 UNL     1     -25.554   5.722   2.885  1.00  0.00     0.126 C 
HETATM   39  O8  UNL     1     -25.972   7.224   1.133  1.00  0.00    -0.266 OA
ENDBRANCH  36  37
ENDBRANCH   6  36
TORSDOF 13
ENDMDL
MODEL 3
REMARK VINA RESULT: -6.963615254      3.757      7.753
REMARK  13 active torsions:
REMARK  status: ('A' for Active; 'I' for Inactive)
REMARK    1  A    between atoms: C2_2  and  C3_3 
REMARK    2  A    between atoms: C2_2  and  C6_11 
REMARK    3  A    between atoms: C3_3  and  O1_4 
REMARK    4  A    between atoms: C3_3  and  O2_6 
REMARK    5  A    between atoms: O2_6  and  C4_7 
REMARK    6  A    between atoms: C4_7  and  C5_8 
REMARK    7  A    between atoms: C8_13  and  O5_14 
REMARK    8  A    between atoms: O5_14  and  C9_15 
REMARK    9  A    between atoms: C13_20  and  O7_21 
REMARK   10  A    between atoms: O7_21  and  C14_22 
REMARK   11  A    between atoms: C18_27  and  O9_28 
REMARK   12  A    between atoms: C18_27  and  C19_30 
REMARK   13  A    between atoms: C22_33  and  O10_34 
ROOT
HETATM    1  C6  UNL     1     -19.464   8.825   0.261  1.00  0.00    -0.037 C 
HETATM    2  C7  UNL     1     -20.467   9.868   0.113  1.00  0.00     0.041 C 
HETATM    3  C8  UNL     1     -21.802   9.989   0.729  1.00  0.00     0.057 C 
HETATM    4  C11 UNL     1     -22.638   8.724   0.892  1.00  0.00     0.073 C 
HETATM    5  C12 UNL     1     -21.714   7.592   0.965  1.00  0.00     0.034 C 
HETATM    6  C13 UNL     1     -21.926   6.443   1.911  1.00  0.00     0.169 C 
HETATM    7  C16 UNL     1     -20.590   5.716   1.719  1.00  0.00    -0.013 A 
HETATM    8  C17 UNL     1     -19.841   4.625   1.739  1.00  0.00     0.023 A 
HETATM    9  C18 UNL     1     -18.605   5.324   1.300  1.00  0.00     0.115 A 
HETATM   10  C22 UNL     1     -19.408   6.525   1.310  1.00  0.00     0.127 A 
HETATM   11  C23 UNL     1     -19.661   7.353   0.032  1.00  0.00     0.070 C 
HETATM   12  C24 UNL     1     -21.160   7.081  -0.313  1.00  0.00    -0.030 C 
HETATM   13  C25 UNL     1     -21.440   7.947  -1.548  1.00  0.00     0.016 C 
HETATM   14  C26 UNL     1     -21.494   5.766  -0.801  1.00  0.00     0.016 C 
ENDROOT
BRANCH   1  15
HETATM   15  C2  UNL     1     -18.196   9.386  -0.303  1.00  0.00    -0.006 C 
HETATM   16  C1  UNL     1     -18.324  10.501  -1.047  1.00  0.00     0.024 C 
BRANCH  15  17
HETATM   17  C3  UNL     1     -16.827   8.846  -0.147  1.00  0.00     0.291 C 
BRANCH  17  18
HETATM   18  O1  UNL     1     -16.572   7.786  -1.030  1.00  0.00    -0.367 OA
ATOM     19  H1  UNL     1     -15.712   7.407  -0.895  1.00  0.00     0.213 HD
ENDBRANCH  17  18
BRANCH  17  20
HETATM   20  O2  UNL     1     -16.489   8.583   1.159  1.00  0.00    -0.347 OA
BRANCH  20  21
HETATM   21  C4  UNL     1     -16.059   9.627   1.917  1.00  0.00     0.284 C 
BRANCH  21  22
HETATM   22  C5  UNL     1     -14.830  10.232   1.444  1.00  0.00     0.197 C 
HETATM   23  O3  UNL     1     -13.725   9.671   1.566  1.00  0.00    -0.646 OA
HETATM   24  O4  UNL     1     -14.904  11.486   0.834  1.00  0.00    -0.646 OA
ENDBRANCH  21  22
ENDBRANCH  20  21
ENDBRANCH  17  20
ENDBRANCH  15  17
ENDBRANCH   1  15
BRANCH   3  25
HETATM   25  O5  UNL     1     -21.891  10.845   1.846  1.00  0.00    -0.284 OA
BRANCH  25  26
HETATM   26  C9  UNL     1     -22.598  11.973   2.004  1.00  0.00     0.259 C 
HETATM   27  C10 UNL     1     -24.030  12.015   2.320  1.00  0.00     0.126 C 
HETATM   28  O6  UNL     1     -21.943  13.007   1.859  1.00  0.00    -0.265 OA
ENDBRANCH  25  26
ENDBRANCH   3  25
BRANCH  10  29
HETATM   29  O10 UNL     1     -18.961   7.277   2.423  1.00  0.00    -0.381 OA
ATOM     30  H10 UNL     1     -18.079   7.585   2.251  1.00  0.00     0.211 HD
ENDBRANCH  10  29
BRANCH   9  31
HETATM   31  O9  UNL     1     -18.106   4.877   0.066  1.00  0.00    -0.382 OA
ATOM     32  H9  UNL     1     -18.113   5.539  -0.615  1.00  0.00     0.211 HD
ENDBRANCH   9  31
BRANCH   9  33
HETATM   33  C19 UNL     1     -17.550   5.021   2.329  1.00  0.00     0.019 C 
HETATM   34  C20 UNL     1     -17.515   3.682   2.932  1.00  0.00     0.013 C 
HETATM   35  C21 UNL     1     -16.204   5.228   1.611  1.00  0.00     0.013 C 
ENDBRANCH   9  33
BRANCH   6  36
HETATM   36  O7  UNL     1     -23.022   5.654   1.724  1.00  0.00    -0.311 OA
BRANCH  36  37
HETATM   37  C14 UNL     1     -24.245   5.818   2.369  1.00  0.00     0.255 C 
HETATM   38  C15 UNL     1     -25.394   6.526   1.803  1.00  0.00     0.126 C 
HETATM   39  O8  UNL     1     -24.350   5.313   3.517  1.00  0.00    -0.266 OA
ENDBRANCH  36  37
ENDBRANCH   6  36
TORSDOF 13
ENDMDL
MODEL 4
REMARK VINA RESULT: -6.960416149      3.238      7.678
REMARK  13 active torsions:
REMARK  status: ('A' for Active; 'I' for Inactive)
REMARK    1  A    between atoms: C2_2  and  C3_3 
REMARK    2  A    between atoms: C2_2  and  C6_11 
REMARK    3  A    between atoms: C3_3  and  O1_4 
REMARK    4  A    between atoms: C3_3  and  O2_6 
REMARK    5  A    between atoms: O2_6  and  C4_7 
REMARK    6  A    between atoms: C4_7  and  C5_8 
REMARK    7  A    between atoms: C8_13  and  O5_14 
REMARK    8  A    between atoms: O5_14  and  C9_15 
REMARK    9  A    between atoms: C13_20  and  O7_21 
REMARK   10  A    between atoms: O7_21  and  C14_22 
REMARK   11  A    between atoms: C18_27  and  O9_28 
REMARK   12  A    between atoms: C18_27  and  C19_30 
REMARK   13  A    between atoms: C22_33  and  O10_34 
ROOT
HETATM    1  C6  UNL     1     -16.808   7.039   1.326  1.00  0.00    -0.037 C 
HETATM    2  C7  UNL     1     -15.882   8.146   1.149  1.00  0.00     0.041 C 
HETATM    3  C8  UNL     1     -16.091   9.593   1.346  1.00  0.00     0.057 C 
HETATM    4  C11 UNL     1     -17.430  10.192   0.930  1.00  0.00     0.073 C 
HETATM    5  C12 UNL     1     -18.427   9.124   0.991  1.00  0.00     0.034 C 
HETATM    6  C13 UNL     1     -19.819   9.354   1.510  1.00  0.00     0.169 C 
HETATM    7  C16 UNL     1     -20.310   7.903   1.553  1.00  0.00    -0.013 A 
HETATM    8  C17 UNL     1     -21.272   6.994   1.524  1.00  0.00     0.023 A 
HETATM    9  C18 UNL     1     -20.347   5.840   1.665  1.00  0.00     0.115 A 
HETATM   10  C22 UNL     1     -19.295   6.828   1.734  1.00  0.00     0.127 A 
HETATM   11  C23 UNL     1     -18.161   6.892   0.688  1.00  0.00     0.070 C 
HETATM   12  C24 UNL     1     -18.479   8.173  -0.147  1.00  0.00    -0.030 C 
HETATM   13  C25 UNL     1     -17.325   8.282  -1.152  1.00  0.00     0.016 C 
HETATM   14  C26 UNL     1     -19.621   8.118  -1.026  1.00  0.00     0.016 C 
ENDROOT
BRANCH   1  15
HETATM   15  C2  UNL     1     -15.974   5.796   1.327  1.00  0.00    -0.006 C 
HETATM   16  C1  UNL     1     -14.972   5.758   0.428  1.00  0.00     0.024 C 
BRANCH  15  17
HETATM   17  C3  UNL     1     -16.136   4.607   2.191  1.00  0.00     0.291 C 
BRANCH  17  18
HETATM   18  O1  UNL     1     -16.717   4.925   3.428  1.00  0.00    -0.367 OA
ATOM     19  H1  UNL     1     -16.088   4.893   4.138  1.00  0.00     0.213 HD
ENDBRANCH  17  18
BRANCH  17  20
HETATM   20  O2  UNL     1     -15.000   3.840   2.285  1.00  0.00    -0.347 OA
BRANCH  20  21
HETATM   21  C4  UNL     1     -15.147   2.547   2.678  1.00  0.00     0.284 C 
BRANCH  21  22
HETATM   22  C5  UNL     1     -14.059   1.680   2.274  1.00  0.00     0.197 C 
HETATM   23  O3  UNL     1     -12.879   2.075   2.228  1.00  0.00    -0.646 OA
HETATM   24  O4  UNL     1     -14.359   0.361   1.929  1.00  0.00    -0.646 OA
ENDBRANCH  21  22
ENDBRANCH  20  21
ENDBRANCH  17  20
ENDBRANCH  15  17
ENDBRANCH   1  15
BRANCH   3  25
HETATM   25  O5  UNL     1     -15.614  10.126   2.562  1.00  0.00    -0.284 OA
BRANCH  25  26
HETATM   26  C9  UNL     1     -15.642  11.389   3.011  1.00  0.00     0.259 C 
HETATM   27  C10 UNL     1     -14.683  12.428   2.618  1.00  0.00     0.126 C 
HETATM   28  O6  UNL     1     -16.556  11.626   3.803  1.00  0.00    -0.265 OA
ENDBRANCH  25  26
ENDBRANCH   3  25
BRANCH  10  29
HETATM   29  O10 UNL     1     -18.859   6.831   3.080  1.00  0.00    -0.381 OA
ATOM     30  H10 UNL     1     -18.661   5.939   3.341  1.00  0.00     0.211 HD
ENDBRANCH  10  29
BRANCH   9  31
HETATM   31  O9  UNL     1     -20.356   4.965   0.567  1.00  0.00    -0.382 OA
ATOM     32  H9  UNL     1     -19.531   4.517   0.424  1.00  0.00     0.211 HD
ENDBRANCH   9  31
BRANCH   9  33
HETATM   33  C19 UNL     1     -20.823   5.049   2.852  1.00  0.00     0.019 C 
HETATM   34  C20 UNL     1     -22.268   4.876   3.053  1.00  0.00     0.013 C 
HETATM   35  C21 UNL     1     -20.221   3.642   2.678  1.00  0.00     0.013 C 
ENDBRANCH   9  33
BRANCH   6  36
HETATM   36  O7  UNL     1     -20.631  10.198   0.813  1.00  0.00    -0.311 OA
BRANCH  36  37
HETATM   37  C14 UNL     1     -21.937  10.527   1.166  1.00  0.00     0.255 C 
HETATM   38  C15 UNL     1     -23.129  10.088   0.440  1.00  0.00     0.126 C 
HETATM   39  O8  UNL     1     -22.080  11.252   2.185  1.00  0.00    -0.266 OA
ENDBRANCH  36  37
ENDBRANCH   6  36
TORSDOF 13
ENDMDL
MODEL 5
REMARK VINA RESULT: -6.954002671      3.295      7.227
REMARK  13 active torsions:
REMARK  status: ('A' for Active; 'I' for Inactive)
REMARK    1  A    between atoms: C2_2  and  C3_3 
REMARK    2  A    between atoms: C2_2  and  C6_11 
REMARK    3  A    between atoms: C3_3  and  O1_4 
REMARK    4  A    between atoms: C3_3  and  O2_6 
REMARK    5  A    between atoms: O2_6  and  C4_7 
REMARK    6  A    between atoms: C4_7  and  C5_8 
REMARK    7  A    between atoms: C8_13  and  O5_14 
REMARK    8  A    between atoms: O5_14  and  C9_15 
REMARK    9  A    between atoms: C13_20  and  O7_21 
REMARK   10  A    between atoms: O7_21  and  C14_22 
REMARK   11  A    between atoms: C18_27  and  O9_28 
REMARK   12  A    between atoms: C18_27  and  C19_30 
REMARK   13  A    between atoms: C22_33  and  O10_34 
ROOT
HETATM    1  C6  UNL     1     -20.295   7.949   0.195  1.00  0.00    -0.037 C 
HETATM    2  C7  UNL     1     -21.631   8.437  -0.106  1.00  0.00     0.041 C 
HETATM    3  C8  UNL     1     -22.925   8.086   0.510  1.00  0.00     0.057 C 
HETATM    4  C11 UNL     1     -23.167   6.633   0.902  1.00  0.00     0.073 C 
HETATM    5  C12 UNL     1     -21.862   6.020   1.145  1.00  0.00     0.034 C 
HETATM    6  C13 UNL     1     -21.624   5.058   2.276  1.00  0.00     0.169 C 
HETATM    7  C16 UNL     1     -20.100   4.935   2.180  1.00  0.00    -0.013 A 
HETATM    8  C17 UNL     1     -18.967   4.277   2.368  1.00  0.00     0.023 A 
HETATM    9  C18 UNL     1     -18.112   5.347   1.791  1.00  0.00     0.115 A 
HETATM   10  C22 UNL     1     -19.342   6.087   1.615  1.00  0.00     0.127 A 
HETATM   11  C23 UNL     1     -19.850   6.513   0.221  1.00  0.00     0.070 C 
HETATM   12  C24 UNL     1     -21.081   5.588  -0.040  1.00  0.00    -0.030 C 
HETATM   13  C25 UNL     1     -21.632   6.043  -1.397  1.00  0.00     0.016 C 
HETATM   14  C26 UNL     1     -20.812   4.193  -0.292  1.00  0.00     0.016 C 
ENDROOT
BRANCH   1  15
HETATM   15  C2  UNL     1     -19.348   8.889  -0.484  1.00  0.00    -0.006 C 
HETATM   16  C1  UNL     1     -18.226   8.336  -0.985  1.00  0.00     0.024 C 
BRANCH  15  17
HETATM   17  C3  UNL     1     -19.498  10.350  -0.651  1.00  0.00     0.291 C 
BRANCH  17  18
HETATM   18  O1  UNL     1     -18.667  10.857  -1.661  1.00  0.00    -0.367 OA
ATOM     19  H1  UNL     1     -19.018  11.647  -2.053  1.00  0.00     0.213 HD
ENDBRANCH  17  18
BRANCH  17  20
HETATM   20  O2  UNL     1     -19.432  11.046   0.532  1.00  0.00    -0.347 OA
BRANCH  20  21
HETATM   21  C4  UNL     1     -18.195  11.337   1.017  1.00  0.00     0.284 C 
BRANCH  21  22
HETATM   22  C5  UNL     1     -17.928  10.776   2.326  1.00  0.00     0.197 C 
HETATM   23  O3  UNL     1     -18.433   9.701   2.702  1.00  0.00    -0.646 OA
HETATM   24  O4  UNL     1     -17.073  11.474   3.182  1.00  0.00    -0.646 OA
ENDBRANCH  21  22
ENDBRANCH  20  21
ENDBRANCH  17  20
ENDBRANCH  15  17
ENDBRANCH   1  15
BRANCH   3  25
HETATM   25  O5  UNL     1     -23.420   8.996   1.468  1.00  0.00    -0.284 OA
BRANCH  25  26
HETATM   26  C9  UNL     1     -23.633  10.315   1.364  1.00  0.00     0.259 C 
HETATM   27  C10 UNL     1     -22.769  11.342   1.955  1.00  0.00     0.126 C 
HETATM   28  O6  UNL     1     -24.639  10.617   0.718  1.00  0.00    -0.265 OA
ENDBRANCH  25  26
ENDBRANCH   3  25
BRANCH  10  29
HETATM   29  O10 UNL     1     -19.305   7.126   2.575  1.00  0.00    -0.381 OA
ATOM     30  H10 UNL     1     -20.069   7.679   2.459  1.00  0.00     0.211 HD
ENDBRANCH  10  29
BRANCH   9  31
HETATM   31  O9  UNL     1     -17.410   4.957   0.639  1.00  0.00    -0.382 OA
ATOM     32  H9  UNL     1     -17.968   4.753  -0.102  1.00  0.00     0.211 HD
ENDBRANCH   9  31
BRANCH   9  33
HETATM   33  C19 UNL     1     -17.081   5.686   2.832  1.00  0.00     0.019 C 
HETATM   34  C20 UNL     1     -16.432   4.590   3.565  1.00  0.00     0.013 C 
HETATM   35  C21 UNL     1     -15.972   6.445   2.082  1.00  0.00     0.013 C 
ENDBRANCH   9  33
BRANCH   6  36
HETATM   36  O7  UNL     1     -22.282   3.864   2.249  1.00  0.00    -0.311 OA
BRANCH  36  37
HETATM   37  C14 UNL     1     -21.772   2.657   2.721  1.00  0.00     0.255 C 
HETATM   38  C15 UNL     1     -21.516   1.482   1.888  1.00  0.00     0.126 C 
HETATM   39  O8  UNL     1     -21.519   2.595   3.952  1.00  0.00    -0.266 OA
ENDBRANCH  36  37
ENDBRANCH   6  36
TORSDOF 13
ENDMDL
