MODEL 1
REMARK VINA RESULT: -8.023944178      0.000      0.000
REMARK  8 active torsions:
REMARK  status: ('A' for Active; 'I' for Inactive)
REMARK    1  A    between atoms: C9_9  and  O1_10 
REMARK    2  A    between atoms: C12_14  and  O2_15 
REMARK    3  A    between atoms: O2_15  and  C13_16 
REMARK    4  A    between atoms: C13_16  and  C14_18 
REMARK    5  A    between atoms: C14_18  and  S1_19 
REMARK    6  A    between atoms: C16_23  and  C17_24 
REMARK    7  A    between atoms: C17_24  and  C18_25 
REMARK    8  A    between atoms: C21_30  and  O8_31 
ROOT
HETATM    1  C1  UNL     1       4.572   0.198  -4.049  1.00  0.00     0.014 C 
HETATM    2  C2  UNL     1       4.210  -0.879  -3.373  1.00  0.00    -0.084 A 
HETATM    3  C3  UNL     1       3.049  -1.773  -3.415  1.00  0.00     0.039 A 
HETATM    4  C4  UNL     1       3.541  -2.549  -2.188  1.00  0.00     0.005 A 
HETATM    5  C5  UNL     1       4.793  -1.667  -2.288  1.00  0.00     0.019 A 
HETATM    6  C6  UNL     1       5.926  -2.622  -2.693  1.00  0.00     0.014 C 
HETATM    7  C7  UNL     1       5.447  -3.874  -1.935  1.00  0.00    -0.004 C 
HETATM    8  C8  UNL     1       6.141  -5.114  -2.341  1.00  0.00     0.037 C 
HETATM    9  C9  UNL     1       5.225  -6.321  -2.530  1.00  0.00     0.132 C 
HETATM   10  C10 UNL     1       4.058  -6.210  -1.546  1.00  0.00     0.040 C 
HETATM   11  C11 UNL     1       4.654  -6.029  -0.203  1.00  0.00     0.024 C 
HETATM   12  C12 UNL     1       3.204  -7.463  -1.621  1.00  0.00     0.150 C 
HETATM   13  C16 UNL     1       1.815  -7.286  -1.100  1.00  0.00     0.026 C 
HETATM   14  C19 UNL     1       1.659  -5.989  -0.311  1.00  0.00     0.011 C 
HETATM   15  C20 UNL     1       2.159  -4.794  -1.033  1.00  0.00     0.040 C 
HETATM   16  C21 UNL     1       3.220  -5.064  -2.056  1.00  0.00     0.074 C 
HETATM   17  C22 UNL     1       4.030  -3.925  -2.480  1.00  0.00     0.030 C 
ENDROOT
BRANCH  12  18
HETATM   18  O2  UNL     1       3.872  -8.583  -1.080  1.00  0.00    -0.314 OA
BRANCH  18  19
HETATM   19  C13 UNL     1       4.535  -9.543  -1.806  1.00  0.00     0.273 C 
HETATM   20  O3  UNL     1       4.436  -9.486  -3.078  1.00  0.00    -0.264 OA
BRANCH  19  21
HETATM   21  C14 UNL     1       5.342 -10.624  -1.221  1.00  0.00     0.250 C 
BRANCH  21  22
HETATM   22  S1  UNL     1       6.763  -9.980  -0.386  1.00  0.00     0.149 S 
HETATM   23  C15 UNL     1       6.314  -9.532   1.274  1.00  0.00     0.161 C 
HETATM   24  O4  UNL     1       7.343  -8.802  -1.114  1.00  0.00    -0.228 OA
HETATM   25  O5  UNL     1       7.837 -11.019  -0.299  1.00  0.00    -0.228 OA
ENDBRANCH  21  22
ENDBRANCH  19  21
ENDBRANCH  18  19
ENDBRANCH  12  18
BRANCH  13  26
HETATM   26  C17 UNL     1       1.171  -8.437  -0.460  1.00  0.00     0.120 C 
BRANCH  26  27
HETATM   27  C18 UNL     1       0.738  -8.430   0.904  1.00  0.00     0.172 C 
HETATM   28  O6  UNL     1      -0.348  -8.186   1.443  1.00  0.00    -0.648 OA
HETATM   29  O7  UNL     1       1.745  -8.767   1.847  1.00  0.00    -0.648 OA
ENDBRANCH  26  27
ENDBRANCH  13  26
BRANCH   9  30
HETATM   30  O1  UNL     1       4.703  -6.366  -3.809  1.00  0.00    -0.395 OA
ATOM     31  H1  UNL     1       3.807  -6.051  -3.831  1.00  0.00     0.210 HD
ENDBRANCH   9  30
BRANCH  16  32
HETATM   32  O8  UNL     1       2.553  -5.545  -3.214  1.00  0.00    -0.388 OA
ATOM     33  H8  UNL     1       2.350  -4.780  -3.740  1.00  0.00     0.210 HD
ENDBRANCH  16  32
TORSDOF 8
ENDMDL
MODEL 2
REMARK VINA RESULT: -7.980147496      2.696      5.158
REMARK  8 active torsions:
REMARK  status: ('A' for Active; 'I' for Inactive)
REMARK    1  A    between atoms: C9_9  and  O1_10 
REMARK    2  A    between atoms: C12_14  and  O2_15 
REMARK    3  A    between atoms: O2_15  and  C13_16 
REMARK    4  A    between atoms: C13_16  and  C14_18 
REMARK    5  A    between atoms: C14_18  and  S1_19 
REMARK    6  A    between atoms: C16_23  and  C17_24 
REMARK    7  A    between atoms: C17_24  and  C18_25 
REMARK    8  A    between atoms: C21_30  and  O8_31 
ROOT
HETATM    1  C1  UNL     1       8.157  -2.512  -2.663  1.00  0.00     0.014 C 
HETATM    2  C2  UNL     1       7.650  -3.710  -2.429  1.00  0.00    -0.084 A 
HETATM    3  C3  UNL     1       7.916  -4.761  -1.443  1.00  0.00     0.039 A 
HETATM    4  C4  UNL     1       6.931  -5.718  -2.123  1.00  0.00     0.005 A 
HETATM    5  C5  UNL     1       6.601  -4.529  -3.036  1.00  0.00     0.019 A 
HETATM    6  C6  UNL     1       5.160  -4.136  -2.679  1.00  0.00     0.014 C 
HETATM    7  C7  UNL     1       4.615  -5.542  -2.363  1.00  0.00    -0.004 C 
HETATM    8  C8  UNL     1       3.309  -5.529  -1.671  1.00  0.00     0.037 C 
HETATM    9  C9  UNL     1       3.198  -6.510  -0.506  1.00  0.00     0.132 C 
HETATM   10  C10 UNL     1       4.052  -7.740  -0.818  1.00  0.00     0.040 C 
HETATM   11  C11 UNL     1       3.618  -8.231  -2.145  1.00  0.00     0.024 C 
HETATM   12  C12 UNL     1       3.856  -8.788   0.263  1.00  0.00     0.150 C 
HETATM   13  C16 UNL     1       4.958  -9.793   0.347  1.00  0.00     0.026 C 
HETATM   14  C19 UNL     1       5.871  -9.745  -0.875  1.00  0.00     0.011 C 
HETATM   15  C20 UNL     1       6.360  -8.381  -1.195  1.00  0.00     0.040 C 
HETATM   16  C21 UNL     1       5.480  -7.262  -0.726  1.00  0.00     0.074 C 
HETATM   17  C22 UNL     1       5.677  -5.962  -1.360  1.00  0.00     0.030 C 
ENDROOT
BRANCH  12  18
HETATM   18  O2  UNL     1       2.568  -9.365   0.203  1.00  0.00    -0.314 OA
BRANCH  18  19
HETATM   19  C13 UNL     1       1.608  -9.274   1.181  1.00  0.00     0.273 C 
HETATM   20  O3  UNL     1       1.711 -10.065   2.178  1.00  0.00    -0.264 OA
BRANCH  19  21
HETATM   21  C14 UNL     1       0.476  -8.335   1.156  1.00  0.00     0.250 C 
BRANCH  21  22
HETATM   22  S1  UNL     1      -0.984  -9.110   0.524  1.00  0.00     0.149 S 
HETATM   23  C15 UNL     1      -0.638  -9.790  -1.081  1.00  0.00     0.161 C 
HETATM   24  O4  UNL     1      -2.133  -8.145   0.453  1.00  0.00    -0.228 OA
HETATM   25  O5  UNL     1      -1.408 -10.238   1.411  1.00  0.00    -0.228 OA
ENDBRANCH  21  22
ENDBRANCH  19  21
ENDBRANCH  18  19
ENDBRANCH  12  18
BRANCH  13  26
HETATM   26  C17 UNL     1       4.613 -11.156   0.762  1.00  0.00     0.120 C 
BRANCH  26  27
HETATM   27  C18 UNL     1       5.223 -11.808   1.880  1.00  0.00     0.172 C 
HETATM   28  O6  UNL     1       4.863 -12.736   2.615  1.00  0.00    -0.648 OA
HETATM   29  O7  UNL     1       6.501 -11.303   2.236  1.00  0.00    -0.648 OA
ENDBRANCH  26  27
ENDBRANCH  13  26
BRANCH   9  30
HETATM   30  O1  UNL     1       3.663  -5.953   0.670  1.00  0.00    -0.395 OA
ATOM     31  H1  UNL     1       4.490  -6.338   0.935  1.00  0.00     0.210 HD
ENDBRANCH   9  30
BRANCH  16  32
HETATM   32  O8  UNL     1       5.751  -7.087   0.658  1.00  0.00    -0.388 OA
ATOM     33  H8  UNL     1       6.651  -6.788   0.716  1.00  0.00     0.210 HD
ENDBRANCH  16  32
TORSDOF 8
ENDMDL
MODEL 3
REMARK VINA RESULT: -7.925494635      1.055      1.424
REMARK  8 active torsions:
REMARK  status: ('A' for Active; 'I' for Inactive)
REMARK    1  A    between atoms: C9_9  and  O1_10 
REMARK    2  A    between atoms: C12_14  and  O2_15 
REMARK    3  A    between atoms: O2_15  and  C13_16 
REMARK    4  A    between atoms: C13_16  and  C14_18 
REMARK    5  A    between atoms: C14_18  and  S1_19 
REMARK    6  A    between atoms: C16_23  and  C17_24 
REMARK    7  A    between atoms: C17_24  and  C18_25 
REMARK    8  A    between atoms: C21_30  and  O8_31 
ROOT
HETATM    1  C1  UNL     1       4.291  -0.066  -3.990  1.00  0.00     0.014 C 
HETATM    2  C2  UNL     1       4.155  -1.147  -3.242  1.00  0.00    -0.084 A 
HETATM    3  C3  UNL     1       3.057  -2.083  -2.983  1.00  0.00     0.039 A 
HETATM    4  C4  UNL     1       3.875  -2.827  -1.922  1.00  0.00     0.005 A 
HETATM    5  C5  UNL     1       5.026  -1.902  -2.341  1.00  0.00     0.019 A 
HETATM    6  C6  UNL     1       6.052  -2.819  -3.022  1.00  0.00     0.014 C 
HETATM    7  C7  UNL     1       5.831  -4.079  -2.164  1.00  0.00    -0.004 C 
HETATM    8  C8  UNL     1       6.443  -5.298  -2.733  1.00  0.00     0.037 C 
HETATM    9  C9  UNL     1       5.556  -6.539  -2.678  1.00  0.00     0.132 C 
HETATM   10  C10 UNL     1       4.677  -6.460  -1.428  1.00  0.00     0.040 C 
HETATM   11  C11 UNL     1       5.590  -6.242  -0.283  1.00  0.00     0.024 C 
HETATM   12  C12 UNL     1       3.880  -7.743  -1.279  1.00  0.00     0.150 C 
HETATM   13  C16 UNL     1       2.665  -7.611  -0.420  1.00  0.00     0.026 C 
HETATM   14  C19 UNL     1       2.668  -6.311   0.381  1.00  0.00     0.011 C 
HETATM   15  C20 UNL     1       2.921  -5.107  -0.448  1.00  0.00     0.040 C 
HETATM   16  C21 UNL     1       3.694  -5.350  -1.708  1.00  0.00     0.074 C 
HETATM   17  C22 UNL     1       4.324  -4.187  -2.327  1.00  0.00     0.030 C 
ENDROOT
BRANCH  12  18
HETATM   18  O2  UNL     1       4.706  -8.833  -0.926  1.00  0.00    -0.314 OA
BRANCH  18  19
HETATM   19  C13 UNL     1       5.102  -9.840  -1.772  1.00  0.00     0.273 C 
HETATM   20  O3  UNL     1       4.746  -9.749  -2.995  1.00  0.00    -0.264 OA
BRANCH  19  21
HETATM   21  C14 UNL     1       5.900 -11.006  -1.367  1.00  0.00     0.250 C 
BRANCH  21  22
HETATM   22  S1  UNL     1       7.592 -10.823  -1.855  1.00  0.00     0.149 S 
HETATM   23  C15 UNL     1       7.806 -11.493  -3.487  1.00  0.00     0.161 C 
HETATM   24  O4  UNL     1       8.520 -11.493  -0.883  1.00  0.00    -0.228 OA
HETATM   25  O5  UNL     1       7.972  -9.377  -1.906  1.00  0.00    -0.228 OA
ENDBRANCH  21  22
ENDBRANCH  19  21
ENDBRANCH  18  19
ENDBRANCH  12  18
BRANCH  13  26
HETATM   26  C17 UNL     1       2.250  -8.777   0.366  1.00  0.00     0.120 C 
BRANCH  26  27
HETATM   27  C18 UNL     1       0.935  -8.922   0.910  1.00  0.00     0.172 C 
HETATM   28  O6  UNL     1      -0.031  -8.154   0.998  1.00  0.00    -0.648 OA
HETATM   29  O7  UNL     1       0.661 -10.198   1.470  1.00  0.00    -0.648 OA
ENDBRANCH  26  27
ENDBRANCH  13  26
BRANCH   9  30
HETATM   30  O1  UNL     1       4.725  -6.617  -3.780  1.00  0.00    -0.395 OA
ATOM     31  H1  UNL     1       4.906  -7.393  -4.298  1.00  0.00     0.210 HD
ENDBRANCH   9  30
BRANCH  16  32
HETATM   32  O8  UNL     1       2.771  -5.867  -2.656  1.00  0.00    -0.388 OA
ATOM     33  H8  UNL     1       1.991  -6.100  -2.166  1.00  0.00     0.210 HD
ENDBRANCH  16  32
TORSDOF 8
ENDMDL
MODEL 4
REMARK VINA RESULT: -7.913291690      2.690      5.147
REMARK  8 active torsions:
REMARK  status: ('A' for Active; 'I' for Inactive)
REMARK    1  A    between atoms: C9_9  and  O1_10 
REMARK    2  A    between atoms: C12_14  and  O2_15 
REMARK    3  A    between atoms: O2_15  and  C13_16 
REMARK    4  A    between atoms: C13_16  and  C14_18 
REMARK    5  A    between atoms: C14_18  and  S1_19 
REMARK    6  A    between atoms: C16_23  and  C17_24 
REMARK    7  A    between atoms: C17_24  and  C18_25 
REMARK    8  A    between atoms: C21_30  and  O8_31 
ROOT
HETATM    1  C1  UNL     1       1.720  -1.321  -2.250  1.00  0.00     0.014 C 
HETATM    2  C2  UNL     1       2.243  -2.509  -2.002  1.00  0.00    -0.084 A 
HETATM    3  C3  UNL     1       3.060  -3.063  -0.918  1.00  0.00     0.039 A 
HETATM    4  C4  UNL     1       3.218  -4.398  -1.653  1.00  0.00     0.005 A 
HETATM    5  C5  UNL     1       2.248  -3.803  -2.683  1.00  0.00     0.019 A 
HETATM    6  C6  UNL     1       0.961  -4.631  -2.547  1.00  0.00     0.014 C 
HETATM    7  C7  UNL     1       1.603  -5.990  -2.209  1.00  0.00    -0.004 C 
HETATM    8  C8  UNL     1       0.640  -6.988  -1.699  1.00  0.00     0.037 C 
HETATM    9  C9  UNL     1       1.131  -7.785  -0.493  1.00  0.00     0.132 C 
HETATM   10  C10 UNL     1       2.648  -7.955  -0.602  1.00  0.00     0.040 C 
HETATM   11  C11 UNL     1       2.914  -8.536  -1.937  1.00  0.00     0.024 C 
HETATM   12  C12 UNL     1       3.145  -8.856   0.514  1.00  0.00     0.150 C 
HETATM   13  C16 UNL     1       4.601  -8.712   0.814  1.00  0.00     0.026 C 
HETATM   14  C19 UNL     1       5.336  -7.937  -0.277  1.00  0.00     0.011 C 
HETATM   15  C20 UNL     1       4.689  -6.648  -0.625  1.00  0.00     0.040 C 
HETATM   16  C21 UNL     1       3.217  -6.579  -0.355  1.00  0.00     0.074 C 
HETATM   17  C22 UNL     1       2.470  -5.533  -1.048  1.00  0.00     0.030 C 
ENDROOT
BRANCH  12  18
HETATM   18  O2  UNL     1       2.737 -10.195   0.325  1.00  0.00    -0.314 OA
BRANCH  18  19
HETATM   19  C13 UNL     1       1.864 -10.884   1.131  1.00  0.00     0.273 C 
HETATM   20  O3  UNL     1       2.034 -10.788   2.393  1.00  0.00    -0.264 OA
BRANCH  19  21
HETATM   21  C14 UNL     1       0.756 -11.718   0.643  1.00  0.00     0.250 C 
BRANCH  21  22
HETATM   22  S1  UNL     1      -0.790 -10.866   0.770  1.00  0.00     0.149 S 
HETATM   23  C15 UNL     1      -1.446 -10.597  -0.860  1.00  0.00     0.161 C 
HETATM   24  O4  UNL     1      -0.642  -9.563   1.502  1.00  0.00    -0.228 OA
HETATM   25  O5  UNL     1      -1.784 -11.689   1.528  1.00  0.00    -0.228 OA
ENDBRANCH  21  22
ENDBRANCH  19  21
ENDBRANCH  18  19
ENDBRANCH  12  18
BRANCH  13  26
HETATM   26  C17 UNL     1       5.328  -9.899   1.274  1.00  0.00     0.120 C 
BRANCH  26  27
HETATM   27  C18 UNL     1       6.685  -9.855   1.725  1.00  0.00     0.172 C 
HETATM   28  O6  UNL     1       7.233  -9.329   2.702  1.00  0.00    -0.648 OA
HETATM   29  O7  UNL     1       7.608 -10.550   0.899  1.00  0.00    -0.648 OA
ENDBRANCH  26  27
ENDBRANCH  13  26
BRANCH   9  30
HETATM   30  O1  UNL     1       0.858  -7.131   0.693  1.00  0.00    -0.395 OA
ATOM     31  H1  UNL     1       0.701  -7.744   1.401  1.00  0.00     0.210 HD
ENDBRANCH   9  30
BRANCH  16  32
HETATM   32  O8  UNL     1       3.071  -6.334   1.036  1.00  0.00    -0.388 OA
ATOM     33  H8  UNL     1       2.825  -5.420   1.120  1.00  0.00     0.210 HD
ENDBRANCH  16  32
TORSDOF 8
ENDMDL
MODEL 5
REMARK VINA RESULT: -7.870673480      2.628      4.962
REMARK  8 active torsions:
REMARK  status: ('A' for Active; 'I' for Inactive)
REMARK    1  A    between atoms: C9_9  and  O1_10 
REMARK    2  A    between atoms: C12_14  and  O2_15 
REMARK    3  A    between atoms: O2_15  and  C13_16 
REMARK    4  A    between atoms: C13_16  and  C14_18 
REMARK    5  A    between atoms: C14_18  and  S1_19 
REMARK    6  A    between atoms: C16_23  and  C17_24 
REMARK    7  A    between atoms: C17_24  and  C18_25 
REMARK    8  A    between atoms: C21_30  and  O8_31 
ROOT
HETATM    1  C1  UNL     1       2.470  -1.905  -2.778  1.00  0.00     0.014 C 
HETATM    2  C2  UNL     1       2.932  -3.129  -2.588  1.00  0.00    -0.084 A 
HETATM    3  C3  UNL     1       4.091  -3.690  -1.887  1.00  0.00     0.039 A 
HETATM    4  C4  UNL     1       3.774  -5.102  -2.390  1.00  0.00     0.005 A 
HETATM    5  C5  UNL     1       2.507  -4.472  -2.984  1.00  0.00     0.019 A 
HETATM    6  C6  UNL     1       1.345  -5.067  -2.175  1.00  0.00     0.014 C 
HETATM    7  C7  UNL     1       1.937  -6.467  -1.928  1.00  0.00    -0.004 C 
HETATM    8  C8  UNL     1       1.214  -7.242  -0.898  1.00  0.00     0.037 C 
HETATM    9  C9  UNL     1       2.115  -7.977   0.091  1.00  0.00     0.132 C 
HETATM   10  C10 UNL     1       3.398  -8.396  -0.631  1.00  0.00     0.040 C 
HETATM   11  C11 UNL     1       2.979  -9.146  -1.836  1.00  0.00     0.024 C 
HETATM   12  C12 UNL     1       4.253  -9.243   0.294  1.00  0.00     0.150 C 
HETATM   13  C16 UNL     1       5.696  -9.301  -0.091  1.00  0.00     0.026 C 
HETATM   14  C19 UNL     1       5.934  -8.769  -1.502  1.00  0.00     0.011 C 
HETATM   15  C20 UNL     1       5.327  -7.437  -1.743  1.00  0.00     0.040 C 
HETATM   16  C21 UNL     1       4.146  -7.109  -0.881  1.00  0.00     0.074 C 
HETATM   17  C22 UNL     1       3.272  -6.035  -1.345  1.00  0.00     0.030 C 
ENDROOT
BRANCH  12  18
HETATM   18  O2  UNL     1       3.678 -10.513   0.520  1.00  0.00    -0.314 OA
BRANCH  18  19
HETATM   19  C13 UNL     1       3.201 -10.968   1.725  1.00  0.00     0.273 C 
HETATM   20  O3  UNL     1       2.062 -10.532   2.105  1.00  0.00    -0.264 OA
BRANCH  19  21
HETATM   21  C14 UNL     1       3.908 -11.915   2.599  1.00  0.00     0.250 C 
BRANCH  21  22
HETATM   22  S1  UNL     1       2.772 -12.826   3.606  1.00  0.00     0.149 S 
HETATM   23  C15 UNL     1       1.627 -13.693   2.559  1.00  0.00     0.161 C 
HETATM   24  O4  UNL     1       2.040 -11.928   4.561  1.00  0.00    -0.228 OA
HETATM   25  O5  UNL     1       3.497 -13.846   4.425  1.00  0.00    -0.228 OA
ENDBRANCH  21  22
ENDBRANCH  19  21
ENDBRANCH  18  19
ENDBRANCH  12  18
BRANCH  13  26
HETATM   26  C17 UNL     1       6.434 -10.534   0.198  1.00  0.00     0.120 C 
BRANCH  26  27
HETATM   27  C18 UNL     1       7.214 -10.714   1.384  1.00  0.00     0.172 C 
HETATM   28  O6  UNL     1       7.753 -11.703   1.897  1.00  0.00    -0.648 OA
HETATM   29  O7  UNL     1       7.425  -9.532   2.142  1.00  0.00    -0.648 OA
ENDBRANCH  26  27
ENDBRANCH  13  26
BRANCH   9  30
HETATM   30  O1  UNL     1       2.467  -7.168   1.155  1.00  0.00    -0.395 OA
ATOM     31  H1  UNL     1       1.893  -6.415   1.225  1.00  0.00     0.210 HD
ENDBRANCH   9  30
BRANCH  16  32
HETATM   32  O8  UNL     1       4.664  -6.700   0.377  1.00  0.00    -0.388 OA
ATOM     33  H8  UNL     1       4.214  -5.893   0.599  1.00  0.00     0.210 HD
ENDBRANCH  16  32
TORSDOF 8
ENDMDL
