MODEL 1
REMARK VINA RESULT: -8.631337933      0.000      0.000
REMARK  6 active torsions:
REMARK  status: ('A' for Active; 'I' for Inactive)
REMARK    1  A    between atoms: C1_2  and  C2_4 
REMARK       I    between atoms: N3_11  and  C7_13 
REMARK    2  A    between atoms: C7_13  and  C8_15 
REMARK       I    between atoms: N4_18  and  C11_20 
REMARK    3  A    between atoms: C11_20  and  O4_22 
REMARK    4  A    between atoms: O4_22  and  C12_23 
REMARK    5  A    between atoms: C19_30  and  O5_31 
REMARK    6  A    between atoms: O5_31  and  S1_32 
ROOT
HETATM    1  C8  UNL     1       3.535  -6.561  -0.202  1.00  0.00     0.114 C 
HETATM    2  C9  UNL     1       3.216  -5.137  -0.464  1.00  0.00     0.069 C 
HETATM    3  C10 UNL     1       3.909  -4.667  -1.672  1.00  0.00    -0.007 C 
HETATM    4  N4  UNL     1       3.310  -4.059  -2.620  1.00  0.00    -0.310 N 
ATOM      5  H4  UNL     1       3.838  -3.756  -3.439  1.00  0.00     0.170 HD
HETATM    6  C11 UNL     1       1.936  -3.806  -2.547  1.00  0.00     0.365 C 
HETATM    7  O3  UNL     1       1.158  -4.719  -2.970  1.00  0.00    -0.238 OA
HETATM    8  C17 UNL     1       5.358  -4.919  -1.757  1.00  0.00     0.055 C 
HETATM    9  C18 UNL     1       5.673  -6.369  -1.524  1.00  0.00     0.040 C 
HETATM   10  C19 UNL     1       4.933  -6.988  -0.390  1.00  0.00     0.158 C 
ENDROOT
BRANCH   1  11
HETATM   11  C7  UNL     1       2.532  -7.401  -0.920  1.00  0.00     0.230 C 
HETATM   12  N3  UNL     1       1.373  -7.889  -0.248  1.00  0.00    -0.312 N 
HETATM   13  C6  UNL     1       1.276  -9.144   0.029  1.00  0.00     0.123 A 
ATOM     14  H3  UNL     1       0.624  -7.247   0.011  1.00  0.00     0.170 HD
HETATM   15  C2  UNL     1       0.169  -9.643   0.677  1.00  0.00     0.073 A 
HETATM   16  N2  UNL     1       2.256 -10.007  -0.309  1.00  0.00    -0.351 N 
HETATM   17  C3  UNL     1       0.080 -11.001   0.968  1.00  0.00     0.022 A 
HETATM   18  C4  UNL     1       1.099 -11.851   0.607  1.00  0.00     0.018 A 
HETATM   19  C5  UNL     1       2.191 -11.316  -0.039  1.00  0.00     0.090 A 
ATOM     20  H2  UNL     1       3.081  -9.647  -0.789  1.00  0.00     0.166 HD
HETATM   21  O2  UNL     1       2.758  -7.655  -2.135  1.00  0.00    -0.273 OA
BRANCH  15  22
HETATM   22  C1  UNL     1      -0.940  -8.775   1.079  1.00  0.00     0.268 C 
HETATM   23  N1  UNL     1      -2.242  -9.054   0.593  1.00  0.00    -0.057 NA
HETATM   24  O1  UNL     1      -0.746  -7.795   1.842  1.00  0.00    -0.271 OA
ENDBRANCH  15  22
ENDBRANCH   1  11
BRANCH  10  25
HETATM   25  O5  UNL     1       4.937  -8.367  -0.573  1.00  0.00    -0.251 OA
BRANCH  25  26
HETATM   26  S1  UNL     1       5.967  -9.159   0.474  1.00  0.00     0.251 S 
HETATM   27  O6  UNL     1       5.160 -10.235   1.149  1.00  0.00    -0.572 OA
HETATM   28  O7  UNL     1       7.092  -9.847  -0.245  1.00  0.00    -0.572 OA
HETATM   29  O8  UNL     1       6.565  -8.163   1.672  1.00  0.00    -0.572 OA
ENDBRANCH  25  26
ENDBRANCH  10  25
BRANCH   6  30
HETATM   30  O4  UNL     1       1.385  -2.636  -2.045  1.00  0.00    -0.298 OA
BRANCH  30  31
HETATM   31  C12 UNL     1       2.170  -1.481  -2.020  1.00  0.00     0.133 C 
HETATM   32  C13 UNL     1       1.303  -0.244  -2.150  1.00  0.00     0.032 C 
HETATM   33  C14 UNL     1       2.113   0.860  -1.533  1.00  0.00     0.002 C 
HETATM   34  C15 UNL     1       3.266   0.203  -0.800  1.00  0.00     0.002 C 
HETATM   35  C16 UNL     1       2.799  -1.242  -0.662  1.00  0.00     0.032 C 
ENDBRANCH  30  31
ENDBRANCH   6  30
TORSDOF 6
ENDMDL
MODEL 2
REMARK VINA RESULT: -8.627950053      3.529      8.465
REMARK  6 active torsions:
REMARK  status: ('A' for Active; 'I' for Inactive)
REMARK    1  A    between atoms: C1_2  and  C2_4 
REMARK       I    between atoms: N3_11  and  C7_13 
REMARK    2  A    between atoms: C7_13  and  C8_15 
REMARK       I    between atoms: N4_18  and  C11_20 
REMARK    3  A    between atoms: C11_20  and  O4_22 
REMARK    4  A    between atoms: O4_22  and  C12_23 
REMARK    5  A    between atoms: C19_30  and  O5_31 
REMARK    6  A    between atoms: O5_31  and  S1_32 
ROOT
HETATM    1  C8  UNL     1       3.815  -5.302  -1.142  1.00  0.00     0.114 C 
HETATM    2  C9  UNL     1       3.631  -6.688  -0.649  1.00  0.00     0.069 C 
HETATM    3  C10 UNL     1       2.589  -7.377  -1.425  1.00  0.00    -0.007 C 
HETATM    4  N4  UNL     1       2.763  -8.527  -1.948  1.00  0.00    -0.310 N 
ATOM      5  H4  UNL     1       2.007  -8.961  -2.478  1.00  0.00     0.170 HD
HETATM    6  C11 UNL     1       3.982  -9.198  -1.799  1.00  0.00     0.365 C 
HETATM    7  O3  UNL     1       4.888  -8.944  -2.655  1.00  0.00    -0.238 OA
HETATM    8  C17 UNL     1       1.298  -6.684  -1.580  1.00  0.00     0.055 C 
HETATM    9  C18 UNL     1       1.487  -5.292  -2.111  1.00  0.00     0.040 C 
HETATM   10  C19 UNL     1       2.602  -4.535  -1.477  1.00  0.00     0.158 C 
ENDROOT
BRANCH   1  11
HETATM   11  C7  UNL     1       4.846  -5.326  -2.221  1.00  0.00     0.230 C 
HETATM   12  N3  UNL     1       6.223  -5.113  -1.919  1.00  0.00    -0.312 N 
HETATM   13  C6  UNL     1       6.794  -4.015  -2.280  1.00  0.00     0.123 A 
ATOM     14  H3  UNL     1       6.754  -5.827  -1.419  1.00  0.00     0.170 HD
HETATM   15  C2  UNL     1       8.122  -3.783  -2.002  1.00  0.00     0.073 A 
HETATM   16  N2  UNL     1       6.109  -3.061  -2.943  1.00  0.00    -0.351 N 
HETATM   17  C3  UNL     1       8.723  -2.593  -2.400  1.00  0.00     0.022 A 
HETATM   18  C4  UNL     1       7.992  -1.643  -3.075  1.00  0.00     0.018 A 
HETATM   19  C5  UNL     1       6.667  -1.910  -3.335  1.00  0.00     0.090 A 
ATOM     20  H2  UNL     1       5.124  -3.224  -3.153  1.00  0.00     0.166 HD
HETATM   21  O2  UNL     1       4.444  -5.540  -3.397  1.00  0.00    -0.273 OA
BRANCH  15  22
HETATM   22  C1  UNL     1       8.939  -4.765  -1.287  1.00  0.00     0.268 C 
HETATM   23  N1  UNL     1       9.880  -4.309  -0.329  1.00  0.00    -0.057 NA
HETATM   24  O1  UNL     1       8.814  -5.995  -1.515  1.00  0.00    -0.271 OA
ENDBRANCH  15  22
ENDBRANCH   1  11
BRANCH  10  25
HETATM   25  O5  UNL     1       2.971  -3.507  -2.339  1.00  0.00    -0.251 OA
BRANCH  25  26
HETATM   26  S1  UNL     1       2.639  -1.992  -1.724  1.00  0.00     0.251 S 
HETATM   27  O6  UNL     1       1.337  -1.549  -2.336  1.00  0.00    -0.572 OA
HETATM   28  O7  UNL     1       2.434  -2.013  -0.237  1.00  0.00    -0.572 OA
HETATM   29  O8  UNL     1       3.792  -0.858  -2.137  1.00  0.00    -0.572 OA
ENDBRANCH  25  26
ENDBRANCH  10  25
BRANCH   6  30
HETATM   30  O4  UNL     1       4.251 -10.109  -0.788  1.00  0.00    -0.298 OA
BRANCH  30  31
HETATM   31  C12 UNL     1       5.522 -10.110  -0.206  1.00  0.00     0.133 C 
HETATM   32  C13 UNL     1       5.625  -9.029   0.852  1.00  0.00     0.032 C 
HETATM   33  C14 UNL     1       6.722  -9.491   1.768  1.00  0.00     0.002 C 
HETATM   34  C15 UNL     1       7.012 -10.936   1.413  1.00  0.00     0.002 C 
HETATM   35  C16 UNL     1       5.769 -11.348   0.631  1.00  0.00     0.032 C 
ENDBRANCH  30  31
ENDBRANCH   6  30
TORSDOF 6
ENDMDL
MODEL 3
REMARK VINA RESULT: -8.625694854      0.936      1.391
REMARK  6 active torsions:
REMARK  status: ('A' for Active; 'I' for Inactive)
REMARK    1  A    between atoms: C1_2  and  C2_4 
REMARK       I    between atoms: N3_11  and  C7_13 
REMARK    2  A    between atoms: C7_13  and  C8_15 
REMARK       I    between atoms: N4_18  and  C11_20 
REMARK    3  A    between atoms: C11_20  and  O4_22 
REMARK    4  A    between atoms: O4_22  and  C12_23 
REMARK    5  A    between atoms: C19_30  and  O5_31 
REMARK    6  A    between atoms: O5_31  and  S1_32 
ROOT
HETATM    1  C8  UNL     1       4.029  -6.272  -0.512  1.00  0.00     0.114 C 
HETATM    2  C9  UNL     1       3.594  -4.866  -0.689  1.00  0.00     0.069 C 
HETATM    3  C10 UNL     1       4.132  -4.314  -1.940  1.00  0.00    -0.007 C 
HETATM    4  N4  UNL     1       3.404  -3.719  -2.803  1.00  0.00    -0.310 N 
ATOM      5  H4  UNL     1       3.827  -3.355  -3.656  1.00  0.00     0.170 HD
HETATM    6  C11 UNL     1       2.030  -3.563  -2.587  1.00  0.00     0.365 C 
HETATM    7  O3  UNL     1       1.275  -4.513  -2.967  1.00  0.00    -0.238 OA
HETATM    8  C17 UNL     1       5.579  -4.463  -2.175  1.00  0.00     0.055 C 
HETATM    9  C18 UNL     1       6.009  -5.895  -2.027  1.00  0.00     0.040 C 
HETATM   10  C19 UNL     1       5.426  -6.597  -0.851  1.00  0.00     0.158 C 
ENDROOT
BRANCH   1  11
HETATM   11  C7  UNL     1       3.016  -7.156  -1.161  1.00  0.00     0.230 C 
HETATM   12  N3  UNL     1       2.228  -8.056  -0.385  1.00  0.00    -0.312 N 
HETATM   13  C6  UNL     1       2.444  -9.325  -0.462  1.00  0.00     0.123 A 
ATOM     14  H3  UNL     1       1.497  -7.696   0.229  1.00  0.00     0.170 HD
HETATM   15  C2  UNL     1       1.699 -10.215   0.276  1.00  0.00     0.073 A 
HETATM   16  N2  UNL     1       3.406  -9.817  -1.268  1.00  0.00    -0.351 N 
HETATM   17  C3  UNL     1       1.945 -11.582   0.181  1.00  0.00     0.022 A 
HETATM   18  C4  UNL     1       2.934 -12.048  -0.654  1.00  0.00     0.018 A 
HETATM   19  C5  UNL     1       3.659 -11.127  -1.376  1.00  0.00     0.090 A 
ATOM     20  H2  UNL     1       3.964  -9.165  -1.819  1.00  0.00     0.166 HD
HETATM   21  O2  UNL     1       2.894  -7.070  -2.414  1.00  0.00    -0.273 OA
BRANCH  15  22
HETATM   22  C1  UNL     1       0.636  -9.765   1.177  1.00  0.00     0.268 C 
HETATM   23  N1  UNL     1      -0.601 -10.459   1.182  1.00  0.00    -0.057 NA
HETATM   24  O1  UNL     1       0.811  -8.778   1.936  1.00  0.00    -0.271 OA
ENDBRANCH  15  22
ENDBRANCH   1  11
BRANCH  10  25
HETATM   25  O5  UNL     1       5.502  -7.967  -1.084  1.00  0.00    -0.251 OA
BRANCH  25  26
HETATM   26  S1  UNL     1       6.354  -8.782   0.096  1.00  0.00     0.251 S 
HETATM   27  O6  UNL     1       7.206  -7.762   0.802  1.00  0.00    -0.572 OA
HETATM   28  O7  UNL     1       5.453  -9.389   1.133  1.00  0.00    -0.572 OA
HETATM   29  O8  UNL     1       7.382  -9.939  -0.530  1.00  0.00    -0.572 OA
ENDBRANCH  25  26
ENDBRANCH  10  25
BRANCH   6  30
HETATM   30  O4  UNL     1       1.458  -2.449  -1.991  1.00  0.00    -0.298 OA
BRANCH  30  31
HETATM   31  C12 UNL     1       2.165  -1.244  -1.998  1.00  0.00     0.133 C 
HETATM   32  C13 UNL     1       1.212  -0.067  -2.069  1.00  0.00     0.032 C 
HETATM   33  C14 UNL     1       1.981   1.085  -1.487  1.00  0.00     0.002 C 
HETATM   34  C15 UNL     1       3.213   0.502  -0.824  1.00  0.00     0.002 C 
HETATM   35  C16 UNL     1       2.851  -0.972  -0.675  1.00  0.00     0.032 C 
ENDBRANCH  30  31
ENDBRANCH   6  30
TORSDOF 6
ENDMDL
MODEL 4
REMARK VINA RESULT: -8.376260000      3.836      9.008
REMARK  6 active torsions:
REMARK  status: ('A' for Active; 'I' for Inactive)
REMARK    1  A    between atoms: C1_2  and  C2_4 
REMARK       I    between atoms: N3_11  and  C7_13 
REMARK    2  A    between atoms: C7_13  and  C8_15 
REMARK       I    between atoms: N4_18  and  C11_20 
REMARK    3  A    between atoms: C11_20  and  O4_22 
REMARK    4  A    between atoms: O4_22  and  C12_23 
REMARK    5  A    between atoms: C19_30  and  O5_31 
REMARK    6  A    between atoms: O5_31  and  S1_32 
ROOT
HETATM    1  C8  UNL     1       3.450  -3.307  -1.646  1.00  0.00     0.114 C 
HETATM    2  C9  UNL     1       3.899  -4.655  -1.221  1.00  0.00     0.069 C 
HETATM    3  C10 UNL     1       3.253  -5.694  -2.036  1.00  0.00    -0.007 C 
HETATM    4  N4  UNL     1       3.906  -6.626  -2.611  1.00  0.00    -0.310 N 
ATOM      5  H4  UNL     1       3.409  -7.322  -3.167  1.00  0.00     0.170 HD
HETATM    6  C11 UNL     1       5.297  -6.701  -2.486  1.00  0.00     0.365 C 
HETATM    7  O3  UNL     1       5.989  -6.037  -3.322  1.00  0.00    -0.238 OA
HETATM    8  C17 UNL     1       1.787  -5.631  -2.167  1.00  0.00     0.055 C 
HETATM    9  C18 UNL     1       1.339  -4.275  -2.629  1.00  0.00     0.040 C 
HETATM   10  C19 UNL     1       2.019  -3.135  -1.952  1.00  0.00     0.158 C 
ENDROOT
BRANCH   1  11
HETATM   11  C7  UNL     1       4.372  -2.827  -2.717  1.00  0.00     0.230 C 
HETATM   12  N3  UNL     1       5.784  -2.833  -2.521  1.00  0.00    -0.312 N 
HETATM   13  C6  UNL     1       6.413  -1.717  -2.370  1.00  0.00     0.123 A 
ATOM     14  H3  UNL     1       6.294  -3.716  -2.502  1.00  0.00     0.170 HD
HETATM   15  C2  UNL     1       7.775  -1.693  -2.180  1.00  0.00     0.073 A 
HETATM   16  N2  UNL     1       5.755  -0.540  -2.394  1.00  0.00    -0.351 N 
HETATM   17  C3  UNL     1       8.438  -0.480  -2.018  1.00  0.00     0.022 A 
HETATM   18  C4  UNL     1       7.734   0.700  -2.050  1.00  0.00     0.018 A 
HETATM   19  C5  UNL     1       6.372   0.637  -2.242  1.00  0.00     0.090 A 
ATOM     20  H2  UNL     1       4.744  -0.548  -2.534  1.00  0.00     0.166 HD
HETATM   21  O2  UNL     1       3.846  -2.420  -3.789  1.00  0.00    -0.273 OA
BRANCH  15  22
HETATM   22  C1  UNL     1       8.567  -2.925  -2.139  1.00  0.00     0.268 C 
HETATM   23  N1  UNL     1       9.631  -3.028  -1.208  1.00  0.00    -0.057 NA
HETATM   24  O1  UNL     1       8.312  -3.879  -2.917  1.00  0.00    -0.271 OA
ENDBRANCH  15  22
ENDBRANCH   1  11
BRANCH  10  25
HETATM   25  O5  UNL     1       1.887  -2.011  -2.761  1.00  0.00    -0.251 OA
BRANCH  25  26
HETATM   26  S1  UNL     1       1.799  -0.590  -1.892  1.00  0.00     0.251 S 
HETATM   27  O6  UNL     1       2.628   0.426  -2.631  1.00  0.00    -0.572 OA
HETATM   28  O7  UNL     1       0.400  -0.046  -1.830  1.00  0.00    -0.572 OA
HETATM   29  O8  UNL     1       2.437  -0.729  -0.356  1.00  0.00    -0.572 OA
ENDBRANCH  25  26
ENDBRANCH  10  25
BRANCH   6  30
HETATM   30  O4  UNL     1       5.953  -7.447  -1.518  1.00  0.00    -0.298 OA
BRANCH  30  31
HETATM   31  C12 UNL     1       5.330  -8.591  -1.014  1.00  0.00     0.133 C 
HETATM   32  C13 UNL     1       6.347  -9.690  -0.774  1.00  0.00     0.032 C 
HETATM   33  C14 UNL     1       5.719 -10.575   0.265  1.00  0.00     0.002 C 
HETATM   34  C15 UNL     1       4.523  -9.824   0.817  1.00  0.00     0.002 C 
HETATM   35  C16 UNL     1       4.800  -8.387   0.390  1.00  0.00     0.032 C 
ENDBRANCH  30  31
ENDBRANCH   6  30
TORSDOF 6
ENDMDL
MODEL 5
REMARK VINA RESULT: -8.333116110      3.296      8.532
REMARK  6 active torsions:
REMARK  status: ('A' for Active; 'I' for Inactive)
REMARK    1  A    between atoms: C1_2  and  C2_4 
REMARK       I    between atoms: N3_11  and  C7_13 
REMARK    2  A    between atoms: C7_13  and  C8_15 
REMARK       I    between atoms: N4_18  and  C11_20 
REMARK    3  A    between atoms: C11_20  and  O4_22 
REMARK    4  A    between atoms: O4_22  and  C12_23 
REMARK    5  A    between atoms: C19_30  and  O5_31 
REMARK    6  A    between atoms: O5_31  and  S1_32 
ROOT
HETATM    1  C8  UNL     1       3.847  -5.502  -1.020  1.00  0.00     0.114 C 
HETATM    2  C9  UNL     1       3.581  -6.912  -0.648  1.00  0.00     0.069 C 
HETATM    3  C10 UNL     1       2.478  -7.458  -1.454  1.00  0.00    -0.007 C 
HETATM    4  N4  UNL     1       2.563  -8.565  -2.082  1.00  0.00    -0.310 N 
ATOM      5  H4  UNL     1       1.769  -8.898  -2.628  1.00  0.00     0.170 HD
HETATM    6  C11 UNL     1       3.737  -9.324  -2.028  1.00  0.00     0.365 C 
HETATM    7  O3  UNL     1       4.640  -9.053  -2.882  1.00  0.00    -0.238 OA
HETATM    8  C17 UNL     1       1.234  -6.672  -1.510  1.00  0.00     0.055 C 
HETATM    9  C18 UNL     1       1.504  -5.252  -1.919  1.00  0.00     0.040 C 
HETATM   10  C19 UNL     1       2.681  -4.631  -1.251  1.00  0.00     0.158 C 
ENDROOT
BRANCH   1  11
HETATM   11  C7  UNL     1       4.851  -5.494  -2.124  1.00  0.00     0.230 C 
HETATM   12  N3  UNL     1       6.226  -5.232  -1.859  1.00  0.00    -0.312 N 
HETATM   13  C6  UNL     1       6.749  -4.116  -2.239  1.00  0.00     0.123 A 
ATOM     14  H3  UNL     1       6.794  -5.924  -1.371  1.00  0.00     0.170 HD
HETATM   15  C2  UNL     1       8.074  -3.836  -1.995  1.00  0.00     0.073 A 
HETATM   16  N2  UNL     1       6.013  -3.190  -2.887  1.00  0.00    -0.351 N 
HETATM   17  C3  UNL     1       8.622  -2.627  -2.413  1.00  0.00     0.022 A 
HETATM   18  C4  UNL     1       7.841  -1.706  -3.072  1.00  0.00     0.018 A 
HETATM   19  C5  UNL     1       6.520  -2.021  -3.298  1.00  0.00     0.090 A 
ATOM     20  H2  UNL     1       5.030  -3.388  -3.072  1.00  0.00     0.166 HD
HETATM   21  O2  UNL     1       4.427  -5.728  -3.290  1.00  0.00    -0.273 OA
BRANCH  15  22
HETATM   22  C1  UNL     1       8.944  -4.786  -1.298  1.00  0.00     0.268 C 
HETATM   23  N1  UNL     1       9.835  -4.301  -0.308  1.00  0.00    -0.057 NA
HETATM   24  O1  UNL     1       8.905  -6.012  -1.569  1.00  0.00    -0.271 OA
ENDBRANCH  15  22
ENDBRANCH   1  11
BRANCH  10  25
HETATM   25  O5  UNL     1       3.099  -3.554  -2.027  1.00  0.00    -0.251 OA
BRANCH  25  26
HETATM   26  S1  UNL     1       2.679  -2.078  -1.373  1.00  0.00     0.251 S 
HETATM   27  O6  UNL     1       2.325  -2.324   0.069  1.00  0.00    -0.572 OA
HETATM   28  O7  UNL     1       3.824  -1.106  -1.379  1.00  0.00    -0.572 OA
HETATM   29  O8  UNL     1       1.340  -1.403  -2.104  1.00  0.00    -0.572 OA
ENDBRANCH  25  26
ENDBRANCH  10  25
BRANCH   6  30
HETATM   30  O4  UNL     1       3.967 -10.339  -1.111  1.00  0.00    -0.298 OA
BRANCH  30  31
HETATM   31  C12 UNL     1       2.893 -10.819  -0.357  1.00  0.00     0.133 C 
HETATM   32  C13 UNL     1       2.970 -12.327  -0.220  1.00  0.00     0.032 C 
HETATM   33  C14 UNL     1       2.188 -12.641   1.024  1.00  0.00     0.002 C 
HETATM   34  C15 UNL     1       1.944 -11.324   1.733  1.00  0.00     0.002 C 
HETATM   35  C16 UNL     1       2.976 -10.400   1.096  1.00  0.00     0.032 C 
ENDBRANCH  30  31
ENDBRANCH   6  30
TORSDOF 6
ENDMDL
