MODEL 1
REMARK VINA RESULT: -10.534635565      0.000      0.000
REMARK  4 active torsions:
REMARK  status: ('A' for Active; 'I' for Inactive)
REMARK    1  A    between atoms: C1_2  and  C2_3 
REMARK       I    between atoms: C1_2  and  N5_28 
REMARK    2  A    between atoms: C2_3  and  S1_4 
REMARK    3  A    between atoms: S1_4  and  C3_5 
REMARK       I    between atoms: N3_11  and  C5_13 
REMARK    4  A    between atoms: C5_13  and  C6_15 
ROOT
HETATM    1  C3  UNL     1       9.265  -4.659  -1.744  1.00  0.00     0.134 A 
HETATM    2  N1  UNL     1       9.749  -5.869  -1.505  1.00  0.00    -0.286 N 
ATOM      3  H1  UNL     1      10.742  -6.047  -1.352  1.00  0.00     0.188 HD
HETATM    4  N2  UNL     1       8.873  -6.792  -1.481  1.00  0.00    -0.278 N 
ATOM      5  H2  UNL     1       9.286  -7.708  -1.306  1.00  0.00     0.189 HD
HETATM    6  C4  UNL     1       7.687  -6.852  -1.612  1.00  0.00     0.168 A 
HETATM    7  N3  UNL     1       6.427  -7.303  -1.517  1.00  0.00    -0.304 N 
ATOM      8  H3  UNL     1       6.139  -8.151  -1.029  1.00  0.00     0.171 HD
HETATM    9  C5  UNL     1       5.530  -6.384  -2.226  1.00  0.00     0.260 C 
HETATM   10  O2  UNL     1       6.005  -5.747  -3.182  1.00  0.00    -0.270 OA
HETATM   11  S2  UNL     1       7.597  -4.975  -1.905  1.00  0.00    -0.026 SA
ENDROOT
BRANCH   9  12
HETATM   12  C6  UNL     1       4.130  -6.174  -1.877  1.00  0.00     0.206 C 
HETATM   13  C7  UNL     1       4.206  -6.020  -0.254  1.00  0.00     0.053 C 
HETATM   14  C8  UNL     1       2.825  -5.916   0.222  1.00  0.00    -0.009 C 
HETATM   15  C9  UNL     1       2.170  -4.634  -0.307  1.00  0.00     0.009 C 
HETATM   16  C13 UNL     1       1.903  -7.059  -0.152  1.00  0.00     0.037 C 
HETATM   17  C10 UNL     1       2.131  -4.751  -1.795  1.00  0.00    -0.009 C 
HETATM   18  C11 UNL     1       1.400  -5.984  -2.267  1.00  0.00     0.037 C 
HETATM   19  C14 UNL     1       3.576  -4.896  -2.298  1.00  0.00     0.053 C 
HETATM   20  C12 UNL     1       2.001  -7.211  -1.674  1.00  0.00     0.188 C 
HETATM   21  N4  UNL     1       3.386  -7.382  -1.981  1.00  0.00    -0.053 N 
ATOM     22  H42 UNL     1       3.506  -7.806  -2.902  1.00  0.00     0.279 HD
ATOM     23  H41 UNL     1       3.799  -8.115  -1.405  1.00  0.00     0.279 HD
ENDBRANCH   9  12
BRANCH   1  24
HETATM   24  S1  UNL     1      10.016  -3.051  -2.056  1.00  0.00    -0.070 SA
BRANCH  24  25
HETATM   25  C2  UNL     1       8.990  -1.701  -1.665  1.00  0.00     0.126 C 
BRANCH  25  26
HETATM   26  C1  UNL     1       7.841  -1.324  -2.456  1.00  0.00     0.250 C 
HETATM   27  O1  UNL     1       7.621  -2.007  -3.513  1.00  0.00    -0.268 OA
HETATM   28  N5  UNL     1       6.966  -0.292  -2.156  1.00  0.00    -0.347 N 
HETATM   29  C15 UNL     1       6.878   0.701  -1.127  1.00  0.00     0.127 C 
HETATM   30  C21 UNL     1       5.720  -0.025  -2.953  1.00  0.00     0.137 C 
HETATM   31  C16 UNL     1       5.484   0.380  -0.586  1.00  0.00     0.033 C 
HETATM   32  C17 UNL     1       4.702  -0.057  -1.809  1.00  0.00     0.003 C 
HETATM   33  C18 UNL     1       4.158  -1.461  -1.616  1.00  0.00     0.040 C 
HETATM   34  C20 UNL     1       3.544   0.809  -2.102  1.00  0.00     0.243 C 
HETATM   35  C19 UNL     1       2.743  -1.178  -1.203  1.00  0.00     0.233 C 
HETATM   36  N6  UNL     1       2.333   0.067  -1.792  1.00  0.00    -0.074 N 
ATOM     37  H62 UNL     1       1.720  -0.053  -2.598  1.00  0.00     0.277 HD
ATOM     38  H61 UNL     1       1.680   0.590  -1.209  1.00  0.00     0.277 HD
ENDBRANCH  25  26
ENDBRANCH  24  25
ENDBRANCH   1  24
TORSDOF 4
ENDMDL
MODEL 2
REMARK VINA RESULT: -10.248113652      2.075      5.104
REMARK  4 active torsions:
REMARK  status: ('A' for Active; 'I' for Inactive)
REMARK    1  A    between atoms: C1_2  and  C2_3 
REMARK       I    between atoms: C1_2  and  N5_28 
REMARK    2  A    between atoms: C2_3  and  S1_4 
REMARK    3  A    between atoms: S1_4  and  C3_5 
REMARK       I    between atoms: N3_11  and  C5_13 
REMARK    4  A    between atoms: C5_13  and  C6_15 
ROOT
HETATM    1  C3  UNL     1       4.937  -6.217  -0.718  1.00  0.00     0.134 A 
HETATM    2  N1  UNL     1       4.078  -6.581   0.222  1.00  0.00    -0.286 N 
ATOM      3  H1  UNL     1       4.234  -7.384   0.832  1.00  0.00     0.188 HD
HETATM    4  N2  UNL     1       3.041  -5.847   0.303  1.00  0.00    -0.278 N 
ATOM      5  H2  UNL     1       2.400  -6.167   1.028  1.00  0.00     0.189 HD
HETATM    6  C4  UNL     1       2.633  -4.876  -0.261  1.00  0.00     0.168 A 
HETATM    7  N3  UNL     1       1.944  -3.749  -0.497  1.00  0.00    -0.304 N 
ATOM      8  H3  UNL     1       1.302  -3.301   0.157  1.00  0.00     0.171 HD
HETATM    9  C5  UNL     1       2.260  -3.263  -1.845  1.00  0.00     0.260 C 
HETATM   10  O2  UNL     1       2.585  -4.110  -2.695  1.00  0.00    -0.270 OA
HETATM   11  S2  UNL     1       4.166  -4.850  -1.385  1.00  0.00    -0.026 SA
ENDROOT
BRANCH   9  12
HETATM   12  C6  UNL     1       2.219  -1.860  -2.241  1.00  0.00     0.206 C 
HETATM   13  C7  UNL     1       3.188  -1.167  -1.125  1.00  0.00     0.053 C 
HETATM   14  C8  UNL     1       3.130   0.278  -1.360  1.00  0.00    -0.009 C 
HETATM   15  C9  UNL     1       3.726   0.622  -2.731  1.00  0.00     0.009 C 
HETATM   16  C13 UNL     1       1.752   0.905  -1.317  1.00  0.00     0.037 C 
HETATM   17  C10 UNL     1       2.866  -0.040  -3.755  1.00  0.00    -0.009 C 
HETATM   18  C11 UNL     1       1.417   0.371  -3.660  1.00  0.00     0.037 C 
HETATM   19  C14 UNL     1       2.894  -1.554  -3.492  1.00  0.00     0.053 C 
HETATM   20  C12 UNL     1       0.883   0.105  -2.295  1.00  0.00     0.188 C 
HETATM   21  N4  UNL     1       0.973  -1.264  -1.898  1.00  0.00    -0.053 N 
ATOM     22  H42 UNL     1       0.195  -1.805  -2.274  1.00  0.00     0.279 HD
ATOM     23  H41 UNL     1       0.782  -1.368  -0.901  1.00  0.00     0.279 HD
ENDBRANCH   9  12
BRANCH   1  24
HETATM   24  S1  UNL     1       6.441  -6.947  -1.390  1.00  0.00    -0.070 SA
BRANCH  24  25
HETATM   25  C2  UNL     1       7.712  -5.800  -1.697  1.00  0.00     0.126 C 
BRANCH  25  26
HETATM   26  C1  UNL     1       7.547  -4.645  -2.549  1.00  0.00     0.250 C 
HETATM   27  O1  UNL     1       6.541  -4.648  -3.336  1.00  0.00    -0.268 OA
HETATM   28  N5  UNL     1       8.386  -3.542  -2.573  1.00  0.00    -0.347 N 
HETATM   29  C15 UNL     1       9.597  -3.168  -1.905  1.00  0.00     0.127 C 
HETATM   30  C21 UNL     1       8.094  -2.317  -3.395  1.00  0.00     0.137 C 
HETATM   31  C16 UNL     1       9.140  -1.854  -1.269  1.00  0.00     0.033 C 
HETATM   32  C17 UNL     1       8.178  -1.266  -2.283  1.00  0.00     0.003 C 
HETATM   33  C18 UNL     1       6.815  -1.046  -1.652  1.00  0.00     0.040 C 
HETATM   34  C20 UNL     1       8.615   0.039  -2.814  1.00  0.00     0.243 C 
HETATM   35  C19 UNL     1       6.871   0.419  -1.327  1.00  0.00     0.233 C 
HETATM   36  N6  UNL     1       7.742   1.065  -2.269  1.00  0.00    -0.074 N 
ATOM     37  H62 UNL     1       7.239   1.585  -2.988  1.00  0.00     0.277 HD
ATOM     38  H61 UNL     1       8.250   1.853  -1.869  1.00  0.00     0.277 HD
ENDBRANCH  25  26
ENDBRANCH  24  25
ENDBRANCH   1  24
TORSDOF 4
ENDMDL
MODEL 3
REMARK VINA RESULT: -10.234430433      2.592      7.109
REMARK  4 active torsions:
REMARK  status: ('A' for Active; 'I' for Inactive)
REMARK    1  A    between atoms: C1_2  and  C2_3 
REMARK       I    between atoms: C1_2  and  N5_28 
REMARK    2  A    between atoms: C2_3  and  S1_4 
REMARK    3  A    between atoms: S1_4  and  C3_5 
REMARK       I    between atoms: N3_11  and  C5_13 
REMARK    4  A    between atoms: C5_13  and  C6_15 
ROOT
HETATM    1  C3  UNL     1       1.983  -6.951  -0.304  1.00  0.00     0.134 A 
HETATM    2  N1  UNL     1       0.832  -6.988  -0.960  1.00  0.00    -0.286 N 
ATOM      3  H1  UNL     1       0.165  -7.754  -0.862  1.00  0.00     0.188 HD
HETATM    4  N2  UNL     1       0.626  -5.990  -1.722  1.00  0.00    -0.278 N 
ATOM      5  H2  UNL     1      -0.262  -6.062  -2.217  1.00  0.00     0.189 HD
HETATM    6  C4  UNL     1       1.215  -4.989  -2.000  1.00  0.00     0.168 A 
HETATM    7  N3  UNL     1       1.449  -3.735  -2.419  1.00  0.00    -0.304 N 
ATOM      8  H3  UNL     1       0.738  -3.078  -2.740  1.00  0.00     0.171 HD
HETATM    9  C5  UNL     1       2.888  -3.461  -2.343  1.00  0.00     0.260 C 
HETATM   10  O2  UNL     1       3.661  -4.426  -2.470  1.00  0.00    -0.270 OA
HETATM   11  S2  UNL     1       2.647  -5.478  -0.848  1.00  0.00    -0.026 SA
ENDROOT
BRANCH   9  12
HETATM   12  C6  UNL     1       3.459  -2.137  -2.128  1.00  0.00     0.206 C 
HETATM   13  C7  UNL     1       2.938  -1.327  -3.446  1.00  0.00     0.053 C 
HETATM   14  C8  UNL     1       3.554   0.001  -3.393  1.00  0.00    -0.009 C 
HETATM   15  C9  UNL     1       3.044   0.779  -2.173  1.00  0.00     0.009 C 
HETATM   16  C13 UNL     1       5.067   0.032  -3.323  1.00  0.00     0.037 C 
HETATM   17  C10 UNL     1       3.483   0.024  -0.963  1.00  0.00    -0.009 C 
HETATM   18  C11 UNL     1       4.979  -0.177  -0.909  1.00  0.00     0.037 C 
HETATM   19  C14 UNL     1       2.870  -1.383  -1.032  1.00  0.00     0.053 C 
HETATM   20  C12 UNL     1       5.463  -0.859  -2.140  1.00  0.00     0.188 C 
HETATM   21  N4  UNL     1       4.861  -2.135  -2.368  1.00  0.00    -0.053 N 
ATOM     22  H42 UNL     1       5.325  -2.860  -1.821  1.00  0.00     0.279 HD
ATOM     23  H41 UNL     1       5.071  -2.474  -3.307  1.00  0.00     0.279 HD
ENDBRANCH   9  12
BRANCH   1  24
HETATM   24  S1  UNL     1       2.864  -8.122   0.744  1.00  0.00    -0.070 SA
BRANCH  24  25
HETATM   25  C2  UNL     1       3.661  -9.398  -0.130  1.00  0.00     0.126 C 
BRANCH  25  26
HETATM   26  C1  UNL     1       4.823  -9.182  -0.961  1.00  0.00     0.250 C 
HETATM   27  O1  UNL     1       4.740  -9.564  -2.177  1.00  0.00    -0.268 OA
HETATM   28  N5  UNL     1       6.006  -8.591  -0.546  1.00  0.00    -0.347 N 
HETATM   29  C15 UNL     1       6.507  -8.076   0.693  1.00  0.00     0.127 C 
HETATM   30  C21 UNL     1       7.136  -8.284  -1.489  1.00  0.00     0.137 C 
HETATM   31  C16 UNL     1       6.834  -6.647   0.258  1.00  0.00     0.033 C 
HETATM   32  C17 UNL     1       7.298  -6.793  -1.177  1.00  0.00     0.003 C 
HETATM   33  C18 UNL     1       6.432  -5.956  -2.101  1.00  0.00     0.040 C 
HETATM   34  C20 UNL     1       8.691  -6.353  -1.389  1.00  0.00     0.243 C 
HETATM   35  C19 UNL     1       7.285  -4.734  -2.282  1.00  0.00     0.233 C 
HETATM   36  N6  UNL     1       8.664  -5.112  -2.145  1.00  0.00    -0.074 N 
ATOM     37  H62 UNL     1       9.153  -5.177  -3.037  1.00  0.00     0.277 HD
ATOM     38  H61 UNL     1       9.241  -4.379  -1.733  1.00  0.00     0.277 HD
ENDBRANCH  25  26
ENDBRANCH  24  25
ENDBRANCH   1  24
TORSDOF 4
ENDMDL
MODEL 4
REMARK VINA RESULT: -10.126901693      0.631      1.364
REMARK  4 active torsions:
REMARK  status: ('A' for Active; 'I' for Inactive)
REMARK    1  A    between atoms: C1_2  and  C2_3 
REMARK       I    between atoms: C1_2  and  N5_28 
REMARK    2  A    between atoms: C2_3  and  S1_4 
REMARK    3  A    between atoms: S1_4  and  C3_5 
REMARK       I    between atoms: N3_11  and  C5_13 
REMARK    4  A    between atoms: C5_13  and  C6_15 
ROOT
HETATM    1  C3  UNL     1       9.478  -4.396  -1.761  1.00  0.00     0.134 A 
HETATM    2  N1  UNL     1      10.111  -5.548  -1.592  1.00  0.00    -0.286 N 
ATOM      3  H1  UNL     1      11.127  -5.616  -1.528  1.00  0.00     0.188 HD
HETATM    4  N2  UNL     1       9.347  -6.563  -1.515  1.00  0.00    -0.278 N 
ATOM      5  H2  UNL     1       9.872  -7.430  -1.397  1.00  0.00     0.189 HD
HETATM    6  C4  UNL     1       8.168  -6.753  -1.545  1.00  0.00     0.168 A 
HETATM    7  N3  UNL     1       6.978  -7.343  -1.354  1.00  0.00    -0.304 N 
ATOM      8  H3  UNL     1       6.829  -8.224  -0.863  1.00  0.00     0.171 HD
HETATM    9  C5  UNL     1       5.927  -6.520  -1.962  1.00  0.00     0.260 C 
HETATM   10  O2  UNL     1       6.244  -5.821  -2.940  1.00  0.00    -0.270 OA
HETATM   11  S2  UNL     1       7.848  -4.894  -1.786  1.00  0.00    -0.026 SA
ENDROOT
BRANCH   9  12
HETATM   12  C6  UNL     1       4.548  -6.472  -1.491  1.00  0.00     0.206 C 
HETATM   13  C7  UNL     1       3.990  -5.122  -2.219  1.00  0.00     0.053 C 
HETATM   14  C8  UNL     1       2.629  -4.910  -1.721  1.00  0.00    -0.009 C 
HETATM   15  C9  UNL     1       1.711  -6.056  -2.165  1.00  0.00     0.009 C 
HETATM   16  C13 UNL     1       2.480  -4.792  -0.218  1.00  0.00     0.037 C 
HETATM   17  C10 UNL     1       2.238  -7.301  -1.532  1.00  0.00    -0.009 C 
HETATM   18  C11 UNL     1       2.321  -7.205  -0.028  1.00  0.00     0.037 C 
HETATM   19  C14 UNL     1       3.679  -7.510  -2.023  1.00  0.00     0.053 C 
HETATM   20  C12 UNL     1       3.148  -6.036   0.380  1.00  0.00     0.188 C 
HETATM   21  N4  UNL     1       4.483  -6.068  -0.128  1.00  0.00    -0.053 N 
ATOM     22  H42 UNL     1       5.081  -6.655   0.455  1.00  0.00     0.279 HD
ATOM     23  H41 UNL     1       4.947  -5.170   0.009  1.00  0.00     0.279 HD
ENDBRANCH   9  12
BRANCH   1  24
HETATM   24  S1  UNL     1      10.017  -2.710  -2.098  1.00  0.00    -0.070 SA
BRANCH  24  25
HETATM   25  C2  UNL     1       8.862  -1.491  -1.645  1.00  0.00     0.126 C 
BRANCH  25  26
HETATM   26  C1  UNL     1       7.708  -1.157  -2.448  1.00  0.00     0.250 C 
HETATM   27  O1  UNL     1       7.538  -1.829  -3.521  1.00  0.00    -0.268 OA
HETATM   28  N5  UNL     1       6.777  -0.177  -2.142  1.00  0.00    -0.347 N 
HETATM   29  C15 UNL     1       6.622   0.790  -1.096  1.00  0.00     0.127 C 
HETATM   30  C21 UNL     1       5.531   0.042  -2.954  1.00  0.00     0.137 C 
HETATM   31  C16 UNL     1       5.238   0.387  -0.583  1.00  0.00     0.033 C 
HETATM   32  C17 UNL     1       4.498  -0.064  -1.827  1.00  0.00     0.003 C 
HETATM   33  C18 UNL     1       4.024  -1.497  -1.670  1.00  0.00     0.040 C 
HETATM   34  C20 UNL     1       3.302   0.748  -2.122  1.00  0.00     0.243 C 
HETATM   35  C19 UNL     1       2.590  -1.294  -1.275  1.00  0.00     0.233 C 
HETATM   36  N6  UNL     1       2.126  -0.060  -1.846  1.00  0.00    -0.074 N 
ATOM     37  H62 UNL     1       1.533  -0.195  -2.665  1.00  0.00     0.277 HD
ATOM     38  H61 UNL     1       1.438   0.418  -1.264  1.00  0.00     0.277 HD
ENDBRANCH  25  26
ENDBRANCH  24  25
ENDBRANCH   1  24
TORSDOF 4
ENDMDL
MODEL 5
REMARK VINA RESULT: -10.078446244      2.683      7.021
REMARK  4 active torsions:
REMARK  status: ('A' for Active; 'I' for Inactive)
REMARK    1  A    between atoms: C1_2  and  C2_3 
REMARK       I    between atoms: C1_2  and  N5_28 
REMARK    2  A    between atoms: C2_3  and  S1_4 
REMARK    3  A    between atoms: S1_4  and  C3_5 
REMARK       I    between atoms: N3_11  and  C5_13 
REMARK    4  A    between atoms: C5_13  and  C6_15 
ROOT
HETATM    1  C3  UNL     1       1.956  -6.914  -0.286  1.00  0.00     0.134 A 
HETATM    2  N1  UNL     1       0.773  -7.002  -0.876  1.00  0.00    -0.286 N 
ATOM      3  H1  UNL     1       0.119  -7.762  -0.690  1.00  0.00     0.188 HD
HETATM    4  N2  UNL     1       0.519  -6.060  -1.693  1.00  0.00    -0.278 N 
ATOM      5  H2  UNL     1      -0.393  -6.170  -2.135  1.00  0.00     0.189 HD
HETATM    6  C4  UNL     1       1.086  -5.078  -2.071  1.00  0.00     0.168 A 
HETATM    7  N3  UNL     1       1.287  -3.856  -2.588  1.00  0.00    -0.304 N 
ATOM      8  H3  UNL     1       0.555  -3.226  -2.916  1.00  0.00     0.171 HD
HETATM    9  C5  UNL     1       2.726  -3.571  -2.608  1.00  0.00     0.260 C 
HETATM   10  O2  UNL     1       3.498  -4.539  -2.708  1.00  0.00    -0.270 OA
HETATM   11  S2  UNL     1       2.579  -5.480  -0.965  1.00  0.00    -0.026 SA
ENDROOT
BRANCH   9  12
HETATM   12  C6  UNL     1       3.297  -2.232  -2.515  1.00  0.00     0.206 C 
HETATM   13  C7  UNL     1       2.662  -1.691  -1.112  1.00  0.00     0.053 C 
HETATM   14  C8  UNL     1       3.083  -0.295  -0.972  1.00  0.00    -0.009 C 
HETATM   15  C9  UNL     1       4.607  -0.208  -0.824  1.00  0.00     0.009 C 
HETATM   16  C13 UNL     1       2.705   0.632  -2.109  1.00  0.00     0.037 C 
HETATM   17  C10 UNL     1       5.196  -0.736  -2.090  1.00  0.00    -0.009 C 
HETATM   18  C11 UNL     1       4.713   0.002  -3.315  1.00  0.00     0.037 C 
HETATM   19  C14 UNL     1       4.728  -2.190  -2.260  1.00  0.00     0.053 C 
HETATM   20  C12 UNL     1       3.227  -0.024  -3.393  1.00  0.00     0.188 C 
HETATM   21  N4  UNL     1       2.674  -1.342  -3.434  1.00  0.00    -0.053 N 
ATOM     22  H42 UNL     1       2.700  -1.719  -4.381  1.00  0.00     0.279 HD
ATOM     23  H41 UNL     1       1.665  -1.318  -3.291  1.00  0.00     0.279 HD
ENDBRANCH   9  12
BRANCH   1  24
HETATM   24  S1  UNL     1       2.900  -8.005   0.794  1.00  0.00    -0.070 SA
BRANCH  24  25
HETATM   25  C2  UNL     1       3.710  -9.300  -0.038  1.00  0.00     0.126 C 
BRANCH  25  26
HETATM   26  C1  UNL     1       4.852  -9.096  -0.901  1.00  0.00     0.250 C 
HETATM   27  O1  UNL     1       4.731  -9.471  -2.115  1.00  0.00    -0.268 OA
HETATM   28  N5  UNL     1       6.053  -8.522  -0.515  1.00  0.00    -0.347 N 
HETATM   29  C15 UNL     1       6.594  -8.019   0.712  1.00  0.00     0.127 C 
HETATM   30  C21 UNL     1       7.161  -8.225  -1.488  1.00  0.00     0.137 C 
HETATM   31  C16 UNL     1       6.929  -6.592   0.273  1.00  0.00     0.033 C 
HETATM   32  C17 UNL     1       7.351  -6.738  -1.175  1.00  0.00     0.003 C 
HETATM   33  C18 UNL     1       6.471  -5.886  -2.071  1.00  0.00     0.040 C 
HETATM   34  C20 UNL     1       8.743  -6.315  -1.423  1.00  0.00     0.243 C 
HETATM   35  C19 UNL     1       7.334  -4.674  -2.271  1.00  0.00     0.233 C 
HETATM   36  N6  UNL     1       8.711  -5.071  -2.173  1.00  0.00    -0.074 N 
ATOM     37  H62 UNL     1       9.175  -5.138  -3.079  1.00  0.00     0.277 HD
ATOM     38  H61 UNL     1       9.309  -4.347  -1.774  1.00  0.00     0.277 HD
ENDBRANCH  25  26
ENDBRANCH  24  25
ENDBRANCH   1  24
TORSDOF 4
ENDMDL
