MODEL 1
REMARK VINA RESULT: -8.738618126      0.000      0.000
REMARK  8 active torsions:
REMARK  status: ('A' for Active; 'I' for Inactive)
REMARK    1  A    between atoms: C2_2  and  O1_4 
REMARK    2  A    between atoms: O1_4  and  C4_5 
REMARK    3  A    between atoms: C8_10  and  N1_11 
REMARK    4  A    between atoms: N1_11  and  C9_13 
REMARK    5  A    between atoms: C12_16  and  S1_17 
REMARK    6  A    between atoms: S1_17  and  C13_18 
REMARK    7  A    between atoms: C16_25  and  N3_26 
REMARK    8  A    between atoms: C18_32  and  S2_33 
ROOT
HETATM    1  C4  UNL     1      -1.902   2.622   9.105  1.00  0.00     0.114 A 
HETATM    2  C5  UNL     1      -2.126   3.880   8.546  1.00  0.00     0.070 A 
HETATM    3 CL1  UNL     1      -1.419   4.402   7.020  1.00  0.00    -0.081 Cl
HETATM    4  C6  UNL     1      -2.965   4.801   9.141  1.00  0.00     0.044 A 
HETATM    5  C7  UNL     1      -3.615   4.509  10.318  1.00  0.00     0.039 A 
HETATM    6  C8  UNL     1      -4.421   5.493  10.875  1.00  0.00     0.134 A 
HETATM    7  N2  UNL     1      -5.020   5.186  12.039  1.00  0.00    -0.176 N 
ATOM      8  H2  UNL     1      -5.623   5.878  12.485  1.00  0.00     0.186 HD
HETATM    9  C16 UNL     1      -4.845   3.994  12.628  1.00  0.00     0.678 A 
HETATM   10  N4  UNL     1      -4.046   3.046  12.055  1.00  0.00    -0.190 N 
ATOM     11  H4  UNL     1      -3.928   2.148  12.524  1.00  0.00     0.184 HD
HETATM   12  C17 UNL     1      -3.414   3.262  10.899  1.00  0.00     0.087 A 
HETATM   13  C18 UNL     1      -2.559   2.327  10.278  1.00  0.00     0.122 A 
ENDROOT
BRANCH   6  14
HETATM   14  N1  UNL     1      -4.542   6.593  10.267  1.00  0.00    -0.341 N 
ATOM     15  H1  UNL     1      -3.676   7.033   9.955  1.00  0.00     0.167 HD
BRANCH  14  16
HETATM   16  C9  UNL     1      -5.727   7.279   9.972  1.00  0.00     0.033 A 
HETATM   17  C10 UNL     1      -5.754   8.023   8.796  1.00  0.00     0.031 A 
HETATM   18  C11 UNL     1      -6.855   8.741   8.391  1.00  0.00     0.021 A 
HETATM   19  C12 UNL     1      -7.981   8.736   9.164  1.00  0.00     0.005 A 
HETATM   20  C14 UNL     1      -7.982   8.005  10.336  1.00  0.00     0.021 A 
HETATM   21  C15 UNL     1      -6.857   7.279  10.737  1.00  0.00     0.031 A 
BRANCH  19  22
HETATM   22  S1  UNL     1      -9.445   9.647   8.693  1.00  0.00    -0.061 SA
BRANCH  22  23
HETATM   23  C13 UNL     1      -9.620  11.028   9.872  1.00  0.00     0.420 C 
HETATM   24  F1  UNL     1     -10.386  10.571  10.929  1.00  0.00    -0.202 F 
HETATM   25  F2  UNL     1      -8.357  11.369  10.363  1.00  0.00    -0.202 F 
ENDBRANCH  22  23
ENDBRANCH  19  22
ENDBRANCH  14  16
ENDBRANCH   6  14
BRANCH   9  26
HETATM   26  N3  UNL     1      -5.422   3.722  13.736  1.00  0.00    -0.234 N 
ATOM     27  H32 UNL     1      -5.973   2.866  13.805  1.00  0.00     0.174 HD
ATOM     28  H31 UNL     1      -5.335   4.347  14.537  1.00  0.00     0.174 HD
ENDBRANCH   9  26
BRANCH  13  29
HETATM   29  S2  UNL     1      -2.497   0.752  10.998  1.00  0.00     0.176 S 
HETATM   30  C19 UNL     1      -1.199   0.561  12.175  1.00  0.00     0.167 C 
HETATM   31  O2  UNL     1      -3.854   0.292  11.549  1.00  0.00    -0.223 OA
HETATM   32  O3  UNL     1      -2.256  -0.344   9.943  1.00  0.00    -0.223 OA
ENDBRANCH  13  29
BRANCH   1  33
HETATM   33  O1  UNL     1      -1.055   1.758   8.485  1.00  0.00    -0.343 OA
BRANCH  33  34
HETATM   34  C2  UNL     1       0.332   1.600   8.711  1.00  0.00     0.121 C 
HETATM   35  C1  UNL     1       1.182   2.605   7.929  1.00  0.00     0.040 C 
HETATM   36  C3  UNL     1       0.882   0.217   8.497  1.00  0.00     0.040 C 
ENDBRANCH  33  34
ENDBRANCH   1  33
TORSDOF 8
ENDMDL
MODEL 2
REMARK VINA RESULT: -8.684631525      5.949      8.377
REMARK  8 active torsions:
REMARK  status: ('A' for Active; 'I' for Inactive)
REMARK    1  A    between atoms: C2_2  and  O1_4 
REMARK    2  A    between atoms: O1_4  and  C4_5 
REMARK    3  A    between atoms: C8_10  and  N1_11 
REMARK    4  A    between atoms: N1_11  and  C9_13 
REMARK    5  A    between atoms: C12_16  and  S1_17 
REMARK    6  A    between atoms: S1_17  and  C13_18 
REMARK    7  A    between atoms: C16_25  and  N3_26 
REMARK    8  A    between atoms: C18_32  and  S2_33 
ROOT
HETATM    1  C4  UNL     1      -3.381   2.757  10.720  1.00  0.00     0.114 A 
HETATM    2  C5  UNL     1      -3.152   3.936  10.010  1.00  0.00     0.070 A 
HETATM    3 CL1  UNL     1      -4.176   5.363  10.147  1.00  0.00    -0.081 Cl
HETATM    4  C6  UNL     1      -2.067   4.080   9.171  1.00  0.00     0.044 A 
HETATM    5  C7  UNL     1      -1.163   3.056   9.001  1.00  0.00     0.039 A 
HETATM    6  C8  UNL     1      -0.110   3.261   8.118  1.00  0.00     0.134 A 
HETATM    7  N2  UNL     1       0.740   2.232   7.954  1.00  0.00    -0.176 N 
ATOM      8  H2  UNL     1       1.529   2.336   7.316  1.00  0.00     0.186 HD
HETATM    9  C16 UNL     1       0.576   1.071   8.607  1.00  0.00     0.678 A 
HETATM   10  N4  UNL     1      -0.470   0.901   9.468  1.00  0.00    -0.190 N 
ATOM     11  H4  UNL     1      -0.574   0.009   9.952  1.00  0.00     0.184 HD
HETATM   12  C17 UNL     1      -1.361   1.869   9.696  1.00  0.00     0.087 A 
HETATM   13  C18 UNL     1      -2.472   1.737  10.556  1.00  0.00     0.122 A 
ENDROOT
BRANCH   6  14
HETATM   14  N1  UNL     1      -0.015   4.377   7.537  1.00  0.00    -0.341 N 
ATOM     15  H1  UNL     1      -0.852   4.960   7.540  1.00  0.00     0.167 HD
BRANCH  14  16
HETATM   16  C9  UNL     1       1.107   4.909   6.889  1.00  0.00     0.033 A 
HETATM   17  C10 UNL     1       0.897   5.988   6.035  1.00  0.00     0.031 A 
HETATM   18  C11 UNL     1       1.913   6.601   5.340  1.00  0.00     0.021 A 
HETATM   19  C12 UNL     1       3.192   6.145   5.481  1.00  0.00     0.005 A 
HETATM   20  C14 UNL     1       3.431   5.076   6.323  1.00  0.00     0.021 A 
HETATM   21  C15 UNL     1       2.390   4.462   7.024  1.00  0.00     0.031 A 
BRANCH  19  22
HETATM   22  S1  UNL     1       4.557   6.899   4.607  1.00  0.00    -0.061 SA
BRANCH  22  23
HETATM   23  C13 UNL     1       4.576   6.189   2.927  1.00  0.00     0.420 C 
HETATM   24  F1  UNL     1       4.184   4.868   3.036  1.00  0.00    -0.202 F 
HETATM   25  F2  UNL     1       3.638   6.861   2.139  1.00  0.00    -0.202 F 
ENDBRANCH  22  23
ENDBRANCH  19  22
ENDBRANCH  14  16
ENDBRANCH   6  14
BRANCH   9  26
HETATM   26  N3  UNL     1       1.393   0.104   8.435  1.00  0.00    -0.234 N 
ATOM     27  H32 UNL     1       1.496  -0.589   9.177  1.00  0.00     0.174 HD
ATOM     28  H31 UNL     1       1.934   0.024   7.574  1.00  0.00     0.174 HD
ENDBRANCH   9  26
BRANCH  13  29
HETATM   29  S2  UNL     1      -2.544   0.279  11.492  1.00  0.00     0.176 S 
HETATM   30  C19 UNL     1      -1.497   0.296  12.910  1.00  0.00     0.167 C 
HETATM   31  O2  UNL     1      -3.979  -0.142  11.835  1.00  0.00    -0.223 OA
HETATM   32  O3  UNL     1      -2.099  -0.944  10.670  1.00  0.00    -0.223 OA
ENDBRANCH  13  29
BRANCH   1  33
HETATM   33  O1  UNL     1      -4.473   2.663  11.523  1.00  0.00    -0.343 OA
BRANCH  33  34
HETATM   34  C2  UNL     1      -4.602   3.109  12.859  1.00  0.00     0.121 C 
HETATM   35  C1  UNL     1      -5.390   4.417  12.978  1.00  0.00     0.040 C 
HETATM   36  C3  UNL     1      -3.323   3.230  13.640  1.00  0.00     0.040 C 
ENDBRANCH  33  34
ENDBRANCH   1  33
TORSDOF 8
ENDMDL
MODEL 3
REMARK VINA RESULT: -8.598176199      5.534      7.930
REMARK  8 active torsions:
REMARK  status: ('A' for Active; 'I' for Inactive)
REMARK    1  A    between atoms: C2_2  and  O1_4 
REMARK    2  A    between atoms: O1_4  and  C4_5 
REMARK    3  A    between atoms: C8_10  and  N1_11 
REMARK    4  A    between atoms: N1_11  and  C9_13 
REMARK    5  A    between atoms: C12_16  and  S1_17 
REMARK    6  A    between atoms: S1_17  and  C13_18 
REMARK    7  A    between atoms: C16_25  and  N3_26 
REMARK    8  A    between atoms: C18_32  and  S2_33 
ROOT
HETATM    1  C4  UNL     1      -3.416   2.834  10.681  1.00  0.00     0.114 A 
HETATM    2  C5  UNL     1      -3.245   4.012   9.953  1.00  0.00     0.070 A 
HETATM    3 CL1  UNL     1      -4.334   5.391  10.073  1.00  0.00    -0.081 Cl
HETATM    4  C6  UNL     1      -2.170   4.194   9.107  1.00  0.00     0.044 A 
HETATM    5  C7  UNL     1      -1.220   3.211   8.948  1.00  0.00     0.039 A 
HETATM    6  C8  UNL     1      -0.181   3.451   8.058  1.00  0.00     0.134 A 
HETATM    7  N2  UNL     1       0.715   2.461   7.905  1.00  0.00    -0.176 N 
ATOM      8  H2  UNL     1       1.496   2.593   7.262  1.00  0.00     0.186 HD
HETATM    9  C16 UNL     1       0.608   1.304   8.575  1.00  0.00     0.678 A 
HETATM   10  N4  UNL     1      -0.426   1.098   9.444  1.00  0.00    -0.190 N 
ATOM     11  H4  UNL     1      -0.486   0.209   9.941  1.00  0.00     0.184 HD
HETATM   12  C17 UNL     1      -1.360   2.026   9.661  1.00  0.00     0.087 A 
HETATM   13  C18 UNL     1      -2.461   1.855  10.528  1.00  0.00     0.122 A 
ENDROOT
BRANCH   6  14
HETATM   14  N1  UNL     1      -0.141   4.563   7.460  1.00  0.00    -0.341 N 
ATOM     15  H1  UNL     1      -0.999   5.114   7.474  1.00  0.00     0.167 HD
BRANCH  14  16
HETATM   16  C9  UNL     1       0.946   5.126   6.780  1.00  0.00     0.033 A 
HETATM   17  C10 UNL     1       0.663   6.093   5.819  1.00  0.00     0.031 A 
HETATM   18  C11 UNL     1       1.639   6.723   5.082  1.00  0.00     0.021 A 
HETATM   19  C12 UNL     1       2.949   6.400   5.289  1.00  0.00     0.005 A 
HETATM   20  C14 UNL     1       3.259   5.444   6.238  1.00  0.00     0.021 A 
HETATM   21  C15 UNL     1       2.259   4.811   6.980  1.00  0.00     0.031 A 
BRANCH  19  22
HETATM   22  S1  UNL     1       4.264   7.183   4.366  1.00  0.00    -0.061 SA
BRANCH  22  23
HETATM   23  C13 UNL     1       3.994   8.984   4.470  1.00  0.00     0.420 C 
HETATM   24  F1  UNL     1       3.047   9.313   3.518  1.00  0.00    -0.202 F 
HETATM   25  F2  UNL     1       3.474   9.293   5.730  1.00  0.00    -0.202 F 
ENDBRANCH  22  23
ENDBRANCH  19  22
ENDBRANCH  14  16
ENDBRANCH   6  14
BRANCH   9  26
HETATM   26  N3  UNL     1       1.469   0.373   8.415  1.00  0.00    -0.234 N 
ATOM     27  H32 UNL     1       1.686   0.064   7.467  1.00  0.00     0.174 HD
ATOM     28  H31 UNL     1       1.932  -0.053   9.217  1.00  0.00     0.174 HD
ENDBRANCH   9  26
BRANCH  13  29
HETATM   29  S2  UNL     1      -2.461   0.410  11.486  1.00  0.00     0.176 S 
HETATM   30  C19 UNL     1      -1.375   0.479  12.872  1.00  0.00     0.167 C 
HETATM   31  O2  UNL     1      -3.872  -0.050  11.876  1.00  0.00    -0.223 OA
HETATM   32  O3  UNL     1      -2.002  -0.812  10.668  1.00  0.00    -0.223 OA
ENDBRANCH  13  29
BRANCH   1  33
HETATM   33  O1  UNL     1      -4.500   2.700  11.490  1.00  0.00    -0.343 OA
BRANCH  33  34
HETATM   34  C2  UNL     1      -4.651   3.175  12.814  1.00  0.00     0.121 C 
HETATM   35  C1  UNL     1      -5.466   4.468  12.896  1.00  0.00     0.040 C 
HETATM   36  C3  UNL     1      -3.381   3.341  13.604  1.00  0.00     0.040 C 
ENDBRANCH  33  34
ENDBRANCH   1  33
TORSDOF 8
ENDMDL
MODEL 4
REMARK VINA RESULT: -8.514897893      5.693      8.273
REMARK  8 active torsions:
REMARK  status: ('A' for Active; 'I' for Inactive)
REMARK    1  A    between atoms: C2_2  and  O1_4 
REMARK    2  A    between atoms: O1_4  and  C4_5 
REMARK    3  A    between atoms: C8_10  and  N1_11 
REMARK    4  A    between atoms: N1_11  and  C9_13 
REMARK    5  A    between atoms: C12_16  and  S1_17 
REMARK    6  A    between atoms: S1_17  and  C13_18 
REMARK    7  A    between atoms: C16_25  and  N3_26 
REMARK    8  A    between atoms: C18_32  and  S2_33 
ROOT
HETATM    1  C4  UNL     1      -0.043   3.762   7.876  1.00  0.00     0.114 A 
HETATM    2  C5  UNL     1      -0.292   2.515   8.448  1.00  0.00     0.070 A 
HETATM    3 CL1  UNL     1       0.766   1.123   8.234  1.00  0.00    -0.081 Cl
HETATM    4  C6  UNL     1      -1.381   2.294   9.267  1.00  0.00     0.044 A 
HETATM    5  C7  UNL     1      -2.269   3.306   9.551  1.00  0.00     0.039 A 
HETATM    6  C8  UNL     1      -3.357   3.006  10.360  1.00  0.00     0.134 A 
HETATM    7  N2  UNL     1      -4.220   4.009  10.596  1.00  0.00    -0.176 N 
ATOM      8  H2  UNL     1      -5.035   3.835  11.186  1.00  0.00     0.186 HD
HETATM    9  C16 UNL     1      -4.039   5.232  10.076  1.00  0.00     0.678 A 
HETATM   10  N4  UNL     1      -2.957   5.497   9.285  1.00  0.00    -0.190 N 
ATOM     11  H4  UNL     1      -2.842   6.435   8.900  1.00  0.00     0.184 HD
HETATM   12  C17 UNL     1      -2.047   4.563   8.999  1.00  0.00     0.087 A 
HETATM   13  C18 UNL     1      -0.927   4.776   8.168  1.00  0.00     0.122 A 
ENDROOT
BRANCH   6  14
HETATM   14  N1  UNL     1      -3.468   1.834  10.816  1.00  0.00    -0.341 N 
ATOM     15  H1  UNL     1      -4.319   1.331  10.565  1.00  0.00     0.167 HD
BRANCH  14  16
HETATM   16  C9  UNL     1      -2.557   1.145  11.627  1.00  0.00     0.033 A 
HETATM   17  C10 UNL     1      -2.094  -0.083  11.162  1.00  0.00     0.031 A 
HETATM   18  C11 UNL     1      -1.199  -0.858  11.861  1.00  0.00     0.021 A 
HETATM   19  C12 UNL     1      -0.732  -0.420  13.067  1.00  0.00     0.005 A 
HETATM   20  C14 UNL     1      -1.174   0.795  13.553  1.00  0.00     0.021 A 
HETATM   21  C15 UNL     1      -2.084   1.574  12.833  1.00  0.00     0.031 A 
BRANCH  19  22
HETATM   22  S1  UNL     1       0.434  -1.379  14.025  1.00  0.00    -0.061 SA
BRANCH  22  23
HETATM   23  C13 UNL     1       0.160  -0.962  15.779  1.00  0.00     0.420 C 
HETATM   24  F1  UNL     1      -0.623  -1.963  16.321  1.00  0.00    -0.202 F 
HETATM   25  F2  UNL     1       1.389  -0.959  16.443  1.00  0.00    -0.202 F 
ENDBRANCH  22  23
ENDBRANCH  19  22
ENDBRANCH  14  16
ENDBRANCH   6  14
BRANCH   9  26
HETATM   26  N3  UNL     1      -4.872   6.173  10.311  1.00  0.00    -0.234 N 
ATOM     27  H32 UNL     1      -4.618   7.127  10.058  1.00  0.00     0.174 HD
ATOM     28  H31 UNL     1      -5.774   5.974  10.743  1.00  0.00     0.174 HD
ENDBRANCH   9  26
BRANCH  13  29
HETATM   29  S2  UNL     1      -0.656   6.411   7.657  1.00  0.00     0.176 S 
HETATM   30  C19 UNL     1      -0.372   6.573   5.925  1.00  0.00     0.167 C 
HETATM   31  O2  UNL     1      -1.731   7.382   8.162  1.00  0.00    -0.223 OA
HETATM   32  O3  UNL     1       0.587   7.017   8.333  1.00  0.00    -0.223 OA
ENDBRANCH  13  29
BRANCH   1  33
HETATM   33  O1  UNL     1       1.036   3.922   7.065  1.00  0.00    -0.343 OA
BRANCH  33  34
HETATM   34  C2  UNL     1       2.366   4.213   7.448  1.00  0.00     0.121 C 
HETATM   35  C1  UNL     1       3.023   5.277   6.564  1.00  0.00     0.040 C 
HETATM   36  C3  UNL     1       3.291   3.032   7.569  1.00  0.00     0.040 C 
ENDBRANCH  33  34
ENDBRANCH   1  33
TORSDOF 8
ENDMDL
MODEL 5
REMARK VINA RESULT: -8.508768585      5.905      8.114
REMARK  8 active torsions:
REMARK  status: ('A' for Active; 'I' for Inactive)
REMARK    1  A    between atoms: C2_2  and  O1_4 
REMARK    2  A    between atoms: O1_4  and  C4_5 
REMARK    3  A    between atoms: C8_10  and  N1_11 
REMARK    4  A    between atoms: N1_11  and  C9_13 
REMARK    5  A    between atoms: C12_16  and  S1_17 
REMARK    6  A    between atoms: S1_17  and  C13_18 
REMARK    7  A    between atoms: C16_25  and  N3_26 
REMARK    8  A    between atoms: C18_32  and  S2_33 
ROOT
HETATM    1  C4  UNL     1       1.684   5.877   6.732  1.00  0.00     0.114 A 
HETATM    2  C5  UNL     1       1.231   4.618   7.125  1.00  0.00     0.070 A 
HETATM    3 CL1  UNL     1       2.301   3.247   7.400  1.00  0.00    -0.081 Cl
HETATM    4  C6  UNL     1      -0.104   4.369   7.370  1.00  0.00     0.044 A 
HETATM    5  C7  UNL     1      -1.046   5.363   7.231  1.00  0.00     0.039 A 
HETATM    6  C8  UNL     1      -2.375   5.034   7.466  1.00  0.00     0.134 A 
HETATM    7  N2  UNL     1      -3.273   6.019   7.296  1.00  0.00    -0.176 N 
ATOM      8  H2  UNL     1      -4.262   5.824   7.458  1.00  0.00     0.186 HD
HETATM    9  C16 UNL     1      -2.903   7.252   6.918  1.00  0.00     0.678 A 
HETATM   10  N4  UNL     1      -1.588   7.545   6.695  1.00  0.00    -0.190 N 
ATOM     11  H4  UNL     1      -1.332   8.490   6.408  1.00  0.00     0.184 HD
HETATM   12  C17 UNL     1      -0.627   6.630   6.843  1.00  0.00     0.087 A 
HETATM   13  C18 UNL     1       0.742   6.873   6.601  1.00  0.00     0.122 A 
ENDROOT
BRANCH   6  14
HETATM   14  N1  UNL     1      -2.654   3.854   7.819  1.00  0.00    -0.341 N 
ATOM     15  H1  UNL     1      -2.843   3.191   7.067  1.00  0.00     0.167 HD
BRANCH  14  16
HETATM   16  C9  UNL     1      -2.733   3.350   9.123  1.00  0.00     0.033 A 
HETATM   17  C10 UNL     1      -1.795   2.391   9.492  1.00  0.00     0.031 A 
HETATM   18  C11 UNL     1      -1.762   1.817  10.742  1.00  0.00     0.021 A 
HETATM   19  C12 UNL     1      -2.686   2.193  11.676  1.00  0.00     0.005 A 
HETATM   20  C14 UNL     1      -3.629   3.144  11.337  1.00  0.00     0.021 A 
HETATM   21  C15 UNL     1      -3.651   3.719  10.064  1.00  0.00     0.031 A 
BRANCH  19  22
HETATM   22  S1  UNL     1      -2.698   1.487  13.318  1.00  0.00    -0.061 SA
BRANCH  22  23
HETATM   23  C13 UNL     1      -1.036   0.794  13.617  1.00  0.00     0.420 C 
HETATM   24  F1  UNL     1      -0.331   1.726  14.355  1.00  0.00    -0.202 F 
HETATM   25  F2  UNL     1      -1.160  -0.369  14.381  1.00  0.00    -0.202 F 
ENDBRANCH  22  23
ENDBRANCH  19  22
ENDBRANCH  14  16
ENDBRANCH   6  14
BRANCH   9  26
HETATM   26  N3  UNL     1      -3.773   8.176   6.760  1.00  0.00    -0.234 N 
ATOM     27  H32 UNL     1      -4.156   8.334   5.828  1.00  0.00     0.174 HD
ATOM     28  H31 UNL     1      -4.079   8.745   7.549  1.00  0.00     0.174 HD
ENDBRANCH   9  26
BRANCH  13  29
HETATM   29  S2  UNL     1       1.179   8.518   6.274  1.00  0.00     0.176 S 
HETATM   30  C19 UNL     1       0.969   8.984   4.587  1.00  0.00     0.167 C 
HETATM   31  O2  UNL     1       0.523   9.515   7.238  1.00  0.00    -0.223 OA
HETATM   32  O3  UNL     1       2.663   8.783   6.589  1.00  0.00    -0.223 OA
ENDBRANCH  13  29
BRANCH   1  33
HETATM   33  O1  UNL     1       3.007   6.066   6.490  1.00  0.00    -0.343 OA
BRANCH  33  34
HETATM   34  C2  UNL     1       3.707   5.821   5.285  1.00  0.00     0.121 C 
HETATM   35  C1  UNL     1       2.794   5.813   4.056  1.00  0.00     0.040 C 
HETATM   36  C3  UNL     1       4.574   4.592   5.264  1.00  0.00     0.040 C 
ENDBRANCH  33  34
ENDBRANCH   1  33
TORSDOF 8
ENDMDL
