MODEL 1
REMARK VINA RESULT: -8.193253754      0.000      0.000
REMARK  9 active torsions:
REMARK  status: ('A' for Active; 'I' for Inactive)
REMARK    1  A    between atoms: C2_2  and  C3_3 
REMARK    2  A    between atoms: C3_3  and  N1_4 
REMARK    3  A    between atoms: C5_7  and  N2_8 
REMARK    4  A    between atoms: N2_8  and  C6_10 
REMARK    5  A    between atoms: C6_10  and  C8_12 
REMARK    6  A    between atoms: C12_22  and  N6_23 
REMARK    7  A    between atoms: N6_23  and  C13_25 
REMARK    8  A    between atoms: C16_29  and  C17_30 
REMARK    9  A    between atoms: C17_30  and  N7_31 
ROOT
HETATM    1  N1  UNL     1      -2.294   3.448   9.141  1.00  0.00    -0.305 N 
HETATM    2  C4  UNL     1      -2.496   2.441  10.002  1.00  0.00     0.292 A 
HETATM    3  O1  UNL     1      -1.779   1.445   9.906  1.00  0.00    -0.264 OA
HETATM    4  C5  UNL     1      -3.449   2.488  10.962  1.00  0.00     0.172 A 
HETATM    5  N3  UNL     1      -4.242   3.583  11.057  1.00  0.00    -0.322 N 
ATOM      6  H3  UNL     1      -4.976   3.640  11.763  1.00  0.00     0.169 HD
HETATM    7  C10 UNL     1      -4.036   4.579  10.205  1.00  0.00     0.139 A 
HETATM    8  N4  UNL     1      -4.716   5.773  10.369  1.00  0.00    -0.337 N 
ATOM      9  H4  UNL     1      -5.467   5.819  11.056  1.00  0.00     0.168 HD
HETATM   10  C11 UNL     1      -4.431   6.844   9.675  1.00  0.00     0.183 A 
HETATM   11  N5  UNL     1      -3.435   6.840   8.745  1.00  0.00    -0.337 N 
ATOM     12  H5  UNL     1      -3.207   7.685   8.223  1.00  0.00     0.168 HD
HETATM   13  C12 UNL     1      -2.767   5.709   8.532  1.00  0.00     0.138 A 
HETATM   14  C20 UNL     1      -3.039   4.543   9.225  1.00  0.00     0.126 A 
ENDROOT
BRANCH  13  15
HETATM   15  N6  UNL     1      -1.548   5.725   7.993  1.00  0.00    -0.339 N 
ATOM     16  H6  UNL     1      -0.773   5.184   8.377  1.00  0.00     0.167 HD
BRANCH  15  17
HETATM   17  C13 UNL     1      -1.402   6.560   6.828  1.00  0.00     0.059 A 
HETATM   18  C14 UNL     1      -2.315   6.668   5.844  1.00  0.00     0.056 A 
HETATM   19  C15 UNL     1      -2.183   7.585   4.861  1.00  0.00     0.045 A 
HETATM   20 CL1  UNL     1      -3.367   7.695   3.534  1.00  0.00    -0.084 Cl
HETATM   21  C16 UNL     1      -1.080   8.446   4.852  1.00  0.00     0.012 A 
HETATM   22  C18 UNL     1      -0.145   8.358   5.814  1.00  0.00     0.067 A 
HETATM   23 CL2  UNL     1       1.200   9.448   5.869  1.00  0.00    -0.082 Cl
HETATM   24  C19 UNL     1      -0.267   7.406   6.840  1.00  0.00     0.083 A 
HETATM   25 CL3  UNL     1       0.887   7.299   8.094  1.00  0.00    -0.080 Cl
BRANCH  21  26
HETATM   26  C17 UNL     1      -1.213   9.549   3.876  1.00  0.00     0.271 C 
BRANCH  26  27
HETATM   27  N7  UNL     1      -1.912  10.703   4.358  1.00  0.00    -0.075 N 
ATOM     28  H73 UNL     1      -2.832  10.437   4.710  1.00  0.00     0.274 HD
ATOM     29  H72 UNL     1      -1.483  11.039   5.220  1.00  0.00     0.274 HD
ATOM     30  H71 UNL     1      -1.999  11.465   3.687  1.00  0.00     0.274 HD
ENDBRANCH  26  27
ENDBRANCH  21  26
ENDBRANCH  15  17
ENDBRANCH  13  15
BRANCH   1  31
HETATM   31  C3  UNL     1      -1.424   3.292   7.969  1.00  0.00     0.132 C 
BRANCH  31  32
HETATM   32  C2  UNL     1      -0.022   3.225   8.715  1.00  0.00     0.016 C 
HETATM   33  C1  UNL     1       1.166   3.275   7.815  1.00  0.00     0.006 C 
ENDBRANCH  31  32
ENDBRANCH   1  31
BRANCH   4  34
HETATM   34  N2  UNL     1      -3.596   1.552  11.797  1.00  0.00    -0.367 N 
ATOM     35  H2  UNL     1      -4.057   0.726  11.416  1.00  0.00     0.161 HD
BRANCH  34  36
HETATM   36  C6  UNL     1      -3.244   1.433  13.152  1.00  0.00     0.079 C 
HETATM   37  C7  UNL     1      -2.748   2.756  13.750  1.00  0.00     0.032 C 
BRANCH  36  38
HETATM   38  C8  UNL     1      -1.973   0.505  13.145  1.00  0.00     0.020 C 
HETATM   39  C9  UNL     1      -0.862   1.366  13.631  1.00  0.00     0.007 C 
ENDBRANCH  36  38
ENDBRANCH  34  36
ENDBRANCH   4  34
TORSDOF 9
ENDMDL
MODEL 2
REMARK VINA RESULT: -7.983347488      1.448      1.450
REMARK  9 active torsions:
REMARK  status: ('A' for Active; 'I' for Inactive)
REMARK    1  A    between atoms: C2_2  and  C3_3 
REMARK    2  A    between atoms: C3_3  and  N1_4 
REMARK    3  A    between atoms: C5_7  and  N2_8 
REMARK    4  A    between atoms: N2_8  and  C6_10 
REMARK    5  A    between atoms: C6_10  and  C8_12 
REMARK    6  A    between atoms: C12_22  and  N6_23 
REMARK    7  A    between atoms: N6_23  and  C13_25 
REMARK    8  A    between atoms: C16_29  and  C17_30 
REMARK    9  A    between atoms: C17_30  and  N7_31 
ROOT
HETATM    1  N1  UNL     1      -2.056   3.350   9.133  1.00  0.00    -0.305 N 
HETATM    2  C4  UNL     1      -2.414   2.393  10.001  1.00  0.00     0.292 A 
HETATM    3  O1  UNL     1      -1.804   1.325   9.969  1.00  0.00    -0.264 OA
HETATM    4  C5  UNL     1      -3.411   2.566  10.900  1.00  0.00     0.172 A 
HETATM    5  N3  UNL     1      -4.086   3.742  10.925  1.00  0.00    -0.322 N 
ATOM      6  H3  UNL     1      -4.849   3.895  11.584  1.00  0.00     0.169 HD
HETATM    7  C10 UNL     1      -3.724   4.687  10.067  1.00  0.00     0.139 A 
HETATM    8  N4  UNL     1      -4.281   5.950  10.166  1.00  0.00    -0.337 N 
ATOM      9  H4  UNL     1      -5.061   6.094  10.806  1.00  0.00     0.168 HD
HETATM   10  C11 UNL     1      -3.842   6.967   9.469  1.00  0.00     0.183 A 
HETATM   11  N5  UNL     1      -2.800   6.832   8.601  1.00  0.00    -0.337 N 
ATOM     12  H5  UNL     1      -2.453   7.635   8.077  1.00  0.00     0.168 HD
HETATM   13  C12 UNL     1      -2.247   5.632   8.452  1.00  0.00     0.138 A 
HETATM   14  C20 UNL     1      -2.683   4.520   9.150  1.00  0.00     0.126 A 
ENDROOT
BRANCH  13  15
HETATM   15  N6  UNL     1      -1.004   5.504   7.987  1.00  0.00    -0.339 N 
ATOM     16  H6  UNL     1      -0.241   5.143   8.559  1.00  0.00     0.167 HD
BRANCH  15  17
HETATM   17  C13 UNL     1      -0.815   5.913   6.619  1.00  0.00     0.059 A 
HETATM   18  C14 UNL     1      -1.800   6.327   5.800  1.00  0.00     0.056 A 
HETATM   19  C15 UNL     1      -1.530   6.842   4.580  1.00  0.00     0.045 A 
HETATM   20 CL1  UNL     1      -2.837   7.347   3.480  1.00  0.00    -0.084 Cl
HETATM   21  C16 UNL     1      -0.205   6.949   4.146  1.00  0.00     0.012 A 
HETATM   22  C18 UNL     1       0.802   6.534   4.934  1.00  0.00     0.067 A 
HETATM   23 CL2  UNL     1       2.457   6.710   4.453  1.00  0.00    -0.082 Cl
HETATM   24  C19 UNL     1       0.536   5.994   6.203  1.00  0.00     0.083 A 
HETATM   25 CL3  UNL     1       1.799   5.494   7.238  1.00  0.00    -0.080 Cl
BRANCH  21  26
HETATM   26  C17 UNL     1      -0.061   7.761   2.918  1.00  0.00     0.271 C 
BRANCH  26  27
HETATM   27  N7  UNL     1       0.211   7.013   1.726  1.00  0.00    -0.075 N 
ATOM     28  H73 UNL     1       0.507   7.638   0.977  1.00  0.00     0.274 HD
ATOM     29  H72 UNL     1       1.060   6.461   1.844  1.00  0.00     0.274 HD
ATOM     30  H71 UNL     1      -0.554   6.419   1.407  1.00  0.00     0.274 HD
ENDBRANCH  26  27
ENDBRANCH  21  26
ENDBRANCH  15  17
ENDBRANCH  13  15
BRANCH   1  31
HETATM   31  C3  UNL     1      -1.141   3.072   8.019  1.00  0.00     0.132 C 
BRANCH  31  32
HETATM   32  C2  UNL     1       0.169   2.746   8.857  1.00  0.00     0.016 C 
HETATM   33  C1  UNL     1       1.199   1.956   8.123  1.00  0.00     0.006 C 
ENDBRANCH  31  32
ENDBRANCH   1  31
BRANCH   4  34
HETATM   34  N2  UNL     1      -3.706   1.674  11.743  1.00  0.00    -0.367 N 
ATOM     35  H2  UNL     1      -4.261   0.910  11.359  1.00  0.00     0.161 HD
BRANCH  34  36
HETATM   36  C6  UNL     1      -3.413   1.533  13.110  1.00  0.00     0.079 C 
HETATM   37  C7  UNL     1      -2.895   2.834  13.737  1.00  0.00     0.032 C 
BRANCH  36  38
HETATM   38  C8  UNL     1      -2.176   0.562  13.146  1.00  0.00     0.020 C 
HETATM   39  C9  UNL     1      -1.030   1.408  13.572  1.00  0.00     0.007 C 
ENDBRANCH  36  38
ENDBRANCH  34  36
ENDBRANCH   4  34
TORSDOF 9
ENDMDL
MODEL 3
REMARK VINA RESULT: -7.942081392      3.206      6.756
REMARK  9 active torsions:
REMARK  status: ('A' for Active; 'I' for Inactive)
REMARK    1  A    between atoms: C2_2  and  C3_3 
REMARK    2  A    between atoms: C3_3  and  N1_4 
REMARK    3  A    between atoms: C5_7  and  N2_8 
REMARK    4  A    between atoms: N2_8  and  C6_10 
REMARK    5  A    between atoms: C6_10  and  C8_12 
REMARK    6  A    between atoms: C12_22  and  N6_23 
REMARK    7  A    between atoms: N6_23  and  C13_25 
REMARK    8  A    between atoms: C16_29  and  C17_30 
REMARK    9  A    between atoms: C17_30  and  N7_31 
ROOT
HETATM    1  N1  UNL     1      -3.056   6.058   9.106  1.00  0.00    -0.305 N 
HETATM    2  C4  UNL     1      -3.989   6.907   9.560  1.00  0.00     0.292 A 
HETATM    3  O1  UNL     1      -4.366   6.784  10.726  1.00  0.00    -0.264 OA
HETATM    4  C5  UNL     1      -4.519   7.883   8.787  1.00  0.00     0.172 A 
HETATM    5  N3  UNL     1      -4.108   8.007   7.501  1.00  0.00    -0.322 N 
ATOM      6  H3  UNL     1      -4.500   8.726   6.893  1.00  0.00     0.169 HD
HETATM    7  C10 UNL     1      -3.182   7.168   7.058  1.00  0.00     0.139 A 
HETATM    8  N4  UNL     1      -2.624   7.362   5.807  1.00  0.00    -0.337 N 
ATOM      9  H4  UNL     1      -3.034   8.062   5.190  1.00  0.00     0.168 HD
HETATM   10  C11 UNL     1      -1.590   6.680   5.385  1.00  0.00     0.183 A 
HETATM   11  N5  UNL     1      -1.000   5.733   6.169  1.00  0.00    -0.337 N 
ATOM     12  H5  UNL     1      -0.183   5.221   5.840  1.00  0.00     0.168 HD
HETATM   13  C12 UNL     1      -1.514   5.493   7.371  1.00  0.00     0.138 A 
HETATM   14  C20 UNL     1      -2.617   6.171   7.860  1.00  0.00     0.126 A 
ENDROOT
BRANCH  13  15
HETATM   15  N6  UNL     1      -0.776   4.933   8.332  1.00  0.00    -0.339 N 
ATOM     16  H6  UNL     1      -1.009   5.021   9.321  1.00  0.00     0.167 HD
BRANCH  15  17
HETATM   17  C13 UNL     1       0.372   4.195   7.873  1.00  0.00     0.059 A 
HETATM   18  C14 UNL     1       1.476   4.751   7.338  1.00  0.00     0.056 A 
HETATM   19  C15 UNL     1       2.576   4.013   7.073  1.00  0.00     0.045 A 
HETATM   20 CL1  UNL     1       4.019   4.740   6.323  1.00  0.00    -0.084 Cl
HETATM   21  C16 UNL     1       2.580   2.642   7.352  1.00  0.00     0.012 A 
HETATM   22  C18 UNL     1       1.491   2.053   7.876  1.00  0.00     0.067 A 
HETATM   23 CL2  UNL     1       1.484   0.372   8.292  1.00  0.00    -0.082 Cl
HETATM   24  C19 UNL     1       0.339   2.808   8.153  1.00  0.00     0.083 A 
HETATM   25 CL3  UNL     1      -1.044   2.092   8.853  1.00  0.00    -0.080 Cl
BRANCH  21  26
HETATM   26  C17 UNL     1       3.926   2.034   7.252  1.00  0.00     0.271 C 
BRANCH  26  27
HETATM   27  N7  UNL     1       4.598   1.844   8.503  1.00  0.00    -0.075 N 
ATOM     28  H73 UNL     1       5.276   2.591   8.656  1.00  0.00     0.274 HD
ATOM     29  H72 UNL     1       3.959   2.024   9.277  1.00  0.00     0.274 HD
ATOM     30  H71 UNL     1       5.044   0.935   8.618  1.00  0.00     0.274 HD
ENDBRANCH  26  27
ENDBRANCH  21  26
ENDBRANCH  15  17
ENDBRANCH  13  15
BRANCH   1  31
HETATM   31  C3  UNL     1      -2.662   4.869   9.874  1.00  0.00     0.132 C 
BRANCH  31  32
HETATM   32  C2  UNL     1      -3.983   4.007   9.680  1.00  0.00     0.016 C 
HETATM   33  C1  UNL     1      -4.383   3.203  10.871  1.00  0.00     0.006 C 
ENDBRANCH  31  32
ENDBRANCH   1  31
BRANCH   4  34
HETATM   34  N2  UNL     1      -5.362   8.705   9.242  1.00  0.00    -0.367 N 
ATOM     35  H2  UNL     1      -5.113   9.092  10.152  1.00  0.00     0.161 HD
BRANCH  34  36
HETATM   36  C6  UNL     1      -6.579   9.188   8.733  1.00  0.00     0.079 C 
HETATM   37  C7  UNL     1      -6.773  10.687   8.994  1.00  0.00     0.032 C 
BRANCH  36  38
HETATM   38  C8  UNL     1      -7.677   8.492   9.622  1.00  0.00     0.020 C 
HETATM   39  C9  UNL     1      -8.976   8.918   9.038  1.00  0.00     0.007 C 
ENDBRANCH  36  38
ENDBRANCH  34  36
ENDBRANCH   4  34
TORSDOF 9
ENDMDL
MODEL 4
REMARK VINA RESULT: -7.726841391      0.912      1.229
REMARK  9 active torsions:
REMARK  status: ('A' for Active; 'I' for Inactive)
REMARK    1  A    between atoms: C2_2  and  C3_3 
REMARK    2  A    between atoms: C3_3  and  N1_4 
REMARK    3  A    between atoms: C5_7  and  N2_8 
REMARK    4  A    between atoms: N2_8  and  C6_10 
REMARK    5  A    between atoms: C6_10  and  C8_12 
REMARK    6  A    between atoms: C12_22  and  N6_23 
REMARK    7  A    between atoms: N6_23  and  C13_25 
REMARK    8  A    between atoms: C16_29  and  C17_30 
REMARK    9  A    between atoms: C17_30  and  N7_31 
ROOT
HETATM    1  N1  UNL     1      -1.989   4.162   8.631  1.00  0.00    -0.305 N 
HETATM    2  C4  UNL     1      -2.051   3.115   9.465  1.00  0.00     0.292 A 
HETATM    3  O1  UNL     1      -1.173   2.256   9.382  1.00  0.00    -0.264 OA
HETATM    4  C5  UNL     1      -3.035   2.977  10.384  1.00  0.00     0.172 A 
HETATM    5  N3  UNL     1      -4.004   3.921  10.465  1.00  0.00    -0.322 N 
ATOM      6  H3  UNL     1      -4.764   3.836  11.140  1.00  0.00     0.169 HD
HETATM    7  C10 UNL     1      -3.935   4.958   9.641  1.00  0.00     0.139 A 
HETATM    8  N4  UNL     1      -4.813   6.017   9.797  1.00  0.00    -0.337 N 
ATOM      9  H4  UNL     1      -5.588   5.919  10.452  1.00  0.00     0.168 HD
HETATM   10  C11 UNL     1      -4.686   7.138   9.135  1.00  0.00     0.183 A 
HETATM   11  N5  UNL     1      -3.668   7.324   8.248  1.00  0.00    -0.337 N 
ATOM     12  H5  UNL     1      -3.566   8.208   7.751  1.00  0.00     0.168 HD
HETATM   13  C12 UNL     1      -2.812   6.327   8.044  1.00  0.00     0.138 A 
HETATM   14  C20 UNL     1      -2.910   5.114   8.703  1.00  0.00     0.126 A 
ENDROOT
BRANCH  13  15
HETATM   15  N6  UNL     1      -1.592   6.561   7.557  1.00  0.00    -0.339 N 
ATOM     16  H6  UNL     1      -0.749   6.186   7.992  1.00  0.00     0.167 HD
BRANCH  15  17
HETATM   17  C13 UNL     1      -1.551   7.379   6.372  1.00  0.00     0.059 A 
HETATM   18  C14 UNL     1      -2.578   7.542   5.517  1.00  0.00     0.056 A 
HETATM   19  C15 UNL     1      -2.520   8.444   4.513  1.00  0.00     0.045 A 
HETATM   20 CL1  UNL     1      -3.861   8.625   3.355  1.00  0.00    -0.084 Cl
HETATM   21  C16 UNL     1      -1.374   9.229   4.346  1.00  0.00     0.012 A 
HETATM   22  C18 UNL     1      -0.326   9.084   5.175  1.00  0.00     0.067 A 
HETATM   23 CL2  UNL     1       1.083  10.083   5.035  1.00  0.00    -0.082 Cl
HETATM   24  C19 UNL     1      -0.371   8.147   6.221  1.00  0.00     0.083 A 
HETATM   25 CL3  UNL     1       0.931   7.969   7.311  1.00  0.00    -0.080 Cl
BRANCH  21  26
HETATM   26  C17 UNL     1      -1.565  10.334   3.381  1.00  0.00     0.271 C 
BRANCH  26  27
HETATM   27  N7  UNL     1      -1.966  11.581   3.961  1.00  0.00    -0.075 N 
ATOM     28  H73 UNL     1      -1.417  11.774   4.798  1.00  0.00     0.274 HD
ATOM     29  H72 UNL     1      -1.668  12.357   3.370  1.00  0.00     0.274 HD
ATOM     30  H71 UNL     1      -2.962  11.659   4.168  1.00  0.00     0.274 HD
ENDBRANCH  26  27
ENDBRANCH  21  26
ENDBRANCH  15  17
ENDBRANCH  13  15
BRANCH   1  31
HETATM   31  C3  UNL     1      -1.059   4.184   7.494  1.00  0.00     0.132 C 
BRANCH  31  32
HETATM   32  C2  UNL     1       0.299   4.386   8.295  1.00  0.00     0.016 C 
HETATM   33  C1  UNL     1       1.478   3.683   7.711  1.00  0.00     0.006 C 
ENDBRANCH  31  32
ENDBRANCH   1  31
BRANCH   4  34
HETATM   34  N2  UNL     1      -3.054   2.009  11.195  1.00  0.00    -0.367 N 
ATOM     35  H2  UNL     1      -3.677   1.251  10.919  1.00  0.00     0.161 HD
BRANCH  34  36
HETATM   36  C6  UNL     1      -2.380   1.780  12.406  1.00  0.00     0.079 C 
HETATM   37  C7  UNL     1      -1.850   0.345  12.521  1.00  0.00     0.032 C 
BRANCH  36  38
HETATM   38  C8  UNL     1      -3.507   1.869  13.502  1.00  0.00     0.020 C 
HETATM   39  C9  UNL     1      -3.339   3.209  14.123  1.00  0.00     0.007 C 
ENDBRANCH  36  38
ENDBRANCH  34  36
ENDBRANCH   4  34
TORSDOF 9
ENDMDL
MODEL 5
REMARK VINA RESULT: -7.643353400      3.362      6.092
REMARK  9 active torsions:
REMARK  status: ('A' for Active; 'I' for Inactive)
REMARK    1  A    between atoms: C2_2  and  C3_3 
REMARK    2  A    between atoms: C3_3  and  N1_4 
REMARK    3  A    between atoms: C5_7  and  N2_8 
REMARK    4  A    between atoms: N2_8  and  C6_10 
REMARK    5  A    between atoms: C6_10  and  C8_12 
REMARK    6  A    between atoms: C12_22  and  N6_23 
REMARK    7  A    between atoms: N6_23  and  C13_25 
REMARK    8  A    between atoms: C16_29  and  C17_30 
REMARK    9  A    between atoms: C17_30  and  N7_31 
ROOT
HETATM    1  N1  UNL     1      -0.619   2.792   8.811  1.00  0.00    -0.305 N 
HETATM    2  C4  UNL     1       0.326   1.906   8.468  1.00  0.00     0.292 A 
HETATM    3  O1  UNL     1       0.036   0.710   8.496  1.00  0.00    -0.264 OA
HETATM    4  C5  UNL     1       1.571   2.282   8.094  1.00  0.00     0.172 A 
HETATM    5  N3  UNL     1       1.888   3.600   8.074  1.00  0.00    -0.322 N 
ATOM      6  H3  UNL     1       2.823   3.911   7.808  1.00  0.00     0.169 HD
HETATM    7  C10 UNL     1       0.948   4.473   8.410  1.00  0.00     0.139 A 
HETATM    8  N4  UNL     1       1.183   5.828   8.252  1.00  0.00    -0.337 N 
ATOM      9  H4  UNL     1       2.124   6.138   8.013  1.00  0.00     0.168 HD
HETATM   10  C11 UNL     1       0.242   6.725   8.398  1.00  0.00     0.183 A 
HETATM   11  N5  UNL     1      -1.034   6.367   8.715  1.00  0.00    -0.337 N 
ATOM     12  H5  UNL     1      -1.765   7.072   8.807  1.00  0.00     0.168 HD
HETATM   13  C12 UNL     1      -1.305   5.079   8.902  1.00  0.00     0.138 A 
HETATM   14  C20 UNL     1      -0.345   4.090   8.778  1.00  0.00     0.126 A 
ENDROOT
BRANCH  13  15
HETATM   15  N6  UNL     1      -2.551   4.617   8.782  1.00  0.00    -0.339 N 
ATOM     16  H6  UNL     1      -2.757   3.697   8.392  1.00  0.00     0.167 HD
BRANCH  15  17
HETATM   17  C13 UNL     1      -3.583   5.509   9.242  1.00  0.00     0.059 A 
HETATM   18  C14 UNL     1      -4.045   6.568   8.550  1.00  0.00     0.056 A 
HETATM   19  C15 UNL     1      -5.120   7.269   8.973  1.00  0.00     0.045 A 
HETATM   20 CL1  UNL     1      -5.700   8.698   8.082  1.00  0.00    -0.084 Cl
HETATM   21  C16 UNL     1      -5.775   6.898  10.152  1.00  0.00     0.012 A 
HETATM   22  C18 UNL     1      -5.334   5.852  10.872  1.00  0.00     0.067 A 
HETATM   23 CL2  UNL     1      -6.159   5.327  12.302  1.00  0.00    -0.082 Cl
HETATM   24  C19 UNL     1      -4.215   5.117  10.446  1.00  0.00     0.083 A 
HETATM   25 CL3  UNL     1      -3.658   3.761  11.323  1.00  0.00    -0.080 Cl
BRANCH  21  26
HETATM   26  C17 UNL     1      -7.070   7.589  10.337  1.00  0.00     0.271 C 
BRANCH  26  27
HETATM   27  N7  UNL     1      -7.328   8.043  11.672  1.00  0.00    -0.075 N 
ATOM     28  H73 UNL     1      -7.608   7.260  12.263  1.00  0.00     0.274 HD
ATOM     29  H72 UNL     1      -6.455   8.306  12.129  1.00  0.00     0.274 HD
ATOM     30  H71 UNL     1      -8.007   8.799  11.746  1.00  0.00     0.274 HD
ENDBRANCH  26  27
ENDBRANCH  21  26
ENDBRANCH  15  17
ENDBRANCH  13  15
BRANCH   1  31
HETATM   31  C3  UNL     1      -1.880   2.366   9.432  1.00  0.00     0.132 C 
BRANCH  31  32
HETATM   32  C2  UNL     1      -1.288   1.683  10.739  1.00  0.00     0.016 C 
HETATM   33  C1  UNL     1      -2.089   0.538  11.262  1.00  0.00     0.006 C 
ENDBRANCH  31  32
ENDBRANCH   1  31
BRANCH   4  34
HETATM   34  N2  UNL     1       2.437   1.439   7.727  1.00  0.00    -0.367 N 
ATOM     35  H2  UNL     1       2.042   0.583   7.340  1.00  0.00     0.161 HD
BRANCH  34  36
HETATM   36  C6  UNL     1       3.841   1.457   7.752  1.00  0.00     0.079 C 
HETATM   37  C7  UNL     1       4.446   2.024   6.461  1.00  0.00     0.032 C 
BRANCH  36  38
HETATM   38  C8  UNL     1       4.251  -0.063   7.741  1.00  0.00     0.020 C 
HETATM   39  C9  UNL     1       3.147  -0.768   8.445  1.00  0.00     0.007 C 
ENDBRANCH  36  38
ENDBRANCH  34  36
ENDBRANCH   4  34
TORSDOF 9
ENDMDL
