MODEL 1
REMARK VINA RESULT: -10.073266099      0.000      0.000
REMARK  8 active torsions:
REMARK  status: ('A' for Active; 'I' for Inactive)
REMARK    1  A    between atoms: O1_2  and  C2_3 
REMARK    2  A    between atoms: C7_8  and  C8_9 
REMARK    3  A    between atoms: C8_9  and  C9_10 
REMARK    4  A    between atoms: C9_10  and  N1_11 
REMARK    5  A    between atoms: N1_11  and  C10_13 
REMARK    6  A    between atoms: C11_16  and  O2_17 
REMARK    7  A    between atoms: O2_17  and  C12_18 
REMARK    8  A    between atoms: C18_29  and  N4_30 
ROOT
HETATM    1  C10 UNL     1      -2.253   0.807  12.563  1.00  0.00     0.695 A 
HETATM    2  N2  UNL     1      -2.145   1.079  11.259  1.00  0.00    -0.154 N 
ATOM      3  H2  UNL     1      -2.700   1.826  10.843  1.00  0.00     0.188 HD
HETATM    4  C11 UNL     1      -1.287   0.350  10.490  1.00  0.00     0.258 A 
HETATM    5  N3  UNL     1      -0.564  -0.630  11.051  1.00  0.00    -0.154 N 
ATOM      6  H3  UNL     1       0.076  -1.171  10.469  1.00  0.00     0.188 HD
HETATM    7  C18 UNL     1      -0.658  -0.919  12.357  1.00  0.00     0.693 A 
HETATM    8  N5  UNL     1      -1.508  -0.189  13.096  1.00  0.00    -0.022 N 
ATOM      9  H5  UNL     1      -1.595  -0.392  14.091  1.00  0.00     0.203 HD
ENDROOT
BRANCH   1  10
HETATM   10  N1  UNL     1      -3.038   1.451  13.343  1.00  0.00    -0.225 N 
ATOM     11  H1  UNL     1      -3.676   0.911  13.928  1.00  0.00     0.177 HD
BRANCH  10  12
HETATM   12  C9  UNL     1      -3.080   2.887  13.448  1.00  0.00     0.142 C 
BRANCH  12  13
HETATM   13  C8  UNL     1      -4.489   3.404  13.616  1.00  0.00     0.060 C 
BRANCH  13  14
HETATM   14  C7  UNL     1      -4.808   4.405  12.568  1.00  0.00    -0.038 A 
HETATM   15  C6  UNL     1      -4.198   4.565  11.353  1.00  0.00     0.038 A 
HETATM   16  C5  UNL     1      -4.796   5.621  10.662  1.00  0.00     0.039 A 
HETATM   17  C4  UNL     1      -4.595   6.209   9.431  1.00  0.00     0.033 A 
HETATM   18  N6  UNL     1      -5.759   6.070  11.490  1.00  0.00    -0.330 N 
HETATM   19  C3  UNL     1      -5.385   7.268   9.038  1.00  0.00     0.040 A 
HETATM   20  C2  UNL     1      -6.384   7.741   9.885  1.00  0.00     0.084 A 
HETATM   21  C20 UNL     1      -6.528   7.106  11.100  1.00  0.00     0.133 A 
HETATM   22  C19 UNL     1      -5.788   5.366  12.629  1.00  0.00     0.104 A 
BRANCH  20  23
HETATM   23  O1  UNL     1      -7.215   8.786   9.579  1.00  0.00    -0.355 OA
HETATM   24  C1  UNL     1      -7.769   9.683  10.497  1.00  0.00     0.210 C 
ENDBRANCH  20  23
ENDBRANCH  13  14
ENDBRANCH  12  13
ENDBRANCH  10  12
ENDBRANCH   1  10
BRANCH   4  25
HETATM   25  O2  UNL     1      -1.201   0.655   9.159  1.00  0.00    -0.275 OA
BRANCH  25  26
HETATM   26  C12 UNL     1      -0.346   1.601   8.658  1.00  0.00     0.124 A 
HETATM   27  C13 UNL     1      -0.785   2.906   8.469  1.00  0.00     0.069 A 
HETATM   28 CL1  UNL     1      -2.450   3.281   8.891  1.00  0.00    -0.081 Cl
HETATM   29  C14 UNL     1       0.058   3.869   7.966  1.00  0.00     0.028 A 
HETATM   30  C15 UNL     1       1.360   3.547   7.644  1.00  0.00     0.027 A 
HETATM   31  C16 UNL     1       1.795   2.251   7.832  1.00  0.00     0.058 A 
HETATM   32 CL2  UNL     1       3.458   1.898   7.404  1.00  0.00    -0.082 Cl
HETATM   33  C17 UNL     1       0.951   1.266   8.339  1.00  0.00     0.091 A 
HETATM   34 CL3  UNL     1       1.573  -0.354   8.550  1.00  0.00    -0.079 Cl
ENDBRANCH  25  26
ENDBRANCH   4  25
BRANCH   7  35
HETATM   35  N4  UNL     1       0.054  -1.878  12.895  1.00  0.00    -0.234 N 
ATOM     36  H42 UNL     1       0.779  -2.358  12.361  1.00  0.00     0.174 HD
ATOM     37  H41 UNL     1      -0.096  -2.171  13.859  1.00  0.00     0.174 HD
ENDBRANCH   7  35
TORSDOF 8
ENDMDL
MODEL 2
REMARK VINA RESULT: -10.020142424      0.580      1.905
REMARK  8 active torsions:
REMARK  status: ('A' for Active; 'I' for Inactive)
REMARK    1  A    between atoms: O1_2  and  C2_3 
REMARK    2  A    between atoms: C7_8  and  C8_9 
REMARK    3  A    between atoms: C8_9  and  C9_10 
REMARK    4  A    between atoms: C9_10  and  N1_11 
REMARK    5  A    between atoms: N1_11  and  C10_13 
REMARK    6  A    between atoms: C11_16  and  O2_17 
REMARK    7  A    between atoms: O2_17  and  C12_18 
REMARK    8  A    between atoms: C18_29  and  N4_30 
ROOT
HETATM    1  C10 UNL     1      -2.290   0.783  12.612  1.00  0.00     0.695 A 
HETATM    2  N2  UNL     1      -2.174   1.015  11.301  1.00  0.00    -0.154 N 
ATOM      3  H2  UNL     1      -2.740   1.737  10.856  1.00  0.00     0.188 HD
HETATM    4  C11 UNL     1      -1.294   0.280  10.564  1.00  0.00     0.258 A 
HETATM    5  N3  UNL     1      -0.556  -0.666  11.163  1.00  0.00    -0.154 N 
ATOM      6  H3  UNL     1       0.100  -1.212  10.604  1.00  0.00     0.188 HD
HETATM    7  C18 UNL     1      -0.658  -0.915  12.476  1.00  0.00     0.693 A 
HETATM    8  N5  UNL     1      -1.530  -0.180  13.183  1.00  0.00    -0.022 N 
ATOM      9  H5  UNL     1      -1.623  -0.353  14.184  1.00  0.00     0.203 HD
ENDROOT
BRANCH   1  10
HETATM   10  N1  UNL     1      -3.095   1.434  13.364  1.00  0.00    -0.225 N 
ATOM     11  H1  UNL     1      -3.772   0.902  13.911  1.00  0.00     0.177 HD
BRANCH  10  12
HETATM   12  C9  UNL     1      -3.109   2.869  13.487  1.00  0.00     0.142 C 
BRANCH  12  13
HETATM   13  C8  UNL     1      -4.509   3.412  13.657  1.00  0.00     0.060 C 
BRANCH  13  14
HETATM   14  C7  UNL     1      -4.817   4.407  12.600  1.00  0.00    -0.038 A 
HETATM   15  C6  UNL     1      -4.191   4.564  11.393  1.00  0.00     0.038 A 
HETATM   16  C5  UNL     1      -4.782   5.614  10.689  1.00  0.00     0.039 A 
HETATM   17  C4  UNL     1      -4.567   6.197   9.458  1.00  0.00     0.033 A 
HETATM   18  N6  UNL     1      -5.759   6.064  11.501  1.00  0.00    -0.330 N 
HETATM   19  C3  UNL     1      -5.355   7.252   9.049  1.00  0.00     0.040 A 
HETATM   20  C2  UNL     1      -6.367   7.725   9.879  1.00  0.00     0.084 A 
HETATM   21  C20 UNL     1      -6.526   7.095  11.095  1.00  0.00     0.133 A 
HETATM   22  C19 UNL     1      -5.801   5.364  12.643  1.00  0.00     0.104 A 
BRANCH  20  23
HETATM   23  O1  UNL     1      -7.197   8.766   9.558  1.00  0.00    -0.355 OA
HETATM   24  C1  UNL     1      -7.725   9.697  10.456  1.00  0.00     0.210 C 
ENDBRANCH  20  23
ENDBRANCH  13  14
ENDBRANCH  12  13
ENDBRANCH  10  12
ENDBRANCH   1  10
BRANCH   4  25
HETATM   25  O2  UNL     1      -1.201   0.545   9.225  1.00  0.00    -0.275 OA
BRANCH  25  26
HETATM   26  C12 UNL     1      -0.431   1.553   8.709  1.00  0.00     0.124 A 
HETATM   27  C13 UNL     1       0.887   1.306   8.345  1.00  0.00     0.069 A 
HETATM   28 CL1  UNL     1       1.510  -0.323   8.572  1.00  0.00    -0.081 Cl
HETATM   29  C14 UNL     1       1.677   2.305   7.826  1.00  0.00     0.028 A 
HETATM   30  C15 UNL     1       1.162   3.574   7.658  1.00  0.00     0.027 A 
HETATM   31  C16 UNL     1      -0.147   3.819   8.019  1.00  0.00     0.058 A 
HETATM   32 CL2  UNL     1      -0.747   5.449   7.785  1.00  0.00    -0.082 Cl
HETATM   33  C17 UNL     1      -0.956   2.815   8.547  1.00  0.00     0.091 A 
HETATM   34 CL3  UNL     1      -2.605   3.201   8.981  1.00  0.00    -0.079 Cl
ENDBRANCH  25  26
ENDBRANCH   4  25
BRANCH   7  35
HETATM   35  N4  UNL     1       0.069  -1.842  13.051  1.00  0.00    -0.234 N 
ATOM     36  H42 UNL     1       1.015  -2.045  12.728  1.00  0.00     0.174 HD
ATOM     37  H41 UNL     1      -0.291  -2.386  13.835  1.00  0.00     0.174 HD
ENDBRANCH   7  35
TORSDOF 8
ENDMDL
MODEL 3
REMARK VINA RESULT: -9.982731297      3.480      8.763
REMARK  8 active torsions:
REMARK  status: ('A' for Active; 'I' for Inactive)
REMARK    1  A    between atoms: O1_2  and  C2_3 
REMARK    2  A    between atoms: C7_8  and  C8_9 
REMARK    3  A    between atoms: C8_9  and  C9_10 
REMARK    4  A    between atoms: C9_10  and  N1_11 
REMARK    5  A    between atoms: N1_11  and  C10_13 
REMARK    6  A    between atoms: C11_16  and  O2_17 
REMARK    7  A    between atoms: O2_17  and  C12_18 
REMARK    8  A    between atoms: C18_29  and  N4_30 
ROOT
HETATM    1  C10 UNL     1      -2.344   6.263   8.372  1.00  0.00     0.695 A 
HETATM    2  N2  UNL     1      -2.769   5.138   8.956  1.00  0.00    -0.154 N 
ATOM      3  H2  UNL     1      -2.168   4.315   8.984  1.00  0.00     0.188 HD
HETATM    4  C11 UNL     1      -4.013   5.099   9.513  1.00  0.00     0.258 A 
HETATM    5  N3  UNL     1      -4.794   6.189   9.468  1.00  0.00    -0.154 N 
ATOM      6  H3  UNL     1      -5.723   6.152   9.887  1.00  0.00     0.188 HD
HETATM    7  C18 UNL     1      -4.385   7.327   8.888  1.00  0.00     0.693 A 
HETATM    8  N5  UNL     1      -3.158   7.343   8.346  1.00  0.00    -0.022 N 
ATOM      9  H5  UNL     1      -2.828   8.198   7.899  1.00  0.00     0.203 HD
ENDROOT
BRANCH   1  10
HETATM   10  N1  UNL     1      -1.190   6.369   7.830  1.00  0.00    -0.225 N 
ATOM     11  H1  UNL     1      -1.132   6.821   6.918  1.00  0.00     0.177 HD
BRANCH  10  12
HETATM   12  C9  UNL     1       0.033   5.890   8.423  1.00  0.00     0.142 C 
BRANCH  12  13
HETATM   13  C8  UNL     1       1.011   5.391   7.385  1.00  0.00     0.060 C 
BRANCH  13  14
HETATM   14  C7  UNL     1       1.341   3.963   7.621  1.00  0.00    -0.038 A 
HETATM   15  C6  UNL     1       0.489   2.961   7.999  1.00  0.00     0.038 A 
HETATM   16  C5  UNL     1       1.195   1.762   8.114  1.00  0.00     0.039 A 
HETATM   17  C4  UNL     1       0.857   0.468   8.451  1.00  0.00     0.033 A 
HETATM   18  N6  UNL     1       2.465   2.081   7.797  1.00  0.00    -0.330 N 
HETATM   19  C3  UNL     1       1.825  -0.513   8.468  1.00  0.00     0.040 A 
HETATM   20  C2  UNL     1       3.141  -0.196   8.142  1.00  0.00     0.084 A 
HETATM   21  C20 UNL     1       3.407   1.116   7.814  1.00  0.00     0.133 A 
HETATM   22  C19 UNL     1       2.580   3.382   7.500  1.00  0.00     0.104 A 
BRANCH  20  23
HETATM   23  O1  UNL     1       4.167  -1.103   8.131  1.00  0.00    -0.355 OA
HETATM   24  C1  UNL     1       4.462  -2.014   9.149  1.00  0.00     0.210 C 
ENDBRANCH  20  23
ENDBRANCH  13  14
ENDBRANCH  12  13
ENDBRANCH  10  12
ENDBRANCH   1  10
BRANCH   4  25
HETATM   25  O2  UNL     1      -4.417   3.932  10.102  1.00  0.00    -0.275 OA
BRANCH  25  26
HETATM   26  C12 UNL     1      -4.001   3.533  11.344  1.00  0.00     0.124 A 
HETATM   27  C13 UNL     1      -4.586   4.075  12.482  1.00  0.00     0.069 A 
HETATM   28 CL1  UNL     1      -5.856   5.271  12.261  1.00  0.00    -0.081 Cl
HETATM   29  C14 UNL     1      -4.182   3.689  13.737  1.00  0.00     0.028 A 
HETATM   30  C15 UNL     1      -3.183   2.748  13.882  1.00  0.00     0.027 A 
HETATM   31  C16 UNL     1      -2.602   2.209  12.752  1.00  0.00     0.058 A 
HETATM   32 CL2  UNL     1      -1.338   1.019  12.994  1.00  0.00    -0.082 Cl
HETATM   33  C17 UNL     1      -3.002   2.594  11.474  1.00  0.00     0.091 A 
HETATM   34 CL3  UNL     1      -2.221   1.868  10.090  1.00  0.00    -0.079 Cl
ENDBRANCH  25  26
ENDBRANCH   4  25
BRANCH   7  35
HETATM   35  N4  UNL     1      -5.156   8.386   8.851  1.00  0.00    -0.234 N 
ATOM     36  H42 UNL     1      -5.321   8.947   9.687  1.00  0.00     0.174 HD
ATOM     37  H41 UNL     1      -5.612   8.678   7.987  1.00  0.00     0.174 HD
ENDBRANCH   7  35
TORSDOF 8
ENDMDL
MODEL 4
REMARK VINA RESULT: -9.809702345      3.242      7.973
REMARK  8 active torsions:
REMARK  status: ('A' for Active; 'I' for Inactive)
REMARK    1  A    between atoms: O1_2  and  C2_3 
REMARK    2  A    between atoms: C7_8  and  C8_9 
REMARK    3  A    between atoms: C8_9  and  C9_10 
REMARK    4  A    between atoms: C9_10  and  N1_11 
REMARK    5  A    between atoms: N1_11  and  C10_13 
REMARK    6  A    between atoms: C11_16  and  O2_17 
REMARK    7  A    between atoms: O2_17  and  C12_18 
REMARK    8  A    between atoms: C18_29  and  N4_30 
ROOT
HETATM    1  C10 UNL     1      -3.942   4.361   9.465  1.00  0.00     0.695 A 
HETATM    2  N2  UNL     1      -3.869   3.215  10.149  1.00  0.00    -0.154 N 
ATOM      3  H2  UNL     1      -3.524   2.368   9.698  1.00  0.00     0.188 HD
HETATM    4  C11 UNL     1      -4.259   3.187  11.456  1.00  0.00     0.258 A 
HETATM    5  N3  UNL     1      -4.711   4.309  12.037  1.00  0.00    -0.154 N 
ATOM      6  H3  UNL     1      -5.001   4.279  13.014  1.00  0.00     0.188 HD
HETATM    7  C18 UNL     1      -4.792   5.467  11.367  1.00  0.00     0.693 A 
HETATM    8  N5  UNL     1      -4.403   5.473  10.083  1.00  0.00    -0.022 N 
ATOM      9  H5  UNL     1      -4.456   6.344   9.556  1.00  0.00     0.203 HD
ENDROOT
BRANCH   1  10
HETATM   10  N1  UNL     1      -3.593   4.458   8.238  1.00  0.00    -0.225 N 
ATOM     11  H1  UNL     1      -4.130   5.085   7.638  1.00  0.00     0.177 HD
BRANCH  10  12
HETATM   12  C9  UNL     1      -2.492   3.742   7.647  1.00  0.00     0.142 C 
BRANCH  12  13
HETATM   13  C8  UNL     1      -1.155   4.305   8.069  1.00  0.00     0.060 C 
BRANCH  13  14
HETATM   14  C7  UNL     1      -0.119   3.242   8.081  1.00  0.00    -0.038 A 
HETATM   15  C6  UNL     1       1.207   3.364   7.765  1.00  0.00     0.038 A 
HETATM   16  C5  UNL     1       1.840   2.127   7.902  1.00  0.00     0.039 A 
HETATM   17  C4  UNL     1       3.130   1.674   7.723  1.00  0.00     0.033 A 
HETATM   18  N6  UNL     1       0.865   1.287   8.301  1.00  0.00    -0.330 N 
HETATM   19  C3  UNL     1       3.431   0.349   7.952  1.00  0.00     0.040 A 
HETATM   20  C2  UNL     1       2.433  -0.529   8.365  1.00  0.00     0.084 A 
HETATM   21  C20 UNL     1       1.167  -0.008   8.524  1.00  0.00     0.133 A 
HETATM   22  C19 UNL     1      -0.309   1.923   8.415  1.00  0.00     0.104 A 
BRANCH  20  23
HETATM   23  O1  UNL     1       2.639  -1.860   8.616  1.00  0.00    -0.355 OA
HETATM   24  C1  UNL     1       2.877  -2.426   9.871  1.00  0.00     0.210 C 
ENDBRANCH  20  23
ENDBRANCH  13  14
ENDBRANCH  12  13
ENDBRANCH  10  12
ENDBRANCH   1  10
BRANCH   4  25
HETATM   25  O2  UNL     1      -4.171   1.998  12.126  1.00  0.00    -0.275 OA
BRANCH  25  26
HETATM   26  C12 UNL     1      -2.982   1.426  12.491  1.00  0.00     0.124 A 
HETATM   27  C13 UNL     1      -2.266   1.934  13.569  1.00  0.00     0.069 A 
HETATM   28 CL1  UNL     1      -2.941   3.314  14.424  1.00  0.00    -0.081 Cl
HETATM   29  C14 UNL     1      -1.070   1.375  13.950  1.00  0.00     0.028 A 
HETATM   30  C15 UNL     1      -0.564   0.291  13.261  1.00  0.00     0.027 A 
HETATM   31  C16 UNL     1      -1.274  -0.213  12.192  1.00  0.00     0.058 A 
HETATM   32 CL2  UNL     1      -0.584  -1.588  11.353  1.00  0.00    -0.082 Cl
HETATM   33  C17 UNL     1      -2.487   0.346  11.795  1.00  0.00     0.091 A 
HETATM   34 CL3  UNL     1      -3.331  -0.347  10.430  1.00  0.00    -0.079 Cl
ENDBRANCH  25  26
ENDBRANCH   4  25
BRANCH   7  35
HETATM   35  N4  UNL     1      -5.234   6.557  11.945  1.00  0.00    -0.234 N 
ATOM     36  H42 UNL     1      -4.651   7.080  12.599  1.00  0.00     0.174 HD
ATOM     37  H41 UNL     1      -6.171   6.911  11.758  1.00  0.00     0.174 HD
ENDBRANCH   7  35
TORSDOF 8
ENDMDL
MODEL 5
REMARK VINA RESULT: -9.804999331      3.019      6.266
REMARK  8 active torsions:
REMARK  status: ('A' for Active; 'I' for Inactive)
REMARK    1  A    between atoms: O1_2  and  C2_3 
REMARK    2  A    between atoms: C7_8  and  C8_9 
REMARK    3  A    between atoms: C8_9  and  C9_10 
REMARK    4  A    between atoms: C9_10  and  N1_11 
REMARK    5  A    between atoms: N1_11  and  C10_13 
REMARK    6  A    between atoms: C11_16  and  O2_17 
REMARK    7  A    between atoms: O2_17  and  C12_18 
REMARK    8  A    between atoms: C18_29  and  N4_30 
ROOT
HETATM    1  C10 UNL     1      -1.269   0.801  10.632  1.00  0.00     0.695 A 
HETATM    2  N2  UNL     1      -2.448   1.393  10.415  1.00  0.00    -0.154 N 
ATOM      3  H2  UNL     1      -2.866   1.379   9.485  1.00  0.00     0.188 HD
HETATM    4  C11 UNL     1      -3.087   2.016  11.446  1.00  0.00     0.258 A 
HETATM    5  N3  UNL     1      -2.524   2.028  12.664  1.00  0.00    -0.154 N 
ATOM      6  H3  UNL     1      -3.007   2.496  13.430  1.00  0.00     0.188 HD
HETATM    7  C18 UNL     1      -1.342   1.440  12.901  1.00  0.00     0.693 A 
HETATM    8  N5  UNL     1      -0.731   0.833  11.873  1.00  0.00    -0.022 N 
ATOM      9  H5  UNL     1       0.168   0.379  12.032  1.00  0.00     0.203 HD
ENDROOT
BRANCH   1  10
HETATM   10  N1  UNL     1      -0.616   0.199   9.711  1.00  0.00    -0.225 N 
ATOM     11  H1  UNL     1      -0.220  -0.716   9.928  1.00  0.00     0.177 HD
BRANCH  10  12
HETATM   12  C9  UNL     1      -0.403   0.729   8.388  1.00  0.00     0.142 C 
BRANCH  12  13
HETATM   13  C8  UNL     1       0.897   1.492   8.283  1.00  0.00     0.060 C 
BRANCH  13  14
HETATM   14  C7  UNL     1       0.639   2.947   8.145  1.00  0.00    -0.038 A 
HETATM   15  C6  UNL     1      -0.538   3.611   8.360  1.00  0.00     0.038 A 
HETATM   16  C5  UNL     1      -0.361   4.975   8.120  1.00  0.00     0.039 A 
HETATM   17  C4  UNL     1      -1.179   6.083   8.179  1.00  0.00     0.033 A 
HETATM   18  N6  UNL     1       0.934   5.094   7.764  1.00  0.00    -0.330 N 
HETATM   19  C3  UNL     1      -0.674   7.327   7.870  1.00  0.00     0.040 A 
HETATM   20  C2  UNL     1       0.661   7.463   7.501  1.00  0.00     0.084 A 
HETATM   21  C20 UNL     1       1.421   6.314   7.463  1.00  0.00     0.133 A 
HETATM   22  C19 UNL     1       1.550   3.904   7.770  1.00  0.00     0.104 A 
BRANCH  20  23
HETATM   23  O1  UNL     1       1.249   8.658   7.177  1.00  0.00    -0.355 OA
HETATM   24  C1  UNL     1       0.906   9.469   6.093  1.00  0.00     0.210 C 
ENDBRANCH  20  23
ENDBRANCH  13  14
ENDBRANCH  12  13
ENDBRANCH  10  12
ENDBRANCH   1  10
BRANCH   4  25
HETATM   25  O2  UNL     1      -4.291   2.611  11.189  1.00  0.00    -0.275 OA
BRANCH  25  26
HETATM   26  C12 UNL     1      -4.479   3.968  11.213  1.00  0.00     0.124 A 
HETATM   27  C13 UNL     1      -4.796   4.606  12.406  1.00  0.00     0.069 A 
HETATM   28 CL1  UNL     1      -4.940   3.617  13.852  1.00  0.00    -0.081 Cl
HETATM   29  C14 UNL     1      -4.989   5.966  12.450  1.00  0.00     0.028 A 
HETATM   30  C15 UNL     1      -4.868   6.719  11.299  1.00  0.00     0.027 A 
HETATM   31  C16 UNL     1      -4.554   6.085  10.115  1.00  0.00     0.058 A 
HETATM   32 CL2  UNL     1      -4.415   7.088   8.685  1.00  0.00    -0.082 Cl
HETATM   33  C17 UNL     1      -4.357   4.707  10.057  1.00  0.00     0.091 A 
HETATM   34 CL3  UNL     1      -3.962   3.974   8.521  1.00  0.00    -0.079 Cl
ENDBRANCH  25  26
ENDBRANCH   4  25
BRANCH   7  35
HETATM   35  N4  UNL     1      -0.802   1.457  14.095  1.00  0.00    -0.234 N 
ATOM     36  H42 UNL     1      -1.083   0.784  14.809  1.00  0.00     0.174 HD
ATOM     37  H41 UNL     1      -0.090   2.142  14.344  1.00  0.00     0.174 HD
ENDBRANCH   7  35
TORSDOF 8
ENDMDL
