MODEL 1
REMARK VINA RESULT: -8.001709932      0.000      0.000
REMARK  11 active torsions:
REMARK  status: ('A' for Active; 'I' for Inactive)
REMARK    1  A    between atoms: C2_2  and  O1_3 
REMARK    2  A    between atoms: O1_3  and  C3_4 
REMARK       I    between atoms: C3_4  and  N1_6 
REMARK    3  A    between atoms: N1_6  and  C4_8 
REMARK    4  A    between atoms: C4_8  and  C5_9 
REMARK    5  A    between atoms: C4_8  and  C22_39 
REMARK       I    between atoms: C5_9  and  N2_11 
REMARK    6  A    between atoms: N2_11  and  C6_13 
REMARK    7  A    between atoms: C9_16  and  O4_17 
REMARK    8  A    between atoms: C10_21  and  C11_22 
REMARK    9  A    between atoms: C11_22  and  C12_23 
REMARK   10  A    between atoms: C16_29  and  C17_30 
REMARK   11  A    between atoms: C17_30  and  C18_31 
ROOT
HETATM    1  C6  UNL     1     -20.806   5.497   1.350  1.00  0.00     0.177 C 
HETATM    2  C7  UNL     1     -21.843   4.581   1.908  1.00  0.00     0.043 C 
HETATM    3  C8  UNL     1     -21.550   3.107   2.000  1.00  0.00     0.086 C 
HETATM    4  C9  UNL     1     -20.116   2.782   1.799  1.00  0.00     0.111 C 
HETATM    5  N3  UNL     1     -19.047   2.469   2.566  1.00  0.00    -0.361 N 
ATOM      6  H3  UNL     1     -18.871   3.294   3.139  1.00  0.00     0.162 HD
HETATM    7  C10 UNL     1     -18.065   1.533   2.941  1.00  0.00     0.183 C 
HETATM    8  C15 UNL     1     -16.680   2.236   2.908  1.00  0.00     0.282 C 
HETATM    9  O5  UNL     1     -15.734   1.469   3.125  1.00  0.00    -0.263 OA
HETATM   10  O6  UNL     1     -16.708   3.581   2.649  1.00  0.00    -0.309 OA
HETATM   11  C16 UNL     1     -16.770   4.344   1.519  1.00  0.00     0.192 C 
HETATM   12  C19 UNL     1     -17.505   5.597   1.396  1.00  0.00     0.303 C 
HETATM   13  F1  UNL     1     -16.553   6.631   1.255  1.00  0.00    -0.224 F 
HETATM   14  N4  UNL     1     -18.440   6.065   2.350  1.00  0.00    -0.322 N 
HETATM   15  C20 UNL     1     -17.812   6.641   3.565  1.00  0.00     0.155 C 
HETATM   16  C21 UNL     1     -19.847   6.073   2.338  1.00  0.00     0.244 C 
HETATM   17  O8  UNL     1     -20.436   6.659   3.316  1.00  0.00    -0.271 OA
ENDROOT
BRANCH   1  18
HETATM   18  N2  UNL     1     -21.588   6.716   0.975  1.00  0.00    -0.346 N 
HETATM   19  C5  UNL     1     -21.713   7.159  -0.335  1.00  0.00     0.242 C 
HETATM   20  O3  UNL     1     -21.116   6.494  -1.234  1.00  0.00    -0.271 OA
ATOM     21  H2  UNL     1     -22.050   7.245   1.714  1.00  0.00     0.163 HD
BRANCH  19  22
HETATM   22  C4  UNL     1     -22.508   8.363  -0.646  1.00  0.00     0.186 C 
BRANCH  22  23
HETATM   23  N1  UNL     1     -23.425   8.634   0.503  1.00  0.00    -0.323 N 
HETATM   24  C3  UNL     1     -24.734   8.111   0.496  1.00  0.00     0.361 C 
HETATM   25  O2  UNL     1     -25.154   7.409  -0.485  1.00  0.00    -0.238 OA
ATOM     26  H1  UNL     1     -23.103   9.195   1.292  1.00  0.00     0.165 HD
BRANCH  24  27
HETATM   27  O1  UNL     1     -25.593   8.345   1.544  1.00  0.00    -0.304 OA
BRANCH  27  28
HETATM   28  C2  UNL     1     -26.126   7.256   2.290  1.00  0.00     0.176 C 
HETATM   29  C1  UNL     1     -25.031   6.412   2.839  1.00  0.00     0.034 C 
ENDBRANCH  27  28
ENDBRANCH  24  27
ENDBRANCH  22  23
BRANCH  22  30
HETATM   30  C22 UNL     1     -21.709   9.606  -0.908  1.00  0.00    -0.022 C 
HETATM   31  C23 UNL     1     -22.508  10.776  -0.344  1.00  0.00     0.017 C 
HETATM   32  C24 UNL     1     -20.350   9.605  -0.258  1.00  0.00     0.017 C 
HETATM   33  C25 UNL     1     -21.522   9.855  -2.370  1.00  0.00     0.017 C 
ENDBRANCH  22  30
ENDBRANCH  19  22
ENDBRANCH   1  18
BRANCH   4  34
HETATM   34  O4  UNL     1     -19.953   2.851   0.496  1.00  0.00    -0.350 OA
ATOM     35  H4  UNL     1     -19.112   2.434   0.347  1.00  0.00     0.219 HD
ENDBRANCH   4  34
BRANCH  11  36
HETATM   36  C17 UNL     1     -15.376   4.475   0.856  1.00  0.00     0.106 C 
BRANCH  36  37
HETATM   37  C18 UNL     1     -14.275   4.501   1.806  1.00  0.00     0.233 C 
HETATM   38  O7  UNL     1     -13.640   5.463   2.173  1.00  0.00    -0.307 OA
ENDBRANCH  36  37
ENDBRANCH  11  36
BRANCH   7  39
HETATM   39  C11 UNL     1     -17.981   0.182   2.409  1.00  0.00     0.039 C 
BRANCH  39  40
HETATM   40  C12 UNL     1     -19.163  -0.701   2.411  1.00  0.00    -0.020 C 
HETATM   41  C13 UNL     1     -20.121  -0.459   3.559  1.00  0.00     0.009 C 
HETATM   42  C14 UNL     1     -19.876  -0.872   1.123  1.00  0.00     0.009 C 
ENDBRANCH  39  40
ENDBRANCH   7  39
TORSDOF 11
ENDMDL
MODEL 2
REMARK VINA RESULT: -7.720397780      1.693      2.097
REMARK  11 active torsions:
REMARK  status: ('A' for Active; 'I' for Inactive)
REMARK    1  A    between atoms: C2_2  and  O1_3 
REMARK    2  A    between atoms: O1_3  and  C3_4 
REMARK       I    between atoms: C3_4  and  N1_6 
REMARK    3  A    between atoms: N1_6  and  C4_8 
REMARK    4  A    between atoms: C4_8  and  C5_9 
REMARK    5  A    between atoms: C4_8  and  C22_39 
REMARK       I    between atoms: C5_9  and  N2_11 
REMARK    6  A    between atoms: N2_11  and  C6_13 
REMARK    7  A    between atoms: C9_16  and  O4_17 
REMARK    8  A    between atoms: C10_21  and  C11_22 
REMARK    9  A    between atoms: C11_22  and  C12_23 
REMARK   10  A    between atoms: C16_29  and  C17_30 
REMARK   11  A    between atoms: C17_30  and  C18_31 
ROOT
HETATM    1  C6  UNL     1     -21.794   4.981   1.723  1.00  0.00     0.177 C 
HETATM    2  C7  UNL     1     -22.380   3.925   2.598  1.00  0.00     0.043 C 
HETATM    3  C8  UNL     1     -21.664   2.609   2.744  1.00  0.00     0.086 C 
HETATM    4  C9  UNL     1     -20.275   2.638   2.224  1.00  0.00     0.111 C 
HETATM    5  N3  UNL     1     -19.023   2.733   2.727  1.00  0.00    -0.361 N 
ATOM      6  H3  UNL     1     -18.973   3.654   3.163  1.00  0.00     0.162 HD
HETATM    7  C10 UNL     1     -17.757   2.151   2.928  1.00  0.00     0.183 C 
HETATM    8  C15 UNL     1     -16.673   3.174   2.490  1.00  0.00     0.282 C 
HETATM    9  O5  UNL     1     -15.523   2.720   2.533  1.00  0.00    -0.263 OA
HETATM   10  O6  UNL     1     -17.140   4.410   2.129  1.00  0.00    -0.309 OA
HETATM   11  C16 UNL     1     -17.659   4.949   0.987  1.00  0.00     0.192 C 
HETATM   12  C19 UNL     1     -18.731   5.935   0.940  1.00  0.00     0.303 C 
HETATM   13  F1  UNL     1     -18.169   7.146   0.477  1.00  0.00    -0.224 F 
HETATM   14  N4  UNL     1     -19.534   6.287   2.051  1.00  0.00    -0.322 N 
HETATM   15  C20 UNL     1     -18.853   7.185   3.017  1.00  0.00     0.155 C 
HETATM   16  C21 UNL     1     -20.853   5.929   2.387  1.00  0.00     0.244 C 
HETATM   17  O8  UNL     1     -21.362   6.487   3.425  1.00  0.00    -0.271 OA
ENDROOT
BRANCH   1  18
HETATM   18  N2  UNL     1     -22.955   5.884   1.448  1.00  0.00    -0.346 N 
HETATM   19  C5  UNL     1     -23.008   6.730   0.347  1.00  0.00     0.242 C 
HETATM   20  O3  UNL     1     -22.012   6.731  -0.435  1.00  0.00    -0.271 OA
ATOM     21  H2  UNL     1     -23.741   5.879   2.097  1.00  0.00     0.163 HD
BRANCH  19  22
HETATM   22  C4  UNL     1     -24.186   7.591   0.121  1.00  0.00     0.186 C 
BRANCH  22  23
HETATM   23  N1  UNL     1     -25.397   6.880   0.633  1.00  0.00    -0.323 N 
HETATM   24  C3  UNL     1     -26.609   6.951  -0.082  1.00  0.00     0.361 C 
HETATM   25  O2  UNL     1     -26.692   7.621  -1.167  1.00  0.00    -0.238 OA
ATOM     26  H1  UNL     1     -25.345   6.343   1.499  1.00  0.00     0.165 HD
BRANCH  24  27
HETATM   27  O1  UNL     1     -27.734   6.302   0.369  1.00  0.00    -0.304 OA
BRANCH  27  28
HETATM   28  C2  UNL     1     -27.744   4.882   0.483  1.00  0.00     0.176 C 
HETATM   29  C1  UNL     1     -27.615   4.248  -0.856  1.00  0.00     0.034 C 
ENDBRANCH  27  28
ENDBRANCH  24  27
ENDBRANCH  22  23
BRANCH  22  30
HETATM   30  C22 UNL     1     -24.125   8.941   0.776  1.00  0.00    -0.022 C 
HETATM   31  C23 UNL     1     -24.318   9.978  -0.326  1.00  0.00     0.017 C 
HETATM   32  C24 UNL     1     -25.188   9.158   1.821  1.00  0.00     0.017 C 
HETATM   33  C25 UNL     1     -22.795   9.198   1.406  1.00  0.00     0.017 C 
ENDBRANCH  22  30
ENDBRANCH  19  22
ENDBRANCH   1  18
BRANCH   4  34
HETATM   34  O4  UNL     1     -20.421   2.546   0.920  1.00  0.00    -0.350 OA
ATOM     35  H4  UNL     1     -19.565   2.272   0.612  1.00  0.00     0.219 HD
ENDBRANCH   4  34
BRANCH  11  36
HETATM   36  C17 UNL     1     -16.536   5.332  -0.010  1.00  0.00     0.106 C 
BRANCH  36  37
HETATM   37  C18 UNL     1     -15.332   5.838   0.630  1.00  0.00     0.233 C 
HETATM   38  O7  UNL     1     -15.154   6.938   1.102  1.00  0.00    -0.307 OA
ENDBRANCH  36  37
ENDBRANCH  11  36
BRANCH   7  39
HETATM   39  C11 UNL     1     -17.405   0.803   2.513  1.00  0.00     0.039 C 
BRANCH  39  40
HETATM   40  C12 UNL     1     -18.285  -0.337   2.834  1.00  0.00    -0.020 C 
HETATM   41  C13 UNL     1     -19.056  -0.183   4.129  1.00  0.00     0.009 C 
HETATM   42  C14 UNL     1     -19.140  -0.856   1.741  1.00  0.00     0.009 C 
ENDBRANCH  39  40
ENDBRANCH   7  39
TORSDOF 11
ENDMDL
MODEL 3
REMARK VINA RESULT: -7.624984229      2.991      8.271
REMARK  11 active torsions:
REMARK  status: ('A' for Active; 'I' for Inactive)
REMARK    1  A    between atoms: C2_2  and  O1_3 
REMARK    2  A    between atoms: O1_3  and  C3_4 
REMARK       I    between atoms: C3_4  and  N1_6 
REMARK    3  A    between atoms: N1_6  and  C4_8 
REMARK    4  A    between atoms: C4_8  and  C5_9 
REMARK    5  A    between atoms: C4_8  and  C22_39 
REMARK       I    between atoms: C5_9  and  N2_11 
REMARK    6  A    between atoms: N2_11  and  C6_13 
REMARK    7  A    between atoms: C9_16  and  O4_17 
REMARK    8  A    between atoms: C10_21  and  C11_22 
REMARK    9  A    between atoms: C11_22  and  C12_23 
REMARK   10  A    between atoms: C16_29  and  C17_30 
REMARK   11  A    between atoms: C17_30  and  C18_31 
ROOT
HETATM    1  C6  UNL     1     -18.516   4.479   1.479  1.00  0.00     0.177 C 
HETATM    2  C7  UNL     1     -17.146   4.498   2.068  1.00  0.00     0.043 C 
HETATM    3  C8  UNL     1     -16.095   5.389   1.459  1.00  0.00     0.086 C 
HETATM    4  C9  UNL     1     -16.652   6.387   0.513  1.00  0.00     0.111 C 
HETATM    5  N3  UNL     1     -16.960   7.703   0.519  1.00  0.00    -0.361 N 
ATOM      6  H3  UNL     1     -17.709   7.805   1.205  1.00  0.00     0.162 HD
HETATM    7  C10 UNL     1     -16.728   8.999   0.019  1.00  0.00     0.183 C 
HETATM    8  C15 UNL     1     -18.094   9.618  -0.389  1.00  0.00     0.282 C 
HETATM    9  O5  UNL     1     -17.988  10.722  -0.937  1.00  0.00    -0.263 OA
HETATM   10  O6  UNL     1     -19.197   8.865  -0.085  1.00  0.00    -0.309 OA
HETATM   11  C16 UNL     1     -19.848   7.825  -0.683  1.00  0.00     0.192 C 
HETATM   12  C19 UNL     1     -20.468   6.710   0.024  1.00  0.00     0.303 C 
HETATM   13  F1  UNL     1     -21.865   6.829  -0.147  1.00  0.00    -0.224 F 
HETATM   14  N4  UNL     1     -20.272   6.436   1.399  1.00  0.00    -0.322 N 
HETATM   15  C20 UNL     1     -21.038   7.333   2.299  1.00  0.00     0.155 C 
HETATM   16  C21 UNL     1     -19.481   5.467   2.044  1.00  0.00     0.244 C 
HETATM   17  O8  UNL     1     -19.577   5.391   3.321  1.00  0.00    -0.271 OA
ENDROOT
BRANCH   1  18
HETATM   18  N2  UNL     1     -19.094   3.198   1.992  1.00  0.00    -0.346 N 
HETATM   19  C5  UNL     1     -20.120   2.520   1.346  1.00  0.00     0.242 C 
HETATM   20  O3  UNL     1     -20.581   3.038   0.285  1.00  0.00    -0.271 OA
ATOM     21  H2  UNL     1     -18.718   2.804   2.855  1.00  0.00     0.163 HD
BRANCH  19  22
HETATM   22  C4  UNL     1     -20.643   1.253   1.894  1.00  0.00     0.186 C 
BRANCH  22  23
HETATM   23  N1  UNL     1     -19.489   0.439   2.385  1.00  0.00    -0.323 N 
HETATM   24  C3  UNL     1     -19.167  -0.779   1.752  1.00  0.00     0.361 C 
HETATM   25  O2  UNL     1     -19.852  -1.203   0.761  1.00  0.00    -0.238 OA
ATOM     26  H1  UNL     1     -18.934   0.765   3.177  1.00  0.00     0.165 HD
BRANCH  24  27
HETATM   27  O1  UNL     1     -18.109  -1.541   2.185  1.00  0.00    -0.304 OA
BRANCH  27  28
HETATM   28  C2  UNL     1     -16.977  -0.919   2.786  1.00  0.00     0.176 C 
HETATM   29  C1  UNL     1     -16.075  -0.357   1.747  1.00  0.00     0.034 C 
ENDBRANCH  27  28
ENDBRANCH  24  27
ENDBRANCH  22  23
BRANCH  22  30
HETATM   30  C22 UNL     1     -21.623   1.401   3.021  1.00  0.00    -0.022 C 
HETATM   31  C23 UNL     1     -22.603   0.237   2.913  1.00  0.00     0.017 C 
HETATM   32  C24 UNL     1     -20.990   1.360   4.387  1.00  0.00     0.017 C 
HETATM   33  C25 UNL     1     -22.414   2.664   2.913  1.00  0.00     0.017 C 
ENDBRANCH  22  30
ENDBRANCH  19  22
ENDBRANCH   1  18
BRANCH   4  34
HETATM   34  O4  UNL     1     -16.870   5.697  -0.585  1.00  0.00    -0.350 OA
ATOM     35  H4  UNL     1     -17.809   5.555  -0.586  1.00  0.00     0.219 HD
ENDBRANCH   4  34
BRANCH  11  36
HETATM   36  C17 UNL     1     -20.781   8.326  -1.813  1.00  0.00     0.106 C 
BRANCH  36  37
HETATM   37  C18 UNL     1     -21.514   9.537  -1.476  1.00  0.00     0.233 C 
HETATM   38  O7  UNL     1     -22.713   9.692  -1.459  1.00  0.00    -0.307 OA
ENDBRANCH  36  37
ENDBRANCH  11  36
BRANCH   7  39
HETATM   39  C11 UNL     1     -15.694   9.325  -0.949  1.00  0.00     0.039 C 
BRANCH  39  40
HETATM   40  C12 UNL     1     -14.502  10.095  -0.546  1.00  0.00    -0.020 C 
HETATM   41  C13 UNL     1     -14.303  11.384  -1.316  1.00  0.00     0.009 C 
HETATM   42  C14 UNL     1     -14.281  10.280   0.908  1.00  0.00     0.009 C 
ENDBRANCH  39  40
ENDBRANCH   7  39
TORSDOF 11
ENDMDL
MODEL 4
REMARK VINA RESULT: -7.606537818      2.297      5.008
REMARK  11 active torsions:
REMARK  status: ('A' for Active; 'I' for Inactive)
REMARK    1  A    between atoms: C2_2  and  O1_3 
REMARK    2  A    between atoms: O1_3  and  C3_4 
REMARK       I    between atoms: C3_4  and  N1_6 
REMARK    3  A    between atoms: N1_6  and  C4_8 
REMARK    4  A    between atoms: C4_8  and  C5_9 
REMARK    5  A    between atoms: C4_8  and  C22_39 
REMARK       I    between atoms: C5_9  and  N2_11 
REMARK    6  A    between atoms: N2_11  and  C6_13 
REMARK    7  A    between atoms: C9_16  and  O4_17 
REMARK    8  A    between atoms: C10_21  and  C11_22 
REMARK    9  A    between atoms: C11_22  and  C12_23 
REMARK   10  A    between atoms: C16_29  and  C17_30 
REMARK   11  A    between atoms: C17_30  and  C18_31 
ROOT
HETATM    1  C6  UNL     1     -20.026   5.702   1.164  1.00  0.00     0.177 C 
HETATM    2  C7  UNL     1     -18.928   6.313   0.360  1.00  0.00     0.043 C 
HETATM    3  C8  UNL     1     -17.498   6.072   0.766  1.00  0.00     0.086 C 
HETATM    4  C9  UNL     1     -17.348   4.983   1.762  1.00  0.00     0.111 C 
HETATM    5  N3  UNL     1     -16.978   3.682   1.770  1.00  0.00    -0.361 N 
ATOM      6  H3  UNL     1     -17.680   3.195   1.212  1.00  0.00     0.162 HD
HETATM    7  C10 UNL     1     -16.074   2.688   2.190  1.00  0.00     0.183 C 
HETATM    8  C15 UNL     1     -16.887   1.512   2.796  1.00  0.00     0.282 C 
HETATM    9  O5  UNL     1     -16.177   0.627   3.289  1.00  0.00    -0.263 OA
HETATM   10  O6  UNL     1     -18.249   1.623   2.696  1.00  0.00    -0.309 OA
HETATM   11  C16 UNL     1     -19.221   2.252   3.419  1.00  0.00     0.192 C 
HETATM   12  C19 UNL     1     -20.403   2.890   2.853  1.00  0.00     0.303 C 
HETATM   13  F1  UNL     1     -21.523   2.123   3.245  1.00  0.00    -0.224 F 
HETATM   14  N4  UNL     1     -20.580   3.149   1.473  1.00  0.00    -0.322 N 
HETATM   15  C20 UNL     1     -20.945   1.947   0.684  1.00  0.00     0.155 C 
HETATM   16  C21 UNL     1     -20.467   4.342   0.736  1.00  0.00     0.244 C 
HETATM   17  O8  UNL     1     -20.785   4.293  -0.507  1.00  0.00    -0.271 OA
ENDROOT
BRANCH   1  18
HETATM   18  N2  UNL     1     -21.223   6.517   0.786  1.00  0.00    -0.346 N 
HETATM   19  C5  UNL     1     -21.579   7.686   1.447  1.00  0.00     0.242 C 
HETATM   20  O3  UNL     1     -20.852   8.049   2.419  1.00  0.00    -0.271 OA
ATOM     21  H2  UNL     1     -21.804   6.200   0.010  1.00  0.00     0.163 HD
BRANCH  19  22
HETATM   22  C4  UNL     1     -22.766   8.455   1.023  1.00  0.00     0.186 C 
BRANCH  22  23
HETATM   23  N1  UNL     1     -22.684   8.672  -0.454  1.00  0.00    -0.323 N 
HETATM   24  C3  UNL     1     -22.623   9.983  -0.970  1.00  0.00     0.361 C 
HETATM   25  O2  UNL     1     -22.641  10.995  -0.191  1.00  0.00    -0.238 OA
ATOM     26  H1  UNL     1     -22.672   7.873  -1.088  1.00  0.00     0.165 HD
BRANCH  24  27
HETATM   27  O1  UNL     1     -22.546  10.205  -2.324  1.00  0.00    -0.304 OA
BRANCH  27  28
HETATM   28  C2  UNL     1     -21.881  11.362  -2.822  1.00  0.00     0.176 C 
HETATM   29  C1  UNL     1     -20.636  10.983  -3.541  1.00  0.00     0.034 C 
ENDBRANCH  27  28
ENDBRANCH  24  27
ENDBRANCH  22  23
BRANCH  22  30
HETATM   30  C22 UNL     1     -24.087   7.810   1.327  1.00  0.00    -0.022 C 
HETATM   31  C23 UNL     1     -25.032   8.923   1.769  1.00  0.00     0.017 C 
HETATM   32  C24 UNL     1     -24.706   7.104   0.150  1.00  0.00     0.017 C 
HETATM   33  C25 UNL     1     -23.987   6.834   2.454  1.00  0.00     0.017 C 
ENDBRANCH  22  30
ENDBRANCH  19  22
ENDBRANCH   1  18
BRANCH   4  34
HETATM   34  O4  UNL     1     -17.699   5.541   2.900  1.00  0.00    -0.350 OA
ATOM     35  H4  UNL     1     -18.623   5.734   2.787  1.00  0.00     0.219 HD
ENDBRANCH   4  34
BRANCH  11  36
HETATM   36  C17 UNL     1     -19.607   1.426   4.671  1.00  0.00     0.106 C 
BRANCH  36  37
HETATM   37  C18 UNL     1     -19.534  -0.013   4.471  1.00  0.00     0.233 C 
HETATM   38  O7  UNL     1     -20.246  -0.697   3.772  1.00  0.00    -0.307 OA
ENDBRANCH  36  37
ENDBRANCH  11  36
BRANCH   7  39
HETATM   39  C11 UNL     1     -14.875   2.954   2.969  1.00  0.00     0.039 C 
BRANCH  39  40
HETATM   40  C12 UNL     1     -13.677   3.532   2.331  1.00  0.00    -0.020 C 
HETATM   41  C13 UNL     1     -13.198   2.778   1.107  1.00  0.00     0.009 C 
HETATM   42  C14 UNL     1     -13.670   4.998   2.115  1.00  0.00     0.009 C 
ENDBRANCH  39  40
ENDBRANCH   7  39
TORSDOF 11
ENDMDL
MODEL 5
REMARK VINA RESULT: -7.543186041      3.334      6.032
REMARK  11 active torsions:
REMARK  status: ('A' for Active; 'I' for Inactive)
REMARK    1  A    between atoms: C2_2  and  O1_3 
REMARK    2  A    between atoms: O1_3  and  C3_4 
REMARK       I    between atoms: C3_4  and  N1_6 
REMARK    3  A    between atoms: N1_6  and  C4_8 
REMARK    4  A    between atoms: C4_8  and  C5_9 
REMARK    5  A    between atoms: C4_8  and  C22_39 
REMARK       I    between atoms: C5_9  and  N2_11 
REMARK    6  A    between atoms: N2_11  and  C6_13 
REMARK    7  A    between atoms: C9_16  and  O4_17 
REMARK    8  A    between atoms: C10_21  and  C11_22 
REMARK    9  A    between atoms: C11_22  and  C12_23 
REMARK   10  A    between atoms: C16_29  and  C17_30 
REMARK   11  A    between atoms: C17_30  and  C18_31 
ROOT
HETATM    1  C6  UNL     1     -17.742   7.511   1.747  1.00  0.00     0.177 C 
HETATM    2  C7  UNL     1     -16.313   7.246   1.411  1.00  0.00     0.043 C 
HETATM    3  C8  UNL     1     -15.655   5.994   1.929  1.00  0.00     0.086 C 
HETATM    4  C9  UNL     1     -16.621   5.008   2.471  1.00  0.00     0.111 C 
HETATM    5  N3  UNL     1     -17.205   3.857   2.066  1.00  0.00    -0.361 N 
ATOM      6  H3  UNL     1     -17.781   4.111   1.263  1.00  0.00     0.162 HD
HETATM    7  C10 UNL     1     -17.389   2.472   2.238  1.00  0.00     0.183 C 
HETATM    8  C15 UNL     1     -18.913   2.175   2.234  1.00  0.00     0.282 C 
HETATM    9  O5  UNL     1     -19.185   0.994   2.481  1.00  0.00    -0.263 OA
HETATM   10  O6  UNL     1     -19.722   3.247   1.960  1.00  0.00    -0.309 OA
HETATM   11  C16 UNL     1     -20.244   4.273   2.694  1.00  0.00     0.192 C 
HETATM   12  C19 UNL     1     -20.421   5.638   2.214  1.00  0.00     0.303 C 
HETATM   13  F1  UNL     1     -21.811   5.871   2.112  1.00  0.00    -0.224 F 
HETATM   14  N4  UNL     1     -19.861   6.135   1.013  1.00  0.00    -0.322 N 
HETATM   15  C20 UNL     1     -20.580   5.694  -0.207  1.00  0.00     0.155 C 
HETATM   16  C21 UNL     1     -18.748   6.967   0.788  1.00  0.00     0.244 C 
HETATM   17  O8  UNL     1     -18.530   7.337  -0.421  1.00  0.00    -0.271 OA
ENDROOT
BRANCH   1  18
HETATM   18  N2  UNL     1     -17.886   8.980   1.501  1.00  0.00    -0.346 N 
HETATM   19  C5  UNL     1     -18.647   9.809   2.316  1.00  0.00     0.242 C 
HETATM   20  O3  UNL     1     -19.247   9.273   3.294  1.00  0.00    -0.271 OA
ATOM     21  H2  UNL     1     -17.406   9.390   0.701  1.00  0.00     0.163 HD
BRANCH  19  22
HETATM   22  C4  UNL     1     -18.744  11.255   2.030  1.00  0.00     0.186 C 
BRANCH  22  23
HETATM   23  N1  UNL     1     -17.365  11.782   1.792  1.00  0.00    -0.323 N 
HETATM   24  C3  UNL     1     -16.575  12.202   2.881  1.00  0.00     0.361 C 
HETATM   25  O2  UNL     1     -17.021  12.142   4.077  1.00  0.00    -0.238 OA
ATOM     26  H1  UNL     1     -16.997  11.838   0.842  1.00  0.00     0.165 HD
BRANCH  24  27
HETATM   27  O1  UNL     1     -15.304  12.688   2.685  1.00  0.00    -0.304 OA
BRANCH  27  28
HETATM   28  C2  UNL     1     -14.175  11.928   3.101  1.00  0.00     0.176 C 
HETATM   29  C1  UNL     1     -13.923  10.805   2.160  1.00  0.00     0.034 C 
ENDBRANCH  27  28
ENDBRANCH  24  27
ENDBRANCH  22  23
BRANCH  22  30
HETATM   30  C22 UNL     1     -19.593  11.616   0.847  1.00  0.00    -0.022 C 
HETATM   31  C23 UNL     1     -20.203  12.983   1.140  1.00  0.00     0.017 C 
HETATM   32  C24 UNL     1     -18.828  11.707  -0.447  1.00  0.00     0.017 C 
HETATM   33  C25 UNL     1     -20.721  10.656   0.653  1.00  0.00     0.017 C 
ENDBRANCH  22  30
ENDBRANCH  19  22
ENDBRANCH   1  18
BRANCH   4  34
HETATM   34  O4  UNL     1     -16.924   5.479   3.661  1.00  0.00    -0.350 OA
ATOM     35  H4  UNL     1     -17.665   6.052   3.499  1.00  0.00     0.219 HD
ENDBRANCH   4  34
BRANCH  11  36
HETATM   36  C17 UNL     1     -21.498   3.816   3.480  1.00  0.00     0.106 C 
BRANCH  36  37
HETATM   37  C18 UNL     1     -22.279   2.797   2.797  1.00  0.00     0.233 C 
HETATM   38  O7  UNL     1     -22.409   1.635   3.108  1.00  0.00    -0.307 OA
ENDBRANCH  36  37
ENDBRANCH  11  36
BRANCH   7  39
HETATM   39  C11 UNL     1     -16.702   1.678   3.244  1.00  0.00     0.039 C 
BRANCH  39  40
HETATM   40  C12 UNL     1     -15.588   0.786   2.867  1.00  0.00    -0.020 C 
HETATM   41  C13 UNL     1     -15.990  -0.372   1.978  1.00  0.00     0.009 C 
HETATM   42  C14 UNL     1     -14.338   1.432   2.403  1.00  0.00     0.009 C 
ENDBRANCH  39  40
ENDBRANCH   7  39
TORSDOF 11
ENDMDL
