MODEL 1
REMARK VINA RESULT: -7.302752930      0.000      0.000
REMARK  9 active torsions:
REMARK  status: ('A' for Active; 'I' for Inactive)
REMARK    1  A    between atoms: C2_2  and  N1_4 
REMARK       I    between atoms: N1_4  and  C4_6 
REMARK    2  A    between atoms: C4_6  and  C5_8 
REMARK    3  A    between atoms: C7_12  and  O2_13 
REMARK    4  A    between atoms: O2_13  and  C8_14 
REMARK    5  A    between atoms: C8_14  and  C9_15 
REMARK    6  A    between atoms: C8_14  and  C10_20 
REMARK    7  A    between atoms: C9_15  and  S2_16 
REMARK    8  A    between atoms: C11_23  and  C12_24 
REMARK       I    between atoms: C12_24  and  N3_26 
REMARK    9  A    between atoms: N3_26  and  C13_28 
ROOT
HETATM    1  C5  UNL     1     -20.498   3.764   2.158  1.00  0.00     0.176 C 
HETATM    2  S1  UNL     1     -20.415   3.801   0.324  1.00  0.00    -0.122 SA
HETATM    3  C6  UNL     1     -19.450   5.370   0.274  1.00  0.00     0.351 C 
HETATM    4  N2  UNL     1     -18.861   5.439   1.563  1.00  0.00     0.134 N 
HETATM    5  C7  UNL     1     -19.075   6.774   2.168  1.00  0.00     0.376 C 
HETATM    6  C11 UNL     1     -20.336   6.263   2.785  1.00  0.00     0.172 C 
HETATM    7  C17 UNL     1     -19.719   4.929   2.561  1.00  0.00     0.267 C 
ENDROOT
BRANCH   5   8
HETATM    8  O2  UNL     1     -19.110   7.816   1.283  1.00  0.00    -0.339 OA
BRANCH   8   9
HETATM    9  C8  UNL     1     -18.030   8.663   1.522  1.00  0.00     0.241 C 
BRANCH   9  10
HETATM   10  C9  UNL     1     -17.398   9.175   0.237  1.00  0.00     0.208 C 
BRANCH  10  11
HETATM   11  S2  UNL     1     -15.938   8.319  -0.218  1.00  0.00     0.104 S 
HETATM   12  O3  UNL     1     -14.732   9.014   0.318  1.00  0.00    -0.595 OA
HETATM   13  O4  UNL     1     -15.935   6.901   0.325  1.00  0.00    -0.595 OA
HETATM   14  O5  UNL     1     -15.777   8.188  -1.886  1.00  0.00    -0.595 OA
ENDBRANCH  10  11
ENDBRANCH   9  10
BRANCH   9  15
HETATM   15  C10 UNL     1     -18.321   9.804   2.394  1.00  0.00     0.204 C 
HETATM   16  O6  UNL     1     -17.635  10.834   2.483  1.00  0.00    -0.646 OA
HETATM   17  O7  UNL     1     -19.459   9.726   3.186  1.00  0.00    -0.646 OA
ENDBRANCH   9  15
ENDBRANCH   8   9
ENDBRANCH   5   8
BRANCH   6  18
HETATM   18  C12 UNL     1     -21.617   6.592   2.218  1.00  0.00     0.229 C 
HETATM   19  O8  UNL     1     -22.608   5.795   2.068  1.00  0.00    -0.273 OA
HETATM   20  N3  UNL     1     -21.870   7.906   1.762  1.00  0.00    -0.352 N 
ATOM     21  H3  UNL     1     -21.122   8.593   1.855  1.00  0.00     0.163 HD
BRANCH  20  22
HETATM   22  C13 UNL     1     -23.116   8.341   1.173  1.00  0.00     0.022 C 
HETATM   23  C14 UNL     1     -23.224   7.927  -0.277  1.00  0.00     0.037 C 
HETATM   24  C15 UNL     1     -24.322   7.751   1.898  1.00  0.00     0.037 C 
HETATM   25  C16 UNL     1     -23.279   9.844   1.227  1.00  0.00     0.037 C 
ENDBRANCH  20  22
ENDBRANCH   6  18
BRANCH   1  26
HETATM   26  C4  UNL     1     -19.746   2.512   2.539  1.00  0.00     0.246 C 
HETATM   27  N1  UNL     1     -20.442   1.328   2.886  1.00  0.00    -0.279 N 
HETATM   28 BR1  UNL     1     -22.351   1.279   2.879  1.00  0.00     0.052 Br
HETATM   29  O1  UNL     1     -18.493   2.513   2.551  1.00  0.00    -0.271 OA
BRANCH  27  30
HETATM   30  C2  UNL     1     -19.674   0.153   3.244  1.00  0.00     0.092 C 
HETATM   31  C1  UNL     1     -19.738  -0.075   4.740  1.00  0.00     0.033 C 
HETATM   32  C3  UNL     1     -20.277  -1.034   2.548  1.00  0.00     0.033 C 
ENDBRANCH  27  30
ENDBRANCH   1  26
TORSDOF 9
ENDMDL
MODEL 2
REMARK VINA RESULT: -7.293076748      0.264      1.112
REMARK  9 active torsions:
REMARK  status: ('A' for Active; 'I' for Inactive)
REMARK    1  A    between atoms: C2_2  and  N1_4 
REMARK       I    between atoms: N1_4  and  C4_6 
REMARK    2  A    between atoms: C4_6  and  C5_8 
REMARK    3  A    between atoms: C7_12  and  O2_13 
REMARK    4  A    between atoms: O2_13  and  C8_14 
REMARK    5  A    between atoms: C8_14  and  C9_15 
REMARK    6  A    between atoms: C8_14  and  C10_20 
REMARK    7  A    between atoms: C9_15  and  S2_16 
REMARK    8  A    between atoms: C11_23  and  C12_24 
REMARK       I    between atoms: C12_24  and  N3_26 
REMARK    9  A    between atoms: N3_26  and  C13_28 
ROOT
HETATM    1  C5  UNL     1     -20.594   3.723   2.082  1.00  0.00     0.176 C 
HETATM    2  S1  UNL     1     -20.482   3.831   0.252  1.00  0.00    -0.122 SA
HETATM    3  C6  UNL     1     -19.592   5.444   0.276  1.00  0.00     0.351 C 
HETATM    4  N2  UNL     1     -19.029   5.493   1.577  1.00  0.00     0.134 N 
HETATM    5  C7  UNL     1     -19.316   6.794   2.226  1.00  0.00     0.376 C 
HETATM    6  C11 UNL     1     -20.561   6.203   2.800  1.00  0.00     0.172 C 
HETATM    7  C17 UNL     1     -19.878   4.908   2.541  1.00  0.00     0.267 C 
ENDROOT
BRANCH   5   8
HETATM    8  O2  UNL     1     -19.385   7.865   1.378  1.00  0.00    -0.339 OA
BRANCH   8   9
HETATM    9  C8  UNL     1     -18.173   8.549   1.397  1.00  0.00     0.241 C 
BRANCH   9  10
HETATM   10  C9  UNL     1     -17.689   8.913   0.002  1.00  0.00     0.208 C 
BRANCH  10  11
HETATM   11  S2  UNL     1     -16.184   8.134  -0.445  1.00  0.00     0.104 S 
HETATM   12  O3  UNL     1     -16.136   6.739   0.082  1.00  0.00    -0.595 OA
HETATM   13  O4  UNL     1     -16.022   8.065  -1.953  1.00  0.00    -0.595 OA
HETATM   14  O5  UNL     1     -14.845   8.966   0.137  1.00  0.00    -0.595 OA
ENDBRANCH  10  11
ENDBRANCH   9  10
BRANCH   9  15
HETATM   15  C10 UNL     1     -18.156   9.754   2.232  1.00  0.00     0.204 C 
HETATM   16  O6  UNL     1     -17.335  10.680   2.143  1.00  0.00    -0.646 OA
HETATM   17  O7  UNL     1     -19.142   9.868   3.204  1.00  0.00    -0.646 OA
ENDBRANCH   9  15
ENDBRANCH   8   9
ENDBRANCH   5   8
BRANCH   6  18
HETATM   18  C12 UNL     1     -21.847   6.491   2.222  1.00  0.00     0.229 C 
HETATM   19  O8  UNL     1     -22.798   5.655   2.029  1.00  0.00    -0.273 OA
HETATM   20  N3  UNL     1     -22.153   7.807   1.805  1.00  0.00    -0.352 N 
ATOM     21  H3  UNL     1     -21.439   8.524   1.935  1.00  0.00     0.163 HD
BRANCH  20  22
HETATM   22  C13 UNL     1     -23.408   8.205   1.209  1.00  0.00     0.022 C 
HETATM   23  C14 UNL     1     -23.550   9.709   1.158  1.00  0.00     0.037 C 
HETATM   24  C15 UNL     1     -23.543   7.693  -0.222  1.00  0.00     0.037 C 
HETATM   25  C16 UNL     1     -24.599   7.665   1.970  1.00  0.00     0.037 C 
ENDBRANCH  20  22
ENDBRANCH   6  18
BRANCH   1  26
HETATM   26  C4  UNL     1     -19.790   2.494   2.432  1.00  0.00     0.246 C 
HETATM   27  N1  UNL     1     -20.435   1.291   2.810  1.00  0.00    -0.279 N 
HETATM   28 BR1  UNL     1     -22.341   1.187   2.886  1.00  0.00     0.052 Br
HETATM   29  O1  UNL     1     -18.538   2.532   2.391  1.00  0.00    -0.271 OA
BRANCH  27  30
HETATM   30  C2  UNL     1     -19.619   0.140   3.137  1.00  0.00     0.092 C 
HETATM   31  C1  UNL     1     -19.554  -0.043   4.638  1.00  0.00     0.033 C 
HETATM   32  C3  UNL     1     -20.256  -1.077   2.528  1.00  0.00     0.033 C 
ENDBRANCH  27  30
ENDBRANCH   1  26
TORSDOF 9
ENDMDL
MODEL 3
REMARK VINA RESULT: -7.277034153      1.112      2.590
REMARK  9 active torsions:
REMARK  status: ('A' for Active; 'I' for Inactive)
REMARK    1  A    between atoms: C2_2  and  N1_4 
REMARK       I    between atoms: N1_4  and  C4_6 
REMARK    2  A    between atoms: C4_6  and  C5_8 
REMARK    3  A    between atoms: C7_12  and  O2_13 
REMARK    4  A    between atoms: O2_13  and  C8_14 
REMARK    5  A    between atoms: C8_14  and  C9_15 
REMARK    6  A    between atoms: C8_14  and  C10_20 
REMARK    7  A    between atoms: C9_15  and  S2_16 
REMARK    8  A    between atoms: C11_23  and  C12_24 
REMARK       I    between atoms: C12_24  and  N3_26 
REMARK    9  A    between atoms: N3_26  and  C13_28 
ROOT
HETATM    1  C5  UNL     1     -20.345   3.839   2.408  1.00  0.00     0.176 C 
HETATM    2  S1  UNL     1     -20.549   3.581   0.601  1.00  0.00    -0.122 SA
HETATM    3  C6  UNL     1     -19.380   4.932   0.150  1.00  0.00     0.351 C 
HETATM    4  N2  UNL     1     -18.591   5.093   1.318  1.00  0.00     0.134 N 
HETATM    5  C7  UNL     1     -18.504   6.522   1.702  1.00  0.00     0.376 C 
HETATM    6  C11 UNL     1     -19.714   6.338   2.558  1.00  0.00     0.172 C 
HETATM    7  C17 UNL     1     -19.347   4.898   2.494  1.00  0.00     0.267 C 
ENDROOT
BRANCH   5   8
HETATM    8  O2  UNL     1     -18.521   7.407   0.659  1.00  0.00    -0.339 OA
BRANCH   8   9
HETATM    9  C8  UNL     1     -17.368   8.186   0.694  1.00  0.00     0.241 C 
BRANCH   9  10
HETATM   10  C9  UNL     1     -17.149   8.838   2.050  1.00  0.00     0.208 C 
BRANCH  10  11
HETATM   11  S2  UNL     1     -18.297  10.112   2.410  1.00  0.00     0.104 S 
HETATM   12  O3  UNL     1     -18.974  10.579   1.166  1.00  0.00    -0.595 OA
HETATM   13  O4  UNL     1     -19.372   9.634   3.371  1.00  0.00    -0.595 OA
HETATM   14  O5  UNL     1     -17.562  11.435   3.142  1.00  0.00    -0.595 OA
ENDBRANCH  10  11
ENDBRANCH   9  10
BRANCH   9  15
HETATM   15  C10 UNL     1     -16.140   7.489   0.301  1.00  0.00     0.204 C 
HETATM   16  O6  UNL     1     -15.156   7.298   1.031  1.00  0.00    -0.646 OA
HETATM   17  O7  UNL     1     -16.072   7.004  -1.000  1.00  0.00    -0.646 OA
ENDBRANCH   9  15
ENDBRANCH   8   9
ENDBRANCH   5   8
BRANCH   6  18
HETATM   18  C12 UNL     1     -21.005   6.794   2.114  1.00  0.00     0.229 C 
HETATM   19  O8  UNL     1     -22.115   6.167   2.236  1.00  0.00    -0.273 OA
HETATM   20  N3  UNL     1     -21.127   8.048   1.475  1.00  0.00    -0.352 N 
ATOM     21  H3  UNL     1     -20.280   8.602   1.349  1.00  0.00     0.163 HD
BRANCH  20  22
HETATM   22  C13 UNL     1     -22.371   8.600   0.987  1.00  0.00     0.022 C 
HETATM   23  C14 UNL     1     -22.449  10.092   1.216  1.00  0.00     0.037 C 
HETATM   24  C15 UNL     1     -22.544   8.368  -0.511  1.00  0.00     0.037 C 
HETATM   25  C16 UNL     1     -23.575   7.977   1.657  1.00  0.00     0.037 C 
ENDBRANCH  20  22
ENDBRANCH   6  18
BRANCH   1  26
HETATM   26  C4  UNL     1     -19.739   2.548   2.902  1.00  0.00     0.246 C 
HETATM   27  N1  UNL     1     -20.553   1.417   3.154  1.00  0.00    -0.279 N 
HETATM   28 BR1  UNL     1     -22.441   1.490   2.875  1.00  0.00     0.052 Br
HETATM   29  O1  UNL     1     -18.503   2.470   3.093  1.00  0.00    -0.271 OA
BRANCH  27  30
HETATM   30  C2  UNL     1     -19.923   0.201   3.627  1.00  0.00     0.092 C 
HETATM   31  C1  UNL     1     -20.489  -0.187   4.977  1.00  0.00     0.033 C 
HETATM   32  C3  UNL     1     -20.219  -0.896   2.645  1.00  0.00     0.033 C 
ENDBRANCH  27  30
ENDBRANCH   1  26
TORSDOF 9
ENDMDL
MODEL 4
REMARK VINA RESULT: -7.258439037      3.043      7.823
REMARK  9 active torsions:
REMARK  status: ('A' for Active; 'I' for Inactive)
REMARK    1  A    between atoms: C2_2  and  N1_4 
REMARK       I    between atoms: N1_4  and  C4_6 
REMARK    2  A    between atoms: C4_6  and  C5_8 
REMARK    3  A    between atoms: C7_12  and  O2_13 
REMARK    4  A    between atoms: O2_13  and  C8_14 
REMARK    5  A    between atoms: C8_14  and  C9_15 
REMARK    6  A    between atoms: C8_14  and  C10_20 
REMARK    7  A    between atoms: C9_15  and  S2_16 
REMARK    8  A    between atoms: C11_23  and  C12_24 
REMARK       I    between atoms: C12_24  and  N3_26 
REMARK    9  A    between atoms: N3_26  and  C13_28 
ROOT
HETATM    1  C5  UNL     1     -21.079   6.151   1.489  1.00  0.00     0.176 C 
HETATM    2  S1  UNL     1     -20.952   5.550  -0.242  1.00  0.00    -0.122 SA
HETATM    3  C6  UNL     1     -20.454   3.847   0.254  1.00  0.00     0.351 C 
HETATM    4  N2  UNL     1     -20.912   3.743   1.593  1.00  0.00     0.134 N 
HETATM    5  C7  UNL     1     -19.842   3.222   2.476  1.00  0.00     0.376 C 
HETATM    6  C11 UNL     1     -19.415   4.627   2.743  1.00  0.00     0.172 C 
HETATM    7  C17 UNL     1     -20.789   4.966   2.287  1.00  0.00     0.267 C 
ENDROOT
BRANCH   5   8
HETATM    8  O2  UNL     1     -18.982   2.336   1.888  1.00  0.00    -0.339 OA
BRANCH   8   9
HETATM    9  C8  UNL     1     -19.096   1.097   2.512  1.00  0.00     0.241 C 
BRANCH   9  10
HETATM   10  C9  UNL     1     -19.855   0.087   1.665  1.00  0.00     0.208 C 
BRANCH  10  11
HETATM   11  S2  UNL     1     -21.372  -0.427   2.376  1.00  0.00     0.104 S 
HETATM   12  O3  UNL     1     -21.211  -0.678   3.837  1.00  0.00    -0.595 OA
HETATM   13  O4  UNL     1     -22.450   0.628   2.204  1.00  0.00    -0.595 OA
HETATM   14  O5  UNL     1     -21.962  -1.828   1.660  1.00  0.00    -0.595 OA
ENDBRANCH  10  11
ENDBRANCH   9  10
BRANCH   9  15
HETATM   15  C10 UNL     1     -17.826   0.499   2.936  1.00  0.00     0.204 C 
HETATM   16  O6  UNL     1     -17.641  -0.705   3.171  1.00  0.00    -0.646 OA
HETATM   17  O7  UNL     1     -16.740   1.353   3.087  1.00  0.00    -0.646 OA
ENDBRANCH   9  15
ENDBRANCH   8   9
ENDBRANCH   5   8
BRANCH   6  18
HETATM   18  C12 UNL     1     -18.259   5.182   2.089  1.00  0.00     0.229 C 
HETATM   19  O8  UNL     1     -18.168   6.347   1.565  1.00  0.00    -0.273 OA
HETATM   20  N3  UNL     1     -17.076   4.416   1.980  1.00  0.00    -0.352 N 
ATOM     21  H3  UNL     1     -17.079   3.477   2.380  1.00  0.00     0.163 HD
BRANCH  20  22
HETATM   22  C13 UNL     1     -15.863   4.871   1.340  1.00  0.00     0.022 C 
HETATM   23  C14 UNL     1     -15.354   6.154   1.956  1.00  0.00     0.037 C 
HETATM   24  C15 UNL     1     -14.741   3.843   1.455  1.00  0.00     0.037 C 
HETATM   25  C16 UNL     1     -16.057   5.127  -0.138  1.00  0.00     0.037 C 
ENDBRANCH  20  22
ENDBRANCH   6  18
BRANCH   1  26
HETATM   26  C4  UNL     1     -22.536   6.511   1.652  1.00  0.00     0.246 C 
HETATM   27  N1  UNL     1     -23.029   7.756   1.189  1.00  0.00    -0.279 N 
HETATM   28 BR1  UNL     1     -21.867   9.014   0.344  1.00  0.00     0.052 Br
HETATM   29  O1  UNL     1     -23.322   5.706   2.201  1.00  0.00    -0.271 OA
BRANCH  27  30
HETATM   30  C2  UNL     1     -24.435   8.054   1.369  1.00  0.00     0.092 C 
HETATM   31  C1  UNL     1     -24.636   9.547   1.522  1.00  0.00     0.033 C 
HETATM   32  C3  UNL     1     -25.175   7.590   0.148  1.00  0.00     0.033 C 
ENDBRANCH  27  30
ENDBRANCH   1  26
TORSDOF 9
ENDMDL
MODEL 5
REMARK VINA RESULT: -7.118692579      2.895      7.494
REMARK  9 active torsions:
REMARK  status: ('A' for Active; 'I' for Inactive)
REMARK    1  A    between atoms: C2_2  and  N1_4 
REMARK       I    between atoms: N1_4  and  C4_6 
REMARK    2  A    between atoms: C4_6  and  C5_8 
REMARK    3  A    between atoms: C7_12  and  O2_13 
REMARK    4  A    between atoms: O2_13  and  C8_14 
REMARK    5  A    between atoms: C8_14  and  C9_15 
REMARK    6  A    between atoms: C8_14  and  C10_20 
REMARK    7  A    between atoms: C9_15  and  S2_16 
REMARK    8  A    between atoms: C11_23  and  C12_24 
REMARK       I    between atoms: C12_24  and  N3_26 
REMARK    9  A    between atoms: N3_26  and  C13_28 
ROOT
HETATM    1  C5  UNL     1     -21.351   6.709   1.364  1.00  0.00     0.176 C 
HETATM    2  S1  UNL     1     -21.201   6.034  -0.337  1.00  0.00    -0.122 SA
HETATM    3  C6  UNL     1     -20.541   4.410   0.231  1.00  0.00     0.351 C 
HETATM    4  N2  UNL     1     -20.962   4.334   1.583  1.00  0.00     0.134 N 
HETATM    5  C7  UNL     1     -19.834   3.958   2.466  1.00  0.00     0.376 C 
HETATM    6  C11 UNL     1     -19.532   5.408   2.654  1.00  0.00     0.172 C 
HETATM    7  C17 UNL     1     -20.939   5.597   2.213  1.00  0.00     0.267 C 
ENDROOT
BRANCH   5   8
HETATM    8  O2  UNL     1     -18.907   3.124   1.903  1.00  0.00    -0.339 OA
BRANCH   8   9
HETATM    9  C8  UNL     1     -18.563   2.131   2.816  1.00  0.00     0.241 C 
BRANCH   9  10
HETATM   10  C9  UNL     1     -19.305   0.828   2.564  1.00  0.00     0.208 C 
BRANCH  10  11
HETATM   11  S2  UNL     1     -20.232   0.269   3.941  1.00  0.00     0.104 S 
HETATM   12  O3  UNL     1     -19.356  -0.454   4.908  1.00  0.00    -0.595 OA
HETATM   13  O4  UNL     1     -20.879   1.427   4.680  1.00  0.00    -0.595 OA
HETATM   14  O5  UNL     1     -21.481  -0.760   3.487  1.00  0.00    -0.595 OA
ENDBRANCH  10  11
ENDBRANCH   9  10
BRANCH   9  15
HETATM   15  C10 UNL     1     -17.128   1.848   2.909  1.00  0.00     0.204 C 
HETATM   16  O6  UNL     1     -16.255   2.660   3.255  1.00  0.00    -0.646 OA
HETATM   17  O7  UNL     1     -16.710   0.563   2.583  1.00  0.00    -0.646 OA
ENDBRANCH   9  15
ENDBRANCH   8   9
ENDBRANCH   5   8
BRANCH   6  18
HETATM   18  C12 UNL     1     -18.443   6.030   1.947  1.00  0.00     0.229 C 
HETATM   19  O8  UNL     1     -18.480   7.154   1.333  1.00  0.00    -0.273 OA
HETATM   20  N3  UNL     1     -17.185   5.389   1.886  1.00  0.00    -0.352 N 
ATOM     21  H3  UNL     1     -17.087   4.490   2.358  1.00  0.00     0.163 HD
BRANCH  20  22
HETATM   22  C13 UNL     1     -16.029   5.921   1.200  1.00  0.00     0.022 C 
HETATM   23  C14 UNL     1     -14.743   5.338   1.739  1.00  0.00     0.037 C 
HETATM   24  C15 UNL     1     -16.067   5.616  -0.294  1.00  0.00     0.037 C 
HETATM   25  C16 UNL     1     -15.931   7.425   1.327  1.00  0.00     0.037 C 
ENDBRANCH  20  22
ENDBRANCH   6  18
BRANCH   1  26
HETATM   26  C4  UNL     1     -22.831   6.944   1.542  1.00  0.00     0.246 C 
HETATM   27  N1  UNL     1     -23.409   8.194   1.213  1.00  0.00    -0.279 N 
HETATM   28 BR1  UNL     1     -22.335   9.619   0.533  1.00  0.00     0.052 Br
HETATM   29  O1  UNL     1     -23.562   6.028   1.985  1.00  0.00    -0.271 OA
BRANCH  27  30
HETATM   30  C2  UNL     1     -24.835   8.370   1.402  1.00  0.00     0.092 C 
HETATM   31  C1  UNL     1     -25.142   9.814   1.736  1.00  0.00     0.033 C 
HETATM   32  C3  UNL     1     -25.528   8.013   0.118  1.00  0.00     0.033 C 
ENDBRANCH  27  30
ENDBRANCH   1  26
TORSDOF 9
ENDMDL
