MODEL 1
REMARK VINA RESULT: -7.940840551      0.000      0.000
REMARK  13 active torsions:
REMARK  status: ('A' for Active; 'I' for Inactive)
REMARK    1  A    between atoms: C2_2  and  O1_5 
REMARK    2  A    between atoms: O1_5  and  C5_6 
REMARK       I    between atoms: C5_6  and  N1_8 
REMARK    3  A    between atoms: N1_8  and  C6_10 
REMARK    4  A    between atoms: C6_10  and  C7_11 
REMARK    5  A    between atoms: C7_11  and  N2_12 
REMARK    6  A    between atoms: C12_21  and  N4_22 
REMARK    7  A    between atoms: N4_22  and  O4_23 
REMARK       I    between atoms: N4_22  and  C13_25 
REMARK    8  A    between atoms: C13_25  and  C14_27 
REMARK    9  A    between atoms: C14_27  and  C15_28 
REMARK   10  A    between atoms: C15_28  and  C16_29 
REMARK   11  A    between atoms: C16_29  and  C17_30 
REMARK   12  A    between atoms: C17_30  and  C19_33 
REMARK       I    between atoms: C19_33  and  N5_35 
REMARK   13  A    between atoms: N5_35  and  N6_37 
ROOT
HETATM    1  N2  UNL     1     -18.283   7.016   1.152  1.00  0.00    -0.348 N 
HETATM    2  C8  UNL     1     -18.281   7.731  -0.106  1.00  0.00     0.136 C 
HETATM    3  C9  UNL     1     -19.226   8.880  -0.161  1.00  0.00     0.095 C 
HETATM    4  S1  UNL     1     -20.039   9.233   1.407  1.00  0.00    -0.148 SA
HETATM    5  C10 UNL     1     -21.708   8.521   1.389  1.00  0.00     0.197 C 
HETATM    6  N3  UNL     1     -21.860   7.705   0.199  1.00  0.00    -0.350 N 
ATOM      7  H3  UNL     1     -22.486   8.026  -0.540  1.00  0.00     0.163 HD
HETATM    8  C11 UNL     1     -21.172   6.481   0.026  1.00  0.00     0.253 C 
HETATM    9  O3  UNL     1     -21.085   5.996  -1.124  1.00  0.00    -0.271 OA
HETATM   10  C12 UNL     1     -20.575   5.802   1.186  1.00  0.00     0.301 C 
HETATM   11  C20 UNL     1     -19.410   6.489   1.778  1.00  0.00     0.254 C 
HETATM   12  O7  UNL     1     -19.430   6.625   3.056  1.00  0.00    -0.270 OA
ENDROOT
BRANCH  10  13
HETATM   13  N4  UNL     1     -20.109   4.463   0.838  1.00  0.00    -0.202 N 
HETATM   14  C13 UNL     1     -20.548   3.300   1.486  1.00  0.00     0.267 C 
HETATM   15  O5  UNL     1     -20.063   2.184   1.089  1.00  0.00    -0.266 OA
BRANCH  13  16
HETATM   16  O4  UNL     1     -19.187   4.311  -0.176  1.00  0.00    -0.283 OA
ATOM     17  H4  UNL     1     -19.453   3.896  -0.988  1.00  0.00     0.245 HD
ENDBRANCH  13  16
BRANCH  14  18
HETATM   18  C14 UNL     1     -21.509   3.272   2.569  1.00  0.00     0.072 C 
BRANCH  18  19
HETATM   19  C15 UNL     1     -21.565   2.225   3.387  1.00  0.00    -0.019 C 
BRANCH  19  20
HETATM   20  C16 UNL     1     -20.516   1.975   4.409  1.00  0.00     0.062 C 
BRANCH  20  21
HETATM   21  C17 UNL     1     -20.362   0.498   4.698  1.00  0.00     0.118 C 
HETATM   22  C18 UNL     1     -21.718  -0.154   4.816  1.00  0.00     0.043 C 
HETATM   23 CL1  UNL     1     -19.516   0.270   6.242  1.00  0.00    -0.109 Cl
BRANCH  21  24
HETATM   24  C19 UNL     1     -19.611  -0.188   3.635  1.00  0.00     0.260 C 
HETATM   25  O6  UNL     1     -20.169  -1.041   2.903  1.00  0.00    -0.270 OA
HETATM   26  N5  UNL     1     -18.238   0.114   3.431  1.00  0.00    -0.254 N 
ATOM     27  H5  UNL     1     -17.549  -0.638   3.440  1.00  0.00     0.191 HD
BRANCH  26  28
HETATM   28  N6  UNL     1     -17.871   1.270   3.244  1.00  0.00    -0.247 N 
HETATM   29  N7  UNL     1     -17.328   2.228   2.663  1.00  0.00    -0.331 N 
ATOM     30  H72 UNL     1     -16.983   1.725   1.844  1.00  0.00     0.178 HD
ATOM     31  H71 UNL     1     -17.023   3.188   2.507  1.00  0.00     0.178 HD
ATOM     32  H6  UNL     1     -18.234   1.728   4.080  1.00  0.00     0.207 HD
ENDBRANCH  26  28
ENDBRANCH  21  24
ENDBRANCH  20  21
ENDBRANCH  19  20
ENDBRANCH  18  19
ENDBRANCH  14  18
ENDBRANCH  10  13
BRANCH   1  33
HETATM   33  C7  UNL     1     -16.979   6.847   1.811  1.00  0.00     0.145 C 
BRANCH  33  34
HETATM   34  C6  UNL     1     -15.997   6.170   0.876  1.00  0.00     0.144 C 
BRANCH  34  35
HETATM   35  N1  UNL     1     -15.740   4.825   1.397  1.00  0.00    -0.335 N 
HETATM   36  C5  UNL     1     -14.515   4.547   2.049  1.00  0.00     0.361 C 
HETATM   37  O2  UNL     1     -13.645   5.460   2.181  1.00  0.00    -0.238 OA
ATOM     38  H1  UNL     1     -16.441   4.092   1.291  1.00  0.00     0.164 HD
BRANCH  36  39
HETATM   39  O1  UNL     1     -14.286   3.280   2.533  1.00  0.00    -0.294 OA
BRANCH  39  40
HETATM   40  C2  UNL     1     -13.415   2.408   1.815  1.00  0.00     0.061 C 
HETATM   41  C1  UNL     1     -12.097   2.356   2.572  1.00  0.00     0.046 C 
HETATM   42  C3  UNL     1     -14.084   1.049   1.784  1.00  0.00     0.046 C 
HETATM   43  C4  UNL     1     -13.205   2.950   0.408  1.00  0.00     0.046 C 
ENDBRANCH  39  40
ENDBRANCH  36  39
ENDBRANCH  34  35
ENDBRANCH  33  34
ENDBRANCH   1  33
TORSDOF 13
ENDMDL
MODEL 2
REMARK VINA RESULT: -7.797257774      3.405      6.070
REMARK  13 active torsions:
REMARK  status: ('A' for Active; 'I' for Inactive)
REMARK    1  A    between atoms: C2_2  and  O1_5 
REMARK    2  A    between atoms: O1_5  and  C5_6 
REMARK       I    between atoms: C5_6  and  N1_8 
REMARK    3  A    between atoms: N1_8  and  C6_10 
REMARK    4  A    between atoms: C6_10  and  C7_11 
REMARK    5  A    between atoms: C7_11  and  N2_12 
REMARK    6  A    between atoms: C12_21  and  N4_22 
REMARK    7  A    between atoms: N4_22  and  O4_23 
REMARK       I    between atoms: N4_22  and  C13_25 
REMARK    8  A    between atoms: C13_25  and  C14_27 
REMARK    9  A    between atoms: C14_27  and  C15_28 
REMARK   10  A    between atoms: C15_28  and  C16_29 
REMARK   11  A    between atoms: C16_29  and  C17_30 
REMARK   12  A    between atoms: C17_30  and  C19_33 
REMARK       I    between atoms: C19_33  and  N5_35 
REMARK   13  A    between atoms: N5_35  and  N6_37 
ROOT
HETATM    1  N2  UNL     1     -17.873   5.669   1.888  1.00  0.00    -0.348 N 
HETATM    2  C8  UNL     1     -17.402   5.650   0.519  1.00  0.00     0.136 C 
HETATM    3  C9  UNL     1     -17.316   6.992  -0.120  1.00  0.00     0.095 C 
HETATM    4  S1  UNL     1     -17.653   8.360   1.003  1.00  0.00    -0.148 SA
HETATM    5  C10 UNL     1     -19.363   8.921   0.764  1.00  0.00     0.197 C 
HETATM    6  N3  UNL     1     -20.043   7.999  -0.124  1.00  0.00    -0.350 N 
ATOM      7  H3  UNL     1     -20.294   8.314  -1.061  1.00  0.00     0.163 HD
HETATM    8  C11 UNL     1     -20.370   6.677   0.262  1.00  0.00     0.253 C 
HETATM    9  O3  UNL     1     -20.651   5.842  -0.627  1.00  0.00    -0.271 OA
HETATM   10  C12 UNL     1     -20.379   6.306   1.685  1.00  0.00     0.301 C 
HETATM   11  C20 UNL     1     -19.049   6.271   2.326  1.00  0.00     0.254 C 
HETATM   12  O7  UNL     1     -18.956   6.880   3.454  1.00  0.00    -0.270 OA
ENDROOT
BRANCH  10  13
HETATM   13  N4  UNL     1     -20.950   4.978   1.887  1.00  0.00    -0.202 N 
HETATM   14  C13 UNL     1     -22.074   4.735   2.688  1.00  0.00     0.267 C 
HETATM   15  O5  UNL     1     -22.479   3.525   2.786  1.00  0.00    -0.266 OA
BRANCH  13  16
HETATM   16  O4  UNL     1     -20.369   3.892   1.267  1.00  0.00    -0.283 OA
ATOM     17  H4  UNL     1     -20.799   3.046   1.312  1.00  0.00     0.245 HD
ENDBRANCH  13  16
BRANCH  14  18
HETATM   18  C14 UNL     1     -22.809   5.752   3.410  1.00  0.00     0.072 C 
BRANCH  18  19
HETATM   19  C15 UNL     1     -24.027   6.107   3.014  1.00  0.00    -0.019 C 
BRANCH  19  20
HETATM   20  C16 UNL     1     -24.334   6.390   1.589  1.00  0.00     0.062 C 
BRANCH  20  21
HETATM   21  C17 UNL     1     -25.783   6.782   1.399  1.00  0.00     0.118 C 
HETATM   22  C18 UNL     1     -26.103   8.005   2.223  1.00  0.00     0.043 C 
HETATM   23 CL1  UNL     1     -26.841   5.467   1.949  1.00  0.00    -0.109 Cl
BRANCH  21  24
HETATM   24  C19 UNL     1     -26.084   7.082  -0.009  1.00  0.00     0.260 C 
HETATM   25  O6  UNL     1     -25.506   8.024  -0.602  1.00  0.00    -0.270 OA
HETATM   26  N5  UNL     1     -27.042   6.299  -0.709  1.00  0.00    -0.254 N 
ATOM     27  H5  UNL     1     -27.828   6.759  -1.170  1.00  0.00     0.191 HD
BRANCH  26  28
HETATM   28  N6  UNL     1     -26.934   5.079  -0.766  1.00  0.00    -0.247 N 
HETATM   29  N7  UNL     1     -27.212   3.911  -1.096  1.00  0.00    -0.331 N 
ATOM     30  H72 UNL     1     -28.032   4.112  -1.669  1.00  0.00     0.178 HD
ATOM     31  H71 UNL     1     -27.123   2.896  -1.144  1.00  0.00     0.178 HD
ATOM     32  H6  UNL     1     -26.110   4.928  -0.184  1.00  0.00     0.207 HD
ENDBRANCH  26  28
ENDBRANCH  21  24
ENDBRANCH  20  21
ENDBRANCH  19  20
ENDBRANCH  18  19
ENDBRANCH  14  18
ENDBRANCH  10  13
BRANCH   1  33
HETATM   33  C7  UNL     1     -17.022   4.999   2.883  1.00  0.00     0.145 C 
BRANCH  33  34
HETATM   34  C6  UNL     1     -16.827   3.542   2.517  1.00  0.00     0.144 C 
BRANCH  34  35
HETATM   35  N1  UNL     1     -18.092   2.846   2.769  1.00  0.00    -0.335 N 
HETATM   36  C5  UNL     1     -18.086   1.460   3.056  1.00  0.00     0.361 C 
HETATM   37  O2  UNL     1     -16.989   0.825   3.093  1.00  0.00    -0.238 OA
ATOM     38  H1  UNL     1     -18.973   3.358   2.739  1.00  0.00     0.164 HD
BRANCH  36  39
HETATM   39  O1  UNL     1     -19.280   0.819   3.291  1.00  0.00    -0.294 OA
BRANCH  39  40
HETATM   40  C2  UNL     1     -19.780  -0.097   2.318  1.00  0.00     0.061 C 
HETATM   41  C1  UNL     1     -20.810  -0.976   3.009  1.00  0.00     0.046 C 
HETATM   42  C3  UNL     1     -20.415   0.733   1.222  1.00  0.00     0.046 C 
HETATM   43  C4  UNL     1     -18.633  -0.937   1.778  1.00  0.00     0.046 C 
ENDBRANCH  39  40
ENDBRANCH  36  39
ENDBRANCH  34  35
ENDBRANCH  33  34
ENDBRANCH   1  33
TORSDOF 13
ENDMDL
MODEL 3
REMARK VINA RESULT: -7.776017991      1.574      1.960
REMARK  13 active torsions:
REMARK  status: ('A' for Active; 'I' for Inactive)
REMARK    1  A    between atoms: C2_2  and  O1_5 
REMARK    2  A    between atoms: O1_5  and  C5_6 
REMARK       I    between atoms: C5_6  and  N1_8 
REMARK    3  A    between atoms: N1_8  and  C6_10 
REMARK    4  A    between atoms: C6_10  and  C7_11 
REMARK    5  A    between atoms: C7_11  and  N2_12 
REMARK    6  A    between atoms: C12_21  and  N4_22 
REMARK    7  A    between atoms: N4_22  and  O4_23 
REMARK       I    between atoms: N4_22  and  C13_25 
REMARK    8  A    between atoms: C13_25  and  C14_27 
REMARK    9  A    between atoms: C14_27  and  C15_28 
REMARK   10  A    between atoms: C15_28  and  C16_29 
REMARK   11  A    between atoms: C16_29  and  C17_30 
REMARK   12  A    between atoms: C17_30  and  C19_33 
REMARK       I    between atoms: C19_33  and  N5_35 
REMARK   13  A    between atoms: N5_35  and  N6_37 
ROOT
HETATM    1  N2  UNL     1     -19.373   7.975   0.848  1.00  0.00    -0.348 N 
HETATM    2  C8  UNL     1     -19.485   8.368  -0.540  1.00  0.00     0.136 C 
HETATM    3  C9  UNL     1     -20.794   8.978  -0.902  1.00  0.00     0.095 C 
HETATM    4  S1  UNL     1     -21.888   9.249   0.503  1.00  0.00    -0.148 SA
HETATM    5  C10 UNL     1     -23.111   7.910   0.575  1.00  0.00     0.197 C 
HETATM    6  N3  UNL     1     -22.758   6.896  -0.400  1.00  0.00    -0.350 N 
ATOM      7  H3  UNL     1     -23.352   6.774  -1.220  1.00  0.00     0.163 HD
HETATM    8  C11 UNL     1     -21.620   6.068  -0.253  1.00  0.00     0.253 C 
HETATM    9  O3  UNL     1     -21.189   5.454  -1.254  1.00  0.00    -0.271 OA
HETATM   10  C12 UNL     1     -20.967   5.940   1.059  1.00  0.00     0.301 C 
HETATM   11  C20 UNL     1     -20.268   7.153   1.527  1.00  0.00     0.254 C 
HETATM   12  O7  UNL     1     -20.518   7.510   2.737  1.00  0.00    -0.270 OA
ENDROOT
BRANCH  10  13
HETATM   13  N4  UNL     1     -19.960   4.883   1.052  1.00  0.00    -0.202 N 
HETATM   14  C13 UNL     1     -19.960   3.811   1.955  1.00  0.00     0.267 C 
HETATM   15  O5  UNL     1     -19.022   2.947   1.848  1.00  0.00    -0.266 OA
BRANCH  13  16
HETATM   16  O4  UNL     1     -18.946   4.921   0.118  1.00  0.00    -0.283 OA
ATOM     17  H4  UNL     1     -18.543   4.109  -0.165  1.00  0.00     0.245 HD
ENDBRANCH  13  16
BRANCH  14  18
HETATM   18  C14 UNL     1     -20.944   3.611   2.999  1.00  0.00     0.072 C 
BRANCH  18  19
HETATM   19  C15 UNL     1     -21.261   2.381   3.393  1.00  0.00    -0.019 C 
BRANCH  19  20
HETATM   20  C16 UNL     1     -21.898   1.406   2.472  1.00  0.00     0.062 C 
BRANCH  20  21
HETATM   21  C17 UNL     1     -21.589  -0.020   2.872  1.00  0.00     0.118 C 
HETATM   22  C18 UNL     1     -22.787  -0.903   2.621  1.00  0.00     0.043 C 
HETATM   23 CL1  UNL     1     -21.217  -0.093   4.607  1.00  0.00    -0.109 Cl
BRANCH  21  24
HETATM   24  C19 UNL     1     -20.450  -0.562   2.116  1.00  0.00     0.260 C 
HETATM   25  O6  UNL     1     -20.565  -0.847   0.899  1.00  0.00    -0.270 OA
HETATM   26  N5  UNL     1     -19.203  -0.768   2.766  1.00  0.00    -0.254 N 
ATOM     27  H5  UNL     1     -18.763  -1.688   2.733  1.00  0.00     0.191 HD
BRANCH  26  28
HETATM   28  N6  UNL     1     -18.649   0.147   3.365  1.00  0.00    -0.247 N 
HETATM   29  N7  UNL     1     -17.843   1.075   3.562  1.00  0.00    -0.331 N 
ATOM     30  H72 UNL     1     -17.351   1.033   2.669  1.00  0.00     0.178 HD
ATOM     31  H71 UNL     1     -17.382   1.837   4.060  1.00  0.00     0.178 HD
ATOM     32  H6  UNL     1     -19.170   0.150   4.243  1.00  0.00     0.207 HD
ENDBRANCH  26  28
ENDBRANCH  21  24
ENDBRANCH  20  21
ENDBRANCH  19  20
ENDBRANCH  18  19
ENDBRANCH  14  18
ENDBRANCH  10  13
BRANCH   1  33
HETATM   33  C7  UNL     1     -18.215   8.501   1.587  1.00  0.00     0.145 C 
BRANCH  33  34
HETATM   34  C6  UNL     1     -16.924   7.997   0.975  1.00  0.00     0.144 C 
BRANCH  34  35
HETATM   35  N1  UNL     1     -16.749   6.602   1.389  1.00  0.00    -0.335 N 
HETATM   36  C5  UNL     1     -16.113   5.685   0.519  1.00  0.00     0.361 C 
HETATM   37  O2  UNL     1     -15.697   6.071  -0.614  1.00  0.00    -0.238 OA
ATOM     38  H1  UNL     1     -17.085   6.293   2.302  1.00  0.00     0.164 HD
BRANCH  36  39
HETATM   39  O1  UNL     1     -15.956   4.379   0.920  1.00  0.00    -0.294 OA
BRANCH  39  40
HETATM   40  C2  UNL     1     -15.219   4.100   2.108  1.00  0.00     0.061 C 
HETATM   41  C1  UNL     1     -16.141   4.366   3.288  1.00  0.00     0.046 C 
HETATM   42  C3  UNL     1     -14.819   2.640   2.043  1.00  0.00     0.046 C 
HETATM   43  C4  UNL     1     -13.997   5.004   2.169  1.00  0.00     0.046 C 
ENDBRANCH  39  40
ENDBRANCH  36  39
ENDBRANCH  34  35
ENDBRANCH  33  34
ENDBRANCH   1  33
TORSDOF 13
ENDMDL
MODEL 4
REMARK VINA RESULT: -7.760386953      1.987      2.443
REMARK  13 active torsions:
REMARK  status: ('A' for Active; 'I' for Inactive)
REMARK    1  A    between atoms: C2_2  and  O1_5 
REMARK    2  A    between atoms: O1_5  and  C5_6 
REMARK       I    between atoms: C5_6  and  N1_8 
REMARK    3  A    between atoms: N1_8  and  C6_10 
REMARK    4  A    between atoms: C6_10  and  C7_11 
REMARK    5  A    between atoms: C7_11  and  N2_12 
REMARK    6  A    between atoms: C12_21  and  N4_22 
REMARK    7  A    between atoms: N4_22  and  O4_23 
REMARK       I    between atoms: N4_22  and  C13_25 
REMARK    8  A    between atoms: C13_25  and  C14_27 
REMARK    9  A    between atoms: C14_27  and  C15_28 
REMARK   10  A    between atoms: C15_28  and  C16_29 
REMARK   11  A    between atoms: C16_29  and  C17_30 
REMARK   12  A    between atoms: C17_30  and  C19_33 
REMARK       I    between atoms: C19_33  and  N5_35 
REMARK   13  A    between atoms: N5_35  and  N6_37 
ROOT
HETATM    1  N2  UNL     1     -19.661   8.831   0.484  1.00  0.00    -0.348 N 
HETATM    2  C8  UNL     1     -20.071   9.472  -0.747  1.00  0.00     0.136 C 
HETATM    3  C9  UNL     1     -21.297  10.307  -0.627  1.00  0.00     0.095 C 
HETATM    4  S1  UNL     1     -21.905  10.475   1.061  1.00  0.00    -0.148 SA
HETATM    5  C10 UNL     1     -23.283   9.322   1.317  1.00  0.00     0.197 C 
HETATM    6  N3  UNL     1     -23.394   8.454   0.160  1.00  0.00    -0.350 N 
ATOM      7  H3  UNL     1     -24.199   8.559  -0.458  1.00  0.00     0.163 HD
HETATM    8  C11 UNL     1     -22.426   7.467  -0.142  1.00  0.00     0.253 C 
HETATM    9  O3  UNL     1     -22.398   6.985  -1.296  1.00  0.00    -0.271 OA
HETATM   10  C12 UNL     1     -21.477   7.025   0.891  1.00  0.00     0.301 C 
HETATM   11  C20 UNL     1     -20.472   8.033   1.285  1.00  0.00     0.254 C 
HETATM   12  O7  UNL     1     -20.318   8.203   2.550  1.00  0.00    -0.270 OA
ENDROOT
BRANCH  10  13
HETATM   13  N4  UNL     1     -20.716   5.859   0.453  1.00  0.00    -0.202 N 
HETATM   14  C13 UNL     1     -20.749   4.623   1.112  1.00  0.00     0.267 C 
HETATM   15  O5  UNL     1     -20.036   3.676   0.630  1.00  0.00    -0.266 OA
BRANCH  13  16
HETATM   16  O4  UNL     1     -19.915   5.957  -0.666  1.00  0.00    -0.283 OA
ATOM     17  H4  UNL     1     -20.250   5.663  -1.505  1.00  0.00     0.245 HD
ENDBRANCH  13  16
BRANCH  14  18
HETATM   18  C14 UNL     1     -21.531   4.341   2.298  1.00  0.00     0.072 C 
BRANCH  18  19
HETATM   19  C15 UNL     1     -21.087   3.473   3.202  1.00  0.00    -0.019 C 
BRANCH  19  20
HETATM   20  C16 UNL     1     -21.607   2.084   3.273  1.00  0.00     0.062 C 
BRANCH  20  21
HETATM   21  C17 UNL     1     -20.489   1.080   3.448  1.00  0.00     0.118 C 
HETATM   22  C18 UNL     1     -20.649   0.344   4.756  1.00  0.00     0.043 C 
HETATM   23 CL1  UNL     1     -18.925   1.920   3.488  1.00  0.00    -0.109 Cl
BRANCH  21  24
HETATM   24  C19 UNL     1     -20.473   0.090   2.360  1.00  0.00     0.260 C 
HETATM   25  O6  UNL     1     -21.118   0.288   1.302  1.00  0.00    -0.270 OA
HETATM   26  N5  UNL     1     -19.721  -1.107   2.505  1.00  0.00    -0.254 N 
ATOM     27  H5  UNL     1     -20.180  -2.009   2.377  1.00  0.00     0.191 HD
BRANCH  26  28
HETATM   28  N6  UNL     1     -18.527  -1.069   2.780  1.00  0.00    -0.247 N 
HETATM   29  N7  UNL     1     -17.337  -1.435   2.807  1.00  0.00    -0.331 N 
ATOM     30  H72 UNL     1     -17.436  -2.293   2.263  1.00  0.00     0.178 HD
ATOM     31  H71 UNL     1     -16.343  -1.403   3.035  1.00  0.00     0.178 HD
ATOM     32  H6  UNL     1     -18.477  -0.203   3.318  1.00  0.00     0.207 HD
ENDBRANCH  26  28
ENDBRANCH  21  24
ENDBRANCH  20  21
ENDBRANCH  19  20
ENDBRANCH  18  19
ENDBRANCH  14  18
ENDBRANCH  10  13
BRANCH   1  33
HETATM   33  C7  UNL     1     -18.272   9.059   0.910  1.00  0.00     0.145 C 
BRANCH  33  34
HETATM   34  C6  UNL     1     -17.330   8.141   0.158  1.00  0.00     0.144 C 
BRANCH  34  35
HETATM   35  N1  UNL     1     -17.300   6.858   0.865  1.00  0.00    -0.335 N 
HETATM   36  C5  UNL     1     -16.572   5.773   0.320  1.00  0.00     0.361 C 
HETATM   37  O2  UNL     1     -15.948   5.914  -0.775  1.00  0.00    -0.238 OA
ATOM     38  H1  UNL     1     -17.802   6.746   1.745  1.00  0.00     0.164 HD
BRANCH  36  39
HETATM   39  O1  UNL     1     -16.552   4.573   0.993  1.00  0.00    -0.294 OA
BRANCH  39  40
HETATM   40  C2  UNL     1     -15.829   4.476   2.218  1.00  0.00     0.061 C 
HETATM   41  C1  UNL     1     -16.689   5.103   3.305  1.00  0.00     0.046 C 
HETATM   42  C3  UNL     1     -15.607   3.000   2.479  1.00  0.00     0.046 C 
HETATM   43  C4  UNL     1     -14.507   5.216   2.086  1.00  0.00     0.046 C 
ENDBRANCH  39  40
ENDBRANCH  36  39
ENDBRANCH  34  35
ENDBRANCH  33  34
ENDBRANCH   1  33
TORSDOF 13
ENDMDL
MODEL 5
REMARK VINA RESULT: -7.741395699      1.457      1.845
REMARK  13 active torsions:
REMARK  status: ('A' for Active; 'I' for Inactive)
REMARK    1  A    between atoms: C2_2  and  O1_5 
REMARK    2  A    between atoms: O1_5  and  C5_6 
REMARK       I    between atoms: C5_6  and  N1_8 
REMARK    3  A    between atoms: N1_8  and  C6_10 
REMARK    4  A    between atoms: C6_10  and  C7_11 
REMARK    5  A    between atoms: C7_11  and  N2_12 
REMARK    6  A    between atoms: C12_21  and  N4_22 
REMARK    7  A    between atoms: N4_22  and  O4_23 
REMARK       I    between atoms: N4_22  and  C13_25 
REMARK    8  A    between atoms: C13_25  and  C14_27 
REMARK    9  A    between atoms: C14_27  and  C15_28 
REMARK   10  A    between atoms: C15_28  and  C16_29 
REMARK   11  A    between atoms: C16_29  and  C17_30 
REMARK   12  A    between atoms: C17_30  and  C19_33 
REMARK       I    between atoms: C19_33  and  N5_35 
REMARK   13  A    between atoms: N5_35  and  N6_37 
ROOT
HETATM    1  N2  UNL     1     -18.515   6.688   1.099  1.00  0.00    -0.348 N 
HETATM    2  C8  UNL     1     -18.409   7.497  -0.096  1.00  0.00     0.136 C 
HETATM    3  C9  UNL     1     -19.239   8.732  -0.079  1.00  0.00     0.095 C 
HETATM    4  S1  UNL     1     -20.062   9.037   1.495  1.00  0.00    -0.148 SA
HETATM    5  C10 UNL     1     -21.790   8.492   1.381  1.00  0.00     0.197 C 
HETATM    6  N3  UNL     1     -21.982   7.791   0.125  1.00  0.00    -0.350 N 
ATOM      7  H3  UNL     1     -22.552   8.228  -0.599  1.00  0.00     0.163 HD
HETATM    8  C11 UNL     1     -21.406   6.524  -0.131  1.00  0.00     0.253 C 
HETATM    9  O3  UNL     1     -21.331   6.126  -1.314  1.00  0.00    -0.271 OA
HETATM   10  C12 UNL     1     -20.911   5.702   0.983  1.00  0.00     0.301 C 
HETATM   11  C20 UNL     1     -19.704   6.225   1.654  1.00  0.00     0.254 C 
HETATM   12  O7  UNL     1     -19.751   6.260   2.938  1.00  0.00    -0.270 OA
ENDROOT
BRANCH  10  13
HETATM   13  N4  UNL     1     -20.562   4.356   0.538  1.00  0.00    -0.202 N 
HETATM   14  C13 UNL     1     -20.943   3.193   1.222  1.00  0.00     0.267 C 
HETATM   15  O5  UNL     1     -20.575   2.070   0.730  1.00  0.00    -0.266 OA
BRANCH  13  16
HETATM   16  O4  UNL     1     -19.819   4.196  -0.613  1.00  0.00    -0.283 OA
ATOM     17  H4  UNL     1     -20.253   3.929  -1.414  1.00  0.00     0.245 HD
ENDBRANCH  13  16
BRANCH  14  18
HETATM   18  C14 UNL     1     -21.722   3.172   2.442  1.00  0.00     0.072 C 
BRANCH  18  19
HETATM   19  C15 UNL     1     -21.175   2.750   3.579  1.00  0.00    -0.019 C 
BRANCH  19  20
HETATM   20  C16 UNL     1     -21.351   1.356   4.060  1.00  0.00     0.062 C 
BRANCH  20  21
HETATM   21  C17 UNL     1     -20.047   0.591   4.035  1.00  0.00     0.118 C 
HETATM   22  C18 UNL     1     -19.806  -0.073   5.369  1.00  0.00     0.043 C 
HETATM   23 CL1  UNL     1     -18.698   1.705   3.734  1.00  0.00    -0.109 Cl
BRANCH  21  24
HETATM   24  C19 UNL     1     -20.048  -0.450   2.995  1.00  0.00     0.260 C 
HETATM   25  O6  UNL     1     -19.065  -1.218   2.855  1.00  0.00    -0.270 OA
HETATM   26  N5  UNL     1     -21.171  -0.591   2.136  1.00  0.00    -0.254 N 
ATOM     27  H5  UNL     1     -21.038  -0.565   1.125  1.00  0.00     0.191 HD
BRANCH  26  28
HETATM   28  N6  UNL     1     -22.297  -0.743   2.596  1.00  0.00    -0.247 N 
HETATM   29  N7  UNL     1     -23.536  -0.870   2.595  1.00  0.00    -0.331 N 
ATOM     30  H72 UNL     1     -23.689  -0.805   1.588  1.00  0.00     0.178 HD
ATOM     31  H71 UNL     1     -24.473  -0.997   2.977  1.00  0.00     0.178 HD
ATOM     32  H6  UNL     1     -22.095  -0.801   3.594  1.00  0.00     0.207 HD
ENDBRANCH  26  28
ENDBRANCH  21  24
ENDBRANCH  20  21
ENDBRANCH  19  20
ENDBRANCH  18  19
ENDBRANCH  14  18
ENDBRANCH  10  13
BRANCH   1  33
HETATM   33  C7  UNL     1     -17.253   6.344   1.771  1.00  0.00     0.145 C 
BRANCH  33  34
HETATM   34  C6  UNL     1     -16.301   5.678   0.799  1.00  0.00     0.144 C 
BRANCH  34  35
HETATM   35  N1  UNL     1     -15.787   4.464   1.439  1.00  0.00    -0.335 N 
HETATM   36  C5  UNL     1     -14.511   4.479   2.052  1.00  0.00     0.361 C 
HETATM   37  O2  UNL     1     -13.818   5.541   2.046  1.00  0.00    -0.238 OA
ATOM     38  H1  UNL     1     -16.346   3.611   1.442  1.00  0.00     0.164 HD
BRANCH  36  39
HETATM   39  O1  UNL     1     -14.040   3.333   2.648  1.00  0.00    -0.294 OA
BRANCH  39  40
HETATM   40  C2  UNL     1     -13.313   2.390   1.864  1.00  0.00     0.061 C 
HETATM   41  C1  UNL     1     -13.182   2.968   0.464  1.00  0.00     0.046 C 
HETATM   42  C3  UNL     1     -11.957   2.228   2.520  1.00  0.00     0.046 C 
HETATM   43  C4  UNL     1     -14.069   1.070   1.830  1.00  0.00     0.046 C 
ENDBRANCH  39  40
ENDBRANCH  36  39
ENDBRANCH  34  35
ENDBRANCH  33  34
ENDBRANCH   1  33
TORSDOF 13
ENDMDL
