MODEL 1
REMARK VINA RESULT: -7.960867243      0.000      0.000
REMARK  9 active torsions:
REMARK  status: ('A' for Active; 'I' for Inactive)
REMARK    1  A    between atoms: C2_2  and  C4_4 
REMARK    2  A    between atoms: C4_4  and  C5_5 
REMARK    3  A    between atoms: C6_8  and  C7_9 
REMARK       I    between atoms: C7_9  and  N2_11 
REMARK    4  A    between atoms: C11_15  and  C12_16 
REMARK       I    between atoms: C12_16  and  N3_18 
REMARK    5  A    between atoms: C17_24  and  C18_25 
REMARK    6  A    between atoms: C19_28  and  C20_29 
REMARK    7  A    between atoms: C20_29  and  O6_31 
REMARK    8  A    between atoms: O6_31  and  C21_32 
REMARK    9  A    between atoms: C21_32  and  C22_33 
ROOT
HETATM    1  C5  UNL     1     -15.196   1.651   3.150  1.00  0.00     0.170 C 
HETATM    2  N1  UNL     1     -16.376   2.472   3.116  1.00  0.00    -0.395 N 
ATOM      3  H1  UNL     1     -16.356   3.449   2.827  1.00  0.00     0.155 HD
HETATM    4  C6  UNL     1     -17.605   1.801   3.526  1.00  0.00     0.203 C 
HETATM    5  C19 UNL     1     -17.444   0.319   3.317  1.00  0.00     0.215 C 
HETATM    6  N4  UNL     1     -16.711   0.099   2.060  1.00  0.00    -0.343 N 
ATOM      7  H4  UNL     1     -17.126  -0.336   1.235  1.00  0.00     0.163 HD
HETATM    8  C23 UNL     1     -15.357   0.556   2.111  1.00  0.00     0.240 C 
HETATM    9  O7  UNL     1     -14.439   0.126   1.408  1.00  0.00    -0.271 OA
ENDROOT
BRANCH   4  10
HETATM   10  C7  UNL     1     -18.671   2.415   2.693  1.00  0.00     0.245 C 
HETATM   11  O1  UNL     1     -18.279   2.876   1.563  1.00  0.00    -0.271 OA
HETATM   12  N2  UNL     1     -20.033   2.531   3.037  1.00  0.00    -0.337 N 
HETATM   13  C8  UNL     1     -20.651   2.119   4.272  1.00  0.00     0.127 C 
HETATM   14  C11 UNL     1     -21.054   3.103   2.191  1.00  0.00     0.179 C 
HETATM   15  C9  UNL     1     -22.019   1.607   3.853  1.00  0.00     0.022 C 
HETATM   16  C10 UNL     1     -22.296   2.380   2.580  1.00  0.00     0.037 C 
BRANCH  14  17
HETATM   17  C12 UNL     1     -21.159   4.577   2.379  1.00  0.00     0.244 C 
HETATM   18  O2  UNL     1     -21.610   5.017   3.493  1.00  0.00    -0.271 OA
HETATM   19  N3  UNL     1     -20.799   5.544   1.425  1.00  0.00    -0.325 N 
HETATM   20  C13 UNL     1     -20.248   5.190   0.129  1.00  0.00     0.202 C 
HETATM   21  C17 UNL     1     -20.925   6.958   1.585  1.00  0.00     0.206 C 
HETATM   22  S1  UNL     1     -21.185   6.373  -0.921  1.00  0.00    -0.137 SA
HETATM   23  C14 UNL     1     -21.695   7.510   0.425  1.00  0.00     0.033 C 
HETATM   24  C15 UNL     1     -21.288   8.895  -0.001  1.00  0.00     0.029 C 
HETATM   25  C16 UNL     1     -23.186   7.476   0.629  1.00  0.00     0.029 C 
BRANCH  21  26
HETATM   26  C18 UNL     1     -19.638   7.629   1.848  1.00  0.00     0.198 C 
HETATM   27  O3  UNL     1     -19.488   8.448   2.791  1.00  0.00    -0.646 OA
HETATM   28  O4  UNL     1     -18.518   7.394   1.070  1.00  0.00    -0.646 OA
ENDBRANCH  21  26
ENDBRANCH  14  17
ENDBRANCH   4  10
BRANCH   5  29
HETATM   29  C20 UNL     1     -18.653  -0.482   3.375  1.00  0.00     0.284 C 
HETATM   30  O5  UNL     1     -19.223  -0.541   4.530  1.00  0.00    -0.263 OA
BRANCH  29  31
HETATM   31  O6  UNL     1     -19.289  -1.184   2.393  1.00  0.00    -0.319 OA
BRANCH  31  32
HETATM   32  C21 UNL     1     -20.501  -0.856   1.759  1.00  0.00     0.193 C 
BRANCH  32  33
HETATM   33  C22 UNL     1     -21.583  -1.872   1.890  1.00  0.00     0.141 C 
HETATM   34 CL1  UNL     1     -23.119  -1.176   2.438  1.00  0.00    -0.128 Cl
ENDBRANCH  32  33
ENDBRANCH  31  32
ENDBRANCH  29  31
ENDBRANCH   5  29
BRANCH   1  35
HETATM   35  C4  UNL     1     -13.991   2.461   2.815  1.00  0.00     0.038 C 
BRANCH  35  36
HETATM   36  C2  UNL     1     -14.176   3.434   1.702  1.00  0.00    -0.020 C 
HETATM   37  C1  UNL     1     -14.097   4.870   2.095  1.00  0.00     0.009 C 
HETATM   38  C3  UNL     1     -13.207   3.212   0.556  1.00  0.00     0.009 C 
ENDBRANCH  35  36
ENDBRANCH   1  35
TORSDOF 9
ENDMDL
MODEL 2
REMARK VINA RESULT: -7.924110120      3.320      8.654
REMARK  9 active torsions:
REMARK  status: ('A' for Active; 'I' for Inactive)
REMARK    1  A    between atoms: C2_2  and  C4_4 
REMARK    2  A    between atoms: C4_4  and  C5_5 
REMARK    3  A    between atoms: C6_8  and  C7_9 
REMARK       I    between atoms: C7_9  and  N2_11 
REMARK    4  A    between atoms: C11_15  and  C12_16 
REMARK       I    between atoms: C12_16  and  N3_18 
REMARK    5  A    between atoms: C17_24  and  C18_25 
REMARK    6  A    between atoms: C19_28  and  C20_29 
REMARK    7  A    between atoms: C20_29  and  O6_31 
REMARK    8  A    between atoms: O6_31  and  C21_32 
REMARK    9  A    between atoms: C21_32  and  C22_33 
ROOT
HETATM    1  C5  UNL     1     -24.151   6.984   1.827  1.00  0.00     0.170 C 
HETATM    2  N1  UNL     1     -23.080   6.098   2.198  1.00  0.00    -0.395 N 
ATOM      3  H1  UNL     1     -23.240   5.125   2.458  1.00  0.00     0.155 HD
HETATM    4  C6  UNL     1     -21.750   6.695   2.173  1.00  0.00     0.203 C 
HETATM    5  C19 UNL     1     -21.759   7.867   1.229  1.00  0.00     0.215 C 
HETATM    6  N4  UNL     1     -22.578   7.519   0.057  1.00  0.00    -0.343 N 
ATOM      7  H4  UNL     1     -22.195   7.406  -0.882  1.00  0.00     0.163 HD
HETATM    8  C23 UNL     1     -23.965   7.357   0.367  1.00  0.00     0.240 C 
HETATM    9  O7  UNL     1     -24.890   7.497  -0.437  1.00  0.00    -0.271 OA
ENDROOT
BRANCH   4  10
HETATM   10  C7  UNL     1     -20.845   5.593   1.757  1.00  0.00     0.245 C 
HETATM   11  O1  UNL     1     -21.346   4.768   0.914  1.00  0.00    -0.271 OA
HETATM   12  N2  UNL     1     -19.524   5.387   2.204  1.00  0.00    -0.337 N 
HETATM   13  C8  UNL     1     -18.808   6.172   3.177  1.00  0.00     0.127 C 
HETATM   14  C11 UNL     1     -18.655   4.324   1.755  1.00  0.00     0.179 C 
HETATM   15  C9  UNL     1     -17.376   6.185   2.668  1.00  0.00     0.022 C 
HETATM   16  C10 UNL     1     -17.286   4.899   1.873  1.00  0.00     0.037 C 
BRANCH  14  17
HETATM   17  C12 UNL     1     -18.836   3.088   2.566  1.00  0.00     0.244 C 
HETATM   18  O2  UNL     1     -18.109   2.933   3.608  1.00  0.00    -0.271 OA
HETATM   19  N3  UNL     1     -19.751   2.059   2.284  1.00  0.00    -0.325 N 
HETATM   20  C13 UNL     1     -20.656   2.114   1.150  1.00  0.00     0.202 C 
HETATM   21  C17 UNL     1     -19.909   0.857   3.039  1.00  0.00     0.206 C 
HETATM   22  S1  UNL     1     -20.501   0.377   0.567  1.00  0.00    -0.137 SA
HETATM   23  C14 UNL     1     -19.796  -0.314   2.113  1.00  0.00     0.033 C 
HETATM   24  C15 UNL     1     -20.649  -1.498   2.485  1.00  0.00     0.029 C 
HETATM   25  C16 UNL     1     -18.378  -0.775   1.905  1.00  0.00     0.029 C 
BRANCH  21  26
HETATM   26  C18 UNL     1     -21.116   0.860   3.888  1.00  0.00     0.198 C 
HETATM   27  O3  UNL     1     -21.081   0.545   5.105  1.00  0.00    -0.646 OA
HETATM   28  O4  UNL     1     -22.359   1.210   3.391  1.00  0.00    -0.646 OA
ENDBRANCH  21  26
ENDBRANCH  14  17
ENDBRANCH   4  10
BRANCH   5  29
HETATM   29  C20 UNL     1     -20.467   8.398   0.837  1.00  0.00     0.284 C 
HETATM   30  O5  UNL     1     -19.875   9.125   1.723  1.00  0.00    -0.263 OA
BRANCH  29  31
HETATM   31  O6  UNL     1     -19.770   8.245  -0.327  1.00  0.00    -0.319 OA
BRANCH  31  32
HETATM   32  C21 UNL     1     -18.630   7.448  -0.539  1.00  0.00     0.193 C 
BRANCH  32  33
HETATM   33  C22 UNL     1     -17.341   8.191  -0.611  1.00  0.00     0.141 C 
HETATM   34 CL1  UNL     1     -15.934   7.120  -0.734  1.00  0.00    -0.128 Cl
ENDBRANCH  32  33
ENDBRANCH  31  32
ENDBRANCH  29  31
ENDBRANCH   5  29
BRANCH   1  35
HETATM   35  C4  UNL     1     -25.466   6.303   1.987  1.00  0.00     0.038 C 
BRANCH  35  36
HETATM   36  C2  UNL     1     -26.140   6.535   3.295  1.00  0.00    -0.020 C 
HETATM   37  C1  UNL     1     -27.568   6.957   3.207  1.00  0.00     0.009 C 
HETATM   38  C3  UNL     1     -26.067   5.333   4.218  1.00  0.00     0.009 C 
ENDBRANCH  35  36
ENDBRANCH   1  35
TORSDOF 9
ENDMDL
MODEL 3
REMARK VINA RESULT: -7.631530132      3.337      6.464
REMARK  9 active torsions:
REMARK  status: ('A' for Active; 'I' for Inactive)
REMARK    1  A    between atoms: C2_2  and  C4_4 
REMARK    2  A    between atoms: C4_4  and  C5_5 
REMARK    3  A    between atoms: C6_8  and  C7_9 
REMARK       I    between atoms: C7_9  and  N2_11 
REMARK    4  A    between atoms: C11_15  and  C12_16 
REMARK       I    between atoms: C12_16  and  N3_18 
REMARK    5  A    between atoms: C17_24  and  C18_25 
REMARK    6  A    between atoms: C19_28  and  C20_29 
REMARK    7  A    between atoms: C20_29  and  O6_31 
REMARK    8  A    between atoms: O6_31  and  C21_32 
REMARK    9  A    between atoms: C21_32  and  C22_33 
ROOT
HETATM    1  C5  UNL     1     -20.105   1.768   1.824  1.00  0.00     0.170 C 
HETATM    2  N1  UNL     1     -20.940   2.825   1.322  1.00  0.00    -0.395 N 
ATOM      3  H1  UNL     1     -21.947   2.720   1.207  1.00  0.00     0.155 HD
HETATM    4  C6  UNL     1     -20.238   4.060   0.990  1.00  0.00     0.203 C 
HETATM    5  C19 UNL     1     -18.961   4.123   1.785  1.00  0.00     0.215 C 
HETATM    6  N4  UNL     1     -19.224   3.609   3.139  1.00  0.00    -0.343 N 
ATOM      7  H4  UNL     1     -19.187   4.189   3.977  1.00  0.00     0.163 HD
HETATM    8  C23 UNL     1     -19.537   2.214   3.159  1.00  0.00     0.240 C 
HETATM    9  O7  UNL     1     -19.373   1.467   4.128  1.00  0.00    -0.271 OA
ENDROOT
BRANCH   4  10
HETATM   10  C7  UNL     1     -21.201   5.145   1.311  1.00  0.00     0.245 C 
HETATM   11  O1  UNL     1     -22.034   4.872   2.247  1.00  0.00    -0.271 OA
HETATM   12  N2  UNL     1     -21.273   6.406   0.685  1.00  0.00    -0.337 N 
HETATM   13  C8  UNL     1     -20.461   6.876  -0.409  1.00  0.00     0.127 C 
HETATM   14  C11 UNL     1     -22.199   7.455   1.042  1.00  0.00     0.179 C 
HETATM   15  C9  UNL     1     -20.251   8.352  -0.112  1.00  0.00     0.022 C 
HETATM   16  C10 UNL     1     -21.473   8.711   0.707  1.00  0.00     0.037 C 
BRANCH  14  17
HETATM   17  C12 UNL     1     -23.490   7.319   0.310  1.00  0.00     0.244 C 
HETATM   18  O2  UNL     1     -23.454   7.118  -0.953  1.00  0.00    -0.271 OA
HETATM   19  N3  UNL     1     -24.765   7.391   0.895  1.00  0.00    -0.325 N 
HETATM   20  C13 UNL     1     -24.956   7.586   2.321  1.00  0.00     0.202 C 
HETATM   21  C17 UNL     1     -26.007   7.291   0.197  1.00  0.00     0.206 C 
HETATM   22  S1  UNL     1     -26.330   8.807   2.267  1.00  0.00    -0.137 SA
HETATM   23  C14 UNL     1     -26.852   8.480   0.540  1.00  0.00     0.033 C 
HETATM   24  C15 UNL     1     -28.333   8.211   0.578  1.00  0.00     0.029 C 
HETATM   25  C16 UNL     1     -26.590   9.671  -0.342  1.00  0.00     0.029 C 
BRANCH  21  26
HETATM   26  C18 UNL     1     -26.672   5.987   0.378  1.00  0.00     0.198 C 
HETATM   27  O3  UNL     1     -27.190   5.358  -0.580  1.00  0.00    -0.646 OA
HETATM   28  O4  UNL     1     -26.765   5.379   1.618  1.00  0.00    -0.646 OA
ENDBRANCH  21  26
ENDBRANCH  14  17
ENDBRANCH   4  10
BRANCH   5  29
HETATM   29  C20 UNL     1     -18.281   5.404   1.825  1.00  0.00     0.284 C 
HETATM   30  O5  UNL     1     -18.514   6.123   2.870  1.00  0.00    -0.263 OA
BRANCH  29  31
HETATM   31  O6  UNL     1     -17.424   5.972   0.927  1.00  0.00    -0.319 OA
BRANCH  31  32
HETATM   32  C21 UNL     1     -16.158   5.495   0.539  1.00  0.00     0.193 C 
BRANCH  32  33
HETATM   33  C22 UNL     1     -15.169   5.347   1.643  1.00  0.00     0.141 C 
HETATM   34 CL1  UNL     1     -15.150   3.716   2.337  1.00  0.00    -0.128 Cl
ENDBRANCH  32  33
ENDBRANCH  31  32
ENDBRANCH  29  31
ENDBRANCH   5  29
BRANCH   1  35
HETATM   35  C4  UNL     1     -20.906   0.528   2.030  1.00  0.00     0.038 C 
BRANCH  35  36
HETATM   36  C2  UNL     1     -20.387  -0.680   1.329  1.00  0.00    -0.020 C 
HETATM   37  C1  UNL     1     -18.959  -1.009   1.607  1.00  0.00     0.009 C 
HETATM   38  C3  UNL     1     -21.212  -1.922   1.605  1.00  0.00     0.009 C 
ENDBRANCH  35  36
ENDBRANCH   1  35
TORSDOF 9
ENDMDL
MODEL 4
REMARK VINA RESULT: -7.628331266      3.414      8.816
REMARK  9 active torsions:
REMARK  status: ('A' for Active; 'I' for Inactive)
REMARK    1  A    between atoms: C2_2  and  C4_4 
REMARK    2  A    between atoms: C4_4  and  C5_5 
REMARK    3  A    between atoms: C6_8  and  C7_9 
REMARK       I    between atoms: C7_9  and  N2_11 
REMARK    4  A    between atoms: C11_15  and  C12_16 
REMARK       I    between atoms: C12_16  and  N3_18 
REMARK    5  A    between atoms: C17_24  and  C18_25 
REMARK    6  A    between atoms: C19_28  and  C20_29 
REMARK    7  A    between atoms: C20_29  and  O6_31 
REMARK    8  A    between atoms: O6_31  and  C21_32 
REMARK    9  A    between atoms: C21_32  and  C22_33 
ROOT
HETATM    1  C5  UNL     1     -24.013   7.011   1.691  1.00  0.00     0.170 C 
HETATM    2  N1  UNL     1     -22.954   6.119   2.080  1.00  0.00    -0.395 N 
ATOM      3  H1  UNL     1     -23.126   5.157   2.369  1.00  0.00     0.155 HD
HETATM    4  C6  UNL     1     -21.614   6.694   2.030  1.00  0.00     0.203 C 
HETATM    5  C19 UNL     1     -21.612   7.839   1.053  1.00  0.00     0.215 C 
HETATM    6  N4  UNL     1     -22.445   7.472  -0.104  1.00  0.00    -0.343 N 
ATOM      7  H4  UNL     1     -22.070   7.326  -1.041  1.00  0.00     0.163 HD
HETATM    8  C23 UNL     1     -23.831   7.340   0.221  1.00  0.00     0.240 C 
HETATM    9  O7  UNL     1     -24.760   7.472  -0.582  1.00  0.00    -0.271 OA
ENDROOT
BRANCH   4  10
HETATM   10  C7  UNL     1     -20.729   5.568   1.640  1.00  0.00     0.245 C 
HETATM   11  O1  UNL     1     -21.245   4.733   0.814  1.00  0.00    -0.271 OA
HETATM   12  N2  UNL     1     -19.413   5.347   2.093  1.00  0.00    -0.337 N 
HETATM   13  C8  UNL     1     -18.683   6.140   3.049  1.00  0.00     0.127 C 
HETATM   14  C11 UNL     1     -18.563   4.259   1.668  1.00  0.00     0.179 C 
HETATM   15  C9  UNL     1     -17.251   6.116   2.541  1.00  0.00     0.022 C 
HETATM   16  C10 UNL     1     -17.184   4.811   1.775  1.00  0.00     0.037 C 
BRANCH  14  17
HETATM   17  C12 UNL     1     -18.767   3.045   2.506  1.00  0.00     0.244 C 
HETATM   18  O2  UNL     1     -18.039   2.896   3.548  1.00  0.00    -0.271 OA
HETATM   19  N3  UNL     1     -19.706   2.030   2.250  1.00  0.00    -0.325 N 
HETATM   20  C13 UNL     1     -20.616   2.082   1.120  1.00  0.00     0.202 C 
HETATM   21  C17 UNL     1     -19.887   0.849   3.031  1.00  0.00     0.206 C 
HETATM   22  S1  UNL     1     -20.501   0.330   0.573  1.00  0.00    -0.137 SA
HETATM   23  C14 UNL     1     -19.804  -0.344   2.130  1.00  0.00     0.033 C 
HETATM   24  C15 UNL     1     -20.682  -1.501   2.531  1.00  0.00     0.029 C 
HETATM   25  C16 UNL     1     -18.398  -0.841   1.925  1.00  0.00     0.029 C 
BRANCH  21  26
HETATM   26  C18 UNL     1     -21.089   0.896   3.886  1.00  0.00     0.198 C 
HETATM   27  O3  UNL     1     -21.055   0.609   5.109  1.00  0.00    -0.646 OA
HETATM   28  O4  UNL     1     -22.327   1.262   3.386  1.00  0.00    -0.646 OA
ENDBRANCH  21  26
ENDBRANCH  14  17
ENDBRANCH   4  10
BRANCH   5  29
HETATM   29  C20 UNL     1     -20.315   8.339   0.638  1.00  0.00     0.284 C 
HETATM   30  O5  UNL     1     -20.027   8.167  -0.607  1.00  0.00    -0.263 OA
BRANCH  29  31
HETATM   31  O6  UNL     1     -19.345   8.971   1.361  1.00  0.00    -0.319 OA
BRANCH  31  32
HETATM   32  C21 UNL     1     -19.527   9.916   2.388  1.00  0.00     0.193 C 
BRANCH  32  33
HETATM   33  C22 UNL     1     -20.050  11.240   1.948  1.00  0.00     0.141 C 
HETATM   34 CL1  UNL     1     -21.813  11.365   2.091  1.00  0.00    -0.128 Cl
ENDBRANCH  32  33
ENDBRANCH  31  32
ENDBRANCH  29  31
ENDBRANCH   5  29
BRANCH   1  35
HETATM   35  C4  UNL     1     -25.338   6.355   1.879  1.00  0.00     0.038 C 
BRANCH  35  36
HETATM   36  C2  UNL     1     -25.975   6.593   3.204  1.00  0.00    -0.020 C 
HETATM   37  C1  UNL     1     -27.400   7.029   3.154  1.00  0.00     0.009 C 
HETATM   38  C3  UNL     1     -25.891   5.389   4.125  1.00  0.00     0.009 C 
ENDBRANCH  35  36
ENDBRANCH   1  35
TORSDOF 9
ENDMDL
MODEL 5
REMARK VINA RESULT: -7.435599832      3.503      8.818
REMARK  9 active torsions:
REMARK  status: ('A' for Active; 'I' for Inactive)
REMARK    1  A    between atoms: C2_2  and  C4_4 
REMARK    2  A    between atoms: C4_4  and  C5_5 
REMARK    3  A    between atoms: C6_8  and  C7_9 
REMARK       I    between atoms: C7_9  and  N2_11 
REMARK    4  A    between atoms: C11_15  and  C12_16 
REMARK       I    between atoms: C12_16  and  N3_18 
REMARK    5  A    between atoms: C17_24  and  C18_25 
REMARK    6  A    between atoms: C19_28  and  C20_29 
REMARK    7  A    between atoms: C20_29  and  O6_31 
REMARK    8  A    between atoms: O6_31  and  C21_32 
REMARK    9  A    between atoms: C21_32  and  C22_33 
ROOT
HETATM    1  C5  UNL     1     -23.941   7.012   1.859  1.00  0.00     0.170 C 
HETATM    2  N1  UNL     1     -22.898   6.085   2.205  1.00  0.00    -0.395 N 
ATOM      3  H1  UNL     1     -23.082   5.103   2.407  1.00  0.00     0.155 HD
HETATM    4  C6  UNL     1     -21.555   6.654   2.245  1.00  0.00     0.203 C 
HETATM    5  C19 UNL     1     -21.518   7.877   1.368  1.00  0.00     0.215 C 
HETATM    6  N4  UNL     1     -22.316   7.612   0.159  1.00  0.00    -0.343 N 
ATOM      7  H4  UNL     1     -21.912   7.543  -0.776  1.00  0.00     0.163 HD
HETATM    8  C23 UNL     1     -23.712   7.462   0.428  1.00  0.00     0.240 C 
HETATM    9  O7  UNL     1     -24.614   7.666  -0.389  1.00  0.00    -0.271 OA
ENDROOT
BRANCH   4  10
HETATM   10  C7  UNL     1     -20.662   5.559   1.789  1.00  0.00     0.245 C 
HETATM   11  O1  UNL     1     -21.196   4.727   0.972  1.00  0.00    -0.271 OA
HETATM   12  N2  UNL     1     -19.320   5.364   2.174  1.00  0.00    -0.337 N 
HETATM   13  C8  UNL     1     -18.565   6.157   3.110  1.00  0.00     0.127 C 
HETATM   14  C11 UNL     1     -18.465   4.307   1.687  1.00  0.00     0.179 C 
HETATM   15  C9  UNL     1     -17.159   6.181   2.534  1.00  0.00     0.022 C 
HETATM   16  C10 UNL     1     -17.096   4.893   1.738  1.00  0.00     0.037 C 
BRANCH  14  17
HETATM   17  C12 UNL     1     -18.597   3.072   2.508  1.00  0.00     0.244 C 
HETATM   18  O2  UNL     1     -17.774   2.891   3.471  1.00  0.00    -0.271 OA
HETATM   19  N3  UNL     1     -19.564   2.070   2.316  1.00  0.00    -0.325 N 
HETATM   20  C13 UNL     1     -20.577   2.156   1.280  1.00  0.00     0.202 C 
HETATM   21  C17 UNL     1     -19.679   0.868   3.080  1.00  0.00     0.206 C 
HETATM   22  S1  UNL     1     -20.529   0.419   0.679  1.00  0.00    -0.137 SA
HETATM   23  C14 UNL     1     -19.692  -0.300   2.143  1.00  0.00     0.033 C 
HETATM   24  C15 UNL     1     -20.536  -1.462   2.596  1.00  0.00     0.029 C 
HETATM   25  C16 UNL     1     -18.316  -0.799   1.792  1.00  0.00     0.029 C 
BRANCH  21  26
HETATM   26  C18 UNL     1     -20.793   0.899   4.046  1.00  0.00     0.198 C 
HETATM   27  O3  UNL     1     -20.623   0.687   5.274  1.00  0.00    -0.646 OA
HETATM   28  O4  UNL     1     -22.094   1.164   3.655  1.00  0.00    -0.646 OA
ENDBRANCH  21  26
ENDBRANCH  14  17
ENDBRANCH   4  10
BRANCH   5  29
HETATM   29  C20 UNL     1     -20.207   8.402   1.037  1.00  0.00     0.284 C 
HETATM   30  O5  UNL     1     -19.661   9.141   1.942  1.00  0.00    -0.263 OA
BRANCH  29  31
HETATM   31  O6  UNL     1     -19.452   8.233  -0.088  1.00  0.00    -0.319 OA
BRANCH  31  32
HETATM   32  C21 UNL     1     -18.686   9.207  -0.755  1.00  0.00     0.193 C 
BRANCH  32  33
HETATM   33  C22 UNL     1     -19.469  10.303  -1.391  1.00  0.00     0.141 C 
HETATM   34 CL1  UNL     1     -19.403  11.819  -0.475  1.00  0.00    -0.128 Cl
ENDBRANCH  32  33
ENDBRANCH  31  32
ENDBRANCH  29  31
ENDBRANCH   5  29
BRANCH   1  35
HETATM   35  C4  UNL     1     -25.273   6.351   1.950  1.00  0.00     0.038 C 
BRANCH  35  36
HETATM   36  C2  UNL     1     -26.016   6.605   3.216  1.00  0.00    -0.020 C 
HETATM   37  C1  UNL     1     -27.425   7.064   3.043  1.00  0.00     0.009 C 
HETATM   38  C3  UNL     1     -26.030   5.405   4.144  1.00  0.00     0.009 C 
ENDBRANCH  35  36
ENDBRANCH   1  35
TORSDOF 9
ENDMDL
