MODEL 1
REMARK VINA RESULT: -8.567264966      0.000      0.000
REMARK  8 active torsions:
REMARK  status: ('A' for Active; 'I' for Inactive)
REMARK       I    between atoms: C2_2  and  N1_4 
REMARK    1  A    between atoms: N1_4  and  C3_6 
REMARK    2  A    between atoms: C4_7  and  C5_8 
REMARK    3  A    between atoms: C6_9  and  C7_10 
REMARK    4  A    between atoms: C7_10  and  C8_12 
REMARK    5  A    between atoms: C16_23  and  C17_24 
REMARK    6  A    between atoms: C18_28  and  C19_29 
REMARK       I    between atoms: C19_29  and  N4_31 
REMARK    7  A    between atoms: N4_31  and  O7_33 
REMARK    8  A    between atoms: O7_33  and  C20_34 
ROOT
HETATM    1  C3  UNL     1     -20.542   3.714   3.135  1.00  0.00     0.149 C 
HETATM    2  C4  UNL     1     -20.290   2.268   2.863  1.00  0.00     0.172 C 
HETATM    3  O3  UNL     1     -19.105   2.090   2.121  1.00  0.00    -0.350 OA
HETATM    4  C9  UNL     1     -18.124   2.806   2.833  1.00  0.00     0.277 C 
HETATM    5  C10 UNL     1     -16.795   2.257   2.584  1.00  0.00     0.065 A 
HETATM    6  C11 UNL     1     -16.376   0.913   2.557  1.00  0.00     0.031 A 
HETATM    7  C12 UNL     1     -15.035   0.942   2.348  1.00  0.00     0.020 A 
HETATM    8  C13 UNL     1     -14.627   2.269   2.246  1.00  0.00     0.097 A 
HETATM    9  N2  UNL     1     -15.742   3.048   2.394  1.00  0.00    -0.323 N 
HETATM   10  C14 UNL     1     -15.907   4.478   2.313  1.00  0.00     0.046 C 
HETATM   11  C15 UNL     1     -14.659   5.262   2.111  1.00  0.00     0.071 C 
HETATM   12  C16 UNL     1     -17.122   5.037   2.415  1.00  0.00     0.134 C 
HETATM   13  N3  UNL     1     -18.252   4.185   2.542  1.00  0.00    -0.326 N 
HETATM   14  C18 UNL     1     -19.609   4.676   2.367  1.00  0.00     0.207 C 
ENDROOT
BRANCH  14  15
HETATM   15  C19 UNL     1     -20.012   4.806   0.960  1.00  0.00     0.266 C 
HETATM   16  O6  UNL     1     -20.054   3.778   0.253  1.00  0.00    -0.269 OA
HETATM   17  N4  UNL     1     -20.354   6.030   0.346  1.00  0.00    -0.233 N 
ATOM     18  H4  UNL     1     -20.335   6.885   0.902  1.00  0.00     0.197 HD
BRANCH  17  19
HETATM   19  O7  UNL     1     -20.709   6.105  -0.962  1.00  0.00    -0.273 OA
BRANCH  19  20
HETATM   20  C20 UNL     1     -21.592   7.118  -1.241  1.00  0.00     0.144 C 
HETATM   21  C21 UNL     1     -20.851   8.434  -1.121  1.00  0.00     0.042 C 
HETATM   22  C22 UNL     1     -22.750   7.165  -0.258  1.00  0.00     0.042 C 
ENDBRANCH  19  20
ENDBRANCH  17  19
ENDBRANCH  14  15
BRANCH   1  23
HETATM   23  N1  UNL     1     -21.906   4.137   3.026  1.00  0.00    -0.351 N 
HETATM   24  C2  UNL     1     -22.354   5.474   3.215  1.00  0.00     0.214 C 
HETATM   25  C1  UNL     1     -23.774   5.877   3.093  1.00  0.00     0.117 C 
HETATM   26  O1  UNL     1     -21.508   6.347   3.495  1.00  0.00    -0.274 OA
ATOM     27  H1  UNL     1     -22.605   3.431   2.796  1.00  0.00     0.163 HD
ENDBRANCH   1  23
BRANCH   2  28
HETATM   28  C5  UNL     1     -21.375   1.544   2.232  1.00  0.00     0.011 C 
HETATM   29  C6  UNL     1     -21.708   0.335   2.409  1.00  0.00     0.049 C 
BRANCH  29  30
HETATM   30  C7  UNL     1     -21.126  -0.643   3.262  1.00  0.00     0.159 C 
HETATM   31  O2  UNL     1     -20.365  -1.556   2.802  1.00  0.00    -0.292 OA
BRANCH  30  32
HETATM   32  C8  UNL     1     -21.328  -0.718   4.739  1.00  0.00     0.168 C 
HETATM   33 BR1  UNL     1     -19.849   0.034   5.698  1.00  0.00    -0.088 Br
ENDBRANCH  30  32
ENDBRANCH  29  30
ENDBRANCH   2  28
BRANCH  12  34
HETATM   34  C17 UNL     1     -17.214   6.488   2.330  1.00  0.00     0.228 C 
HETATM   35  O4  UNL     1     -17.479   7.225   3.324  1.00  0.00    -0.643 OA
HETATM   36  O5  UNL     1     -17.018   7.165   1.136  1.00  0.00    -0.643 OA
ENDBRANCH  12  34
TORSDOF 8
ENDMDL
MODEL 2
REMARK VINA RESULT: -8.449505431      2.659      5.730
REMARK  8 active torsions:
REMARK  status: ('A' for Active; 'I' for Inactive)
REMARK       I    between atoms: C2_2  and  N1_4 
REMARK    1  A    between atoms: N1_4  and  C3_6 
REMARK    2  A    between atoms: C4_7  and  C5_8 
REMARK    3  A    between atoms: C6_9  and  C7_10 
REMARK    4  A    between atoms: C7_10  and  C8_12 
REMARK    5  A    between atoms: C16_23  and  C17_24 
REMARK    6  A    between atoms: C18_28  and  C19_29 
REMARK       I    between atoms: C19_29  and  N4_31 
REMARK    7  A    between atoms: N4_31  and  O7_33 
REMARK    8  A    between atoms: O7_33  and  C20_34 
ROOT
HETATM    1  C3  UNL     1     -16.798   5.255   0.779  1.00  0.00     0.149 C 
HETATM    2  C4  UNL     1     -16.033   4.356   1.694  1.00  0.00     0.172 C 
HETATM    3  O3  UNL     1     -16.833   3.933   2.775  1.00  0.00    -0.350 OA
HETATM    4  C9  UNL     1     -18.002   3.423   2.179  1.00  0.00     0.277 C 
HETATM    5  C10 UNL     1     -18.635   2.430   3.040  1.00  0.00     0.065 A 
HETATM    6  C11 UNL     1     -18.049   1.368   3.757  1.00  0.00     0.031 A 
HETATM    7  C12 UNL     1     -19.074   0.703   4.346  1.00  0.00     0.020 A 
HETATM    8  C13 UNL     1     -20.269   1.332   4.008  1.00  0.00     0.097 A 
HETATM    9  N2  UNL     1     -19.954   2.393   3.204  1.00  0.00    -0.323 N 
HETATM   10  C14 UNL     1     -20.792   3.414   2.624  1.00  0.00     0.046 C 
HETATM   11  C15 UNL     1     -22.252   3.264   2.863  1.00  0.00     0.071 C 
HETATM   12  C16 UNL     1     -20.258   4.423   1.919  1.00  0.00     0.134 C 
HETATM   13  N3  UNL     1     -18.843   4.500   1.810  1.00  0.00    -0.326 N 
HETATM   14  C18 UNL     1     -18.173   5.695   1.325  1.00  0.00     0.207 C 
ENDROOT
BRANCH  14  15
HETATM   15  C19 UNL     1     -18.034   6.747   2.343  1.00  0.00     0.266 C 
HETATM   16  O6  UNL     1     -17.278   6.542   3.315  1.00  0.00    -0.269 OA
HETATM   17  N4  UNL     1     -18.711   7.985   2.297  1.00  0.00    -0.233 N 
ATOM     18  H4  UNL     1     -19.329   8.181   1.510  1.00  0.00     0.197 HD
BRANCH  17  19
HETATM   19  O7  UNL     1     -18.562   8.923   3.266  1.00  0.00    -0.273 OA
BRANCH  19  20
HETATM   20  C20 UNL     1     -18.748  10.210   2.827  1.00  0.00     0.144 C 
HETATM   21  C21 UNL     1     -20.185  10.344   2.363  1.00  0.00     0.042 C 
HETATM   22  C22 UNL     1     -17.862  10.554   1.643  1.00  0.00     0.042 C 
ENDBRANCH  19  20
ENDBRANCH  17  19
ENDBRANCH  14  15
BRANCH   1  23
HETATM   23  N1  UNL     1     -16.074   6.378   0.265  1.00  0.00    -0.351 N 
HETATM   24  C2  UNL     1     -16.626   7.371  -0.591  1.00  0.00     0.214 C 
HETATM   25  C1  UNL     1     -15.848   8.522  -1.105  1.00  0.00     0.117 C 
HETATM   26  O1  UNL     1     -17.825   7.266  -0.922  1.00  0.00    -0.274 OA
ATOM     27  H1  UNL     1     -15.094   6.473   0.530  1.00  0.00     0.163 HD
ENDBRANCH   1  23
BRANCH   2  28
HETATM   28  C5  UNL     1     -14.777   4.881   2.192  1.00  0.00     0.011 C 
HETATM   29  C6  UNL     1     -13.626   4.364   2.090  1.00  0.00     0.049 C 
BRANCH  29  30
HETATM   30  C7  UNL     1     -13.238   3.144   1.471  1.00  0.00     0.159 C 
HETATM   31  O2  UNL     1     -13.091   3.057   0.208  1.00  0.00    -0.292 OA
BRANCH  30  32
HETATM   32  C8  UNL     1     -12.967   1.866   2.195  1.00  0.00     0.168 C 
HETATM   33 BR1  UNL     1     -14.521   0.748   2.271  1.00  0.00    -0.088 Br
ENDBRANCH  30  32
ENDBRANCH  29  30
ENDBRANCH   2  28
BRANCH  12  34
HETATM   34  C17 UNL     1     -21.163   5.416   1.357  1.00  0.00     0.228 C 
HETATM   35  O4  UNL     1     -21.591   5.367   0.168  1.00  0.00    -0.643 OA
HETATM   36  O5  UNL     1     -21.619   6.494   2.099  1.00  0.00    -0.643 OA
ENDBRANCH  12  34
TORSDOF 8
ENDMDL
MODEL 3
REMARK VINA RESULT: -8.171249144      3.422      7.189
REMARK  8 active torsions:
REMARK  status: ('A' for Active; 'I' for Inactive)
REMARK       I    between atoms: C2_2  and  N1_4 
REMARK    1  A    between atoms: N1_4  and  C3_6 
REMARK    2  A    between atoms: C4_7  and  C5_8 
REMARK    3  A    between atoms: C6_9  and  C7_10 
REMARK    4  A    between atoms: C7_10  and  C8_12 
REMARK    5  A    between atoms: C16_23  and  C17_24 
REMARK    6  A    between atoms: C18_28  and  C19_29 
REMARK       I    between atoms: C19_29  and  N4_31 
REMARK    7  A    between atoms: N4_31  and  O7_33 
REMARK    8  A    between atoms: O7_33  and  C20_34 
ROOT
HETATM    1  C3  UNL     1     -18.442   7.727   1.142  1.00  0.00     0.149 C 
HETATM    2  C4  UNL     1     -18.665   6.662   2.165  1.00  0.00     0.172 C 
HETATM    3  O3  UNL     1     -19.875   6.868   2.856  1.00  0.00    -0.350 OA
HETATM    4  C9  UNL     1     -20.844   7.023   1.848  1.00  0.00     0.277 C 
HETATM    5  C10 UNL     1     -22.166   6.642   2.332  1.00  0.00     0.065 A 
HETATM    6  C11 UNL     1     -22.548   5.518   3.091  1.00  0.00     0.031 A 
HETATM    7  C12 UNL     1     -23.897   5.594   3.221  1.00  0.00     0.020 A 
HETATM    8  C13 UNL     1     -24.346   6.736   2.562  1.00  0.00     0.097 A 
HETATM    9  N2  UNL     1     -23.248   7.354   2.030  1.00  0.00    -0.323 N 
HETATM   10  C14 UNL     1     -23.128   8.597   1.309  1.00  0.00     0.046 C 
HETATM   11  C15 UNL     1     -24.405   9.301   1.016  1.00  0.00     0.071 C 
HETATM   12  C16 UNL     1     -21.926   9.063   0.938  1.00  0.00     0.134 C 
HETATM   13  N3  UNL     1     -20.768   8.338   1.327  1.00  0.00    -0.326 N 
HETATM   14  C18 UNL     1     -19.434   8.907   1.229  1.00  0.00     0.207 C 
ENDROOT
BRANCH  14  15
HETATM   15  C19 UNL     1     -19.096   9.813   2.336  1.00  0.00     0.266 C 
HETATM   16  O6  UNL     1     -19.858   9.858   3.324  1.00  0.00    -0.269 OA
HETATM   17  N4  UNL     1     -17.958  10.648   2.355  1.00  0.00    -0.233 N 
ATOM     18  H4  UNL     1     -17.315  10.625   1.563  1.00  0.00     0.197 HD
BRANCH  17  19
HETATM   19  O7  UNL     1     -17.692  11.478   3.395  1.00  0.00    -0.273 OA
BRANCH  19  20
HETATM   20  C20 UNL     1     -16.725  12.413   3.124  1.00  0.00     0.144 C 
HETATM   21  C21 UNL     1     -16.401  12.341   1.646  1.00  0.00     0.042 C 
HETATM   22  C22 UNL     1     -15.433  12.148   3.878  1.00  0.00     0.042 C 
ENDBRANCH  19  20
ENDBRANCH  17  19
ENDBRANCH  14  15
BRANCH   1  23
HETATM   23  N1  UNL     1     -17.097   8.204   1.026  1.00  0.00    -0.351 N 
HETATM   24  C2  UNL     1     -16.522   8.715  -0.170  1.00  0.00     0.214 C 
HETATM   25  C1  UNL     1     -15.125   9.201  -0.254  1.00  0.00     0.117 C 
HETATM   26  O1  UNL     1     -17.231   8.756  -1.196  1.00  0.00    -0.274 OA
ATOM     27  H1  UNL     1     -16.510   8.175   1.860  1.00  0.00     0.163 HD
ENDBRANCH   1  23
BRANCH   2  28
HETATM   28  C5  UNL     1     -17.588   6.461   3.114  1.00  0.00     0.011 C 
HETATM   29  C6  UNL     1     -16.762   5.502   3.158  1.00  0.00     0.049 C 
BRANCH  29  30
HETATM   30  C7  UNL     1     -16.654   4.367   2.308  1.00  0.00     0.159 C 
HETATM   31  O2  UNL     1     -16.113   4.449   1.157  1.00  0.00    -0.292 OA
BRANCH  30  32
HETATM   32  C8  UNL     1     -17.141   2.996   2.646  1.00  0.00     0.168 C 
HETATM   33 BR1  UNL     1     -19.056   2.911   2.685  1.00  0.00    -0.088 Br
ENDBRANCH  30  32
ENDBRANCH  29  30
ENDBRANCH   2  28
BRANCH  12  34
HETATM   34  C17 UNL     1     -21.878  10.322   0.207  1.00  0.00     0.228 C 
HETATM   35  O4  UNL     1     -21.874  10.388  -1.057  1.00  0.00    -0.643 OA
HETATM   36  O5  UNL     1     -21.832  11.545   0.857  1.00  0.00    -0.643 OA
ENDBRANCH  12  34
TORSDOF 8
ENDMDL
MODEL 4
REMARK VINA RESULT: -7.989344067      2.796      5.966
REMARK  8 active torsions:
REMARK  status: ('A' for Active; 'I' for Inactive)
REMARK       I    between atoms: C2_2  and  N1_4 
REMARK    1  A    between atoms: N1_4  and  C3_6 
REMARK    2  A    between atoms: C4_7  and  C5_8 
REMARK    3  A    between atoms: C6_9  and  C7_10 
REMARK    4  A    between atoms: C7_10  and  C8_12 
REMARK    5  A    between atoms: C16_23  and  C17_24 
REMARK    6  A    between atoms: C18_28  and  C19_29 
REMARK       I    between atoms: C19_29  and  N4_31 
REMARK    7  A    between atoms: N4_31  and  O7_33 
REMARK    8  A    between atoms: O7_33  and  C20_34 
ROOT
HETATM    1  C3  UNL     1     -17.870   6.155   0.706  1.00  0.00     0.149 C 
HETATM    2  C4  UNL     1     -17.057   5.217   1.536  1.00  0.00     0.172 C 
HETATM    3  O3  UNL     1     -17.805   4.722   2.623  1.00  0.00    -0.350 OA
HETATM    4  C9  UNL     1     -18.992   4.231   2.049  1.00  0.00     0.277 C 
HETATM    5  C10 UNL     1     -19.576   3.181   2.877  1.00  0.00     0.065 A 
HETATM    6  C11 UNL     1     -18.947   2.089   3.507  1.00  0.00     0.031 A 
HETATM    7  C12 UNL     1     -19.939   1.377   4.099  1.00  0.00     0.020 A 
HETATM    8  C13 UNL     1     -21.155   2.007   3.848  1.00  0.00     0.097 A 
HETATM    9  N2  UNL     1     -20.887   3.117   3.093  1.00  0.00    -0.323 N 
HETATM   10  C14 UNL     1     -21.760   4.156   2.608  1.00  0.00     0.046 C 
HETATM   11  C15 UNL     1     -23.207   3.972   2.898  1.00  0.00     0.071 C 
HETATM   12  C16 UNL     1     -21.268   5.211   1.941  1.00  0.00     0.134 C 
HETATM   13  N3  UNL     1     -19.861   5.314   1.777  1.00  0.00    -0.326 N 
HETATM   14  C18 UNL     1     -19.226   6.544   1.334  1.00  0.00     0.207 C 
ENDROOT
BRANCH  14  15
HETATM   15  C19 UNL     1     -19.057   7.539   2.404  1.00  0.00     0.266 C 
HETATM   16  O6  UNL     1     -18.864   7.135   3.569  1.00  0.00    -0.269 OA
HETATM   17  N4  UNL     1     -19.103   8.935   2.199  1.00  0.00    -0.233 N 
ATOM     18  H4  UNL     1     -19.252   9.291   1.255  1.00  0.00     0.197 HD
BRANCH  17  19
HETATM   19  O7  UNL     1     -18.954   9.817   3.220  1.00  0.00    -0.273 OA
BRANCH  19  20
HETATM   20  C20 UNL     1     -18.235  10.937   2.885  1.00  0.00     0.144 C 
HETATM   21  C21 UNL     1     -19.063  11.753   1.912  1.00  0.00     0.042 C 
HETATM   22  C22 UNL     1     -16.928  10.602   2.187  1.00  0.00     0.042 C 
ENDBRANCH  19  20
ENDBRANCH  17  19
ENDBRANCH  14  15
BRANCH   1  23
HETATM   23  N1  UNL     1     -17.182   7.316   0.227  1.00  0.00    -0.351 N 
HETATM   24  C2  UNL     1     -16.245   7.314  -0.843  1.00  0.00     0.214 C 
HETATM   25  C1  UNL     1     -15.550   8.535  -1.313  1.00  0.00     0.117 C 
HETATM   26  O1  UNL     1     -15.998   6.231  -1.412  1.00  0.00    -0.274 OA
ATOM     27  H1  UNL     1     -17.377   8.206   0.685  1.00  0.00     0.163 HD
ENDBRANCH   1  23
BRANCH   2  28
HETATM   28  C5  UNL     1     -15.787   5.731   2.010  1.00  0.00     0.011 C 
HETATM   29  C6  UNL     1     -14.696   5.101   2.142  1.00  0.00     0.049 C 
BRANCH  29  30
HETATM   30  C7  UNL     1     -14.406   3.736   1.870  1.00  0.00     0.159 C 
HETATM   31  O2  UNL     1     -13.563   3.403   0.974  1.00  0.00    -0.292 OA
BRANCH  30  32
HETATM   32  C8  UNL     1     -15.028   2.574   2.571  1.00  0.00     0.168 C 
HETATM   33 BR1  UNL     1     -14.222   0.914   2.050  1.00  0.00    -0.088 Br
ENDBRANCH  30  32
ENDBRANCH  29  30
ENDBRANCH   2  28
BRANCH  12  34
HETATM   34  C17 UNL     1     -22.209   6.221   1.474  1.00  0.00     0.228 C 
HETATM   35  O4  UNL     1     -22.531   6.357   0.259  1.00  0.00    -0.643 OA
HETATM   36  O5  UNL     1     -22.817   7.112   2.344  1.00  0.00    -0.643 OA
ENDBRANCH  12  34
TORSDOF 8
ENDMDL
MODEL 5
REMARK VINA RESULT: -7.909125053      2.742      5.778
REMARK  8 active torsions:
REMARK  status: ('A' for Active; 'I' for Inactive)
REMARK       I    between atoms: C2_2  and  N1_4 
REMARK    1  A    between atoms: N1_4  and  C3_6 
REMARK    2  A    between atoms: C4_7  and  C5_8 
REMARK    3  A    between atoms: C6_9  and  C7_10 
REMARK    4  A    between atoms: C7_10  and  C8_12 
REMARK    5  A    between atoms: C16_23  and  C17_24 
REMARK    6  A    between atoms: C18_28  and  C19_29 
REMARK       I    between atoms: C19_29  and  N4_31 
REMARK    7  A    between atoms: N4_31  and  O7_33 
REMARK    8  A    between atoms: O7_33  and  C20_34 
ROOT
HETATM    1  C3  UNL     1     -18.232   2.531   3.578  1.00  0.00     0.149 C 
HETATM    2  C4  UNL     1     -16.921   2.548   2.863  1.00  0.00     0.172 C 
HETATM    3  O3  UNL     1     -16.968   3.395   1.737  1.00  0.00    -0.350 OA
HETATM    4  C9  UNL     1     -17.465   4.617   2.226  1.00  0.00     0.277 C 
HETATM    5  C10 UNL     1     -17.019   5.731   1.396  1.00  0.00     0.065 A 
HETATM    6  C11 UNL     1     -15.739   5.995   0.871  1.00  0.00     0.031 A 
HETATM    7  C12 UNL     1     -15.837   7.185   0.225  1.00  0.00     0.020 A 
HETATM    8  C13 UNL     1     -17.143   7.651   0.343  1.00  0.00     0.097 A 
HETATM    9  N2  UNL     1     -17.840   6.725   1.070  1.00  0.00    -0.323 N 
HETATM   10  C14 UNL     1     -19.234   6.671   1.432  1.00  0.00     0.046 C 
HETATM   11  C15 UNL     1     -20.054   7.844   1.026  1.00  0.00     0.071 C 
HETATM   12  C16 UNL     1     -19.732   5.615   2.095  1.00  0.00     0.134 C 
HETATM   13  N3  UNL     1     -18.869   4.523   2.375  1.00  0.00    -0.326 N 
HETATM   14  C18 UNL     1     -19.377   3.234   2.819  1.00  0.00     0.207 C 
ENDROOT
BRANCH  14  15
HETATM   15  C19 UNL     1     -19.892   2.396   1.726  1.00  0.00     0.266 C 
HETATM   16  O6  UNL     1     -19.984   2.893   0.585  1.00  0.00    -0.269 OA
HETATM   17  N4  UNL     1     -20.298   1.053   1.885  1.00  0.00    -0.233 N 
ATOM     18  H4  UNL     1     -20.227   0.621   2.805  1.00  0.00     0.197 HD
BRANCH  17  19
HETATM   19  O7  UNL     1     -20.780   0.320   0.849  1.00  0.00    -0.273 OA
BRANCH  19  20
HETATM   20  C20 UNL     1     -20.424  -1.004   0.894  1.00  0.00     0.144 C 
HETATM   21  C21 UNL     1     -21.349  -1.706   1.868  1.00  0.00     0.042 C 
HETATM   22  C22 UNL     1     -19.006  -1.208   1.399  1.00  0.00     0.042 C 
ENDBRANCH  19  20
ENDBRANCH  17  19
ENDBRANCH  14  15
BRANCH   1  23
HETATM   23  N1  UNL     1     -18.656   1.253   4.065  1.00  0.00    -0.351 N 
HETATM   24  C2  UNL     1     -19.829   1.034   4.840  1.00  0.00     0.214 C 
HETATM   25  C1  UNL     1     -20.239  -0.303   5.327  1.00  0.00     0.117 C 
HETATM   26  O1  UNL     1     -20.544   2.017   5.121  1.00  0.00    -0.274 OA
ATOM     27  H1  UNL     1     -18.078   0.444   3.839  1.00  0.00     0.163 HD
ENDBRANCH   1  23
BRANCH   2  28
HETATM   28  C5  UNL     1     -16.393   1.254   2.479  1.00  0.00     0.011 C 
HETATM   29  C6  UNL     1     -15.190   0.951   2.224  1.00  0.00     0.049 C 
BRANCH  29  30
HETATM   30  C7  UNL     1     -14.032   1.776   2.238  1.00  0.00     0.159 C 
HETATM   31  O2  UNL     1     -13.135   1.645   3.134  1.00  0.00    -0.292 OA
BRANCH  30  32
HETATM   32  C8  UNL     1     -13.737   2.853   1.247  1.00  0.00     0.168 C 
HETATM   33 BR1  UNL     1     -11.897   3.385   1.301  1.00  0.00    -0.088 Br
ENDBRANCH  30  32
ENDBRANCH  29  30
ENDBRANCH   2  28
BRANCH  12  34
HETATM   34  C17 UNL     1     -21.149   5.630   2.434  1.00  0.00     0.228 C 
HETATM   35  O4  UNL     1     -21.584   5.969   3.572  1.00  0.00    -0.643 OA
HETATM   36  O5  UNL     1     -22.124   5.265   1.520  1.00  0.00    -0.643 OA
ENDBRANCH  12  34
TORSDOF 8
ENDMDL
