MODEL 1
REMARK VINA RESULT: -8.222497338      0.000      0.000
REMARK  11 active torsions:
REMARK  status: ('A' for Active; 'I' for Inactive)
REMARK    1  A    between atoms: C2_2  and  C3_3 
REMARK    2  A    between atoms: C3_3  and  C5_5 
REMARK    3  A    between atoms: N3_17  and  C11_18 
REMARK    4  A    between atoms: C11_18  and  C12_19 
REMARK    5  A    between atoms: C12_19  and  O4_20 
REMARK    6  A    between atoms: C12_19  and  C13_22 
REMARK    7  A    between atoms: C13_22  and  C14_23 
REMARK    8  A    between atoms: C13_22  and  N4_27 
REMARK    9  A    between atoms: C14_23  and  C15_24 
REMARK       I    between atoms: N4_27  and  C18_29 
REMARK   10  A    between atoms: C18_29  and  O6_31 
REMARK   11  A    between atoms: O6_31  and  C19_32 
ROOT
HETATM    1  C5  UNL     1     -20.059   8.545   0.058  1.00  0.00     0.182 C 
HETATM    2  C6  UNL     1     -19.357   9.599  -0.675  1.00  0.00     0.243 C 
HETATM    3  O1  UNL     1     -20.010  10.102  -1.665  1.00  0.00    -0.271 OA
HETATM    4  N1  UNL     1     -18.082  10.127  -0.446  1.00  0.00    -0.321 N 
ATOM      5  H1  UNL     1     -17.999  11.144  -0.431  1.00  0.00     0.166 HD
HETATM    6  C7  UNL     1     -16.861   9.360  -0.224  1.00  0.00     0.333 C 
HETATM    7  C8  UNL     1     -15.715  10.304  -0.143  1.00  0.00     0.113 C 
HETATM    8  N2  UNL     1     -14.831  11.056  -0.087  1.00  0.00    -0.193 NA
HETATM    9  O2  UNL     1     -16.558   8.500  -1.238  1.00  0.00    -0.345 OA
HETATM   10  C9  UNL     1     -16.688   7.164  -0.986  1.00  0.00     0.274 C 
HETATM   11  C10 UNL     1     -16.312   6.787   0.395  1.00  0.00     0.244 C 
HETATM   12  O3  UNL     1     -15.166   7.150   0.761  1.00  0.00    -0.271 OA
HETATM   13  N3  UNL     1     -17.137   6.074   1.277  1.00  0.00    -0.339 N 
HETATM   14  C23 UNL     1     -18.589   5.974   1.089  1.00  0.00     0.228 C 
HETATM   15  C24 UNL     1     -19.288   7.017   1.882  1.00  0.00     0.238 C 
HETATM   16  O7  UNL     1     -19.597   6.708   3.082  1.00  0.00    -0.272 OA
HETATM   17  N5  UNL     1     -19.632   8.316   1.407  1.00  0.00    -0.341 N 
HETATM   18  C25 UNL     1     -19.531   9.407   2.386  1.00  0.00     0.153 C 
ENDROOT
BRANCH   1  19
HETATM   19  C3  UNL     1     -21.552   8.709  -0.077  1.00  0.00     0.013 C 
HETATM   20  C4  UNL     1     -22.198   9.459   1.044  1.00  0.00     0.012 C 
BRANCH  19  21
HETATM   21  C2  UNL     1     -22.226   7.383  -0.342  1.00  0.00     0.002 C 
HETATM   22  C1  UNL     1     -21.384   6.465  -1.191  1.00  0.00     0.005 C 
ENDBRANCH  19  21
ENDBRANCH   1  19
BRANCH  13  23
HETATM   23  C11 UNL     1     -16.587   5.430   2.431  1.00  0.00     0.164 C 
BRANCH  23  24
HETATM   24  C12 UNL     1     -15.979   4.025   2.079  1.00  0.00     0.181 C 
BRANCH  24  25
HETATM   25  O4  UNL     1     -14.609   4.351   2.288  1.00  0.00    -0.388 OA
ATOM     26  H4  UNL     1     -14.495   3.900   3.116  1.00  0.00     0.210 HD
ENDBRANCH  24  25
BRANCH  24  27
HETATM   27  C13 UNL     1     -16.473   3.010   3.031  1.00  0.00     0.022 C 
BRANCH  27  28
HETATM   28  C14 UNL     1     -15.658   1.798   3.228  1.00  0.00     0.059 C 
BRANCH  28  29
HETATM   29  C15 UNL     1     -15.576   0.803   2.132  1.00  0.00    -0.017 C 
HETATM   30  C16 UNL     1     -16.000  -0.580   2.444  1.00  0.00     0.010 C 
HETATM   31  C17 UNL     1     -14.068   0.695   1.806  1.00  0.00     0.010 C 
ENDBRANCH  28  29
ENDBRANCH  27  28
BRANCH  27  32
HETATM   32  N4  UNL     1     -17.882   2.875   3.040  1.00  0.00    -0.307 N 
HETATM   33  C18 UNL     1     -18.872   2.070   3.518  1.00  0.00     0.365 C 
HETATM   34  O5  UNL     1     -18.694   1.073   4.230  1.00  0.00    -0.238 OA
ATOM     35  H4  UNL     1     -18.297   3.639   2.506  1.00  0.00     0.170 HD
BRANCH  33  36
HETATM   36  O6  UNL     1     -20.255   2.308   3.240  1.00  0.00    -0.294 OA
BRANCH  36  37
HETATM   37  C19 UNL     1     -20.860   1.803   2.085  1.00  0.00     0.061 C 
HETATM   38  C20 UNL     1     -22.270   1.375   2.425  1.00  0.00     0.046 C 
HETATM   39  C21 UNL     1     -20.130   0.552   1.594  1.00  0.00     0.046 C 
HETATM   40  C22 UNL     1     -20.817   2.845   0.998  1.00  0.00     0.046 C 
ENDBRANCH  36  37
ENDBRANCH  33  36
ENDBRANCH  27  32
ENDBRANCH  24  27
ENDBRANCH  23  24
ENDBRANCH  13  23
TORSDOF 11
ENDMDL
MODEL 2
REMARK VINA RESULT: -8.179675707      0.987      1.206
REMARK  11 active torsions:
REMARK  status: ('A' for Active; 'I' for Inactive)
REMARK    1  A    between atoms: C2_2  and  C3_3 
REMARK    2  A    between atoms: C3_3  and  C5_5 
REMARK    3  A    between atoms: N3_17  and  C11_18 
REMARK    4  A    between atoms: C11_18  and  C12_19 
REMARK    5  A    between atoms: C12_19  and  O4_20 
REMARK    6  A    between atoms: C12_19  and  C13_22 
REMARK    7  A    between atoms: C13_22  and  C14_23 
REMARK    8  A    between atoms: C13_22  and  N4_27 
REMARK    9  A    between atoms: C14_23  and  C15_24 
REMARK       I    between atoms: N4_27  and  C18_29 
REMARK   10  A    between atoms: C18_29  and  O6_31 
REMARK   11  A    between atoms: O6_31  and  C19_32 
ROOT
HETATM    1  C5  UNL     1     -19.393   8.936   0.009  1.00  0.00     0.182 C 
HETATM    2  C6  UNL     1     -18.425   9.833  -0.624  1.00  0.00     0.243 C 
HETATM    3  O1  UNL     1     -18.869  10.477  -1.648  1.00  0.00    -0.271 OA
HETATM    4  N1  UNL     1     -17.096  10.081  -0.268  1.00  0.00    -0.321 N 
ATOM      5  H1  UNL     1     -16.808  11.058  -0.212  1.00  0.00     0.166 HD
HETATM    6  C7  UNL     1     -16.083   9.074   0.030  1.00  0.00     0.333 C 
HETATM    7  C8  UNL     1     -14.780   9.758   0.242  1.00  0.00     0.113 C 
HETATM    8  N2  UNL     1     -13.770  10.309   0.400  1.00  0.00    -0.193 NA
HETATM    9  O2  UNL     1     -15.873   8.186  -0.983  1.00  0.00    -0.345 OA
HETATM   10  C9  UNL     1     -16.297   6.903  -0.789  1.00  0.00     0.274 C 
HETATM   11  C10 UNL     1     -16.133   6.434   0.605  1.00  0.00     0.244 C 
HETATM   12  O3  UNL     1     -14.976   6.545   1.080  1.00  0.00    -0.271 OA
HETATM   13  N3  UNL     1     -17.164   5.893   1.388  1.00  0.00    -0.339 N 
HETATM   14  C23 UNL     1     -18.582   6.100   1.072  1.00  0.00     0.228 C 
HETATM   15  C24 UNL     1     -19.122   7.252   1.838  1.00  0.00     0.238 C 
HETATM   16  O7  UNL     1     -19.595   6.994   2.996  1.00  0.00    -0.272 OA
HETATM   17  N5  UNL     1     -19.147   8.601   1.380  1.00  0.00    -0.341 N 
HETATM   18  C25 UNL     1     -18.913   9.632   2.402  1.00  0.00     0.153 C 
ENDROOT
BRANCH   1  19
HETATM   19  C3  UNL     1     -20.802   9.408  -0.247  1.00  0.00     0.013 C 
HETATM   20  C4  UNL     1     -21.545   9.839   0.977  1.00  0.00     0.012 C 
BRANCH  19  21
HETATM   21  C2  UNL     1     -21.577   8.400  -1.063  1.00  0.00     0.002 C 
HETATM   22  C1  UNL     1     -22.268   7.371  -0.206  1.00  0.00     0.005 C 
ENDBRANCH  19  21
ENDBRANCH   1  19
BRANCH  13  23
HETATM   23  C11 UNL     1     -16.866   5.130   2.562  1.00  0.00     0.164 C 
BRANCH  23  24
HETATM   24  C12 UNL     1     -16.257   3.726   2.204  1.00  0.00     0.181 C 
BRANCH  24  25
HETATM   25  O4  UNL     1     -14.934   3.967   2.670  1.00  0.00    -0.388 OA
ATOM     26  H4  UNL     1     -14.475   3.422   2.041  1.00  0.00     0.210 HD
ENDBRANCH  24  25
BRANCH  24  27
HETATM   27  C13 UNL     1     -16.946   2.670   2.971  1.00  0.00     0.022 C 
BRANCH  27  28
HETATM   28  C14 UNL     1     -16.181   1.458   3.312  1.00  0.00     0.059 C 
BRANCH  28  29
HETATM   29  C15 UNL     1     -15.693   0.586   2.216  1.00  0.00    -0.017 C 
HETATM   30  C16 UNL     1     -15.996  -0.859   2.319  1.00  0.00     0.010 C 
HETATM   31  C17 UNL     1     -14.150   0.678   2.294  1.00  0.00     0.010 C 
ENDBRANCH  28  29
ENDBRANCH  27  28
BRANCH  27  32
HETATM   32  N4  UNL     1     -18.314   2.523   2.636  1.00  0.00    -0.307 N 
HETATM   33  C18 UNL     1     -19.232   1.574   2.302  1.00  0.00     0.365 C 
HETATM   34  O5  UNL     1     -19.004   0.359   2.228  1.00  0.00    -0.238 OA
ATOM     35  H4  UNL     1     -18.764   3.438   2.651  1.00  0.00     0.170 HD
BRANCH  33  36
HETATM   36  O6  UNL     1     -20.592   1.897   1.996  1.00  0.00    -0.294 OA
BRANCH  36  37
HETATM   37  C19 UNL     1     -21.523   2.151   3.008  1.00  0.00     0.061 C 
HETATM   38  C20 UNL     1     -21.823   3.633   3.026  1.00  0.00     0.046 C 
HETATM   39  C21 UNL     1     -20.940   1.806   4.379  1.00  0.00     0.046 C 
HETATM   40  C22 UNL     1     -22.754   1.313   2.781  1.00  0.00     0.046 C 
ENDBRANCH  36  37
ENDBRANCH  33  36
ENDBRANCH  27  32
ENDBRANCH  24  27
ENDBRANCH  23  24
ENDBRANCH  13  23
TORSDOF 11
ENDMDL
MODEL 3
REMARK VINA RESULT: -7.888864247      1.822      2.483
REMARK  11 active torsions:
REMARK  status: ('A' for Active; 'I' for Inactive)
REMARK    1  A    between atoms: C2_2  and  C3_3 
REMARK    2  A    between atoms: C3_3  and  C5_5 
REMARK    3  A    between atoms: N3_17  and  C11_18 
REMARK    4  A    between atoms: C11_18  and  C12_19 
REMARK    5  A    between atoms: C12_19  and  O4_20 
REMARK    6  A    between atoms: C12_19  and  C13_22 
REMARK    7  A    between atoms: C13_22  and  C14_23 
REMARK    8  A    between atoms: C13_22  and  N4_27 
REMARK    9  A    between atoms: C14_23  and  C15_24 
REMARK       I    between atoms: N4_27  and  C18_29 
REMARK   10  A    between atoms: C18_29  and  O6_31 
REMARK   11  A    between atoms: O6_31  and  C19_32 
ROOT
HETATM    1  C5  UNL     1     -19.099  10.655  -0.117  1.00  0.00     0.182 C 
HETATM    2  C6  UNL     1     -17.891  11.330  -0.592  1.00  0.00     0.243 C 
HETATM    3  O1  UNL     1     -18.090  12.235  -1.487  1.00  0.00    -0.271 OA
HETATM    4  N1  UNL     1     -16.563  11.125  -0.207  1.00  0.00    -0.321 N 
ATOM      5  H1  UNL     1     -16.013  11.955   0.015  1.00  0.00     0.166 HD
HETATM    6  C7  UNL     1     -15.890   9.835  -0.093  1.00  0.00     0.333 C 
HETATM    7  C8  UNL     1     -14.458  10.072   0.226  1.00  0.00     0.113 C 
HETATM    8  N2  UNL     1     -13.341  10.276   0.470  1.00  0.00    -0.193 NA
HETATM    9  O2  UNL     1     -15.895   9.106  -1.245  1.00  0.00    -0.345 OA
HETATM   10  C9  UNL     1     -16.673   7.983  -1.272  1.00  0.00     0.274 C 
HETATM   11  C10 UNL     1     -16.710   7.262   0.019  1.00  0.00     0.244 C 
HETATM   12  O3  UNL     1     -15.590   6.957   0.499  1.00  0.00    -0.271 OA
HETATM   13  N3  UNL     1     -17.884   6.916   0.704  1.00  0.00    -0.339 N 
HETATM   14  C23 UNL     1     -19.171   7.569   0.437  1.00  0.00     0.228 C 
HETATM   15  C24 UNL     1     -19.396   8.683   1.393  1.00  0.00     0.238 C 
HETATM   16  O7  UNL     1     -19.972   8.383   2.492  1.00  0.00    -0.272 OA
HETATM   17  N5  UNL     1     -19.018  10.040   1.175  1.00  0.00    -0.341 N 
HETATM   18  C25 UNL     1     -18.548  10.775   2.357  1.00  0.00     0.153 C 
ENDROOT
BRANCH   1  19
HETATM   19  C3  UNL     1     -20.305  11.546  -0.280  1.00  0.00     0.013 C 
HETATM   20  C4  UNL     1     -20.586  12.431   0.893  1.00  0.00     0.012 C 
BRANCH  19  21
HETATM   21  C2  UNL     1     -21.519  10.753  -0.703  1.00  0.00     0.002 C 
HETATM   22  C1  UNL     1     -21.234   9.835  -1.865  1.00  0.00     0.005 C 
ENDBRANCH  19  21
ENDBRANCH   1  19
BRANCH  13  23
HETATM   23  C11 UNL     1     -17.866   5.915   1.727  1.00  0.00     0.164 C 
BRANCH  23  24
HETATM   24  C12 UNL     1     -18.971   4.823   1.493  1.00  0.00     0.181 C 
BRANCH  24  25
HETATM   25  O4  UNL     1     -18.680   4.546   0.127  1.00  0.00    -0.388 OA
ATOM     26  H4  UNL     1     -19.476   4.071  -0.079  1.00  0.00     0.210 HD
ENDBRANCH  24  25
BRANCH  24  27
HETATM   27  C13 UNL     1     -18.725   3.663   2.373  1.00  0.00     0.022 C 
BRANCH  27  28
HETATM   28  C14 UNL     1     -17.407   3.562   3.024  1.00  0.00     0.059 C 
BRANCH  28  29
HETATM   29  C15 UNL     1     -16.398   2.630   2.463  1.00  0.00    -0.017 C 
HETATM   30  C16 UNL     1     -16.073   1.429   3.263  1.00  0.00     0.010 C 
HETATM   31  C17 UNL     1     -15.086   3.448   2.417  1.00  0.00     0.010 C 
ENDBRANCH  28  29
ENDBRANCH  27  28
BRANCH  27  32
HETATM   32  N4  UNL     1     -19.342   2.469   1.928  1.00  0.00    -0.307 N 
HETATM   33  C18 UNL     1     -20.570   1.926   1.700  1.00  0.00     0.365 C 
HETATM   34  O5  UNL     1     -21.647   2.518   1.850  1.00  0.00    -0.238 OA
ATOM     35  H4  UNL     1     -18.622   1.782   1.702  1.00  0.00     0.170 HD
BRANCH  33  36
HETATM   36  O6  UNL     1     -20.742   0.580   1.248  1.00  0.00    -0.294 OA
BRANCH  36  37
HETATM   37  C19 UNL     1     -20.344  -0.506   2.035  1.00  0.00     0.061 C 
HETATM   38  C20 UNL     1     -21.345  -1.625   1.857  1.00  0.00     0.046 C 
HETATM   39  C21 UNL     1     -20.362  -0.135   3.518  1.00  0.00     0.046 C 
HETATM   40  C22 UNL     1     -18.944  -0.915   1.655  1.00  0.00     0.046 C 
ENDBRANCH  36  37
ENDBRANCH  33  36
ENDBRANCH  27  32
ENDBRANCH  24  27
ENDBRANCH  23  24
ENDBRANCH  13  23
TORSDOF 11
ENDMDL
MODEL 4
REMARK VINA RESULT: -7.696292578      1.046      1.372
REMARK  11 active torsions:
REMARK  status: ('A' for Active; 'I' for Inactive)
REMARK    1  A    between atoms: C2_2  and  C3_3 
REMARK    2  A    between atoms: C3_3  and  C5_5 
REMARK    3  A    between atoms: N3_17  and  C11_18 
REMARK    4  A    between atoms: C11_18  and  C12_19 
REMARK    5  A    between atoms: C12_19  and  O4_20 
REMARK    6  A    between atoms: C12_19  and  C13_22 
REMARK    7  A    between atoms: C13_22  and  C14_23 
REMARK    8  A    between atoms: C13_22  and  N4_27 
REMARK    9  A    between atoms: C14_23  and  C15_24 
REMARK       I    between atoms: N4_27  and  C18_29 
REMARK   10  A    between atoms: C18_29  and  O6_31 
REMARK   11  A    between atoms: O6_31  and  C19_32 
ROOT
HETATM    1  C5  UNL     1     -20.142   9.184   0.094  1.00  0.00     0.182 C 
HETATM    2  C6  UNL     1     -19.410  10.275  -0.551  1.00  0.00     0.243 C 
HETATM    3  O1  UNL     1     -20.056  10.887  -1.483  1.00  0.00    -0.271 OA
HETATM    4  N1  UNL     1     -18.116  10.735  -0.293  1.00  0.00    -0.321 N 
ATOM      5  H1  UNL     1     -17.996  11.743  -0.189  1.00  0.00     0.166 HD
HETATM    6  C7  UNL     1     -16.920   9.909  -0.157  1.00  0.00     0.333 C 
HETATM    7  C8  UNL     1     -15.741  10.802  -0.007  1.00  0.00     0.113 C 
HETATM    8  N2  UNL     1     -14.830  11.514   0.105  1.00  0.00    -0.193 NA
HETATM    9  O2  UNL     1     -16.659   9.134  -1.247  1.00  0.00    -0.345 OA
HETATM   10  C9  UNL     1     -16.834   7.786  -1.114  1.00  0.00     0.274 C 
HETATM   11  C10 UNL     1     -16.458   7.274   0.223  1.00  0.00     0.244 C 
HETATM   12  O3  UNL     1     -15.297   7.562   0.604  1.00  0.00    -0.271 OA
HETATM   13  N3  UNL     1     -17.299   6.513   1.049  1.00  0.00    -0.339 N 
HETATM   14  C23 UNL     1     -18.756   6.481   0.871  1.00  0.00     0.228 C 
HETATM   15  C24 UNL     1     -19.409   7.472   1.763  1.00  0.00     0.238 C 
HETATM   16  O7  UNL     1     -19.716   7.068   2.935  1.00  0.00    -0.272 OA
HETATM   17  N5  UNL     1     -19.711   8.820   1.411  1.00  0.00    -0.341 N 
HETATM   18  C25 UNL     1     -19.560   9.814   2.483  1.00  0.00     0.153 C 
ENDROOT
BRANCH   1  19
HETATM   19  C3  UNL     1     -21.630   9.411  -0.006  1.00  0.00     0.013 C 
HETATM   20  C4  UNL     1     -22.258   9.968   1.232  1.00  0.00     0.012 C 
BRANCH  19  21
HETATM   21  C2  UNL     1     -22.341   8.173  -0.501  1.00  0.00     0.002 C 
HETATM   22  C1  UNL     1     -23.006   7.404   0.612  1.00  0.00     0.005 C 
ENDBRANCH  19  21
ENDBRANCH   1  19
BRANCH  13  23
HETATM   23  C11 UNL     1     -16.761   5.749   2.133  1.00  0.00     0.164 C 
BRANCH  23  24
HETATM   24  C12 UNL     1     -16.138   4.394   1.638  1.00  0.00     0.181 C 
BRANCH  24  25
HETATM   25  O4  UNL     1     -14.771   4.788   1.671  1.00  0.00    -0.388 OA
ATOM     26  H4  UNL     1     -14.434   4.038   2.147  1.00  0.00     0.210 HD
ENDBRANCH  24  25
BRANCH  24  27
HETATM   27  C13 UNL     1     -16.444   3.319   2.602  1.00  0.00     0.022 C 
BRANCH  27  28
HETATM   28  C14 UNL     1     -15.318   2.529   3.130  1.00  0.00     0.059 C 
BRANCH  28  29
HETATM   29  C15 UNL     1     -14.756   1.436   2.298  1.00  0.00    -0.017 C 
HETATM   30  C16 UNL     1     -14.967   0.051   2.774  1.00  0.00     0.010 C 
HETATM   31  C17 UNL     1     -13.225   1.648   2.347  1.00  0.00     0.010 C 
ENDBRANCH  28  29
ENDBRANCH  27  28
BRANCH  27  32
HETATM   32  N4  UNL     1     -17.664   2.650   2.342  1.00  0.00    -0.307 N 
HETATM   33  C18 UNL     1     -19.010   2.789   2.503  1.00  0.00     0.365 C 
HETATM   34  O5  UNL     1     -19.567   3.772   3.008  1.00  0.00    -0.238 OA
ATOM     35  H4  UNL     1     -17.470   1.763   1.877  1.00  0.00     0.170 HD
BRANCH  33  36
HETATM   36  O6  UNL     1     -19.939   1.783   2.089  1.00  0.00    -0.294 OA
BRANCH  36  37
HETATM   37  C19 UNL     1     -19.971   0.527   2.704  1.00  0.00     0.061 C 
HETATM   38  C20 UNL     1     -19.021  -0.394   1.970  1.00  0.00     0.046 C 
HETATM   39  C21 UNL     1     -21.362  -0.097   2.589  1.00  0.00     0.046 C 
HETATM   40  C22 UNL     1     -19.625   0.672   4.163  1.00  0.00     0.046 C 
ENDBRANCH  36  37
ENDBRANCH  33  36
ENDBRANCH  27  32
ENDBRANCH  24  27
ENDBRANCH  23  24
ENDBRANCH  13  23
TORSDOF 11
ENDMDL
MODEL 5
REMARK VINA RESULT: -7.644663526      1.677      2.400
REMARK  11 active torsions:
REMARK  status: ('A' for Active; 'I' for Inactive)
REMARK    1  A    between atoms: C2_2  and  C3_3 
REMARK    2  A    between atoms: C3_3  and  C5_5 
REMARK    3  A    between atoms: N3_17  and  C11_18 
REMARK    4  A    between atoms: C11_18  and  C12_19 
REMARK    5  A    between atoms: C12_19  and  O4_20 
REMARK    6  A    between atoms: C12_19  and  C13_22 
REMARK    7  A    between atoms: C13_22  and  C14_23 
REMARK    8  A    between atoms: C13_22  and  N4_27 
REMARK    9  A    between atoms: C14_23  and  C15_24 
REMARK       I    between atoms: N4_27  and  C18_29 
REMARK   10  A    between atoms: C18_29  and  O6_31 
REMARK   11  A    between atoms: O6_31  and  C19_32 
ROOT
HETATM    1  C5  UNL     1     -19.348  10.249  -0.392  1.00  0.00     0.182 C 
HETATM    2  C6  UNL     1     -18.082  10.976  -0.492  1.00  0.00     0.243 C 
HETATM    3  O1  UNL     1     -18.108  12.013  -1.255  1.00  0.00    -0.271 OA
HETATM    4  N1  UNL     1     -16.859  10.697   0.126  1.00  0.00    -0.321 N 
ATOM      5  H1  UNL     1     -16.386  11.474   0.587  1.00  0.00     0.166 HD
HETATM    6  C7  UNL     1     -16.198   9.396   0.176  1.00  0.00     0.333 C 
HETATM    7  C8  UNL     1     -14.869   9.564   0.821  1.00  0.00     0.113 C 
HETATM    8  N2  UNL     1     -13.832   9.713   1.323  1.00  0.00    -0.193 NA
HETATM    9  O2  UNL     1     -15.946   8.859  -1.051  1.00  0.00    -0.345 OA
HETATM   10  C9  UNL     1     -16.676   7.764  -1.418  1.00  0.00     0.274 C 
HETATM   11  C10 UNL     1     -16.966   6.848  -0.292  1.00  0.00     0.244 C 
HETATM   12  O3  UNL     1     -15.965   6.458   0.358  1.00  0.00    -0.271 OA
HETATM   13  N3  UNL     1     -18.250   6.412   0.068  1.00  0.00    -0.339 N 
HETATM   14  C23 UNL     1     -19.467   7.115  -0.357  1.00  0.00     0.228 C 
HETATM   15  C24 UNL     1     -19.911   8.067   0.693  1.00  0.00     0.238 C 
HETATM   16  O7  UNL     1     -20.697   7.603   1.585  1.00  0.00    -0.272 OA
HETATM   17  N5  UNL     1     -19.525   9.437   0.775  1.00  0.00    -0.341 N 
HETATM   18  C25 UNL     1     -19.328   9.970   2.130  1.00  0.00     0.153 C 
ENDROOT
BRANCH   1  19
HETATM   19  C3  UNL     1     -20.512  11.169  -0.663  1.00  0.00     0.013 C 
HETATM   20  C4  UNL     1     -20.947  11.982   0.514  1.00  0.00     0.012 C 
BRANCH  19  21
HETATM   21  C2  UNL     1     -21.661  10.425  -1.301  1.00  0.00     0.002 C 
HETATM   22  C1  UNL     1     -21.436  10.161  -2.768  1.00  0.00     0.005 C 
ENDBRANCH  19  21
ENDBRANCH   1  19
BRANCH  13  23
HETATM   23  C11 UNL     1     -18.424   5.263   0.902  1.00  0.00     0.164 C 
BRANCH  23  24
HETATM   24  C12 UNL     1     -17.887   5.514   2.358  1.00  0.00     0.181 C 
BRANCH  24  25
HETATM   25  O4  UNL     1     -19.122   5.893   2.955  1.00  0.00    -0.388 OA
ATOM     26  H4  UNL     1     -19.575   6.151   2.160  1.00  0.00     0.210 HD
ENDBRANCH  24  25
BRANCH  24  27
HETATM   27  C13 UNL     1     -17.347   4.258   2.917  1.00  0.00     0.022 C 
BRANCH  27  28
HETATM   28  C14 UNL     1     -15.888   4.156   3.093  1.00  0.00     0.059 C 
BRANCH  28  29
HETATM   29  C15 UNL     1     -15.095   3.409   2.086  1.00  0.00    -0.017 C 
HETATM   30  C16 UNL     1     -14.712   2.021   2.425  1.00  0.00     0.010 C 
HETATM   31  C17 UNL     1     -13.757   4.180   1.984  1.00  0.00     0.010 C 
ENDBRANCH  28  29
ENDBRANCH  27  28
BRANCH  27  32
HETATM   32  N4  UNL     1     -18.052   3.101   2.506  1.00  0.00    -0.307 N 
HETATM   33  C18 UNL     1     -19.271   2.502   2.614  1.00  0.00     0.365 C 
HETATM   34  O5  UNL     1     -20.242   2.973   3.220  1.00  0.00    -0.238 OA
ATOM     35  H4  UNL     1     -17.439   2.519   1.934  1.00  0.00     0.170 HD
BRANCH  33  36
HETATM   36  O6  UNL     1     -19.557   1.233   2.020  1.00  0.00    -0.294 OA
BRANCH  36  37
HETATM   37  C19 UNL     1     -19.148   0.040   2.625  1.00  0.00     0.061 C 
HETATM   38  C20 UNL     1     -20.196  -1.019   2.362  1.00  0.00     0.046 C 
HETATM   39  C21 UNL     1     -19.064   0.203   4.143  1.00  0.00     0.046 C 
HETATM   40  C22 UNL     1     -17.789  -0.348   2.104  1.00  0.00     0.046 C 
ENDBRANCH  36  37
ENDBRANCH  33  36
ENDBRANCH  27  32
ENDBRANCH  24  27
ENDBRANCH  23  24
ENDBRANCH  13  23
TORSDOF 11
ENDMDL
