MODEL 1
REMARK VINA RESULT: -8.134033922      0.000      0.000
REMARK  13 active torsions:
REMARK  status: ('A' for Active; 'I' for Inactive)
REMARK    1  A    between atoms: O1_2  and  C2_3 
REMARK    2  A    between atoms: C2_3  and  C3_4 
REMARK    3  A    between atoms: C3_4  and  C4_5 
REMARK    4  A    between atoms: C4_5  and  C5_6 
REMARK    5  A    between atoms: C5_6  and  C6_7 
REMARK    6  A    between atoms: C6_7  and  N1_8 
REMARK    7  A    between atoms: C6_7  and  S1_12 
REMARK    8  A    between atoms: S1_12  and  C7_15 
REMARK    9  A    between atoms: C9_19  and  C10_20 
REMARK   10  A    between atoms: C11_21  and  C12_22 
REMARK   11  A    between atoms: C12_22  and  N3_23 
REMARK       I    between atoms: N3_23  and  C13_25 
REMARK   12  A    between atoms: C16_32  and  N6_33 
REMARK   13  A    between atoms: N6_33  and  C17_34 
ROOT
HETATM    1  C7  UNL     1     -19.991   3.475   2.887  1.00  0.00     0.154 A 
HETATM    2  N2  UNL     1     -21.098   4.229   2.831  1.00  0.00    -0.329 N 
ATOM      3  H2  UNL     1     -22.013   3.836   3.050  1.00  0.00     0.168 HD
HETATM    4  C8  UNL     1     -20.967   5.518   2.479  1.00  0.00     0.151 A 
HETATM    5  C9  UNL     1     -21.967   6.488   2.354  1.00  0.00     0.080 A 
HETATM    6  C15 UNL     1     -21.278   7.620   1.973  1.00  0.00     0.132 A 
HETATM    7  N4  UNL     1     -19.970   7.305   1.889  1.00  0.00    -0.300 N 
ATOM      8  H4  UNL     1     -19.237   7.963   1.626  1.00  0.00     0.186 HD
HETATM    9  N5  UNL     1     -19.759   6.029   2.194  1.00  0.00    -0.209 N 
HETATM   10  C16 UNL     1     -18.606   5.303   2.236  1.00  0.00     0.217 A 
HETATM   11  C21 UNL     1     -18.748   3.959   2.604  1.00  0.00     0.109 A 
HETATM   12 BR1  UNL     1     -17.203   2.814   2.708  1.00  0.00    -0.043 Br
ENDROOT
BRANCH   1  13
HETATM   13  S1  UNL     1     -20.152   1.789   3.346  1.00  0.00     0.221 S 
HETATM   14  O2  UNL     1     -21.596   1.516   3.658  1.00  0.00    -0.219 OA
HETATM   15  O3  UNL     1     -19.346   1.491   4.552  1.00  0.00    -0.219 OA
BRANCH  13  16
HETATM   16  C6  UNL     1     -19.638   0.711   2.022  1.00  0.00     0.311 C 
BRANCH  16  17
HETATM   17  C5  UNL     1     -18.849  -0.420   2.630  1.00  0.00     0.049 C 
BRANCH  17  18
HETATM   18  C4  UNL     1     -18.116  -1.260   1.631  1.00  0.00     0.005 C 
BRANCH  18  19
HETATM   19  C3  UNL     1     -16.695  -0.759   1.489  1.00  0.00     0.026 C 
BRANCH  19  20
HETATM   20  C2  UNL     1     -15.998  -0.688   2.834  1.00  0.00     0.167 C 
BRANCH  20  21
HETATM   21  O1  UNL     1     -14.656  -0.409   2.753  1.00  0.00    -0.396 OA
HETATM   22  C1  UNL     1     -14.337   0.607   1.886  1.00  0.00     0.201 C 
ENDBRANCH  20  21
ENDBRANCH  19  20
ENDBRANCH  18  19
ENDBRANCH  17  18
ENDBRANCH  16  17
BRANCH  16  23
HETATM   23  N1  UNL     1     -20.772   0.200   1.289  1.00  0.00    -0.061 N 
ATOM     24  H13 UNL     1     -20.844   0.620   0.362  1.00  0.00     0.275 HD
ATOM     25  H12 UNL     1     -20.633  -0.770   1.006  1.00  0.00     0.275 HD
ATOM     26  H11 UNL     1     -21.629   0.319   1.828  1.00  0.00     0.275 HD
ENDBRANCH  16  23
ENDBRANCH  13  16
ENDBRANCH   1  13
BRANCH  10  27
HETATM   27  N6  UNL     1     -17.499   5.708   1.991  1.00  0.00    -0.417 NA
BRANCH  27  28
HETATM   28  C17 UNL     1     -16.416   6.115   1.306  1.00  0.00     0.085 C 
HETATM   29  C18 UNL     1     -16.338   5.687  -0.168  1.00  0.00     0.053 C 
HETATM   30  C19 UNL     1     -15.062   5.689   1.887  1.00  0.00     0.053 C 
HETATM   31  C20 UNL     1     -16.349   7.658   1.289  1.00  0.00     0.053 C 
ENDBRANCH  27  28
ENDBRANCH  10  27
BRANCH   5  32
HETATM   32  C10 UNL     1     -23.376   6.317   2.577  1.00  0.00    -0.060 C 
HETATM   33  C11 UNL     1     -24.564   6.174   2.744  1.00  0.00    -0.081 C 
BRANCH  33  34
HETATM   34  C12 UNL     1     -26.017   5.999   2.924  1.00  0.00     0.217 C 
BRANCH  34  35
HETATM   35  N3  UNL     1     -26.487   5.086   1.912  1.00  0.00    -0.351 N 
HETATM   36  C13 UNL     1     -27.138   5.555   0.753  1.00  0.00     0.214 C 
HETATM   37  C14 UNL     1     -27.613   4.600  -0.275  1.00  0.00     0.117 C 
HETATM   38  O4  UNL     1     -27.329   6.770   0.563  1.00  0.00    -0.274 OA
ATOM     39  H3  UNL     1     -26.346   4.083   2.036  1.00  0.00     0.163 HD
ENDBRANCH  34  35
ENDBRANCH  33  34
ENDBRANCH   5  32
TORSDOF 13
ENDMDL
MODEL 2
REMARK VINA RESULT: -8.070933976      4.218      9.655
REMARK  13 active torsions:
REMARK  status: ('A' for Active; 'I' for Inactive)
REMARK    1  A    between atoms: O1_2  and  C2_3 
REMARK    2  A    between atoms: C2_3  and  C3_4 
REMARK    3  A    between atoms: C3_4  and  C4_5 
REMARK    4  A    between atoms: C4_5  and  C5_6 
REMARK    5  A    between atoms: C5_6  and  C6_7 
REMARK    6  A    between atoms: C6_7  and  N1_8 
REMARK    7  A    between atoms: C6_7  and  S1_12 
REMARK    8  A    between atoms: S1_12  and  C7_15 
REMARK    9  A    between atoms: C9_19  and  C10_20 
REMARK   10  A    between atoms: C11_21  and  C12_22 
REMARK   11  A    between atoms: C12_22  and  N3_23 
REMARK       I    between atoms: N3_23  and  C13_25 
REMARK   12  A    between atoms: C16_32  and  N6_33 
REMARK   13  A    between atoms: N6_33  and  C17_34 
ROOT
HETATM    1  C7  UNL     1     -18.378   4.185   2.440  1.00  0.00     0.154 A 
HETATM    2  N2  UNL     1     -17.122   3.727   2.342  1.00  0.00    -0.329 N 
ATOM      3  H2  UNL     1     -16.355   4.350   2.087  1.00  0.00     0.168 HD
HETATM    4  C8  UNL     1     -16.902   2.426   2.588  1.00  0.00     0.151 A 
HETATM    5  C9  UNL     1     -15.690   1.729   2.548  1.00  0.00     0.080 A 
HETATM    6  C15 UNL     1     -16.042   0.440   2.883  1.00  0.00     0.132 A 
HETATM    7  N4  UNL     1     -17.373   0.413   3.099  1.00  0.00    -0.300 N 
ATOM      8  H4  UNL     1     -17.896  -0.422   3.362  1.00  0.00     0.186 HD
HETATM    9  N5  UNL     1     -17.916   1.614   2.924  1.00  0.00    -0.209 N 
HETATM   10  C16 UNL     1     -19.208   2.031   3.037  1.00  0.00     0.217 A 
HETATM   11  C21 UNL     1     -19.433   3.389   2.779  1.00  0.00     0.109 A 
HETATM   12 BR1  UNL     1     -21.210   4.119   2.904  1.00  0.00    -0.043 Br
ENDROOT
BRANCH   1  13
HETATM   13  S1  UNL     1     -18.675   5.884   2.121  1.00  0.00     0.221 S 
HETATM   14  O2  UNL     1     -19.167   6.528   3.385  1.00  0.00    -0.219 OA
HETATM   15  O3  UNL     1     -19.710   6.051   1.074  1.00  0.00    -0.219 OA
BRANCH  13  16
HETATM   16  C6  UNL     1     -17.183   6.710   1.601  1.00  0.00     0.311 C 
BRANCH  16  17
HETATM   17  C5  UNL     1     -17.221   6.825   0.098  1.00  0.00     0.049 C 
BRANCH  17  18
HETATM   18  C4  UNL     1     -15.874   6.985  -0.536  1.00  0.00     0.005 C 
BRANCH  18  19
HETATM   19  C3  UNL     1     -15.855   8.239  -1.383  1.00  0.00     0.026 C 
BRANCH  19  20
HETATM   20  C2  UNL     1     -15.309   9.421  -0.606  1.00  0.00     0.167 C 
BRANCH  20  21
HETATM   21  O1  UNL     1     -14.663   9.075   0.555  1.00  0.00    -0.396 OA
HETATM   22  C1  UNL     1     -14.230  10.140   1.306  1.00  0.00     0.201 C 
ENDBRANCH  20  21
ENDBRANCH  19  20
ENDBRANCH  18  19
ENDBRANCH  17  18
ENDBRANCH  16  17
BRANCH  16  23
HETATM   23  N1  UNL     1     -17.065   8.015   2.206  1.00  0.00    -0.061 N 
ATOM     24  H13 UNL     1     -16.093   8.314   2.275  1.00  0.00     0.275 HD
ATOM     25  H12 UNL     1     -17.406   8.751   1.587  1.00  0.00     0.275 HD
ATOM     26  H11 UNL     1     -17.534   8.033   3.111  1.00  0.00     0.275 HD
ENDBRANCH  16  23
ENDBRANCH  13  16
ENDBRANCH   1  13
BRANCH  10  27
HETATM   27  N6  UNL     1     -20.155   1.348   3.334  1.00  0.00    -0.417 NA
BRANCH  27  28
HETATM   28  C17 UNL     1     -20.926   0.270   3.554  1.00  0.00     0.085 C 
HETATM   29  C18 UNL     1     -20.614  -0.977   2.711  1.00  0.00     0.053 C 
HETATM   30  C19 UNL     1     -22.434   0.478   3.362  1.00  0.00     0.053 C 
HETATM   31  C20 UNL     1     -20.795  -0.186   5.024  1.00  0.00     0.053 C 
ENDBRANCH  27  28
ENDBRANCH  10  27
BRANCH   5  32
HETATM   32  C10 UNL     1     -14.392   2.260   2.229  1.00  0.00    -0.060 C 
HETATM   33  C11 UNL     1     -13.311   2.718   1.947  1.00  0.00    -0.081 C 
BRANCH  33  34
HETATM   34  C12 UNL     1     -12.002   3.295   1.588  1.00  0.00     0.217 C 
BRANCH  34  35
HETATM   35  N3  UNL     1     -11.015   2.247   1.663  1.00  0.00    -0.351 N 
HETATM   36  C13 UNL     1      -9.686   2.468   1.249  1.00  0.00     0.214 C 
HETATM   37  C14 UNL     1      -8.686   1.378   1.334  1.00  0.00     0.117 C 
HETATM   38  O4  UNL     1      -9.319   3.572   0.806  1.00  0.00    -0.274 OA
ATOM     39  H3  UNL     1     -11.282   1.330   2.022  1.00  0.00     0.163 HD
ENDBRANCH  34  35
ENDBRANCH  33  34
ENDBRANCH   5  32
TORSDOF 13
ENDMDL
MODEL 3
REMARK VINA RESULT: -8.048871516      4.067      9.355
REMARK  13 active torsions:
REMARK  status: ('A' for Active; 'I' for Inactive)
REMARK    1  A    between atoms: O1_2  and  C2_3 
REMARK    2  A    between atoms: C2_3  and  C3_4 
REMARK    3  A    between atoms: C3_4  and  C4_5 
REMARK    4  A    between atoms: C4_5  and  C5_6 
REMARK    5  A    between atoms: C5_6  and  C6_7 
REMARK    6  A    between atoms: C6_7  and  N1_8 
REMARK    7  A    between atoms: C6_7  and  S1_12 
REMARK    8  A    between atoms: S1_12  and  C7_15 
REMARK    9  A    between atoms: C9_19  and  C10_20 
REMARK   10  A    between atoms: C11_21  and  C12_22 
REMARK   11  A    between atoms: C12_22  and  N3_23 
REMARK       I    between atoms: N3_23  and  C13_25 
REMARK   12  A    between atoms: C16_32  and  N6_33 
REMARK   13  A    between atoms: N6_33  and  C17_34 
ROOT
HETATM    1  C7  UNL     1     -18.546   4.204   2.608  1.00  0.00     0.154 A 
HETATM    2  N2  UNL     1     -17.281   3.776   2.486  1.00  0.00    -0.329 N 
ATOM      3  H2  UNL     1     -16.520   4.431   2.308  1.00  0.00     0.168 HD
HETATM    4  C8  UNL     1     -17.044   2.460   2.604  1.00  0.00     0.151 A 
HETATM    5  C9  UNL     1     -15.821   1.788   2.516  1.00  0.00     0.080 A 
HETATM    6  C15 UNL     1     -16.159   0.467   2.714  1.00  0.00     0.132 A 
HETATM    7  N4  UNL     1     -17.492   0.400   2.903  1.00  0.00    -0.300 N 
ATOM      8  H4  UNL     1     -18.006  -0.465   3.072  1.00  0.00     0.186 HD
HETATM    9  N5  UNL     1     -18.051   1.604   2.840  1.00  0.00    -0.209 N 
HETATM   10  C16 UNL     1     -19.352   1.989   2.972  1.00  0.00     0.217 A 
HETATM   11  C21 UNL     1     -19.593   3.363   2.847  1.00  0.00     0.109 A 
HETATM   12 BR1  UNL     1     -21.384   4.052   3.014  1.00  0.00    -0.043 Br
ENDROOT
BRANCH   1  13
HETATM   13  S1  UNL     1     -18.865   5.922   2.455  1.00  0.00     0.221 S 
HETATM   14  O2  UNL     1     -17.560   6.660   2.558  1.00  0.00    -0.219 OA
HETATM   15  O3  UNL     1     -19.758   6.392   3.539  1.00  0.00    -0.219 OA
BRANCH  13  16
HETATM   16  C6  UNL     1     -19.612   6.298   0.881  1.00  0.00     0.311 C 
BRANCH  16  17
HETATM   17  C5  UNL     1     -19.277   7.728   0.542  1.00  0.00     0.049 C 
BRANCH  17  18
HETATM   18  C4  UNL     1     -18.459   7.886  -0.702  1.00  0.00     0.005 C 
BRANCH  18  19
HETATM   19  C3  UNL     1     -17.117   8.493  -0.356  1.00  0.00     0.026 C 
BRANCH  19  20
HETATM   20  C2  UNL     1     -15.976   7.646  -0.886  1.00  0.00     0.167 C 
BRANCH  20  21
HETATM   21  O1  UNL     1     -16.267   6.307  -0.970  1.00  0.00    -0.396 OA
HETATM   22  C1  UNL     1     -15.650   5.529  -0.021  1.00  0.00     0.201 C 
ENDBRANCH  20  21
ENDBRANCH  19  20
ENDBRANCH  18  19
ENDBRANCH  17  18
ENDBRANCH  16  17
BRANCH  16  23
HETATM   23  N1  UNL     1     -19.139   5.410  -0.153  1.00  0.00    -0.061 N 
ATOM     24  H13 UNL     1     -19.839   5.268  -0.882  1.00  0.00     0.275 HD
ATOM     25  H12 UNL     1     -18.412   5.844  -0.723  1.00  0.00     0.275 HD
ATOM     26  H11 UNL     1     -18.827   4.526   0.250  1.00  0.00     0.275 HD
ENDBRANCH  16  23
ENDBRANCH  13  16
ENDBRANCH   1  13
BRANCH  10  27
HETATM   27  N6  UNL     1     -20.292   1.267   3.183  1.00  0.00    -0.417 NA
BRANCH  27  28
HETATM   28  C17 UNL     1     -21.020   0.160   3.407  1.00  0.00     0.085 C 
HETATM   29  C18 UNL     1     -20.649  -1.082   2.580  1.00  0.00     0.053 C 
HETATM   30  C19 UNL     1     -22.533   0.304   3.198  1.00  0.00     0.053 C 
HETATM   31  C20 UNL     1     -20.884  -0.275   4.882  1.00  0.00     0.053 C 
ENDBRANCH  27  28
ENDBRANCH  10  27
BRANCH   5  32
HETATM   32  C10 UNL     1     -14.528   2.366   2.273  1.00  0.00    -0.060 C 
HETATM   33  C11 UNL     1     -13.441   2.843   2.051  1.00  0.00    -0.081 C 
BRANCH  33  34
HETATM   34  C12 UNL     1     -12.115   3.417   1.756  1.00  0.00     0.217 C 
BRANCH  34  35
HETATM   35  N3  UNL     1     -11.151   2.346   1.761  1.00  0.00    -0.351 N 
HETATM   36  C13 UNL     1      -9.829   2.553   1.316  1.00  0.00     0.214 C 
HETATM   37  C14 UNL     1      -8.854   1.439   1.330  1.00  0.00     0.117 C 
HETATM   38  O4  UNL     1      -9.450   3.665   0.906  1.00  0.00    -0.274 OA
ATOM     39  H3  UNL     1     -11.429   1.422   2.092  1.00  0.00     0.163 HD
ENDBRANCH  34  35
ENDBRANCH  33  34
ENDBRANCH   5  32
TORSDOF 13
ENDMDL
MODEL 4
REMARK VINA RESULT: -8.013679057      4.469     10.253
REMARK  13 active torsions:
REMARK  status: ('A' for Active; 'I' for Inactive)
REMARK    1  A    between atoms: O1_2  and  C2_3 
REMARK    2  A    between atoms: C2_3  and  C3_4 
REMARK    3  A    between atoms: C3_4  and  C4_5 
REMARK    4  A    between atoms: C4_5  and  C5_6 
REMARK    5  A    between atoms: C5_6  and  C6_7 
REMARK    6  A    between atoms: C6_7  and  N1_8 
REMARK    7  A    between atoms: C6_7  and  S1_12 
REMARK    8  A    between atoms: S1_12  and  C7_15 
REMARK    9  A    between atoms: C9_19  and  C10_20 
REMARK   10  A    between atoms: C11_21  and  C12_22 
REMARK   11  A    between atoms: C12_22  and  N3_23 
REMARK       I    between atoms: N3_23  and  C13_25 
REMARK   12  A    between atoms: C16_32  and  N6_33 
REMARK   13  A    between atoms: N6_33  and  C17_34 
ROOT
HETATM    1  C7  UNL     1     -16.506   4.824   1.947  1.00  0.00     0.154 A 
HETATM    2  N2  UNL     1     -15.354   4.139   1.921  1.00  0.00    -0.329 N 
ATOM      3  H2  UNL     1     -14.489   4.580   1.611  1.00  0.00     0.168 HD
HETATM    4  C8  UNL     1     -15.373   2.856   2.316  1.00  0.00     0.151 A 
HETATM    5  C9  UNL     1     -14.308   1.952   2.374  1.00  0.00     0.080 A 
HETATM    6  C15 UNL     1     -14.887   0.794   2.846  1.00  0.00     0.132 A 
HETATM    7  N4  UNL     1     -16.200   1.033   3.042  1.00  0.00    -0.300 N 
ATOM      8  H4  UNL     1     -16.864   0.341   3.389  1.00  0.00     0.186 HD
HETATM    9  N5  UNL     1     -16.517   2.284   2.725  1.00  0.00    -0.209 N 
HETATM   10  C16 UNL     1     -17.711   2.938   2.769  1.00  0.00     0.217 A 
HETATM   11  C21 UNL     1     -17.687   4.276   2.356  1.00  0.00     0.109 A 
HETATM   12 BR1  UNL     1     -19.302   5.325   2.369  1.00  0.00    -0.043 Br
ENDROOT
BRANCH   1  13
HETATM   13  S1  UNL     1     -16.492   6.502   1.434  1.00  0.00     0.221 S 
HETATM   14  O2  UNL     1     -15.064   6.937   1.269  1.00  0.00    -0.219 OA
HETATM   15  O3  UNL     1     -17.135   7.370   2.447  1.00  0.00    -0.219 OA
BRANCH  13  16
HETATM   16  C6  UNL     1     -17.335   6.703  -0.124  1.00  0.00     0.311 C 
BRANCH  16  17
HETATM   17  C5  UNL     1     -17.878   8.109  -0.175  1.00  0.00     0.049 C 
BRANCH  17  18
HETATM   18  C4  UNL     1     -19.374   8.185  -0.192  1.00  0.00     0.005 C 
BRANCH  18  19
HETATM   19  C3  UNL     1     -19.831   9.404   0.579  1.00  0.00     0.026 C 
BRANCH  19  20
HETATM   20  C2  UNL     1     -20.349   9.025   1.953  1.00  0.00     0.167 C 
BRANCH  20  21
HETATM   21  O1  UNL     1     -19.642   9.585   2.989  1.00  0.00    -0.396 OA
HETATM   22  C1  UNL     1     -18.740  10.548   2.609  1.00  0.00     0.201 C 
ENDBRANCH  20  21
ENDBRANCH  19  20
ENDBRANCH  18  19
ENDBRANCH  17  18
ENDBRANCH  16  17
BRANCH  16  23
HETATM   23  N1  UNL     1     -16.449   6.463  -1.238  1.00  0.00    -0.061 N 
ATOM     24  H13 UNL     1     -16.041   7.329  -1.591  1.00  0.00     0.275 HD
ATOM     25  H12 UNL     1     -15.590   5.999  -0.945  1.00  0.00     0.275 HD
ATOM     26  H11 UNL     1     -16.930   5.943  -1.971  1.00  0.00     0.275 HD
ENDBRANCH  16  23
ENDBRANCH  13  16
ENDBRANCH   1  13
BRANCH  10  27
HETATM   27  N6  UNL     1     -18.765   2.476   3.125  1.00  0.00    -0.417 NA
BRANCH  27  28
HETATM   28  C17 UNL     1     -19.748   1.593   3.372  1.00  0.00     0.085 C 
HETATM   29  C18 UNL     1     -21.141   2.182   3.649  1.00  0.00     0.053 C 
HETATM   30  C19 UNL     1     -19.509   0.641   4.551  1.00  0.00     0.053 C 
HETATM   31  C20 UNL     1     -19.933   0.653   2.161  1.00  0.00     0.053 C 
ENDBRANCH  27  28
ENDBRANCH  10  27
BRANCH   5  32
HETATM   32  C10 UNL     1     -12.937   2.199   2.019  1.00  0.00    -0.060 C 
HETATM   33  C11 UNL     1     -11.785   2.421   1.735  1.00  0.00    -0.081 C 
BRANCH  33  34
HETATM   34  C12 UNL     1     -10.375   2.707   1.409  1.00  0.00     0.217 C 
BRANCH  34  35
HETATM   35  N3  UNL     1      -9.607   1.511   1.652  1.00  0.00    -0.351 N 
HETATM   36  C13 UNL     1      -9.013   1.270   2.907  1.00  0.00     0.214 C 
HETATM   37  C14 UNL     1      -8.228   0.035   3.136  1.00  0.00     0.117 C 
HETATM   38  O4  UNL     1      -9.131   2.077   3.847  1.00  0.00    -0.274 OA
ATOM     39  H3  UNL     1      -9.492   0.828   0.902  1.00  0.00     0.163 HD
ENDBRANCH  34  35
ENDBRANCH  33  34
ENDBRANCH   5  32
TORSDOF 13
ENDMDL
MODEL 5
REMARK VINA RESULT: -7.997331235      3.473      6.628
REMARK  13 active torsions:
REMARK  status: ('A' for Active; 'I' for Inactive)
REMARK    1  A    between atoms: O1_2  and  C2_3 
REMARK    2  A    between atoms: C2_3  and  C3_4 
REMARK    3  A    between atoms: C3_4  and  C4_5 
REMARK    4  A    between atoms: C4_5  and  C5_6 
REMARK    5  A    between atoms: C5_6  and  C6_7 
REMARK    6  A    between atoms: C6_7  and  N1_8 
REMARK    7  A    between atoms: C6_7  and  S1_12 
REMARK    8  A    between atoms: S1_12  and  C7_15 
REMARK    9  A    between atoms: C9_19  and  C10_20 
REMARK   10  A    between atoms: C11_21  and  C12_22 
REMARK   11  A    between atoms: C12_22  and  N3_23 
REMARK       I    between atoms: N3_23  and  C13_25 
REMARK   12  A    between atoms: C16_32  and  N6_33 
REMARK   13  A    between atoms: N6_33  and  C17_34 
ROOT
HETATM    1  C7  UNL     1     -19.199   5.333   2.172  1.00  0.00     0.154 A 
HETATM    2  N2  UNL     1     -18.140   4.514   2.255  1.00  0.00    -0.329 N 
ATOM      3  H2  UNL     1     -18.262   3.509   2.375  1.00  0.00     0.168 HD
HETATM    4  C8  UNL     1     -16.914   5.056   2.175  1.00  0.00     0.151 A 
HETATM    5  C9  UNL     1     -15.675   4.410   2.234  1.00  0.00     0.080 A 
HETATM    6  C15 UNL     1     -14.765   5.436   2.100  1.00  0.00     0.132 A 
HETATM    7  N4  UNL     1     -15.450   6.589   1.972  1.00  0.00    -0.300 N 
ATOM      8  H4  UNL     1     -15.017   7.506   1.857  1.00  0.00     0.186 HD
HETATM    9  N5  UNL     1     -16.762   6.380   2.015  1.00  0.00    -0.209 N 
HETATM   10  C16 UNL     1     -17.806   7.252   1.925  1.00  0.00     0.217 A 
HETATM   11  C21 UNL     1     -19.082   6.682   2.010  1.00  0.00     0.109 A 
HETATM   12 BR1  UNL     1     -20.650   7.794   1.896  1.00  0.00    -0.043 Br
ENDROOT
BRANCH   1  13
HETATM   13  S1  UNL     1     -20.804   4.634   2.275  1.00  0.00     0.221 S 
HETATM   14  O2  UNL     1     -21.536   4.931   0.998  1.00  0.00    -0.219 OA
HETATM   15  O3  UNL     1     -21.565   5.223   3.401  1.00  0.00    -0.219 OA
BRANCH  13  16
HETATM   16  C6  UNL     1     -20.722   2.866   2.490  1.00  0.00     0.311 C 
BRANCH  16  17
HETATM   17  C5  UNL     1     -20.711   2.583   3.971  1.00  0.00     0.049 C 
BRANCH  17  18
HETATM   18  C4  UNL     1     -19.743   1.517   4.382  1.00  0.00     0.005 C 
BRANCH  18  19
HETATM   19  C3  UNL     1     -20.450   0.488   5.236  1.00  0.00     0.026 C 
BRANCH  19  20
HETATM   20  C2  UNL     1     -21.362  -0.390   4.401  1.00  0.00     0.167 C 
BRANCH  20  21
HETATM   21  O1  UNL     1     -20.863  -0.687   3.156  1.00  0.00    -0.396 OA
HETATM   22  C1  UNL     1     -21.745  -1.339   2.330  1.00  0.00     0.201 C 
ENDBRANCH  20  21
ENDBRANCH  19  20
ENDBRANCH  18  19
ENDBRANCH  17  18
ENDBRANCH  16  17
BRANCH  16  23
HETATM   23  N1  UNL     1     -21.839   2.205   1.858  1.00  0.00    -0.061 N 
ATOM     24  H13 UNL     1     -22.731   2.538   2.222  1.00  0.00     0.275 HD
ATOM     25  H12 UNL     1     -21.952   2.498   0.887  1.00  0.00     0.275 HD
ATOM     26  H11 UNL     1     -21.748   1.193   1.940  1.00  0.00     0.275 HD
ENDBRANCH  16  23
ENDBRANCH  13  16
ENDBRANCH   1  13
BRANCH  10  27
HETATM   27  N6  UNL     1     -17.728   8.446   1.783  1.00  0.00    -0.417 NA
BRANCH  27  28
HETATM   28  C17 UNL     1     -17.410   9.648   1.273  1.00  0.00     0.085 C 
HETATM   29  C18 UNL     1     -15.997  10.170   1.582  1.00  0.00     0.053 C 
HETATM   30  C19 UNL     1     -18.329  10.808   1.676  1.00  0.00     0.053 C 
HETATM   31  C20 UNL     1     -17.505   9.611  -0.268  1.00  0.00     0.053 C 
ENDBRANCH  27  28
ENDBRANCH  10  27
BRANCH   5  32
HETATM   32  C10 UNL     1     -15.437   3.002   2.398  1.00  0.00    -0.060 C 
HETATM   33  C11 UNL     1     -15.248   1.816   2.520  1.00  0.00    -0.081 C 
BRANCH  33  34
HETATM   34  C12 UNL     1     -15.031   0.363   2.648  1.00  0.00     0.217 C 
BRANCH  34  35
HETATM   35  N3  UNL     1     -15.947  -0.307   1.759  1.00  0.00    -0.351 N 
HETATM   36  C13 UNL     1     -17.158  -0.850   2.234  1.00  0.00     0.214 C 
HETATM   37  C14 UNL     1     -18.085  -1.535   1.304  1.00  0.00     0.117 C 
HETATM   38  O4  UNL     1     -17.478  -0.770   3.434  1.00  0.00    -0.274 OA
ATOM     39  H3  UNL     1     -15.715  -0.390   0.768  1.00  0.00     0.163 HD
ENDBRANCH  34  35
ENDBRANCH  33  34
ENDBRANCH   5  32
TORSDOF 13
ENDMDL
