MODEL 1
REMARK VINA RESULT: -7.486307311      0.000      0.000
REMARK  7 active torsions:
REMARK  status: ('A' for Active; 'I' for Inactive)
REMARK    1  A    between atoms: O1_1  and  C1_3 
REMARK    2  A    between atoms: C1_3  and  C2_4 
REMARK    3  A    between atoms: C1_3  and  N2_15 
REMARK    4  A    between atoms: C2_4  and  O2_5 
REMARK    5  A    between atoms: O2_5  and  C3_6 
REMARK    6  A    between atoms: C3_6  and  C4_8 
REMARK       I    between atoms: N2_15  and  C8_16 
REMARK       I    between atoms: C8_16  and  N3_18 
REMARK    7  A    between atoms: N3_18  and  C9_20 
ROOT
HETATM    1  C1  UNL     1      -0.593   0.153  81.795  1.00  0.00     0.220 C 
ENDROOT
BRANCH   1   2
HETATM    2  O1  UNL     1       0.090  -0.958  81.412  1.00  0.00    -0.337 OA
ATOM      3  H1  UNL     1       0.045  -1.593  82.116  1.00  0.00     0.220 HD
ENDBRANCH   1   2
BRANCH   1   4
HETATM    4  C2  UNL     1      -1.334   0.672  80.621  1.00  0.00     0.279 C 
BRANCH   4   5
HETATM    5  O2  UNL     1      -0.428   1.762  80.128  1.00  0.00    -0.311 OA
BRANCH   5   6
HETATM    6  C3  UNL     1      -0.683   3.021  80.710  1.00  0.00     0.290 C 
HETATM    7  O3  UNL     1      -1.880   3.455  80.727  1.00  0.00    -0.263 OA
BRANCH   6   8
HETATM    8  C4  UNL     1       0.385   3.806  81.281  1.00  0.00     0.284 C 
HETATM    9  C5  UNL     1       1.017   4.795  80.378  1.00  0.00     0.045 C 
HETATM   10  C6  UNL     1       2.521   4.544  80.669  1.00  0.00     0.030 C 
HETATM   11  C7  UNL     1       2.492   3.055  80.895  1.00  0.00     0.233 C 
HETATM   12  N1  UNL     1       1.392   2.968  81.920  1.00  0.00    -0.062 N 
ATOM     13  H12 UNL     1       1.650   3.229  82.871  1.00  0.00     0.278 HD
ATOM     14  H11 UNL     1       1.091   2.026  82.171  1.00  0.00     0.278 HD
ENDBRANCH   6   8
ENDBRANCH   5   6
ENDBRANCH   4   5
ENDBRANCH   1   4
BRANCH   1  15
HETATM   15  N2  UNL     1      -0.426   0.467  83.063  1.00  0.00    -0.329 NA
HETATM   16  C8  UNL     1      -0.629   1.018  84.312  1.00  0.00     0.396 C 
HETATM   17  O4  UNL     1       0.172   0.641  85.232  1.00  0.00    -0.230 OA
HETATM   18  N3  UNL     1      -1.593   1.948  84.742  1.00  0.00    -0.326 N 
ATOM     19  H3  UNL     1      -2.252   2.292  84.044  1.00  0.00     0.165 HD
BRANCH  18  20
HETATM   20  C9  UNL     1      -1.727   2.454  86.073  1.00  0.00     0.087 C 
HETATM   21  C10 UNL     1      -2.425   1.523  86.999  1.00  0.00     0.025 C 
HETATM   22  C11 UNL     1      -3.800   2.123  87.264  1.00  0.00     0.002 C 
HETATM   23  C12 UNL     1      -3.692   3.595  86.981  1.00  0.00     0.002 C 
HETATM   24  C13 UNL     1      -2.377   3.790  86.255  1.00  0.00     0.025 C 
ENDBRANCH  18  20
ENDBRANCH   1  15
TORSDOF 7
ENDMDL
MODEL 2
REMARK VINA RESULT: -7.460523075      2.106      3.324
REMARK  7 active torsions:
REMARK  status: ('A' for Active; 'I' for Inactive)
REMARK    1  A    between atoms: O1_1  and  C1_3 
REMARK    2  A    between atoms: C1_3  and  C2_4 
REMARK    3  A    between atoms: C1_3  and  N2_15 
REMARK    4  A    between atoms: C2_4  and  O2_5 
REMARK    5  A    between atoms: O2_5  and  C3_6 
REMARK    6  A    between atoms: C3_6  and  C4_8 
REMARK       I    between atoms: N2_15  and  C8_16 
REMARK       I    between atoms: C8_16  and  N3_18 
REMARK    7  A    between atoms: N3_18  and  C9_20 
ROOT
HETATM    1  C1  UNL     1       1.012   4.467  83.225  1.00  0.00     0.220 C 
ENDROOT
BRANCH   1   2
HETATM    2  O1  UNL     1       2.318   4.821  83.099  1.00  0.00    -0.337 OA
ATOM      3  H1  UNL     1       2.742   4.707  83.942  1.00  0.00     0.220 HD
ENDBRANCH   1   2
BRANCH   1   4
HETATM    4  C2  UNL     1       0.255   5.074  82.106  1.00  0.00     0.279 C 
BRANCH   4   5
HETATM    5  O2  UNL     1      -1.010   4.267  82.100  1.00  0.00    -0.311 OA
BRANCH   5   6
HETATM    6  C3  UNL     1      -1.092   3.344  81.038  1.00  0.00     0.290 C 
HETATM    7  O3  UNL     1      -0.788   3.735  79.864  1.00  0.00    -0.263 OA
BRANCH   6   8
HETATM    8  C4  UNL     1      -1.505   1.980  81.266  1.00  0.00     0.284 C 
HETATM    9  C5  UNL     1      -0.790   1.258  82.343  1.00  0.00     0.045 C 
HETATM   10  C6  UNL     1      -0.501  -0.100  81.649  1.00  0.00     0.030 C 
HETATM   11  C7  UNL     1      -0.266   0.379  80.239  1.00  0.00     0.233 C 
HETATM   12  N1  UNL     1      -1.510   1.203  80.033  1.00  0.00    -0.062 N 
ATOM     13  H12 UNL     1      -2.363   0.678  79.842  1.00  0.00     0.278 HD
ATOM     14  H11 UNL     1      -1.548   1.741  79.168  1.00  0.00     0.278 HD
ENDBRANCH   6   8
ENDBRANCH   5   6
ENDBRANCH   4   5
ENDBRANCH   1   4
BRANCH   1  15
HETATM   15  N2  UNL     1       0.768   3.705  84.271  1.00  0.00    -0.329 NA
HETATM   16  C8  UNL     1       0.108   3.084  85.312  1.00  0.00     0.396 C 
HETATM   17  O4  UNL     1       0.764   2.189  85.943  1.00  0.00    -0.230 OA
HETATM   18  N3  UNL     1      -1.195   3.286  85.802  1.00  0.00    -0.326 N 
ATOM     19  H3  UNL     1      -1.761   3.998  85.341  1.00  0.00     0.165 HD
BRANCH  18  20
HETATM   20  C9  UNL     1      -1.796   2.578  86.891  1.00  0.00     0.087 C 
HETATM   21  C10 UNL     1      -2.652   1.440  86.463  1.00  0.00     0.025 C 
HETATM   22  C11 UNL     1      -4.094   1.862  86.716  1.00  0.00     0.002 C 
HETATM   23  C12 UNL     1      -4.052   2.939  87.764  1.00  0.00     0.002 C 
HETATM   24  C13 UNL     1      -2.602   3.361  87.878  1.00  0.00     0.025 C 
ENDBRANCH  18  20
ENDBRANCH   1  15
TORSDOF 7
ENDMDL
MODEL 3
REMARK VINA RESULT: -7.441816957      3.019      6.095
REMARK  7 active torsions:
REMARK  status: ('A' for Active; 'I' for Inactive)
REMARK    1  A    between atoms: O1_1  and  C1_3 
REMARK    2  A    between atoms: C1_3  and  C2_4 
REMARK    3  A    between atoms: C1_3  and  N2_15 
REMARK    4  A    between atoms: C2_4  and  O2_5 
REMARK    5  A    between atoms: O2_5  and  C3_6 
REMARK    6  A    between atoms: C3_6  and  C4_8 
REMARK       I    between atoms: N2_15  and  C8_16 
REMARK       I    between atoms: C8_16  and  N3_18 
REMARK    7  A    between atoms: N3_18  and  C9_20 
ROOT
HETATM    1  C1  UNL     1      -1.462   2.876  82.196  1.00  0.00     0.220 C 
ENDROOT
BRANCH   1   2
HETATM    2  O1  UNL     1      -2.183   2.605  81.076  1.00  0.00    -0.337 OA
ATOM      3  H1  UNL     1      -1.958   3.247  80.414  1.00  0.00     0.220 HD
ENDBRANCH   1   2
BRANCH   1   4
HETATM    4  C2  UNL     1      -0.655   1.680  82.531  1.00  0.00     0.279 C 
BRANCH   4   5
HETATM    5  O2  UNL     1      -0.142   2.014  83.902  1.00  0.00    -0.311 OA
BRANCH   5   6
HETATM    6  C3  UNL     1      -0.901   1.448  84.946  1.00  0.00     0.290 C 
HETATM    7  O3  UNL     1      -1.265   0.230  84.848  1.00  0.00    -0.263 OA
BRANCH   6   8
HETATM    8  C4  UNL     1      -1.259   2.222  86.110  1.00  0.00     0.284 C 
HETATM    9  C5  UNL     1      -2.232   1.593  87.034  1.00  0.00     0.045 C 
HETATM   10  C6  UNL     1      -3.197   2.778  87.300  1.00  0.00     0.030 C 
HETATM   11  C7  UNL     1      -3.166   3.442  85.948  1.00  0.00     0.233 C 
HETATM   12  N1  UNL     1      -1.678   3.571  85.755  1.00  0.00    -0.062 N 
ATOM     13  H12 UNL     1      -1.228   4.328  86.271  1.00  0.00     0.278 HD
ATOM     14  H11 UNL     1      -1.376   3.904  84.840  1.00  0.00     0.278 HD
ENDBRANCH   6   8
ENDBRANCH   5   6
ENDBRANCH   4   5
ENDBRANCH   1   4
BRANCH   1  15
HETATM   15  N2  UNL     1      -1.662   4.086  82.675  1.00  0.00    -0.329 NA
HETATM   16  C8  UNL     1      -1.465   5.412  83.003  1.00  0.00     0.396 C 
HETATM   17  O4  UNL     1      -2.462   6.021  83.517  1.00  0.00    -0.230 OA
HETATM   18  N3  UNL     1      -0.318   6.216  82.862  1.00  0.00    -0.326 N 
ATOM     19  H3  UNL     1       0.512   5.776  82.466  1.00  0.00     0.165 HD
BRANCH  18  20
HETATM   20  C9  UNL     1      -0.217   7.595  83.227  1.00  0.00     0.087 C 
HETATM   21  C10 UNL     1       0.637   8.395  82.309  1.00  0.00     0.025 C 
HETATM   22  C11 UNL     1       1.918   8.709  83.071  1.00  0.00     0.002 C 
HETATM   23  C12 UNL     1       1.590   8.603  84.534  1.00  0.00     0.002 C 
HETATM   24  C13 UNL     1       0.238   7.924  84.614  1.00  0.00     0.025 C 
ENDBRANCH  18  20
ENDBRANCH   1  15
TORSDOF 7
ENDMDL
MODEL 4
REMARK VINA RESULT: -7.343379295      0.935      1.105
REMARK  7 active torsions:
REMARK  status: ('A' for Active; 'I' for Inactive)
REMARK    1  A    between atoms: O1_1  and  C1_3 
REMARK    2  A    between atoms: C1_3  and  C2_4 
REMARK    3  A    between atoms: C1_3  and  N2_15 
REMARK    4  A    between atoms: C2_4  and  O2_5 
REMARK    5  A    between atoms: O2_5  and  C3_6 
REMARK    6  A    between atoms: C3_6  and  C4_8 
REMARK       I    between atoms: N2_15  and  C8_16 
REMARK       I    between atoms: C8_16  and  N3_18 
REMARK    7  A    between atoms: N3_18  and  C9_20 
ROOT
HETATM    1  C1  UNL     1      -0.505   0.098  81.824  1.00  0.00     0.220 C 
ENDROOT
BRANCH   1   2
HETATM    2  O1  UNL     1       0.232  -0.987  81.467  1.00  0.00    -0.337 OA
ATOM      3  H1  UNL     1       0.963  -1.064  82.069  1.00  0.00     0.220 HD
ENDBRANCH   1   2
BRANCH   1   4
HETATM    4  C2  UNL     1      -1.263   0.557  80.637  1.00  0.00     0.279 C 
BRANCH   4   5
HETATM    5  O2  UNL     1      -0.570   1.842  80.291  1.00  0.00    -0.311 OA
BRANCH   5   6
HETATM    6  C3  UNL     1      -1.156   2.981  80.880  1.00  0.00     0.290 C 
HETATM    7  O3  UNL     1      -2.388   2.938  81.202  1.00  0.00    -0.263 OA
BRANCH   6   8
HETATM    8  C4  UNL     1      -0.382   4.174  81.124  1.00  0.00     0.284 C 
HETATM    9  C5  UNL     1       1.081   4.050  80.926  1.00  0.00     0.045 C 
HETATM   10  C6  UNL     1       1.613   4.764  82.197  1.00  0.00     0.030 C 
HETATM   11  C7  UNL     1       0.552   4.352  83.185  1.00  0.00     0.233 C 
HETATM   12  N1  UNL     1      -0.683   4.758  82.425  1.00  0.00    -0.062 N 
ATOM     13  H12 UNL     1      -0.897   5.755  82.426  1.00  0.00     0.278 HD
ATOM     14  H11 UNL     1      -1.571   4.482  82.841  1.00  0.00     0.278 HD
ENDBRANCH   6   8
ENDBRANCH   5   6
ENDBRANCH   4   5
ENDBRANCH   1   4
BRANCH   1  15
HETATM   15  N2  UNL     1      -0.358   0.446  83.086  1.00  0.00    -0.329 NA
HETATM   16  C8  UNL     1      -0.593   1.012  84.322  1.00  0.00     0.396 C 
HETATM   17  O4  UNL     1       0.220   0.693  85.253  1.00  0.00    -0.230 OA
HETATM   18  N3  UNL     1      -1.601   1.904  84.729  1.00  0.00    -0.326 N 
ATOM     19  H3  UNL     1      -2.273   2.202  84.022  1.00  0.00     0.165 HD
BRANCH  18  20
HETATM   20  C9  UNL     1      -1.766   2.431  86.049  1.00  0.00     0.087 C 
HETATM   21  C10 UNL     1      -2.484   1.514  86.973  1.00  0.00     0.025 C 
HETATM   22  C11 UNL     1      -3.865   2.117  87.198  1.00  0.00     0.002 C 
HETATM   23  C12 UNL     1      -3.751   3.585  86.894  1.00  0.00     0.002 C 
HETATM   24  C13 UNL     1      -2.420   3.769  86.196  1.00  0.00     0.025 C 
ENDBRANCH  18  20
ENDBRANCH   1  15
TORSDOF 7
ENDMDL
MODEL 5
REMARK VINA RESULT: -7.214043856      2.217      5.466
REMARK  7 active torsions:
REMARK  status: ('A' for Active; 'I' for Inactive)
REMARK    1  A    between atoms: O1_1  and  C1_3 
REMARK    2  A    between atoms: C1_3  and  C2_4 
REMARK    3  A    between atoms: C1_3  and  N2_15 
REMARK    4  A    between atoms: C2_4  and  O2_5 
REMARK    5  A    between atoms: O2_5  and  C3_6 
REMARK    6  A    between atoms: C3_6  and  C4_8 
REMARK       I    between atoms: N2_15  and  C8_16 
REMARK       I    between atoms: C8_16  and  N3_18 
REMARK    7  A    between atoms: N3_18  and  C9_20 
ROOT
HETATM    1  C1  UNL     1      -0.853   0.859  82.292  1.00  0.00     0.220 C 
ENDROOT
BRANCH   1   2
HETATM    2  O1  UNL     1      -0.984  -0.034  81.275  1.00  0.00    -0.337 OA
ATOM      3  H1  UNL     1      -1.013   0.447  80.457  1.00  0.00     0.220 HD
ENDBRANCH   1   2
BRANCH   1   4
HETATM    4  C2  UNL     1      -0.435   0.122  83.507  1.00  0.00     0.279 C 
BRANCH   4   5
HETATM    5  O2  UNL     1      -1.423   0.605  84.529  1.00  0.00    -0.311 OA
BRANCH   5   6
HETATM    6  C3  UNL     1      -0.842   1.352  85.574  1.00  0.00     0.290 C 
HETATM    7  O3  UNL     1       0.428   1.407  85.653  1.00  0.00    -0.263 OA
BRANCH   6   8
HETATM    8  C4  UNL     1      -1.662   2.050  86.535  1.00  0.00     0.284 C 
HETATM    9  C5  UNL     1      -3.000   1.468  86.790  1.00  0.00     0.045 C 
HETATM   10  C6  UNL     1      -3.890   2.738  86.746  1.00  0.00     0.030 C 
HETATM   11  C7  UNL     1      -3.166   3.520  85.680  1.00  0.00     0.233 C 
HETATM   12  N1  UNL     1      -1.764   3.471  86.229  1.00  0.00    -0.062 N 
ATOM     13  H12 UNL     1      -1.567   4.108  87.001  1.00  0.00     0.278 HD
ATOM     14  H11 UNL     1      -1.037   3.848  85.622  1.00  0.00     0.278 HD
ENDBRANCH   6   8
ENDBRANCH   5   6
ENDBRANCH   4   5
ENDBRANCH   1   4
BRANCH   1  15
HETATM   15  N2  UNL     1      -1.122   2.100  81.944  1.00  0.00    -0.329 NA
HETATM   16  C8  UNL     1      -1.202   3.477  81.971  1.00  0.00     0.396 C 
HETATM   17  O4  UNL     1      -1.651   4.037  80.915  1.00  0.00    -0.230 OA
HETATM   18  N3  UNL     1      -0.867   4.382  82.995  1.00  0.00    -0.326 N 
ATOM     19  H3  UNL     1      -0.513   3.988  83.866  1.00  0.00     0.165 HD
BRANCH  18  20
HETATM   20  C9  UNL     1      -0.979   5.806  82.920  1.00  0.00     0.087 C 
HETATM   21  C10 UNL     1       0.288   6.486  82.542  1.00  0.00     0.025 C 
HETATM   22  C11 UNL     1       0.798   7.184  83.797  1.00  0.00     0.002 C 
HETATM   23  C12 UNL     1      -0.391   7.385  84.694  1.00  0.00     0.002 C 
HETATM   24  C13 UNL     1      -1.503   6.533  84.118  1.00  0.00     0.025 C 
ENDBRANCH  18  20
ENDBRANCH   1  15
TORSDOF 7
ENDMDL
