MODEL 1
REMARK VINA RESULT: -7.017908363      0.000      0.000
REMARK  6 active torsions:
REMARK  status: ('A' for Active; 'I' for Inactive)
REMARK    1  A    between atoms: S1_2  and  C2_3 
REMARK    2  A    between atoms: C2_3  and  C3_4 
REMARK    3  A    between atoms: C4_6  and  N1_7 
REMARK       I    between atoms: N1_7  and  C5_9 
REMARK       I    between atoms: C5_9  and  N2_11 
REMARK    4  A    between atoms: C10_16  and  O3_17 
REMARK    5  A    between atoms: C11_19  and  C12_20 
REMARK    6  A    between atoms: C12_20  and  O4_21 
ROOT
HETATM    1  C3  UNL     1       0.885   2.857  81.507  1.00  0.00     0.142 C 
HETATM    2  O1  UNL     1       0.743   1.892  82.532  1.00  0.00    -0.357 OA
HETATM    3  C4  UNL     1      -0.614   1.589  82.581  1.00  0.00     0.254 C 
HETATM    4  C10 UNL     1      -1.227   2.038  81.267  1.00  0.00     0.175 C 
HETATM    5  C11 UNL     1       0.072   2.201  80.439  1.00  0.00     0.072 C 
ENDROOT
BRANCH   3   6
HETATM    6  N1  UNL     1      -1.180   2.300  83.721  1.00  0.00    -0.314 N 
HETATM    7  C5  UNL     1      -1.448   1.613  84.929  1.00  0.00     0.320 C 
HETATM    8  O2  UNL     1      -1.199   0.364  85.036  1.00  0.00    -0.247 OA
HETATM    9  N2  UNL     1      -1.995   2.291  86.035  1.00  0.00    -0.334 N 
HETATM   10  C6  UNL     1      -2.323   1.727  87.337  1.00  0.00     0.127 C 
HETATM   11  C9  UNL     1      -2.331   3.714  86.057  1.00  0.00     0.127 C 
HETATM   12  C7  UNL     1      -3.432   2.545  87.895  1.00  0.00     0.022 C 
HETATM   13  C8  UNL     1      -3.370   3.840  87.133  1.00  0.00     0.022 C 
ATOM     14  H1  UNL     1      -1.383   3.297  83.648  1.00  0.00     0.166 HD
ENDBRANCH   3   6
BRANCH   4  15
HETATM   15  O3  UNL     1      -1.986   1.083  80.649  1.00  0.00    -0.391 OA
ATOM     16  H3  UNL     1      -2.771   1.420  80.234  1.00  0.00     0.210 HD
ENDBRANCH   4  15
BRANCH   1  17
HETATM   17  C2  UNL     1       2.300   3.137  81.224  1.00  0.00     0.106 C 
BRANCH  17  18
HETATM   18  S1  UNL     1       2.775   4.820  81.638  1.00  0.00    -0.171 SA
HETATM   19  C1  UNL     1       2.012   5.400  83.146  1.00  0.00     0.089 C 
ENDBRANCH  17  18
ENDBRANCH   1  17
BRANCH   5  20
HETATM   20  C12 UNL     1       0.496   0.763  80.173  1.00  0.00     0.174 C 
BRANCH  20  21
HETATM   21  O4  UNL     1      -0.013   0.339  78.970  1.00  0.00    -0.400 OA
ATOM     22  H4  UNL     1      -0.637  -0.362  79.111  1.00  0.00     0.209 HD
ENDBRANCH  20  21
ENDBRANCH   5  20
TORSDOF 6
ENDMDL
MODEL 2
REMARK VINA RESULT: -6.771509520      1.234      1.290
REMARK  6 active torsions:
REMARK  status: ('A' for Active; 'I' for Inactive)
REMARK    1  A    between atoms: S1_2  and  C2_3 
REMARK    2  A    between atoms: C2_3  and  C3_4 
REMARK    3  A    between atoms: C4_6  and  N1_7 
REMARK       I    between atoms: N1_7  and  C5_9 
REMARK       I    between atoms: C5_9  and  N2_11 
REMARK    4  A    between atoms: C10_16  and  O3_17 
REMARK    5  A    between atoms: C11_19  and  C12_20 
REMARK    6  A    between atoms: C12_20  and  O4_21 
ROOT
HETATM    1  C3  UNL     1       0.362   3.353  81.298  1.00  0.00     0.142 C 
HETATM    2  O1  UNL     1       0.842   2.620  82.409  1.00  0.00    -0.357 OA
HETATM    3  C4  UNL     1      -0.199   1.776  82.783  1.00  0.00     0.254 C 
HETATM    4  C10 UNL     1      -1.148   1.675  81.603  1.00  0.00     0.175 C 
HETATM    5  C11 UNL     1      -0.217   2.233  80.497  1.00  0.00     0.072 C 
ENDROOT
BRANCH   3   6
HETATM    6  N1  UNL     1      -0.839   2.363  83.953  1.00  0.00    -0.314 N 
HETATM    7  C5  UNL     1      -1.339   1.533  84.984  1.00  0.00     0.320 C 
HETATM    8  O2  UNL     1      -1.237   0.262  84.904  1.00  0.00    -0.247 OA
HETATM    9  N2  UNL     1      -1.960   2.091  86.118  1.00  0.00    -0.334 N 
HETATM   10  C6  UNL     1      -2.519   1.374  87.256  1.00  0.00     0.127 C 
HETATM   11  C9  UNL     1      -2.149   3.523  86.345  1.00  0.00     0.127 C 
HETATM   12  C7  UNL     1      -3.605   2.224  87.812  1.00  0.00     0.022 C 
HETATM   13  C8  UNL     1      -3.307   3.605  87.297  1.00  0.00     0.022 C 
ATOM     14  H1  UNL     1      -0.928   3.376  84.029  1.00  0.00     0.166 HD
ENDBRANCH   3   6
BRANCH   4  15
HETATM   15  O3  UNL     1      -1.471   0.394  81.254  1.00  0.00    -0.391 OA
ATOM     16  H3  UNL     1      -1.000   0.067  80.497  1.00  0.00     0.210 HD
ENDBRANCH   4  15
BRANCH   1  17
HETATM   17  C2  UNL     1       1.426   4.161  80.686  1.00  0.00     0.106 C 
BRANCH  17  18
HETATM   18  S1  UNL     1       0.791   5.542  79.726  1.00  0.00    -0.171 SA
HETATM   19  C1  UNL     1      -0.871   6.001  80.195  1.00  0.00     0.089 C 
ENDBRANCH  17  18
ENDBRANCH   1  17
BRANCH   5  20
HETATM   20  C12 UNL     1       0.770   1.097  80.270  1.00  0.00     0.174 C 
BRANCH  20  21
HETATM   21  O4  UNL     1       0.335   0.295  79.244  1.00  0.00    -0.400 OA
ATOM     22  H4  UNL     1       0.343   0.780  78.428  1.00  0.00     0.209 HD
ENDBRANCH  20  21
ENDBRANCH   5  20
TORSDOF 6
ENDMDL
MODEL 3
REMARK VINA RESULT: -6.255034293      2.600      6.296
REMARK  6 active torsions:
REMARK  status: ('A' for Active; 'I' for Inactive)
REMARK    1  A    between atoms: S1_2  and  C2_3 
REMARK    2  A    between atoms: C2_3  and  C3_4 
REMARK    3  A    between atoms: C4_6  and  N1_7 
REMARK       I    between atoms: N1_7  and  C5_9 
REMARK       I    between atoms: C5_9  and  N2_11 
REMARK    4  A    between atoms: C10_16  and  O3_17 
REMARK    5  A    between atoms: C11_19  and  C12_20 
REMARK    6  A    between atoms: C12_20  and  O4_21 
ROOT
HETATM    1  C3  UNL     1      -1.640   3.923  85.429  1.00  0.00     0.142 C 
HETATM    2  O1  UNL     1      -1.599   3.374  84.125  1.00  0.00    -0.357 OA
HETATM    3  C4  UNL     1      -0.445   2.600  84.078  1.00  0.00     0.254 C 
HETATM    4  C10 UNL     1      -0.029   2.315  85.510  1.00  0.00     0.175 C 
HETATM    5  C11 UNL     1      -1.352   2.692  86.223  1.00  0.00     0.072 C 
ENDROOT
BRANCH   3   6
HETATM    6  N1  UNL     1       0.566   3.364  83.356  1.00  0.00    -0.314 N 
HETATM    7  C5  UNL     1       0.737   3.181  81.963  1.00  0.00     0.320 C 
HETATM    8  O2  UNL     1       0.012   2.347  81.322  1.00  0.00    -0.247 OA
HETATM    9  N2  UNL     1       1.711   3.914  81.258  1.00  0.00    -0.334 N 
HETATM   10  C6  UNL     1       2.005   3.841  79.833  1.00  0.00     0.127 C 
HETATM   11  C9  UNL     1       2.611   4.898  81.858  1.00  0.00     0.127 C 
HETATM   12  C7  UNL     1       3.436   4.207  79.667  1.00  0.00     0.022 C 
HETATM   13  C8  UNL     1       3.784   4.956  80.924  1.00  0.00     0.022 C 
ATOM     14  H1  UNL     1       1.151   4.032  83.857  1.00  0.00     0.166 HD
ENDBRANCH   3   6
BRANCH   4  15
HETATM   15  O3  UNL     1       0.211   0.995  85.770  1.00  0.00    -0.391 OA
ATOM     16  H3  UNL     1      -0.153   0.689  86.593  1.00  0.00     0.210 HD
ENDBRANCH   4  15
BRANCH   1  17
HETATM   17  C2  UNL     1      -2.907   4.625  85.677  1.00  0.00     0.106 C 
BRANCH  17  18
HETATM   18  S1  UNL     1      -2.899   6.318  85.072  1.00  0.00    -0.171 SA
HETATM   19  C1  UNL     1      -1.420   6.713  84.152  1.00  0.00     0.089 C 
ENDBRANCH  17  18
ENDBRANCH   1  17
BRANCH   5  20
HETATM   20  C12 UNL     1      -2.276   1.533  85.872  1.00  0.00     0.174 C 
BRANCH  20  21
HETATM   21  O4  UNL     1      -2.406   0.694  86.951  1.00  0.00    -0.400 OA
ATOM     22  H4  UNL     1      -3.160   0.129  86.834  1.00  0.00     0.209 HD
ENDBRANCH  20  21
ENDBRANCH   5  20
TORSDOF 6
ENDMDL
MODEL 4
REMARK VINA RESULT: -6.125740178      2.704      3.623
REMARK  6 active torsions:
REMARK  status: ('A' for Active; 'I' for Inactive)
REMARK    1  A    between atoms: S1_2  and  C2_3 
REMARK    2  A    between atoms: C2_3  and  C3_4 
REMARK    3  A    between atoms: C4_6  and  N1_7 
REMARK       I    between atoms: N1_7  and  C5_9 
REMARK       I    between atoms: C5_9  and  N2_11 
REMARK    4  A    between atoms: C10_16  and  O3_17 
REMARK    5  A    between atoms: C11_19  and  C12_20 
REMARK    6  A    between atoms: C12_20  and  O4_21 
ROOT
HETATM    1  C3  UNL     1       0.833   6.410  83.033  1.00  0.00     0.142 C 
HETATM    2  O1  UNL     1       1.198   5.722  84.215  1.00  0.00    -0.357 OA
HETATM    3  C4  UNL     1       0.850   4.393  84.001  1.00  0.00     0.254 C 
HETATM    4  C10 UNL     1       0.694   4.199  82.504  1.00  0.00     0.175 C 
HETATM    5  C11 UNL     1       1.416   5.482  82.019  1.00  0.00     0.072 C 
ENDROOT
BRANCH   3   6
HETATM    6  N1  UNL     1      -0.395   4.145  84.718  1.00  0.00    -0.314 N 
HETATM    7  C5  UNL     1      -0.499   3.050  85.609  1.00  0.00     0.320 C 
HETATM    8  O2  UNL     1       0.492   2.266  85.795  1.00  0.00    -0.247 OA
HETATM    9  N2  UNL     1      -1.697   2.803  86.305  1.00  0.00    -0.334 N 
HETATM   10  C6  UNL     1      -1.959   1.726  87.250  1.00  0.00     0.127 C 
HETATM   11  C9  UNL     1      -2.910   3.612  86.190  1.00  0.00     0.127 C 
HETATM   12  C7  UNL     1      -3.418   1.446  87.195  1.00  0.00     0.022 C 
HETATM   13  C8  UNL     1      -4.020   2.689  86.601  1.00  0.00     0.022 C 
ATOM     14  H1  UNL     1      -1.193   4.763  84.578  1.00  0.00     0.166 HD
ENDBRANCH   3   6
BRANCH   4  15
HETATM   15  O3  UNL     1       1.384   3.131  82.003  1.00  0.00    -0.391 OA
ATOM     16  H3  UNL     1       1.768   3.283  81.147  1.00  0.00     0.210 HD
ENDBRANCH   4  15
BRANCH   1  17
HETATM   17  C2  UNL     1       1.309   7.801  83.052  1.00  0.00     0.106 C 
BRANCH  17  18
HETATM   18  S1  UNL     1       0.862   8.673  84.558  1.00  0.00    -0.171 SA
HETATM   19  C1  UNL     1       2.198   9.671  85.199  1.00  0.00     0.089 C 
ENDBRANCH  17  18
ENDBRANCH   1  17
BRANCH   5  20
HETATM   20  C12 UNL     1       2.884   5.171  82.277  1.00  0.00     0.174 C 
BRANCH  20  21
HETATM   21  O4  UNL     1       3.504   4.826  81.101  1.00  0.00    -0.400 OA
ATOM     22  H4  UNL     1       3.417   3.892  80.951  1.00  0.00     0.209 HD
ENDBRANCH  20  21
ENDBRANCH   5  20
TORSDOF 6
ENDMDL
MODEL 5
REMARK VINA RESULT: -6.115346568      1.914      2.203
REMARK  6 active torsions:
REMARK  status: ('A' for Active; 'I' for Inactive)
REMARK    1  A    between atoms: S1_2  and  C2_3 
REMARK    2  A    between atoms: C2_3  and  C3_4 
REMARK    3  A    between atoms: C4_6  and  N1_7 
REMARK       I    between atoms: N1_7  and  C5_9 
REMARK       I    between atoms: C5_9  and  N2_11 
REMARK    4  A    between atoms: C10_16  and  O3_17 
REMARK    5  A    between atoms: C11_19  and  C12_20 
REMARK    6  A    between atoms: C12_20  and  O4_21 
ROOT
HETATM    1  C3  UNL     1       1.352   4.983  82.102  1.00  0.00     0.142 C 
HETATM    2  O1  UNL     1       1.243   3.689  82.666  1.00  0.00    -0.357 OA
HETATM    3  C4  UNL     1       0.002   3.207  82.265  1.00  0.00     0.254 C 
HETATM    4  C10 UNL     1      -0.445   4.035  81.075  1.00  0.00     0.175 C 
HETATM    5  C11 UNL     1       0.914   4.680  80.707  1.00  0.00     0.072 C 
ENDROOT
BRANCH   3   6
HETATM    6  N1  UNL     1      -0.906   3.341  83.398  1.00  0.00    -0.314 N 
HETATM    7  C5  UNL     1      -0.954   2.339  84.396  1.00  0.00     0.320 C 
HETATM    8  O2  UNL     1      -0.206   1.307  84.319  1.00  0.00    -0.247 OA
HETATM    9  N2  UNL     1      -1.828   2.460  85.494  1.00  0.00    -0.334 N 
HETATM   10  C6  UNL     1      -1.991   1.522  86.595  1.00  0.00     0.127 C 
HETATM   11  C9  UNL     1      -2.741   3.582  85.712  1.00  0.00     0.127 C 
HETATM   12  C7  UNL     1      -3.385   1.672  87.089  1.00  0.00     0.022 C 
HETATM   13  C8  UNL     1      -3.819   3.025  86.596  1.00  0.00     0.022 C 
ATOM     14  H1  UNL     1      -1.509   4.161  83.471  1.00  0.00     0.166 HD
ENDBRANCH   3   6
BRANCH   4  15
HETATM   15  O3  UNL     1      -0.847   3.294  79.998  1.00  0.00    -0.391 OA
ATOM     16  H3  UNL     1      -1.653   3.598  79.597  1.00  0.00     0.210 HD
ENDBRANCH   4  15
BRANCH   1  17
HETATM   17  C2  UNL     1       2.697   5.543  82.298  1.00  0.00     0.106 C 
BRANCH  17  18
HETATM   18  S1  UNL     1       3.037   6.939  81.218  1.00  0.00    -0.171 SA
HETATM   19  C1  UNL     1       4.157   6.525  79.890  1.00  0.00     0.089 C 
ENDBRANCH  17  18
ENDBRANCH   1  17
BRANCH   5  20
HETATM   20  C12 UNL     1       1.688   3.528  80.082  1.00  0.00     0.174 C 
BRANCH  20  21
HETATM   21  O4  UNL     1       2.017   3.833  78.784  1.00  0.00    -0.400 OA
ATOM     22  H4  UNL     1       1.276   3.669  78.214  1.00  0.00     0.209 HD
ENDBRANCH  20  21
ENDBRANCH   5  20
TORSDOF 6
ENDMDL
