MODEL 1
REMARK VINA RESULT: -6.720816093      0.000      0.000
REMARK  6 active torsions:
REMARK  status: ('A' for Active; 'I' for Inactive)
REMARK    1  A    between atoms: S1_2  and  N1_4 
REMARK    2  A    between atoms: S1_2  and  N3_16 
REMARK    3  A    between atoms: N1_4  and  C1_6 
REMARK    4  A    between atoms: C3_8  and  C4_9 
REMARK    5  A    between atoms: C4_9  and  O3_10 
REMARK    6  A    between atoms: N2_12  and  O4_14 
ROOT
HETATM    1  N1  UNL     1      -0.155   2.337  83.620  1.00  0.00    -0.297 N 
ATOM      2  H1  UNL     1       0.393   3.197  83.626  1.00  0.00     0.174 HD
ENDROOT
BRANCH   1   3
HETATM    3  S1  UNL     1      -0.802   1.613  85.038  1.00  0.00     0.320 S 
HETATM    4  O1  UNL     1      -0.971   0.144  84.757  1.00  0.00    -0.182 OA
HETATM    5  O2  UNL     1       0.254   1.773  86.125  1.00  0.00    -0.182 OA
BRANCH   3   6
HETATM    6  N3  UNL     1      -2.237   2.257  85.566  1.00  0.00    -0.272 N 
HETATM    7  C5  UNL     1      -2.452   3.633  85.525  1.00  0.00     0.088 C 
HETATM    8  C6  UNL     1      -3.218   4.099  86.744  1.00  0.00     0.119 C 
HETATM    9  S2  UNL     1      -2.641   3.212  88.243  1.00  0.00    -0.162 SA
HETATM   10  C7  UNL     1      -2.627   1.438  87.765  1.00  0.00     0.095 C 
HETATM   11  C8  UNL     1      -3.112   1.439  86.310  1.00  0.00     0.152 C 
ENDBRANCH   3   6
ENDBRANCH   1   3
BRANCH   1  12
HETATM   12  C1  UNL     1      -0.467   1.602  82.420  1.00  0.00     0.107 A 
HETATM   13  C2  UNL     1      -0.058   2.363  81.142  1.00  0.00     0.041 A 
HETATM   14  C3  UNL     1       0.571   1.031  81.561  1.00  0.00     0.087 A 
BRANCH  14  15
HETATM   15  C4  UNL     1       0.295  -0.031  80.579  1.00  0.00     0.141 C 
HETATM   16  N2  UNL     1       0.409  -1.275  80.691  1.00  0.00    -0.251 N 
ATOM     17  H2  UNL     1       0.146  -1.783  79.847  1.00  0.00     0.196 HD
BRANCH  15  18
HETATM   18  O3  UNL     1      -0.174   0.405  79.307  1.00  0.00    -0.348 OA
ATOM     19  H3  UNL     1       0.429   0.940  78.805  1.00  0.00     0.219 HD
ENDBRANCH  15  18
BRANCH  16  20
HETATM   20  O4  UNL     1       0.804  -2.071  81.688  1.00  0.00    -0.288 OA
ATOM     21  H4  UNL     1       1.554  -2.059  82.271  1.00  0.00     0.244 HD
ENDBRANCH  16  20
ENDBRANCH  14  15
ENDBRANCH   1  12
TORSDOF 6
ENDMDL
MODEL 2
REMARK VINA RESULT: -6.654269213      2.849      6.207
REMARK  6 active torsions:
REMARK  status: ('A' for Active; 'I' for Inactive)
REMARK    1  A    between atoms: S1_2  and  N1_4 
REMARK    2  A    between atoms: S1_2  and  N3_16 
REMARK    3  A    between atoms: N1_4  and  C1_6 
REMARK    4  A    between atoms: C3_8  and  C4_9 
REMARK    5  A    between atoms: C4_9  and  O3_10 
REMARK    6  A    between atoms: N2_12  and  O4_14 
ROOT
HETATM    1  N1  UNL     1      -1.432   4.229  83.818  1.00  0.00    -0.297 N 
ATOM      2  H1  UNL     1      -1.978   4.884  83.258  1.00  0.00     0.174 HD
ENDROOT
BRANCH   1   3
HETATM    3  S1  UNL     1      -0.141   3.286  83.186  1.00  0.00     0.320 S 
HETATM    4  O1  UNL     1       1.103   4.133  83.240  1.00  0.00    -0.182 OA
HETATM    5  O2  UNL     1       0.040   2.110  84.137  1.00  0.00    -0.182 OA
BRANCH   3   6
HETATM    6  N3  UNL     1      -0.372   2.717  81.645  1.00  0.00    -0.272 N 
HETATM    7  C5  UNL     1      -1.562   2.083  81.297  1.00  0.00     0.088 C 
HETATM    8  C6  UNL     1      -1.304   0.922  80.361  1.00  0.00     0.119 C 
HETATM    9  S2  UNL     1       0.211   0.018  80.861  1.00  0.00    -0.162 SA
HETATM   10  C7  UNL     1       1.480   1.325  81.107  1.00  0.00     0.095 C 
HETATM   11  C8  UNL     1       0.741   2.629  80.782  1.00  0.00     0.152 C 
ENDBRANCH   3   6
ENDBRANCH   1   3
BRANCH   1  12
HETATM   12  C1  UNL     1      -1.664   3.997  85.221  1.00  0.00     0.107 A 
HETATM   13  C2  UNL     1      -2.935   4.704  85.731  1.00  0.00     0.041 A 
HETATM   14  C3  UNL     1      -2.778   3.181  85.705  1.00  0.00     0.087 A 
BRANCH  14  15
HETATM   15  C4  UNL     1      -2.815   2.609  87.061  1.00  0.00     0.141 C 
HETATM   16  N2  UNL     1      -2.634   1.427  87.437  1.00  0.00    -0.251 N 
ATOM     17  H2  UNL     1      -2.717   1.306  88.446  1.00  0.00     0.196 HD
BRANCH  15  18
HETATM   18  O3  UNL     1      -3.098   3.526  88.114  1.00  0.00    -0.348 OA
ATOM     19  H3  UNL     1      -2.385   3.694  88.719  1.00  0.00     0.219 HD
ENDBRANCH  15  18
BRANCH  16  20
HETATM   20  O4  UNL     1      -2.355   0.294  86.789  1.00  0.00    -0.288 OA
ATOM     21  H4  UNL     1      -1.542  -0.152  86.580  1.00  0.00     0.244 HD
ENDBRANCH  16  20
ENDBRANCH  14  15
ENDBRANCH   1  12
TORSDOF 6
ENDMDL
MODEL 3
REMARK VINA RESULT: -6.552429544      3.347      6.156
REMARK  6 active torsions:
REMARK  status: ('A' for Active; 'I' for Inactive)
REMARK    1  A    between atoms: S1_2  and  N1_4 
REMARK    2  A    between atoms: S1_2  and  N3_16 
REMARK    3  A    between atoms: N1_4  and  C1_6 
REMARK    4  A    between atoms: C3_8  and  C4_9 
REMARK    5  A    between atoms: C4_9  and  O3_10 
REMARK    6  A    between atoms: N2_12  and  O4_14 
ROOT
HETATM    1  N1  UNL     1       0.125   3.121  83.986  1.00  0.00    -0.297 N 
ATOM      2  H1  UNL     1       1.049   3.108  84.418  1.00  0.00     0.174 HD
ENDROOT
BRANCH   1   3
HETATM    3  S1  UNL     1      -0.223   3.931  82.510  1.00  0.00     0.320 S 
HETATM    4  O1  UNL     1      -1.482   4.729  82.720  1.00  0.00    -0.182 OA
HETATM    5  O2  UNL     1       0.925   4.905  82.272  1.00  0.00    -0.182 OA
BRANCH   3   6
HETATM    6  N3  UNL     1      -0.391   2.945  81.187  1.00  0.00    -0.272 N 
HETATM    7  C5  UNL     1      -1.573   2.238  80.979  1.00  0.00     0.088 C 
HETATM    8  C6  UNL     1      -1.288   0.857  80.427  1.00  0.00     0.119 C 
HETATM    9  S2  UNL     1       0.191   0.135  81.237  1.00  0.00    -0.162 SA
HETATM   10  C7  UNL     1       1.464   1.457  81.158  1.00  0.00     0.095 C 
HETATM   11  C8  UNL     1       0.759   2.614  80.440  1.00  0.00     0.152 C 
ENDBRANCH   3   6
ENDBRANCH   1   3
BRANCH   1  12
HETATM   12  C1  UNL     1      -1.026   2.461  84.550  1.00  0.00     0.107 A 
HETATM   13  C2  UNL     1      -0.748   0.981  84.884  1.00  0.00     0.041 A 
HETATM   14  C3  UNL     1      -1.073   2.033  85.949  1.00  0.00     0.087 A 
BRANCH  14  15
HETATM   15  C4  UNL     1      -2.334   1.728  86.644  1.00  0.00     0.141 C 
HETATM   16  N2  UNL     1      -3.295   2.482  86.929  1.00  0.00    -0.251 N 
ATOM     17  H2  UNL     1      -4.053   2.007  87.418  1.00  0.00     0.196 HD
BRANCH  15  18
HETATM   18  O3  UNL     1      -2.503   0.377  87.062  1.00  0.00    -0.348 OA
ATOM     19  H3  UNL     1      -2.866   0.254  87.931  1.00  0.00     0.219 HD
ENDBRANCH  15  18
BRANCH  16  20
HETATM   20  O4  UNL     1      -3.530   3.780  86.723  1.00  0.00    -0.288 OA
ATOM     21  H4  UNL     1      -4.153   4.395  87.093  1.00  0.00     0.244 HD
ENDBRANCH  16  20
ENDBRANCH  14  15
ENDBRANCH   1  12
TORSDOF 6
ENDMDL
MODEL 4
REMARK VINA RESULT: -6.436589256      2.845      6.431
REMARK  6 active torsions:
REMARK  status: ('A' for Active; 'I' for Inactive)
REMARK    1  A    between atoms: S1_2  and  N1_4 
REMARK    2  A    between atoms: S1_2  and  N3_16 
REMARK    3  A    between atoms: N1_4  and  C1_6 
REMARK    4  A    between atoms: C3_8  and  C4_9 
REMARK    5  A    between atoms: C4_9  and  O3_10 
REMARK    6  A    between atoms: N2_12  and  O4_14 
ROOT
HETATM    1  N1  UNL     1      -1.006   3.230  83.496  1.00  0.00    -0.297 N 
ATOM      2  H1  UNL     1      -0.847   4.229  83.623  1.00  0.00     0.174 HD
ENDROOT
BRANCH   1   3
HETATM    3  S1  UNL     1      -1.082   2.469  81.955  1.00  0.00     0.320 S 
HETATM    4  O1  UNL     1      -1.173   0.985  82.190  1.00  0.00    -0.182 OA
HETATM    5  O2  UNL     1      -2.383   2.931  81.310  1.00  0.00    -0.182 OA
BRANCH   3   6
HETATM    6  N3  UNL     1       0.186   2.806  80.940  1.00  0.00    -0.272 N 
HETATM    7  C5  UNL     1       1.346   2.036  80.979  1.00  0.00     0.088 C 
HETATM    8  C6  UNL     1       2.576   2.898  80.788  1.00  0.00     0.119 C 
HETATM    9  S2  UNL     1       2.389   4.490  81.681  1.00  0.00    -0.162 SA
HETATM   10  C7  UNL     1       0.726   5.107  81.202  1.00  0.00     0.095 C 
HETATM   11  C8  UNL     1       0.189   4.034  80.247  1.00  0.00     0.152 C 
ENDBRANCH   3   6
ENDBRANCH   1   3
BRANCH   1  12
HETATM   12  C1  UNL     1      -1.192   2.308  84.588  1.00  0.00     0.107 A 
HETATM   13  C2  UNL     1      -0.147   2.504  85.705  1.00  0.00     0.041 A 
HETATM   14  C3  UNL     1      -1.646   2.744  85.909  1.00  0.00     0.087 A 
BRANCH  14  15
HETATM   15  C4  UNL     1      -2.213   1.815  86.901  1.00  0.00     0.141 C 
HETATM   16  N2  UNL     1      -2.696   2.050  88.034  1.00  0.00    -0.251 N 
ATOM     17  H2  UNL     1      -3.022   1.214  88.517  1.00  0.00     0.196 HD
BRANCH  15  18
HETATM   18  O3  UNL     1      -2.221   0.440  86.531  1.00  0.00    -0.348 OA
ATOM     19  H3  UNL     1      -1.455   0.132  86.063  1.00  0.00     0.219 HD
ENDBRANCH  15  18
BRANCH  16  20
HETATM   20  O4  UNL     1      -2.871   3.171  88.739  1.00  0.00    -0.288 OA
ATOM     21  H4  UNL     1      -2.966   3.347  89.667  1.00  0.00     0.244 HD
ENDBRANCH  16  20
ENDBRANCH  14  15
ENDBRANCH   1  12
TORSDOF 6
ENDMDL
MODEL 5
REMARK VINA RESULT: -6.426141595      3.250      5.820
REMARK  6 active torsions:
REMARK  status: ('A' for Active; 'I' for Inactive)
REMARK    1  A    between atoms: S1_2  and  N1_4 
REMARK    2  A    between atoms: S1_2  and  N3_16 
REMARK    3  A    between atoms: N1_4  and  C1_6 
REMARK    4  A    between atoms: C3_8  and  C4_9 
REMARK    5  A    between atoms: C4_9  and  O3_10 
REMARK    6  A    between atoms: N2_12  and  O4_14 
ROOT
HETATM    1  N1  UNL     1      -0.766   4.666  83.141  1.00  0.00    -0.297 N 
ATOM      2  H1  UNL     1      -1.485   5.370  82.971  1.00  0.00     0.174 HD
ENDROOT
BRANCH   1   3
HETATM    3  S1  UNL     1       0.431   4.234  81.985  1.00  0.00     0.320 S 
HETATM    4  O1  UNL     1       0.811   5.487  81.241  1.00  0.00    -0.182 OA
HETATM    5  O2  UNL     1       1.644   3.763  82.777  1.00  0.00    -0.182 OA
BRANCH   3   6
HETATM    6  N3  UNL     1      -0.019   3.053  80.912  1.00  0.00    -0.272 N 
HETATM    7  C5  UNL     1      -1.339   2.610  80.861  1.00  0.00     0.088 C 
HETATM    8  C6  UNL     1      -1.401   1.116  80.629  1.00  0.00     0.119 C 
HETATM    9  S2  UNL     1      -0.087   0.262  81.583  1.00  0.00    -0.162 SA
HETATM   10  C7  UNL     1       1.447   1.206  81.218  1.00  0.00     0.095 C 
HETATM   11  C8  UNL     1       0.988   2.312  80.260  1.00  0.00     0.152 C 
ENDBRANCH   3   6
ENDBRANCH   1   3
BRANCH   1  12
HETATM   12  C1  UNL     1      -0.648   3.931  84.375  1.00  0.00     0.107 A 
HETATM   13  C2  UNL     1      -1.918   4.035  85.243  1.00  0.00     0.041 A 
HETATM   14  C3  UNL     1      -1.423   2.718  84.638  1.00  0.00     0.087 A 
BRANCH  14  15
HETATM   15  C4  UNL     1      -1.051   1.748  85.682  1.00  0.00     0.141 C 
HETATM   16  N2  UNL     1      -1.781   1.087  86.458  1.00  0.00    -0.251 N 
ATOM     17  H2  UNL     1      -1.258   0.481  87.089  1.00  0.00     0.196 HD
BRANCH  15  18
HETATM   18  O3  UNL     1       0.344   1.517  85.846  1.00  0.00    -0.348 OA
ATOM     19  H3  UNL     1       0.830   2.205  86.286  1.00  0.00     0.219 HD
ENDBRANCH  15  18
BRANCH  16  20
HETATM   20  O4  UNL     1      -3.103   1.011  86.626  1.00  0.00    -0.288 OA
ATOM     21  H4  UNL     1      -3.658   0.487  87.192  1.00  0.00     0.244 HD
ENDBRANCH  16  20
ENDBRANCH  14  15
ENDBRANCH   1  12
TORSDOF 6
ENDMDL
