MODEL 1
REMARK VINA RESULT: -7.136154509      0.000      0.000
REMARK  6 active torsions:
REMARK  status: ('A' for Active; 'I' for Inactive)
REMARK    1  A    between atoms: C2_4  and  C3_5 
REMARK    2  A    between atoms: C3_5  and  C4_6 
REMARK    3  A    between atoms: C10_12  and  O2_13 
REMARK    4  A    between atoms: C11_15  and  O3_16 
REMARK    5  A    between atoms: C12_18  and  C13_19 
REMARK    6  A    between atoms: C13_19  and  C14_20 
ROOT
HETATM    1  C1  UNL     1      -0.810   0.835  83.547  1.00  0.00     0.144 C 
HETATM    2  N1  UNL     1       0.265   1.158  82.676  1.00  0.00    -0.193 NA
HETATM    3  O1  UNL     1       0.733   2.409  82.770  1.00  0.00    -0.295 OA
HETATM    4  C2  UNL     1      -0.211   3.295  82.281  1.00  0.00     0.177 C 
HETATM    5  C10 UNL     1      -0.320   3.117  80.795  1.00  0.00     0.179 C 
HETATM    6  C11 UNL     1      -0.752   1.686  80.520  1.00  0.00     0.169 C 
HETATM    7  C12 UNL     1       0.089   0.744  81.294  1.00  0.00     0.127 C 
ENDROOT
BRANCH   4   8
HETATM    8  C3  UNL     1       0.190   4.735  82.523  1.00  0.00     0.041 C 
BRANCH   8   9
HETATM    9  C4  UNL     1      -0.211   5.274  83.852  1.00  0.00    -0.012 C 
HETATM   10  C5  UNL     1      -1.366   4.578  84.490  1.00  0.00     0.005 C 
HETATM   11  C6  UNL     1      -2.344   5.541  85.132  1.00  0.00     0.000 C 
HETATM   12  C7  UNL     1      -3.009   6.357  84.057  1.00  0.00     0.000 C 
HETATM   13  C8  UNL     1      -1.964   6.853  83.085  1.00  0.00     0.000 C 
HETATM   14  C9  UNL     1      -0.576   6.746  83.676  1.00  0.00     0.005 C 
ENDBRANCH   8   9
ENDBRANCH   4   8
BRANCH   5  15
HETATM   15  O2  UNL     1       0.939   3.269  80.217  1.00  0.00    -0.390 OA
ATOM     16  H2  UNL     1       0.942   2.867  79.356  1.00  0.00     0.210 HD
ENDBRANCH   5  15
BRANCH   6  17
HETATM   17  O3  UNL     1      -2.113   1.521  80.674  1.00  0.00    -0.391 OA
ATOM     18  H3  UNL     1      -2.332   1.171  81.530  1.00  0.00     0.210 HD
ENDBRANCH   6  17
BRANCH   7  19
HETATM   19  C13 UNL     1      -0.410  -0.647  81.231  1.00  0.00     0.137 C 
BRANCH  19  20
HETATM   20  C14 UNL     1       0.642  -1.674  81.268  1.00  0.00     0.174 C 
HETATM   21  O4  UNL     1       1.887  -1.455  81.248  1.00  0.00    -0.648 OA
HETATM   22  O5  UNL     1       0.204  -3.027  81.329  1.00  0.00    -0.648 OA
ENDBRANCH  19  20
ENDBRANCH   7  19
TORSDOF 6
ENDMDL
MODEL 2
REMARK VINA RESULT: -7.125852960      2.986      4.563
REMARK  6 active torsions:
REMARK  status: ('A' for Active; 'I' for Inactive)
REMARK    1  A    between atoms: C2_4  and  C3_5 
REMARK    2  A    between atoms: C3_5  and  C4_6 
REMARK    3  A    between atoms: C10_12  and  O2_13 
REMARK    4  A    between atoms: C11_15  and  O3_16 
REMARK    5  A    between atoms: C12_18  and  C13_19 
REMARK    6  A    between atoms: C13_19  and  C14_20 
ROOT
HETATM    1  C1  UNL     1      -1.712   4.955  84.339  1.00  0.00     0.144 C 
HETATM    2  N1  UNL     1      -0.374   4.563  84.617  1.00  0.00    -0.193 NA
HETATM    3  O1  UNL     1       0.530   5.551  84.634  1.00  0.00    -0.295 OA
HETATM    4  C2  UNL     1       0.712   6.034  83.350  1.00  0.00     0.177 C 
HETATM    5  C10 UNL     1       1.412   4.989  82.533  1.00  0.00     0.179 C 
HETATM    6  C11 UNL     1       0.539   3.745  82.505  1.00  0.00     0.169 C 
HETATM    7  C12 UNL     1       0.097   3.405  83.878  1.00  0.00     0.127 C 
ENDROOT
BRANCH   4   8
HETATM    8  C3  UNL     1       1.591   7.268  83.333  1.00  0.00     0.041 C 
BRANCH   8   9
HETATM    9  C4  UNL     1       0.854   8.553  83.482  1.00  0.00    -0.012 C 
HETATM   10  C5  UNL     1       1.397   9.687  82.678  1.00  0.00     0.005 C 
HETATM   11  C6  UNL     1       1.430  10.988  83.454  1.00  0.00     0.000 C 
HETATM   12  C7  UNL     1       2.432  10.870  84.570  1.00  0.00     0.000 C 
HETATM   13  C8  UNL     1       2.237   9.552  85.282  1.00  0.00     0.000 C 
HETATM   14  C9  UNL     1       0.889   8.951  84.955  1.00  0.00     0.005 C 
ENDBRANCH   8   9
ENDBRANCH   4   8
BRANCH   5  15
HETATM   15  O2  UNL     1       2.600   4.625  83.166  1.00  0.00    -0.390 OA
ATOM     16  H2  UNL     1       2.595   4.950  84.058  1.00  0.00     0.210 HD
ENDBRANCH   5  15
BRANCH   6  17
HETATM   17  O3  UNL     1      -0.472   3.848  81.572  1.00  0.00    -0.391 OA
ATOM     18  H3  UNL     1      -1.260   3.397  81.853  1.00  0.00     0.210 HD
ENDBRANCH   6  17
BRANCH   7  19
HETATM   19  C13 UNL     1      -0.918   2.330  83.898  1.00  0.00     0.137 C 
BRANCH  19  20
HETATM   20  C14 UNL     1      -0.714   1.317  84.943  1.00  0.00     0.174 C 
HETATM   21  O4  UNL     1      -1.439   0.299  85.136  1.00  0.00    -0.648 OA
HETATM   22  O5  UNL     1       0.401   1.513  85.806  1.00  0.00    -0.648 OA
ENDBRANCH  19  20
ENDBRANCH   7  19
TORSDOF 6
ENDMDL
MODEL 3
REMARK VINA RESULT: -7.111770662      1.504      2.464
REMARK  6 active torsions:
REMARK  status: ('A' for Active; 'I' for Inactive)
REMARK    1  A    between atoms: C2_4  and  C3_5 
REMARK    2  A    between atoms: C3_5  and  C4_6 
REMARK    3  A    between atoms: C10_12  and  O2_13 
REMARK    4  A    between atoms: C11_15  and  O3_16 
REMARK    5  A    between atoms: C12_18  and  C13_19 
REMARK    6  A    between atoms: C13_19  and  C14_20 
ROOT
HETATM    1  C1  UNL     1       2.159   2.659  80.816  1.00  0.00     0.144 C 
HETATM    2  N1  UNL     1       0.890   2.380  80.239  1.00  0.00    -0.193 NA
HETATM    3  O1  UNL     1       0.146   3.448  79.927  1.00  0.00    -0.295 OA
HETATM    4  C2  UNL     1      -0.279   4.072  81.087  1.00  0.00     0.177 C 
HETATM    5  C10 UNL     1      -1.279   3.189  81.773  1.00  0.00     0.179 C 
HETATM    6  C11 UNL     1      -0.599   1.871  82.106  1.00  0.00     0.169 C 
HETATM    7  C12 UNL     1       0.115   1.354  80.916  1.00  0.00     0.127 C 
ENDROOT
BRANCH   4   8
HETATM    8  C3  UNL     1      -0.977   5.385  80.797  1.00  0.00     0.041 C 
BRANCH   8   9
HETATM    9  C4  UNL     1      -0.451   6.547  81.565  1.00  0.00    -0.012 C 
HETATM   10  C5  UNL     1       0.593   6.213  82.577  1.00  0.00     0.005 C 
HETATM   11  C6  UNL     1       0.398   6.955  83.883  1.00  0.00     0.000 C 
HETATM   12  C7  UNL     1      -0.864   6.467  84.543  1.00  0.00     0.000 C 
HETATM   13  C8  UNL     1      -1.973   6.402  83.519  1.00  0.00     0.000 C 
HETATM   14  C9  UNL     1      -1.624   7.206  82.287  1.00  0.00     0.005 C 
ENDBRANCH   8   9
ENDBRANCH   4   8
BRANCH   5  15
HETATM   15  O2  UNL     1      -2.315   2.889  80.890  1.00  0.00    -0.390 OA
ATOM     16  H2  UNL     1      -2.926   2.295  81.310  1.00  0.00     0.210 HD
ENDBRANCH   5  15
BRANCH   6  17
HETATM   17  O3  UNL     1       0.162   1.961  83.253  1.00  0.00    -0.391 OA
ATOM     18  H3  UNL     1      -0.319   1.671  84.020  1.00  0.00     0.210 HD
ENDBRANCH   6  17
BRANCH   7  19
HETATM   19  C13 UNL     1       0.965   0.184  81.226  1.00  0.00     0.137 C 
BRANCH  19  20
HETATM   20  C14 UNL     1       0.238  -1.090  81.322  1.00  0.00     0.174 C 
HETATM   21  O4  UNL     1      -1.016  -1.216  81.435  1.00  0.00    -0.648 OA
HETATM   22  O5  UNL     1       1.026  -2.274  81.285  1.00  0.00    -0.648 OA
ENDBRANCH  19  20
ENDBRANCH   7  19
TORSDOF 6
ENDMDL
MODEL 4
REMARK VINA RESULT: -7.108978128      2.874      4.528
REMARK  6 active torsions:
REMARK  status: ('A' for Active; 'I' for Inactive)
REMARK    1  A    between atoms: C2_4  and  C3_5 
REMARK    2  A    between atoms: C3_5  and  C4_6 
REMARK    3  A    between atoms: C10_12  and  O2_13 
REMARK    4  A    between atoms: C11_15  and  O3_16 
REMARK    5  A    between atoms: C12_18  and  C13_19 
REMARK    6  A    between atoms: C13_19  and  C14_20 
ROOT
HETATM    1  C1  UNL     1      -1.507   3.247  81.390  1.00  0.00     0.144 C 
HETATM    2  N1  UNL     1      -1.719   3.765  82.697  1.00  0.00    -0.193 NA
HETATM    3  O1  UNL     1      -2.010   5.070  82.765  1.00  0.00    -0.295 OA
HETATM    4  C2  UNL     1      -0.893   5.811  82.420  1.00  0.00     0.177 C 
HETATM    5  C10 UNL     1       0.137   5.667  83.502  1.00  0.00     0.179 C 
HETATM    6  C11 UNL     1       0.501   4.196  83.617  1.00  0.00     0.169 C 
HETATM    7  C12 UNL     1      -0.729   3.374  83.686  1.00  0.00     0.127 C 
ENDROOT
BRANCH   4   8
HETATM    8  C3  UNL     1      -1.211   7.289  82.309  1.00  0.00     0.041 C 
BRANCH   8   9
HETATM    9  C4  UNL     1      -1.136   7.834  80.926  1.00  0.00    -0.012 C 
HETATM   10  C5  UNL     1      -0.703   9.258  80.834  1.00  0.00     0.005 C 
HETATM   11  C6  UNL     1      -1.513  10.050  79.826  1.00  0.00     0.000 C 
HETATM   12  C7  UNL     1      -2.929  10.170  80.320  1.00  0.00     0.000 C 
HETATM   13  C8  UNL     1      -3.408   8.823  80.807  1.00  0.00     0.000 C 
HETATM   14  C9  UNL     1      -2.519   7.712  80.293  1.00  0.00     0.005 C 
ENDBRANCH   8   9
ENDBRANCH   4   8
BRANCH   5  15
HETATM   15  O2  UNL     1      -0.421   6.036  84.725  1.00  0.00    -0.390 OA
ATOM     16  H2  UNL     1       0.267   6.331  85.310  1.00  0.00     0.210 HD
ENDBRANCH   5  15
BRANCH   6  17
HETATM   17  O3  UNL     1       1.409   3.814  82.652  1.00  0.00    -0.391 OA
ATOM     18  H3  UNL     1       1.836   2.994  82.873  1.00  0.00     0.210 HD
ENDBRANCH   6  17
BRANCH   7  19
HETATM   19  C13 UNL     1      -0.450   1.924  83.593  1.00  0.00     0.137 C 
BRANCH  19  20
HETATM   20  C14 UNL     1      -0.546   1.201  84.869  1.00  0.00     0.174 C 
HETATM   21  O4  UNL     1      -1.392   0.303  85.145  1.00  0.00    -0.648 OA
HETATM   22  O5  UNL     1       0.400   1.555  85.871  1.00  0.00    -0.648 OA
ENDBRANCH  19  20
ENDBRANCH   7  19
TORSDOF 6
ENDMDL
MODEL 5
REMARK VINA RESULT: -7.003794854      0.898      1.588
REMARK  6 active torsions:
REMARK  status: ('A' for Active; 'I' for Inactive)
REMARK    1  A    between atoms: C2_4  and  C3_5 
REMARK    2  A    between atoms: C3_5  and  C4_6 
REMARK    3  A    between atoms: C10_12  and  O2_13 
REMARK    4  A    between atoms: C11_15  and  O3_16 
REMARK    5  A    between atoms: C12_18  and  C13_19 
REMARK    6  A    between atoms: C13_19  and  C14_20 
ROOT
HETATM    1  C1  UNL     1      -0.778   0.948  83.565  1.00  0.00     0.144 C 
HETATM    2  N1  UNL     1       0.286   1.206  82.659  1.00  0.00    -0.193 NA
HETATM    3  O1  UNL     1       0.766   2.456  82.667  1.00  0.00    -0.295 OA
HETATM    4  C2  UNL     1      -0.179   3.317  82.136  1.00  0.00     0.177 C 
HETATM    5  C10 UNL     1      -0.312   3.046  80.667  1.00  0.00     0.179 C 
HETATM    6  C11 UNL     1      -0.759   1.605  80.489  1.00  0.00     0.169 C 
HETATM    7  C12 UNL     1       0.086   0.706  81.310  1.00  0.00     0.127 C 
ENDROOT
BRANCH   4   8
HETATM    8  C3  UNL     1       0.238   4.767  82.280  1.00  0.00     0.041 C 
BRANCH   8   9
HETATM    9  C4  UNL     1       0.209   5.282  83.677  1.00  0.00    -0.012 C 
HETATM   10  C5  UNL     1      -0.792   6.358  83.931  1.00  0.00     0.005 C 
HETATM   11  C6  UNL     1      -0.240   7.476  84.793  1.00  0.00     0.000 C 
HETATM   12  C7  UNL     1       0.834   8.202  84.029  1.00  0.00     0.000 C 
HETATM   13  C8  UNL     1       1.759   7.196  83.385  1.00  0.00     0.000 C 
HETATM   14  C9  UNL     1       1.595   5.829  84.009  1.00  0.00     0.005 C 
ENDBRANCH   8   9
ENDBRANCH   4   8
BRANCH   5  15
HETATM   15  O2  UNL     1       0.940   3.150  80.061  1.00  0.00    -0.390 OA
ATOM     16  H2  UNL     1       0.845   3.558  79.208  1.00  0.00     0.210 HD
ENDBRANCH   5  15
BRANCH   6  17
HETATM   17  O3  UNL     1      -2.119   1.463  80.674  1.00  0.00    -0.391 OA
ATOM     18  H3  UNL     1      -2.368   0.552  80.781  1.00  0.00     0.210 HD
ENDBRANCH   6  17
BRANCH   7  19
HETATM   19  C13 UNL     1      -0.425  -0.682  81.343  1.00  0.00     0.137 C 
BRANCH  19  20
HETATM   20  C14 UNL     1       0.618  -1.716  81.301  1.00  0.00     0.174 C 
HETATM   21  O4  UNL     1       1.863  -1.506  81.222  1.00  0.00    -0.648 OA
HETATM   22  O5  UNL     1       0.174  -3.067  81.354  1.00  0.00    -0.648 OA
ENDBRANCH  19  20
ENDBRANCH   7  19
TORSDOF 6
ENDMDL
