MODEL 1
REMARK VINA RESULT: -7.352712188      0.000      0.000
REMARK  5 active torsions:
REMARK  status: ('A' for Active; 'I' for Inactive)
REMARK    1  A    between atoms: C2_2  and  C4_4 
REMARK    2  A    between atoms: C4_4  and  N1_5 
REMARK    3  A    between atoms: C4_4  and  C6_10 
REMARK       I    between atoms: N1_5  and  C5_7 
REMARK       I    between atoms: C6_10  and  N3_12 
REMARK    4  A    between atoms: C9_16  and  C10_17 
REMARK    5  A    between atoms: C10_17  and  N4_18 
ROOT
HETATM    1  C10 UNL     1       0.321   2.204  81.023  1.00  0.00     0.312 C 
HETATM    2  C11 UNL     1      -0.771   1.489  80.330  1.00  0.00     0.094 C 
HETATM    3  N5  UNL     1      -1.623   0.934  79.774  1.00  0.00    -0.195 NA
ENDROOT
BRANCH   1   4
HETATM    4  C9  UNL     1      -0.332   3.256  81.865  1.00  0.00     0.142 C 
HETATM    5  N3  UNL     1       0.589   4.002  82.698  1.00  0.00    -0.333 N 
HETATM    6  C6  UNL     1       0.437   4.434  84.036  1.00  0.00     0.244 C 
HETATM    7  C7  UNL     1       1.772   4.282  81.841  1.00  0.00     0.200 C 
HETATM    8  O2  UNL     1       1.413   5.117  84.503  1.00  0.00    -0.271 OA
HETATM    9  S1  UNL     1       0.874   4.920  80.365  1.00  0.00    -0.147 SA
HETATM   10  C8  UNL     1      -0.807   4.325  80.833  1.00  0.00     0.104 C 
BRANCH   6  11
HETATM   11  C4  UNL     1      -0.750   4.118  84.799  1.00  0.00     0.181 C 
BRANCH  11  12
HETATM   12  C2  UNL     1      -1.975   4.940  84.575  1.00  0.00     0.009 C 
HETATM   13  C1  UNL     1      -2.955   4.502  85.684  1.00  0.00     0.012 C 
HETATM   14  C3  UNL     1      -1.831   6.420  84.761  1.00  0.00     0.012 C 
ENDBRANCH  11  12
BRANCH  11  15
HETATM   15  N1  UNL     1      -1.122   2.740  84.498  1.00  0.00    -0.332 N 
HETATM   16  C5  UNL     1      -0.562   1.608  85.094  1.00  0.00     0.329 C 
HETATM   17  N2  UNL     1      -1.013   0.289  84.704  1.00  0.00    -0.040 NA
HETATM   18  O1  UNL     1       0.331   1.567  85.974  1.00  0.00    -0.251 OA
ATOM     19  H1  UNL     1      -1.848   2.591  83.797  1.00  0.00     0.164 HD
ENDBRANCH  11  15
ENDBRANCH   6  11
ENDBRANCH   1   4
BRANCH   1  20
HETATM   20  N4  UNL     1       1.081   1.235  81.765  1.00  0.00    -0.061 N 
ATOM     21  H43 UNL     1       1.450   1.651  82.620  1.00  0.00     0.276 HD
ATOM     22  H42 UNL     1       0.462   0.531  82.168  1.00  0.00     0.276 HD
ATOM     23  H41 UNL     1       1.830   0.789  81.235  1.00  0.00     0.276 HD
ENDBRANCH   1  20
TORSDOF 5
ENDMDL
MODEL 2
REMARK VINA RESULT: -7.347813312      2.662      4.297
REMARK  5 active torsions:
REMARK  status: ('A' for Active; 'I' for Inactive)
REMARK    1  A    between atoms: C2_2  and  C4_4 
REMARK    2  A    between atoms: C4_4  and  N1_5 
REMARK    3  A    between atoms: C4_4  and  C6_10 
REMARK       I    between atoms: N1_5  and  C5_7 
REMARK       I    between atoms: C6_10  and  N3_12 
REMARK    4  A    between atoms: C9_16  and  C10_17 
REMARK    5  A    between atoms: C10_17  and  N4_18 
ROOT
HETATM    1  C10 UNL     1       1.863   4.905  82.133  1.00  0.00     0.312 C 
HETATM    2  C11 UNL     1       3.239   5.008  81.603  1.00  0.00     0.094 C 
HETATM    3  N5  UNL     1       4.314   5.099  81.180  1.00  0.00    -0.195 NA
ENDROOT
BRANCH   1   4
HETATM    4  C9  UNL     1       1.274   3.662  81.540  1.00  0.00     0.142 C 
HETATM    5  N3  UNL     1      -0.167   3.699  81.402  1.00  0.00    -0.333 N 
HETATM    6  C6  UNL     1      -1.117   2.680  81.647  1.00  0.00     0.244 C 
HETATM    7  C7  UNL     1      -0.489   5.059  80.893  1.00  0.00     0.200 C 
HETATM    8  O2  UNL     1      -2.331   2.993  81.395  1.00  0.00    -0.271 OA
HETATM    9  S1  UNL     1       0.740   5.119  79.523  1.00  0.00    -0.147 SA
HETATM   10  C8  UNL     1       1.763   3.681  80.059  1.00  0.00     0.104 C 
BRANCH   6  11
HETATM   11  C4  UNL     1      -0.716   1.381  82.141  1.00  0.00     0.181 C 
BRANCH  11  12
HETATM   12  C2  UNL     1       0.194   0.553  81.299  1.00  0.00     0.009 C 
HETATM   13  C1  UNL     1      -0.084  -0.904  81.727  1.00  0.00     0.012 C 
HETATM   14  C3  UNL     1      -0.062   0.568  79.822  1.00  0.00     0.012 C 
ENDBRANCH  11  12
BRANCH  11  15
HETATM   15  N1  UNL     1      -0.029   1.579  83.413  1.00  0.00    -0.332 N 
HETATM   16  C5  UNL     1      -0.495   1.142  84.655  1.00  0.00     0.329 C 
HETATM   17  N2  UNL     1       0.279   1.406  85.849  1.00  0.00    -0.040 NA
HETATM   18  O1  UNL     1      -1.552   0.513  84.899  1.00  0.00    -0.251 OA
ATOM     19  H1  UNL     1       0.861   2.076  83.394  1.00  0.00     0.164 HD
ENDBRANCH  11  15
ENDBRANCH   6  11
ENDBRANCH   1   4
BRANCH   1  20
HETATM   20  N4  UNL     1       1.943   4.900  83.568  1.00  0.00    -0.061 N 
ATOM     21  H43 UNL     1       1.012   4.982  83.976  1.00  0.00     0.276 HD
ATOM     22  H42 UNL     1       2.201   3.973  83.906  1.00  0.00     0.276 HD
ATOM     23  H41 UNL     1       2.565   5.607  83.959  1.00  0.00     0.276 HD
ENDBRANCH   1  20
TORSDOF 5
ENDMDL
MODEL 3
REMARK VINA RESULT: -6.939933061      2.399      3.987
REMARK  5 active torsions:
REMARK  status: ('A' for Active; 'I' for Inactive)
REMARK    1  A    between atoms: C2_2  and  C4_4 
REMARK    2  A    between atoms: C4_4  and  N1_5 
REMARK    3  A    between atoms: C4_4  and  C6_10 
REMARK       I    between atoms: N1_5  and  C5_7 
REMARK       I    between atoms: C6_10  and  N3_12 
REMARK    4  A    between atoms: C9_16  and  C10_17 
REMARK    5  A    between atoms: C10_17  and  N4_18 
ROOT
HETATM    1  C10 UNL     1       0.738   7.130  82.952  1.00  0.00     0.312 C 
HETATM    2  C11 UNL     1       1.494   8.030  83.848  1.00  0.00     0.094 C 
HETATM    3  N5  UNL     1       2.099   8.734  84.543  1.00  0.00    -0.195 NA
ENDROOT
BRANCH   1   4
HETATM    4  C9  UNL     1       0.468   5.884  83.738  1.00  0.00     0.142 C 
HETATM    5  N3  UNL     1      -0.318   4.897  83.027  1.00  0.00    -0.333 N 
HETATM    6  C6  UNL     1      -1.366   4.075  83.502  1.00  0.00     0.244 C 
HETATM    7  C7  UNL     1       0.225   4.868  81.642  1.00  0.00     0.200 C 
HETATM    8  O2  UNL     1      -1.853   3.259  82.645  1.00  0.00    -0.271 OA
HETATM    9  S1  UNL     1       2.012   4.740  82.070  1.00  0.00    -0.147 SA
HETATM   10  C8  UNL     1       1.864   5.197  83.850  1.00  0.00     0.104 C 
BRANCH   6  11
HETATM   11  C4  UNL     1      -1.833   4.166  84.868  1.00  0.00     0.181 C 
BRANCH  11  12
HETATM   12  C2  UNL     1      -2.967   5.087  85.169  1.00  0.00     0.009 C 
HETATM   13  C1  UNL     1      -3.444   4.681  86.581  1.00  0.00     0.012 C 
HETATM   14  C3  UNL     1      -2.632   6.543  85.288  1.00  0.00     0.012 C 
ENDBRANCH  11  12
BRANCH  11  15
HETATM   15  N1  UNL     1      -2.266   2.835  85.282  1.00  0.00    -0.332 N 
HETATM   16  C5  UNL     1      -1.442   1.861  85.848  1.00  0.00     0.329 C 
HETATM   17  N2  UNL     1      -1.992   0.572  86.211  1.00  0.00    -0.040 NA
HETATM   18  O1  UNL     1      -0.217   1.948  86.103  1.00  0.00    -0.251 OA
ATOM     19  H1  UNL     1      -3.249   2.598  85.146  1.00  0.00     0.164 HD
ENDBRANCH  11  15
ENDBRANCH   6  11
ENDBRANCH   1   4
BRANCH   1  20
HETATM   20  N4  UNL     1      -0.442   7.828  82.520  1.00  0.00    -0.061 N 
ATOM     21  H43 UNL     1      -1.160   7.794  83.243  1.00  0.00     0.276 HD
ATOM     22  H42 UNL     1      -0.270   8.834  82.492  1.00  0.00     0.276 HD
ATOM     23  H41 UNL     1      -0.820   7.508  81.628  1.00  0.00     0.276 HD
ENDBRANCH   1  20
TORSDOF 5
ENDMDL
MODEL 4
REMARK VINA RESULT: -6.939309899      2.185      2.989
REMARK  5 active torsions:
REMARK  status: ('A' for Active; 'I' for Inactive)
REMARK    1  A    between atoms: C2_2  and  C4_4 
REMARK    2  A    between atoms: C4_4  and  N1_5 
REMARK    3  A    between atoms: C4_4  and  C6_10 
REMARK       I    between atoms: N1_5  and  C5_7 
REMARK       I    between atoms: C6_10  and  N3_12 
REMARK    4  A    between atoms: C9_16  and  C10_17 
REMARK    5  A    between atoms: C10_17  and  N4_18 
ROOT
HETATM    1  C10 UNL     1       0.965   3.614  80.513  1.00  0.00     0.312 C 
HETATM    2  C11 UNL     1       2.442   3.661  80.546  1.00  0.00     0.094 C 
HETATM    3  N5  UNL     1       3.601   3.688  80.562  1.00  0.00    -0.195 NA
ENDROOT
BRANCH   1   4
HETATM    4  C9  UNL     1       0.530   3.102  81.851  1.00  0.00     0.142 C 
HETATM    5  N3  UNL     1      -0.894   3.207  82.089  1.00  0.00    -0.333 N 
HETATM    6  C6  UNL     1      -1.580   3.586  83.267  1.00  0.00     0.244 C 
HETATM    7  C7  UNL     1      -1.548   2.788  80.821  1.00  0.00     0.200 C 
HETATM    8  O2  UNL     1      -2.856   3.548  83.192  1.00  0.00    -0.271 OA
HETATM    9  S1  UNL     1      -0.600   1.234  80.545  1.00  0.00    -0.147 SA
HETATM   10  C8  UNL     1       0.751   1.560  81.756  1.00  0.00     0.104 C 
BRANCH   6  11
HETATM   11  C4  UNL     1      -0.864   3.979  84.461  1.00  0.00     0.181 C 
BRANCH  11  12
HETATM   12  C2  UNL     1      -0.888   5.415  84.861  1.00  0.00     0.009 C 
HETATM   13  C1  UNL     1      -0.119   6.151  83.742  1.00  0.00     0.012 C 
HETATM   14  C3  UNL     1      -2.231   6.078  84.896  1.00  0.00     0.012 C 
ENDBRANCH  11  12
BRANCH  11  15
HETATM   15  N1  UNL     1      -1.423   3.232  85.583  1.00  0.00    -0.332 N 
HETATM   16  C5  UNL     1      -0.894   2.050  86.106  1.00  0.00     0.329 C 
HETATM   17  N2  UNL     1      -1.547   1.399  87.222  1.00  0.00    -0.040 NA
HETATM   18  O1  UNL     1       0.131   1.435  85.726  1.00  0.00    -0.251 OA
ATOM     19  H1  UNL     1      -2.267   3.603  86.020  1.00  0.00     0.164 HD
ENDBRANCH  11  15
ENDBRANCH   6  11
ENDBRANCH   1   4
BRANCH   1  20
HETATM   20  N4  UNL     1       0.489   4.933  80.197  1.00  0.00    -0.061 N 
ATOM     21  H43 UNL     1       1.075   5.638  80.643  1.00  0.00     0.276 HD
ATOM     22  H42 UNL     1       0.670   5.151  79.217  1.00  0.00     0.276 HD
ATOM     23  H41 UNL     1      -0.493   5.093  80.422  1.00  0.00     0.276 HD
ENDBRANCH   1  20
TORSDOF 5
ENDMDL
MODEL 5
REMARK VINA RESULT: -6.924406630      2.107      3.244
REMARK  5 active torsions:
REMARK  status: ('A' for Active; 'I' for Inactive)
REMARK    1  A    between atoms: C2_2  and  C4_4 
REMARK    2  A    between atoms: C4_4  and  N1_5 
REMARK    3  A    between atoms: C4_4  and  C6_10 
REMARK       I    between atoms: N1_5  and  C5_7 
REMARK       I    between atoms: C6_10  and  N3_12 
REMARK    4  A    between atoms: C9_16  and  C10_17 
REMARK    5  A    between atoms: C10_17  and  N4_18 
ROOT
HETATM    1  C10 UNL     1       1.081   5.251  83.061  1.00  0.00     0.312 C 
HETATM    2  C11 UNL     1       2.166   4.510  82.385  1.00  0.00     0.094 C 
HETATM    3  N5  UNL     1       3.015   3.935  81.843  1.00  0.00    -0.195 NA
ENDROOT
BRANCH   1   4
HETATM    4  C9  UNL     1       0.046   4.235  83.434  1.00  0.00     0.142 C 
HETATM    5  N3  UNL     1      -1.285   4.780  83.598  1.00  0.00    -0.333 N 
HETATM    6  C6  UNL     1      -2.262   4.481  84.576  1.00  0.00     0.244 C 
HETATM    7  C7  UNL     1      -1.471   5.736  82.474  1.00  0.00     0.200 C 
HETATM    8  O2  UNL     1      -3.375   5.098  84.444  1.00  0.00    -0.271 OA
HETATM    9  S1  UNL     1      -0.902   4.640  81.108  1.00  0.00    -0.147 SA
HETATM   10  C8  UNL     1      -0.098   3.353  82.155  1.00  0.00     0.104 C 
BRANCH   6  11
HETATM   11  C4  UNL     1      -1.998   3.533  85.638  1.00  0.00     0.181 C 
BRANCH  11  12
HETATM   12  C2  UNL     1      -2.986   3.424  86.750  1.00  0.00     0.009 C 
HETATM   13  C1  UNL     1      -3.978   2.332  86.293  1.00  0.00     0.012 C 
HETATM   14  C3  UNL     1      -2.461   2.932  88.064  1.00  0.00     0.012 C 
ENDBRANCH  11  12
BRANCH  11  15
HETATM   15  N1  UNL     1      -1.906   2.206  85.039  1.00  0.00    -0.332 N 
HETATM   16  C5  UNL     1      -0.827   1.331  85.186  1.00  0.00     0.329 C 
HETATM   17  N2  UNL     1      -0.853   0.039  84.535  1.00  0.00    -0.040 NA
HETATM   18  O1  UNL     1       0.225   1.515  85.843  1.00  0.00    -0.251 OA
ATOM     19  H1  UNL     1      -2.691   1.893  84.468  1.00  0.00     0.164 HD
ENDBRANCH  11  15
ENDBRANCH   6  11
ENDBRANCH   1   4
BRANCH   1  20
HETATM   20  N4  UNL     1       1.655   5.953  84.176  1.00  0.00    -0.061 N 
ATOM     21  H43 UNL     1       1.884   6.911  83.913  1.00  0.00     0.276 HD
ATOM     22  H42 UNL     1       0.945   6.132  84.887  1.00  0.00     0.276 HD
ATOM     23  H41 UNL     1       2.466   5.495  84.592  1.00  0.00     0.276 HD
ENDBRANCH   1  20
TORSDOF 5
ENDMDL
