MODEL 1
REMARK VINA RESULT: -7.177927862      0.000      0.000
REMARK  6 active torsions:
REMARK  status: ('A' for Active; 'I' for Inactive)
REMARK    1  A    between atoms: N2_3  and  C2_5 
REMARK    2  A    between atoms: C2_5  and  C4_8 
REMARK    3  A    between atoms: N4_11  and  C7_12 
REMARK    4  A    between atoms: C7_12  and  C8_13 
REMARK    5  A    between atoms: C13_18  and  O1_19 
REMARK    6  A    between atoms: C14_21  and  O2_22 
ROOT
HETATM    1  N1  UNL     1      -3.304   1.018  87.071  1.00  0.00    -0.172 NA
HETATM    2  C1  UNL     1      -2.994   1.942  86.448  1.00  0.00     0.178 C 
HETATM    3  N2  UNL     1      -2.617   3.050  85.713  1.00  0.00    -0.310 N 
ATOM      4  H2  UNL     1      -3.304   3.559  85.157  1.00  0.00     0.173 HD
ENDROOT
BRANCH   3   5
HETATM    5  C2  UNL     1      -1.249   3.476  85.740  1.00  0.00     0.212 C 
HETATM    6  C3  UNL     1      -0.400   2.284  85.683  1.00  0.00     0.086 C 
HETATM    7  N3  UNL     1       0.257   1.332  85.646  1.00  0.00    -0.195 NA
BRANCH   5   8
HETATM    8  C4  UNL     1      -0.899   4.467  84.666  1.00  0.00     0.057 A 
HETATM    9  C5  UNL     1       0.537   4.777  84.469  1.00  0.00     0.048 C 
HETATM   10  C6  UNL     1       0.877   4.371  83.049  1.00  0.00     0.274 C 
HETATM   11  N4  UNL     1      -0.380   4.305  82.354  1.00  0.00     0.097 N 
HETATM   12  C12 UNL     1      -1.425   4.187  83.307  1.00  0.00     0.268 A 
HETATM   13  C13 UNL     1      -2.266   5.459  83.328  1.00  0.00     0.182 A 
HETATM   14  C14 UNL     1      -1.819   5.664  84.759  1.00  0.00     0.162 A 
BRANCH  11  15
HETATM   15  C7  UNL     1      -0.406   3.301  81.319  1.00  0.00     0.277 C 
BRANCH  15  16
HETATM   16  C8  UNL     1       0.226   2.039  81.856  1.00  0.00     0.014 C 
HETATM   17  C9  UNL     1       1.082   1.364  80.784  1.00  0.00     0.006 C 
HETATM   18  C10 UNL     1      -0.166   0.583  80.385  1.00  0.00     0.001 C 
HETATM   19  C11 UNL     1      -0.683   0.816  81.784  1.00  0.00     0.006 C 
ENDBRANCH  15  16
ENDBRANCH  11  15
BRANCH  13  20
HETATM   20  O1  UNL     1      -1.785   6.486  82.535  1.00  0.00    -0.391 OA
ATOM     21  H1  UNL     1      -2.237   6.597  81.707  1.00  0.00     0.210 HD
ENDBRANCH  13  20
BRANCH  14  22
HETATM   22  O2  UNL     1      -1.173   6.870  85.006  1.00  0.00    -0.392 OA
ATOM     23  H2  UNL     1      -1.686   7.642  84.798  1.00  0.00     0.210 HD
ENDBRANCH  14  22
ENDBRANCH   5   8
ENDBRANCH   3   5
TORSDOF 6
ENDMDL
MODEL 2
REMARK VINA RESULT: -6.847704353      2.408      4.497
REMARK  6 active torsions:
REMARK  status: ('A' for Active; 'I' for Inactive)
REMARK    1  A    between atoms: N2_3  and  C2_5 
REMARK    2  A    between atoms: C2_5  and  C4_8 
REMARK    3  A    between atoms: N4_11  and  C7_12 
REMARK    4  A    between atoms: C7_12  and  C8_13 
REMARK    5  A    between atoms: C13_18  and  O1_19 
REMARK    6  A    between atoms: C14_21  and  O2_22 
ROOT
HETATM    1  N1  UNL     1      -2.852   0.763  87.120  1.00  0.00    -0.172 NA
HETATM    2  C1  UNL     1      -2.742   1.768  86.556  1.00  0.00     0.178 C 
HETATM    3  N2  UNL     1      -2.601   2.971  85.890  1.00  0.00    -0.310 N 
ATOM      4  H2  UNL     1      -3.424   3.491  85.585  1.00  0.00     0.173 HD
ENDROOT
BRANCH   3   5
HETATM    5  C2  UNL     1      -1.287   3.480  85.634  1.00  0.00     0.212 C 
HETATM    6  C3  UNL     1      -0.352   2.354  85.646  1.00  0.00     0.086 C 
HETATM    7  N3  UNL     1       0.375   1.454  85.666  1.00  0.00    -0.195 NA
BRANCH   5   8
HETATM    8  C4  UNL     1      -1.183   4.284  84.369  1.00  0.00     0.057 A 
HETATM    9  C5  UNL     1      -2.099   5.440  84.221  1.00  0.00     0.048 C 
HETATM   10  C6  UNL     1      -1.225   6.673  84.094  1.00  0.00     0.274 C 
HETATM   11  N4  UNL     1       0.071   6.188  83.701  1.00  0.00     0.097 N 
HETATM   12  C12 UNL     1       0.162   4.809  84.023  1.00  0.00     0.268 A 
HETATM   13  C13 UNL     1       0.203   3.972  82.749  1.00  0.00     0.182 A 
HETATM   14  C14 UNL     1      -1.109   3.353  83.179  1.00  0.00     0.162 A 
BRANCH  11  15
HETATM   15  C7  UNL     1       1.156   6.987  84.214  1.00  0.00     0.277 C 
BRANCH  15  16
HETATM   16  C8  UNL     1       0.678   8.412  84.362  1.00  0.00     0.014 C 
HETATM   17  C9  UNL     1       1.326   9.312  83.310  1.00  0.00     0.006 C 
HETATM   18  C10 UNL     1       2.438   9.568  84.320  1.00  0.00     0.001 C 
HETATM   19  C11 UNL     1       1.449   9.215  85.405  1.00  0.00     0.006 C 
ENDBRANCH  15  16
ENDBRANCH  11  15
BRANCH  13  20
HETATM   20  O1  UNL     1       0.022   4.687  81.578  1.00  0.00    -0.391 OA
ATOM     21  H1  UNL     1       0.809   4.813  81.061  1.00  0.00     0.210 HD
ENDBRANCH  13  20
BRANCH  14  22
HETATM   22  O2  UNL     1      -2.152   3.495  82.270  1.00  0.00    -0.392 OA
ATOM     23  H2  UNL     1      -2.430   4.392  82.126  1.00  0.00     0.210 HD
ENDBRANCH  14  22
ENDBRANCH   5   8
ENDBRANCH   3   5
TORSDOF 6
ENDMDL
MODEL 3
REMARK VINA RESULT: -6.836325975      2.387      5.237
REMARK  6 active torsions:
REMARK  status: ('A' for Active; 'I' for Inactive)
REMARK    1  A    between atoms: N2_3  and  C2_5 
REMARK    2  A    between atoms: C2_5  and  C4_8 
REMARK    3  A    between atoms: N4_11  and  C7_12 
REMARK    4  A    between atoms: C7_12  and  C8_13 
REMARK    5  A    between atoms: C13_18  and  O1_19 
REMARK    6  A    between atoms: C14_21  and  O2_22 
ROOT
HETATM    1  N1  UNL     1      -1.926   8.418  81.120  1.00  0.00    -0.172 NA
HETATM    2  C1  UNL     1      -1.431   7.413  81.408  1.00  0.00     0.178 C 
HETATM    3  N2  UNL     1      -0.835   6.217  81.762  1.00  0.00    -0.310 N 
ATOM      4  H2  UNL     1      -0.466   5.592  81.045  1.00  0.00     0.173 HD
ENDROOT
BRANCH   3   5
HETATM    5  C2  UNL     1      -0.740   5.865  83.148  1.00  0.00     0.212 C 
HETATM    6  C3  UNL     1      -2.092   5.858  83.709  1.00  0.00     0.086 C 
HETATM    7  N3  UNL     1      -3.166   5.865  84.140  1.00  0.00    -0.195 NA
BRANCH   5   8
HETATM    8  C4  UNL     1      -0.021   4.568  83.397  1.00  0.00     0.057 A 
HETATM    9  C5  UNL     1       0.816   4.480  84.617  1.00  0.00     0.048 C 
HETATM   10  C6  UNL     1       0.235   3.362  85.461  1.00  0.00     0.274 C 
HETATM   11  N4  UNL     1      -0.551   2.566  84.558  1.00  0.00     0.097 N 
HETATM   12  C12 UNL     1      -0.853   3.339  83.407  1.00  0.00     0.268 A 
HETATM   13  C13 UNL     1      -0.116   2.785  82.193  1.00  0.00     0.182 A 
HETATM   14  C14 UNL     1       0.635   4.096  82.119  1.00  0.00     0.162 A 
BRANCH  11  15
HETATM   15  C7  UNL     1      -1.703   1.965  85.186  1.00  0.00     0.277 C 
BRANCH  15  16
HETATM   16  C8  UNL     1      -1.983   2.694  86.478  1.00  0.00     0.014 C 
HETATM   17  C9  UNL     1      -2.398   1.712  87.574  1.00  0.00     0.006 C 
HETATM   18  C10 UNL     1      -3.838   1.933  87.124  1.00  0.00     0.001 C 
HETATM   19  C11 UNL     1      -3.394   3.266  86.570  1.00  0.00     0.006 C 
ENDBRANCH  15  16
ENDBRANCH  11  15
BRANCH  13  20
HETATM   20  O1  UNL     1       0.766   1.754  82.467  1.00  0.00    -0.391 OA
ATOM     21  H1  UNL     1       0.609   0.954  81.980  1.00  0.00     0.210 HD
ENDBRANCH  13  20
BRANCH  14  22
HETATM   22  O2  UNL     1       2.019   3.985  82.188  1.00  0.00    -0.392 OA
ATOM     23  H2  UNL     1       2.478   4.813  82.262  1.00  0.00     0.210 HD
ENDBRANCH  14  22
ENDBRANCH   5   8
ENDBRANCH   3   5
TORSDOF 6
ENDMDL
MODEL 4
REMARK VINA RESULT: -6.824734443      2.308      3.249
REMARK  6 active torsions:
REMARK  status: ('A' for Active; 'I' for Inactive)
REMARK    1  A    between atoms: N2_3  and  C2_5 
REMARK    2  A    between atoms: C2_5  and  C4_8 
REMARK    3  A    between atoms: N4_11  and  C7_12 
REMARK    4  A    between atoms: C7_12  and  C8_13 
REMARK    5  A    between atoms: C13_18  and  O1_19 
REMARK    6  A    between atoms: C14_21  and  O2_22 
ROOT
HETATM    1  N1  UNL     1      -2.649   0.654  86.909  1.00  0.00    -0.172 NA
HETATM    2  C1  UNL     1      -2.513   1.746  86.550  1.00  0.00     0.178 C 
HETATM    3  N2  UNL     1      -2.341   3.046  86.113  1.00  0.00    -0.310 N 
ATOM      4  H2  UNL     1      -2.353   3.820  86.778  1.00  0.00     0.173 HD
ENDROOT
BRANCH   3   5
HETATM    5  C2  UNL     1      -2.145   3.295  84.716  1.00  0.00     0.212 C 
HETATM    6  C3  UNL     1      -2.731   4.599  84.399  1.00  0.00     0.086 C 
HETATM    7  N3  UNL     1      -3.206   5.628  84.164  1.00  0.00    -0.195 NA
BRANCH   5   8
HETATM    8  C4  UNL     1      -0.711   3.202  84.277  1.00  0.00     0.057 A 
HETATM    9  C5  UNL     1      -0.277   1.938  83.636  1.00  0.00     0.048 C 
HETATM   10  C6  UNL     1       0.185   2.298  82.237  1.00  0.00     0.274 C 
HETATM   11  N4  UNL     1       0.456   3.709  82.272  1.00  0.00     0.097 N 
HETATM   12  C12 UNL     1      -0.217   4.279  83.383  1.00  0.00     0.268 A 
HETATM   13  C13 UNL     1       0.791   4.739  84.430  1.00  0.00     0.182 A 
HETATM   14  C14 UNL     1       0.192   3.721  85.375  1.00  0.00     0.162 A 
BRANCH  11  15
HETATM   15  C7  UNL     1       0.190   4.370  81.017  1.00  0.00     0.277 C 
BRANCH  15  16
HETATM   16  C8  UNL     1       1.381   5.226  80.661  1.00  0.00     0.014 C 
HETATM   17  C9  UNL     1       1.522   5.354  79.143  1.00  0.00     0.006 C 
HETATM   18  C10 UNL     1       2.412   4.117  79.197  1.00  0.00     0.001 C 
HETATM   19  C11 UNL     1       2.702   4.465  80.637  1.00  0.00     0.006 C 
ENDBRANCH  15  16
ENDBRANCH  11  15
BRANCH  13  20
HETATM   20  O1  UNL     1       2.106   4.408  84.156  1.00  0.00    -0.391 OA
ATOM     21  H1  UNL     1       2.641   4.230  84.920  1.00  0.00     0.210 HD
ENDBRANCH  13  20
BRANCH  14  22
HETATM   22  O2  UNL     1       1.090   2.783  85.874  1.00  0.00    -0.392 OA
ATOM     23  H2  UNL     1       0.750   2.251  86.584  1.00  0.00     0.210 HD
ENDBRANCH  14  22
ENDBRANCH   5   8
ENDBRANCH   3   5
TORSDOF 6
ENDMDL
MODEL 5
REMARK VINA RESULT: -6.773347205      2.488      4.792
REMARK  6 active torsions:
REMARK  status: ('A' for Active; 'I' for Inactive)
REMARK    1  A    between atoms: N2_3  and  C2_5 
REMARK    2  A    between atoms: C2_5  and  C4_8 
REMARK    3  A    between atoms: N4_11  and  C7_12 
REMARK    4  A    between atoms: C7_12  and  C8_13 
REMARK    5  A    between atoms: C13_18  and  O1_19 
REMARK    6  A    between atoms: C14_21  and  O2_22 
ROOT
HETATM    1  N1  UNL     1      -3.538   6.273  83.825  1.00  0.00    -0.172 NA
HETATM    2  C1  UNL     1      -2.444   6.325  84.200  1.00  0.00     0.178 C 
HETATM    3  N2  UNL     1      -1.135   6.377  84.641  1.00  0.00    -0.310 N 
ATOM      4  H2  UNL     1      -0.927   6.588  85.617  1.00  0.00     0.173 HD
ENDROOT
BRANCH   3   5
HETATM    5  C2  UNL     1      -0.073   6.131  83.711  1.00  0.00     0.212 C 
HETATM    6  C3  UNL     1       0.977   7.123  83.948  1.00  0.00     0.086 C 
HETATM    7  N3  UNL     1       1.795   7.919  84.142  1.00  0.00    -0.195 NA
BRANCH   5   8
HETATM    8  C4  UNL     1       0.460   4.727  83.755  1.00  0.00     0.057 A 
HETATM    9  C5  UNL     1       1.212   4.323  84.966  1.00  0.00     0.048 C 
HETATM   10  C6  UNL     1       0.449   3.168  85.586  1.00  0.00     0.274 C 
HETATM   11  N4  UNL     1      -0.383   2.648  84.535  1.00  0.00     0.097 N 
HETATM   12  C12 UNL     1      -0.521   3.636  83.526  1.00  0.00     0.268 A 
HETATM   13  C13 UNL     1       0.203   3.199  82.257  1.00  0.00     0.182 A 
HETATM   14  C14 UNL     1       1.118   4.391  82.435  1.00  0.00     0.162 A 
BRANCH  11  15
HETATM   15  C7  UNL     1      -1.634   2.112  85.013  1.00  0.00     0.277 C 
BRANCH  15  16
HETATM   16  C8  UNL     1      -1.912   2.683  86.383  1.00  0.00     0.014 C 
HETATM   17  C9  UNL     1      -2.488   1.612  87.309  1.00  0.00     0.006 C 
HETATM   18  C10 UNL     1      -3.869   2.049  86.834  1.00  0.00     0.001 C 
HETATM   19  C11 UNL     1      -3.260   3.389  86.495  1.00  0.00     0.006 C 
ENDBRANCH  15  16
ENDBRANCH  11  15
BRANCH  13  20
HETATM   20  O1  UNL     1       0.929   2.028  82.377  1.00  0.00    -0.391 OA
ATOM     21  H1  UNL     1       1.275   1.686  81.561  1.00  0.00     0.210 HD
ENDBRANCH  13  20
BRANCH  14  22
HETATM   22  O2  UNL     1       2.471   4.084  82.527  1.00  0.00    -0.392 OA
ATOM     23  H2  UNL     1       2.737   3.320  82.028  1.00  0.00     0.210 HD
ENDBRANCH  14  22
ENDBRANCH   5   8
ENDBRANCH   3   5
TORSDOF 6
ENDMDL
