MODEL 1
REMARK VINA RESULT: -6.522736555      0.000      0.000
REMARK  5 active torsions:
REMARK  status: ('A' for Active; 'I' for Inactive)
REMARK    1  A    between atoms: C3_4  and  C4_5 
REMARK       I    between atoms: C4_5  and  N1_7 
REMARK    2  A    between atoms: N1_7  and  C5_9 
REMARK    3  A    between atoms: C5_9  and  C6_10 
REMARK    4  A    between atoms: C7_12  and  O2_13 
REMARK    5  A    between atoms: C8_15  and  N2_16 
ROOT
HETATM    1  C1  UNL     1     -24.874 -11.468  55.666  1.00  0.00     0.059 C 
HETATM    2  C2  UNL     1     -25.640 -10.866  54.540  1.00  0.00     0.009 A 
HETATM    3  S1  UNL     1     -24.903 -10.069  53.222  1.00  0.00    -0.084 SA
HETATM    4  C3  UNL     1     -26.298  -9.630  52.343  1.00  0.00     0.108 A 
HETATM    5  C7  UNL     1     -27.308 -10.118  53.100  1.00  0.00     0.116 A 
HETATM    6  C8  UNL     1     -26.971 -10.770  54.258  1.00  0.00     0.078 A 
ENDROOT
BRANCH   6   7
HETATM    7  N2  UNL     1     -27.992 -11.352  55.140  1.00  0.00    -0.375 N 
HETATM    8  C9  UNL     1     -28.742 -10.613  56.132  1.00  0.00     0.131 C 
HETATM    9  C10 UNL     1     -29.638 -11.577  56.815  1.00  0.00     0.051 C 
HETATM   10  C11 UNL     1     -31.093 -11.080  56.767  1.00  0.00     0.129 C 
HETATM   11  C13 UNL     1     -29.786 -12.715  55.795  1.00  0.00     0.170 C 
HETATM   12  N3  UNL     1     -31.314 -11.175  55.334  1.00  0.00    -0.200 NA
HETATM   13  C12 UNL     1     -32.686 -11.021  54.960  1.00  0.00     0.143 C 
HETATM   14  O3  UNL     1     -30.747 -12.303  54.912  1.00  0.00    -0.296 OA
HETATM   15  C14 UNL     1     -28.429 -12.708  55.183  1.00  0.00     0.157 C 
ENDBRANCH   6   7
BRANCH   5  16
HETATM   16  O2  UNL     1     -28.655  -9.945  52.685  1.00  0.00    -0.357 OA
ATOM     17  H2  UNL     1     -28.951  -9.098  52.372  1.00  0.00     0.217 HD
ENDBRANCH   5  16
BRANCH   4  18
HETATM   18  C4  UNL     1     -26.268  -8.900  51.080  1.00  0.00     0.261 C 
HETATM   19  O1  UNL     1     -25.207  -8.536  50.544  1.00  0.00    -0.267 OA
HETATM   20  N1  UNL     1     -27.510  -8.589  50.429  1.00  0.00    -0.355 N 
ATOM     21  H1  UNL     1     -28.382  -8.890  50.864  1.00  0.00     0.162 HD
BRANCH  20  22
HETATM   22  C5  UNL     1     -27.569  -7.869  49.189  1.00  0.00     0.137 C 
BRANCH  22  23
HETATM   23  C6  UNL     1     -28.967  -7.781  48.686  1.00  0.00     0.134 C 
HETATM   24 CL1  UNL     1     -29.501  -9.437  48.260  1.00  0.00    -0.129 Cl
ENDBRANCH  22  23
ENDBRANCH  20  22
ENDBRANCH   4  18
TORSDOF 5
ENDMDL
MODEL 2
REMARK VINA RESULT: -6.510387667      6.452      8.928
REMARK  5 active torsions:
REMARK  status: ('A' for Active; 'I' for Inactive)
REMARK    1  A    between atoms: C3_4  and  C4_5 
REMARK       I    between atoms: C4_5  and  N1_7 
REMARK    2  A    between atoms: N1_7  and  C5_9 
REMARK    3  A    between atoms: C5_9  and  C6_10 
REMARK    4  A    between atoms: C7_12  and  O2_13 
REMARK    5  A    between atoms: C8_15  and  N2_16 
ROOT
HETATM    1  C1  UNL     1     -23.506  -9.813  55.592  1.00  0.00     0.059 C 
HETATM    2  C2  UNL     1     -22.102 -10.003  55.133  1.00  0.00     0.009 A 
HETATM    3  S1  UNL     1     -20.815 -10.391  56.186  1.00  0.00    -0.084 SA
HETATM    4  C3  UNL     1     -19.537 -10.449  55.056  1.00  0.00     0.108 A 
HETATM    5  C7  UNL     1     -20.147 -10.164  53.882  1.00  0.00     0.116 A 
HETATM    6  C8  UNL     1     -21.497  -9.928  53.914  1.00  0.00     0.078 A 
ENDROOT
BRANCH   6   7
HETATM    7  N2  UNL     1     -22.255  -9.628  52.691  1.00  0.00    -0.375 N 
HETATM    8  C9  UNL     1     -22.664 -10.613  51.713  1.00  0.00     0.131 C 
HETATM    9  C10 UNL     1     -23.374  -9.889  50.631  1.00  0.00     0.051 C 
HETATM   10  C11 UNL     1     -24.761 -10.511  50.394  1.00  0.00     0.129 C 
HETATM   11  C13 UNL     1     -23.852  -8.600  51.314  1.00  0.00     0.170 C 
HETATM   12  N3  UNL     1     -25.379 -10.171  51.664  1.00  0.00    -0.200 NA
HETATM   13  C12 UNL     1     -26.793 -10.388  51.685  1.00  0.00     0.143 C 
HETATM   14  O3  UNL     1     -25.003  -8.933  51.977  1.00  0.00    -0.296 OA
HETATM   15  C14 UNL     1     -22.722  -8.355  52.252  1.00  0.00     0.157 C 
ENDBRANCH   6   7
BRANCH   5  16
HETATM   16  O2  UNL     1     -19.391 -10.117  52.681  1.00  0.00    -0.357 OA
ATOM     17  H2  UNL     1     -19.754 -10.468  51.877  1.00  0.00     0.217 HD
ENDBRANCH   5  16
BRANCH   4  18
HETATM   18  C4  UNL     1     -18.154 -10.749  55.409  1.00  0.00     0.261 C 
HETATM   19  O1  UNL     1     -17.846 -11.363  56.445  1.00  0.00    -0.267 OA
HETATM   20  N1  UNL     1     -17.104 -10.319  54.527  1.00  0.00    -0.355 N 
ATOM     21  H1  UNL     1     -17.353  -9.819  53.674  1.00  0.00     0.162 HD
BRANCH  20  22
HETATM   22  C5  UNL     1     -15.718 -10.568  54.801  1.00  0.00     0.137 C 
BRANCH  22  23
HETATM   23  C6  UNL     1     -15.232 -11.768  54.068  1.00  0.00     0.134 C 
HETATM   24 CL1  UNL     1     -15.326 -11.414  52.314  1.00  0.00    -0.129 Cl
ENDBRANCH  22  23
ENDBRANCH  20  22
ENDBRANCH   4  18
TORSDOF 5
ENDMDL
MODEL 3
REMARK VINA RESULT: -6.473840516      3.687      4.314
REMARK  5 active torsions:
REMARK  status: ('A' for Active; 'I' for Inactive)
REMARK    1  A    between atoms: C3_4  and  C4_5 
REMARK       I    between atoms: C4_5  and  N1_7 
REMARK    2  A    between atoms: N1_7  and  C5_9 
REMARK    3  A    between atoms: C5_9  and  C6_10 
REMARK    4  A    between atoms: C7_12  and  O2_13 
REMARK    5  A    between atoms: C8_15  and  N2_16 
ROOT
HETATM    1  C1  UNL     1     -20.702 -10.311  53.778  1.00  0.00     0.059 C 
HETATM    2  C2  UNL     1     -22.034  -9.998  53.190  1.00  0.00     0.009 A 
HETATM    3  S1  UNL     1     -22.263  -9.587  51.549  1.00  0.00    -0.084 SA
HETATM    4  C3  UNL     1     -23.953  -9.351  51.552  1.00  0.00     0.108 A 
HETATM    5  C7  UNL     1     -24.299  -9.600  52.836  1.00  0.00     0.116 A 
HETATM    6  C8  UNL     1     -23.295  -9.941  53.705  1.00  0.00     0.078 A 
ENDROOT
BRANCH   6   7
HETATM    7  N2  UNL     1     -23.569 -10.249  55.116  1.00  0.00    -0.375 N 
HETATM    8  C9  UNL     1     -23.256  -9.375  56.226  1.00  0.00     0.131 C 
HETATM    9  C10 UNL     1     -23.668 -10.075  57.466  1.00  0.00     0.051 C 
HETATM   10  C11 UNL     1     -24.604  -9.181  58.298  1.00  0.00     0.129 C 
HETATM   11  C13 UNL     1     -24.729 -11.072  56.982  1.00  0.00     0.170 C 
HETATM   12  N3  UNL     1     -25.738  -9.139  57.390  1.00  0.00    -0.200 NA
HETATM   13  C12 UNL     1     -26.916  -8.581  57.979  1.00  0.00     0.143 C 
HETATM   14  O3  UNL     1     -25.895 -10.360  56.884  1.00  0.00    -0.296 OA
HETATM   15  C14 UNL     1     -24.180 -11.424  55.644  1.00  0.00     0.157 C 
ENDBRANCH   6   7
BRANCH   5  16
HETATM   16  O2  UNL     1     -25.658  -9.503  53.238  1.00  0.00    -0.357 OA
ATOM     17  H2  UNL     1     -25.874  -9.375  54.154  1.00  0.00     0.217 HD
ENDBRANCH   5  16
BRANCH   4  18
HETATM   18  C4  UNL     1     -24.723  -8.972  50.372  1.00  0.00     0.261 C 
HETATM   19  O1  UNL     1     -24.275  -9.081  49.218  1.00  0.00    -0.267 OA
HETATM   20  N1  UNL     1     -26.051  -8.451  50.548  1.00  0.00    -0.355 N 
ATOM     21  H1  UNL     1     -26.423  -8.364  51.494  1.00  0.00     0.162 HD
BRANCH  20  22
HETATM   22  C5  UNL     1     -26.873  -8.049  49.444  1.00  0.00     0.137 C 
BRANCH  22  23
HETATM   23  C6  UNL     1     -28.273  -8.519  49.617  1.00  0.00     0.134 C 
HETATM   24 CL1  UNL     1     -29.335  -7.444  48.653  1.00  0.00    -0.129 Cl
ENDBRANCH  22  23
ENDBRANCH  20  22
ENDBRANCH   4  18
TORSDOF 5
ENDMDL
MODEL 4
REMARK VINA RESULT: -6.446600834      2.971      6.703
REMARK  5 active torsions:
REMARK  status: ('A' for Active; 'I' for Inactive)
REMARK    1  A    between atoms: C3_4  and  C4_5 
REMARK       I    between atoms: C4_5  and  N1_7 
REMARK    2  A    between atoms: N1_7  and  C5_9 
REMARK    3  A    between atoms: C5_9  and  C6_10 
REMARK    4  A    between atoms: C7_12  and  O2_13 
REMARK    5  A    between atoms: C8_15  and  N2_16 
ROOT
HETATM    1  C1  UNL     1     -24.464 -11.392  54.938  1.00  0.00     0.059 C 
HETATM    2  C2  UNL     1     -25.922 -11.158  54.742  1.00  0.00     0.009 A 
HETATM    3  S1  UNL     1     -27.105 -11.581  55.899  1.00  0.00    -0.084 SA
HETATM    4  C3  UNL     1     -28.505 -11.069  55.068  1.00  0.00     0.108 A 
HETATM    5  C7  UNL     1     -28.015 -10.579  53.906  1.00  0.00     0.116 A 
HETATM    6  C8  UNL     1     -26.656 -10.622  53.726  1.00  0.00     0.078 A 
ENDROOT
BRANCH   6   7
HETATM    7  N2  UNL     1     -26.024 -10.098  52.508  1.00  0.00    -0.375 N 
HETATM    8  C9  UNL     1     -25.314  -8.840  52.423  1.00  0.00     0.131 C 
HETATM    9  C10 UNL     1     -24.863  -8.683  51.019  1.00  0.00     0.051 C 
HETATM   10  C11 UNL     1     -23.348  -8.420  50.971  1.00  0.00     0.129 C 
HETATM   11  C13 UNL     1     -24.829 -10.123  50.489  1.00  0.00     0.170 C 
HETATM   12  N3  UNL     1     -22.883  -9.703  51.467  1.00  0.00    -0.200 NA
HETATM   13  C12 UNL     1     -21.474  -9.895  51.310  1.00  0.00     0.143 C 
HETATM   14  O3  UNL     1     -23.637 -10.649  50.912  1.00  0.00    -0.296 OA
HETATM   15  C14 UNL     1     -25.985 -10.709  51.220  1.00  0.00     0.157 C 
ENDBRANCH   6   7
BRANCH   5  16
HETATM   16  O2  UNL     1     -28.899 -10.048  52.930  1.00  0.00    -0.357 OA
ATOM     17  H2  UNL     1     -28.711  -9.211  52.523  1.00  0.00     0.217 HD
ENDBRANCH   5  16
BRANCH   4  18
HETATM   18  C4  UNL     1     -29.857 -11.191  55.603  1.00  0.00     0.261 C 
HETATM   19  O1  UNL     1     -30.086 -11.593  56.756  1.00  0.00    -0.267 OA
HETATM   20  N1  UNL     1     -30.968 -10.831  54.766  1.00  0.00    -0.355 N 
ATOM     21  H1  UNL     1     -30.784 -10.496  53.821  1.00  0.00     0.162 HD
BRANCH  20  22
HETATM   22  C5  UNL     1     -32.329 -10.926  55.211  1.00  0.00     0.137 C 
BRANCH  22  23
HETATM   23  C6  UNL     1     -33.062 -11.989  54.472  1.00  0.00     0.134 C 
HETATM   24 CL1  UNL     1     -33.504 -13.268  55.648  1.00  0.00    -0.129 Cl
ENDBRANCH  22  23
ENDBRANCH  20  22
ENDBRANCH   4  18
TORSDOF 5
ENDMDL
MODEL 5
REMARK VINA RESULT: -6.416646982      4.117      5.773
REMARK  5 active torsions:
REMARK  status: ('A' for Active; 'I' for Inactive)
REMARK    1  A    between atoms: C3_4  and  C4_5 
REMARK       I    between atoms: C4_5  and  N1_7 
REMARK    2  A    between atoms: N1_7  and  C5_9 
REMARK    3  A    between atoms: C5_9  and  C6_10 
REMARK    4  A    between atoms: C7_12  and  O2_13 
REMARK    5  A    between atoms: C8_15  and  N2_16 
ROOT
HETATM    1  C1  UNL     1     -26.146  -8.289  50.026  1.00  0.00     0.059 C 
HETATM    2  C2  UNL     1     -25.131  -8.894  50.933  1.00  0.00     0.009 A 
HETATM    3  S1  UNL     1     -23.466  -8.969  50.561  1.00  0.00    -0.084 SA
HETATM    4  C3  UNL     1     -22.901  -9.760  51.963  1.00  0.00     0.108 A 
HETATM    5  C7  UNL     1     -24.027  -9.947  52.690  1.00  0.00     0.116 A 
HETATM    6  C8  UNL     1     -25.206  -9.493  52.155  1.00  0.00     0.078 A 
ENDROOT
BRANCH   6   7
HETATM    7  N2  UNL     1     -26.481  -9.631  52.873  1.00  0.00    -0.375 N 
HETATM    8  C9  UNL     1     -27.523 -10.574  52.529  1.00  0.00     0.131 C 
HETATM    9  C10 UNL     1     -28.639 -10.362  53.481  1.00  0.00     0.051 C 
HETATM   10  C11 UNL     1     -29.018 -11.688  54.163  1.00  0.00     0.129 C 
HETATM   11  C13 UNL     1     -27.961  -9.706  54.692  1.00  0.00     0.170 C 
HETATM   12  N3  UNL     1     -27.798 -11.907  54.920  1.00  0.00    -0.200 NA
HETATM   13  C12 UNL     1     -27.910 -12.954  55.888  1.00  0.00     0.143 C 
HETATM   14  O3  UNL     1     -27.413 -10.733  55.415  1.00  0.00    -0.296 OA
HETATM   15  C14 UNL     1     -26.919  -8.891  54.010  1.00  0.00     0.157 C 
ENDBRANCH   6   7
BRANCH   5  16
HETATM   16  O2  UNL     1     -23.960 -10.591  53.953  1.00  0.00    -0.357 OA
ATOM     17  H2  UNL     1     -24.207 -10.120  54.741  1.00  0.00     0.217 HD
ENDBRANCH   5  16
BRANCH   4  18
HETATM   18  C4  UNL     1     -21.501 -10.098  52.198  1.00  0.00     0.261 C 
HETATM   19  O1  UNL     1     -20.729 -10.420  51.279  1.00  0.00    -0.267 OA
HETATM   20  N1  UNL     1     -20.994 -10.057  53.541  1.00  0.00    -0.355 N 
ATOM     21  H1  UNL     1     -21.624  -9.790  54.297  1.00  0.00     0.162 HD
BRANCH  20  22
HETATM   22  C5  UNL     1     -19.633 -10.380  53.860  1.00  0.00     0.137 C 
BRANCH  22  23
HETATM   23  C6  UNL     1     -19.473 -10.657  55.313  1.00  0.00     0.134 C 
HETATM   24 CL1  UNL     1     -21.096 -10.570  56.069  1.00  0.00    -0.129 Cl
ENDBRANCH  22  23
ENDBRANCH  20  22
ENDBRANCH   4  18
TORSDOF 5
ENDMDL
