MODEL 1
REMARK VINA RESULT: -6.705370299      0.000      0.000
REMARK  5 active torsions:
REMARK  status: ('A' for Active; 'I' for Inactive)
REMARK    1  A    between atoms: C2_2  and  C3_3 
REMARK    2  A    between atoms: C5_6  and  N1_7 
REMARK    3  A    between atoms: N2_10  and  C6_11 
REMARK    4  A    between atoms: C6_11  and  C7_12 
REMARK    5  A    between atoms: N3_16  and  C9_17 
ROOT
HETATM    1  C3  UNL     1     -25.802  -9.414  52.381  1.00  0.00     0.042 A 
HETATM    2  C4  UNL     1     -24.638  -9.273  51.620  1.00  0.00     0.100 A 
HETATM    3 CL1  UNL     1     -24.635  -8.427  50.086  1.00  0.00    -0.078 Cl
HETATM    4  C5  UNL     1     -23.466  -9.817  52.098  1.00  0.00     0.129 A 
HETATM    5  N2  UNL     1     -23.470 -10.466  53.274  1.00  0.00    -0.283 N 
HETATM    6  C8  UNL     1     -24.596 -10.594  53.995  1.00  0.00     0.331 A 
HETATM    7  O1  UNL     1     -24.513 -11.213  55.082  1.00  0.00    -0.246 OA
HETATM    8  N3  UNL     1     -25.786 -10.079  53.576  1.00  0.00    -0.296 N 
ENDROOT
BRANCH   8   9
HETATM    9  C9  UNL     1     -26.987 -10.212  54.322  1.00  0.00     0.103 C 
HETATM   10  C10 UNL     1     -27.155  -9.051  55.254  1.00  0.00     0.029 C 
HETATM   11  C11 UNL     1     -26.912  -9.581  56.649  1.00  0.00     0.034 C 
HETATM   12  C12 UNL     1     -27.213 -11.067  56.578  1.00  0.00     0.130 C 
HETATM   13  O2  UNL     1     -28.561 -11.285  56.675  1.00  0.00    -0.380 OA
HETATM   14  C15 UNL     1     -27.125 -11.459  55.143  1.00  0.00     0.067 C 
HETATM   15  C13 UNL     1     -28.523 -11.912  55.436  1.00  0.00     0.126 C 
HETATM   16  C14 UNL     1     -29.632 -11.439  54.571  1.00  0.00     0.040 C 
ENDBRANCH   8   9
BRANCH   1  17
HETATM   17  C2  UNL     1     -27.002  -8.801  51.798  1.00  0.00     0.055 C 
HETATM   18  C1  UNL     1     -27.725  -9.778  50.865  1.00  0.00     0.011 C 
ENDBRANCH   1  17
BRANCH   5  19
HETATM   19  C6  UNL     1     -22.261 -11.032  53.778  1.00  0.00     0.146 C 
BRANCH  19  20
HETATM   20  C7  UNL     1     -21.452 -10.041  54.595  1.00  0.00     0.106 C 
HETATM   21  S1  UNL     1     -19.677 -10.267  54.297  1.00  0.00    -0.096 SA
ENDBRANCH  19  20
ENDBRANCH   5  19
BRANCH   4  22
HETATM   22  N1  UNL     1     -22.366  -9.693  51.397  1.00  0.00    -0.384 N 
ATOM     23  H12 UNL     1     -22.399  -9.530  50.391  1.00  0.00     0.157 HD
ATOM     24  H11 UNL     1     -21.463  -9.761  51.866  1.00  0.00     0.157 HD
ENDBRANCH   4  22
TORSDOF 5
ENDMDL
MODEL 2
REMARK VINA RESULT: -6.572989985      2.854      4.642
REMARK  5 active torsions:
REMARK  status: ('A' for Active; 'I' for Inactive)
REMARK    1  A    between atoms: C2_2  and  C3_3 
REMARK    2  A    between atoms: C5_6  and  N1_7 
REMARK    3  A    between atoms: N2_10  and  C6_11 
REMARK    4  A    between atoms: C6_11  and  C7_12 
REMARK    5  A    between atoms: N3_16  and  C9_17 
ROOT
HETATM    1  C3  UNL     1     -25.193 -10.455  54.130  1.00  0.00     0.042 A 
HETATM    2  C4  UNL     1     -24.479 -10.582  55.326  1.00  0.00     0.100 A 
HETATM    3 CL1  UNL     1     -25.228 -11.188  56.789  1.00  0.00    -0.078 Cl
HETATM    4  C5  UNL     1     -23.150 -10.218  55.343  1.00  0.00     0.129 A 
HETATM    5  N2  UNL     1     -22.577  -9.753  54.221  1.00  0.00    -0.283 N 
HETATM    6  C8  UNL     1     -23.275  -9.636  53.080  1.00  0.00     0.331 A 
HETATM    7  O1  UNL     1     -22.665  -9.194  52.078  1.00  0.00    -0.246 OA
HETATM    8  N3  UNL     1     -24.591  -9.979  52.999  1.00  0.00    -0.296 N 
ENDROOT
BRANCH   8   9
HETATM    9  C9  UNL     1     -25.345  -9.855  51.802  1.00  0.00     0.103 C 
HETATM   10  C10 UNL     1     -24.661 -10.568  50.676  1.00  0.00     0.029 C 
HETATM   11  C11 UNL     1     -24.115  -9.498  49.758  1.00  0.00     0.034 C 
HETATM   12  C12 UNL     1     -24.975  -8.272  50.004  1.00  0.00     0.130 C 
HETATM   13  O2  UNL     1     -26.142  -8.358  49.293  1.00  0.00    -0.380 OA
HETATM   14  C15 UNL     1     -25.624  -8.458  51.333  1.00  0.00     0.067 C 
HETATM   15  C13 UNL     1     -26.847  -8.271  50.487  1.00  0.00     0.126 C 
HETATM   16  C14 UNL     1     -27.925  -9.289  50.539  1.00  0.00     0.040 C 
ENDBRANCH   8   9
BRANCH   1  17
HETATM   17  C2  UNL     1     -26.599 -10.869  54.202  1.00  0.00     0.055 C 
HETATM   18  C1  UNL     1     -27.506  -9.689  54.567  1.00  0.00     0.011 C 
ENDBRANCH   1  17
BRANCH   5  19
HETATM   19  C6  UNL     1     -21.202  -9.374  54.230  1.00  0.00     0.146 C 
BRANCH  19  20
HETATM   20  C7  UNL     1     -20.277 -10.535  53.911  1.00  0.00     0.106 C 
HETATM   21  S1  UNL     1     -18.836 -10.524  55.012  1.00  0.00    -0.096 SA
ENDBRANCH  19  20
ENDBRANCH   5  19
BRANCH   4  22
HETATM   22  N1  UNL     1     -22.467 -10.330  56.456  1.00  0.00    -0.384 N 
ATOM     23  H12 UNL     1     -22.319 -11.239  56.893  1.00  0.00     0.157 HD
ATOM     24  H11 UNL     1     -22.077  -9.494  56.891  1.00  0.00     0.157 HD
ENDBRANCH   4  22
TORSDOF 5
ENDMDL
MODEL 3
REMARK VINA RESULT: -6.557658468      2.654      4.014
REMARK  5 active torsions:
REMARK  status: ('A' for Active; 'I' for Inactive)
REMARK    1  A    between atoms: C2_2  and  C3_3 
REMARK    2  A    between atoms: C5_6  and  N1_7 
REMARK    3  A    between atoms: N2_10  and  C6_11 
REMARK    4  A    between atoms: C6_11  and  C7_12 
REMARK    5  A    between atoms: N3_16  and  C9_17 
ROOT
HETATM    1  C3  UNL     1     -23.316 -10.303  54.635  1.00  0.00     0.042 A 
HETATM    2  C4  UNL     1     -22.398 -10.255  53.580  1.00  0.00     0.100 A 
HETATM    3 CL1  UNL     1     -20.670 -10.342  53.856  1.00  0.00    -0.078 Cl
HETATM    4  C5  UNL     1     -22.876 -10.136  52.293  1.00  0.00     0.129 A 
HETATM    5  N2  UNL     1     -24.201 -10.069  52.084  1.00  0.00    -0.283 N 
HETATM    6  C8  UNL     1     -25.071 -10.116  53.106  1.00  0.00     0.331 A 
HETATM    7  O1  UNL     1     -26.290 -10.049  52.823  1.00  0.00    -0.246 OA
HETATM    8  N3  UNL     1     -24.661 -10.233  54.400  1.00  0.00    -0.296 N 
ENDROOT
BRANCH   8   9
HETATM    9  C9  UNL     1     -25.567 -10.277  55.492  1.00  0.00     0.103 C 
HETATM   10  C10 UNL     1     -26.061 -11.675  55.706  1.00  0.00     0.029 C 
HETATM   11  C11 UNL     1     -27.505 -11.695  55.258  1.00  0.00     0.034 C 
HETATM   12  C12 UNL     1     -27.988 -10.261  55.378  1.00  0.00     0.130 C 
HETATM   13  O2  UNL     1     -28.340  -9.984  56.672  1.00  0.00    -0.380 OA
HETATM   14  C15 UNL     1     -26.775  -9.395  55.390  1.00  0.00     0.067 C 
HETATM   15  C13 UNL     1     -27.397  -8.964  56.684  1.00  0.00     0.126 C 
HETATM   16  C14 UNL     1     -26.587  -9.010  57.926  1.00  0.00     0.040 C 
ENDBRANCH   8   9
BRANCH   1  17
HETATM   17  C2  UNL     1     -22.720 -10.434  55.970  1.00  0.00     0.055 C 
HETATM   18  C1  UNL     1     -22.597  -9.070  56.657  1.00  0.00     0.011 C 
ENDBRANCH   1  17
BRANCH   5  19
HETATM   19  C6  UNL     1     -24.704  -9.947  50.755  1.00  0.00     0.146 C 
BRANCH  19  20
HETATM   20  C7  UNL     1     -24.775  -8.502  50.291  1.00  0.00     0.106 C 
HETATM   21  S1  UNL     1     -26.469  -8.070  49.808  1.00  0.00    -0.096 SA
ENDBRANCH  19  20
ENDBRANCH   5  19
BRANCH   4  22
HETATM   22  N1  UNL     1     -22.029 -10.089  51.295  1.00  0.00    -0.384 N 
ATOM     23  H12 UNL     1     -21.531 -10.924  50.987  1.00  0.00     0.157 HD
ATOM     24  H11 UNL     1     -21.866  -9.203  50.818  1.00  0.00     0.157 HD
ENDBRANCH   4  22
TORSDOF 5
ENDMDL
MODEL 4
REMARK VINA RESULT: -6.483738574      2.791      4.238
REMARK  5 active torsions:
REMARK  status: ('A' for Active; 'I' for Inactive)
REMARK    1  A    between atoms: C2_2  and  C3_3 
REMARK    2  A    between atoms: C5_6  and  N1_7 
REMARK    3  A    between atoms: N2_10  and  C6_11 
REMARK    4  A    between atoms: C6_11  and  C7_12 
REMARK    5  A    between atoms: N3_16  and  C9_17 
ROOT
HETATM    1  C3  UNL     1     -24.118 -10.321  53.519  1.00  0.00     0.042 A 
HETATM    2  C4  UNL     1     -23.683 -10.276  52.190  1.00  0.00     0.100 A 
HETATM    3 CL1  UNL     1     -21.997 -10.484  51.764  1.00  0.00    -0.078 Cl
HETATM    4  C5  UNL     1     -24.614 -10.061  51.197  1.00  0.00     0.129 A 
HETATM    5  N2  UNL     1     -25.906  -9.901  51.526  1.00  0.00    -0.283 N 
HETATM    6  C8  UNL     1     -26.310  -9.947  52.806  1.00  0.00     0.331 A 
HETATM    7  O1  UNL     1     -27.534  -9.789  53.026  1.00  0.00    -0.246 OA
HETATM    8  N3  UNL     1     -25.439 -10.156  53.832  1.00  0.00    -0.296 N 
ENDROOT
BRANCH   8   9
HETATM    9  C9  UNL     1     -25.849 -10.200  55.191  1.00  0.00     0.103 C 
HETATM   10  C10 UNL     1     -26.145 -11.609  55.603  1.00  0.00     0.029 C 
HETATM   11  C11 UNL     1     -27.646 -11.708  55.750  1.00  0.00     0.034 C 
HETATM   12  C12 UNL     1     -28.122 -10.294  56.025  1.00  0.00     0.130 C 
HETATM   13  O2  UNL     1     -27.961  -9.986  57.349  1.00  0.00    -0.380 OA
HETATM   14  C15 UNL     1     -27.048  -9.375  55.551  1.00  0.00     0.067 C 
HETATM   15  C13 UNL     1     -27.144  -8.926  56.978  1.00  0.00     0.126 C 
HETATM   16  C14 UNL     1     -25.914  -8.891  57.808  1.00  0.00     0.040 C 
ENDBRANCH   8   9
BRANCH   1  17
HETATM   17  C2  UNL     1     -23.062 -10.558  54.510  1.00  0.00     0.055 C 
HETATM   18  C1  UNL     1     -22.486  -9.237  55.030  1.00  0.00     0.011 C 
ENDBRANCH   1  17
BRANCH   5  19
HETATM   19  C6  UNL     1     -26.877  -9.679  50.504  1.00  0.00     0.146 C 
BRANCH  19  20
HETATM   20  C7  UNL     1     -26.953  -8.223  50.082  1.00  0.00     0.106 C 
HETATM   21  S1  UNL     1     -28.397  -7.941  49.021  1.00  0.00    -0.096 SA
ENDBRANCH  19  20
ENDBRANCH   5  19
BRANCH   4  22
HETATM   22  N1  UNL     1     -24.222 -10.016  49.948  1.00  0.00    -0.384 N 
ATOM     23  H12 UNL     1     -23.252 -10.199  49.693  1.00  0.00     0.157 HD
ATOM     24  H11 UNL     1     -24.899  -9.794  49.218  1.00  0.00     0.157 HD
ENDBRANCH   4  22
TORSDOF 5
ENDMDL
MODEL 5
REMARK VINA RESULT: -6.445815791      0.964      1.020
REMARK  5 active torsions:
REMARK  status: ('A' for Active; 'I' for Inactive)
REMARK    1  A    between atoms: C2_2  and  C3_3 
REMARK    2  A    between atoms: C5_6  and  N1_7 
REMARK    3  A    between atoms: N2_10  and  C6_11 
REMARK    4  A    between atoms: C6_11  and  C7_12 
REMARK    5  A    between atoms: N3_16  and  C9_17 
ROOT
HETATM    1  C3  UNL     1     -25.467 -10.194  52.017  1.00  0.00     0.042 A 
HETATM    2  C4  UNL     1     -24.214 -10.121  51.401  1.00  0.00     0.100 A 
HETATM    3 CL1  UNL     1     -24.045  -9.767  49.693  1.00  0.00    -0.078 Cl
HETATM    4  C5  UNL     1     -23.088 -10.334  52.166  1.00  0.00     0.129 A 
HETATM    5  N2  UNL     1     -23.220 -10.606  53.474  1.00  0.00    -0.283 N 
HETATM    6  C8  UNL     1     -24.430 -10.673  54.053  1.00  0.00     0.331 A 
HETATM    7  O1  UNL     1     -24.464 -10.931  55.280  1.00  0.00    -0.246 OA
HETATM    8  N3  UNL     1     -25.580 -10.472  53.351  1.00  0.00    -0.296 N 
ENDROOT
BRANCH   8   9
HETATM    9  C9  UNL     1     -26.867 -10.548  53.946  1.00  0.00     0.103 C 
HETATM   10  C10 UNL     1     -27.314  -9.191  54.399  1.00  0.00     0.029 C 
HETATM   11  C11 UNL     1     -27.251  -9.200  55.910  1.00  0.00     0.034 C 
HETATM   12  C12 UNL     1     -27.373 -10.658  56.314  1.00  0.00     0.130 C 
HETATM   13  O2  UNL     1     -28.687 -11.044  56.315  1.00  0.00    -0.380 OA
HETATM   14  C15 UNL     1     -27.004 -11.470  55.120  1.00  0.00     0.067 C 
HETATM   15  C13 UNL     1     -28.374 -12.021  55.378  1.00  0.00     0.126 C 
HETATM   16  C14 UNL     1     -29.368 -12.033  54.276  1.00  0.00     0.040 C 
ENDBRANCH   8   9
BRANCH   1  17
HETATM   17  C2  UNL     1     -26.610  -9.951  51.129  1.00  0.00     0.055 C 
HETATM   18  C1  UNL     1     -26.771  -8.457  50.831  1.00  0.00     0.011 C 
ENDBRANCH   1  17
BRANCH   5  19
HETATM   19  C6  UNL     1     -22.059 -10.827  54.274  1.00  0.00     0.146 C 
BRANCH  19  20
HETATM   20  C7  UNL     1     -21.626  -9.581  55.026  1.00  0.00     0.106 C 
HETATM   21  S1  UNL     1     -21.347  -9.958  56.778  1.00  0.00    -0.096 SA
ENDBRANCH  19  20
ENDBRANCH   5  19
BRANCH   4  22
HETATM   22  N1  UNL     1     -21.907 -10.269  51.603  1.00  0.00    -0.384 N 
ATOM     23  H12 UNL     1     -21.169 -10.928  51.849  1.00  0.00     0.157 HD
ATOM     24  H11 UNL     1     -21.723  -9.547  50.907  1.00  0.00     0.157 HD
ENDBRANCH   4  22
TORSDOF 5
ENDMDL
