MODEL 1
REMARK VINA RESULT: -7.216627977      0.000      0.000
REMARK  5 active torsions:
REMARK  status: ('A' for Active; 'I' for Inactive)
REMARK    1  A    between atoms: C2_2  and  N1_3 
REMARK    2  A    between atoms: N1_3  and  C3_5 
REMARK    3  A    between atoms: C4_8  and  C5_9 
REMARK    4  A    between atoms: N3_13  and  C9_14 
REMARK    5  A    between atoms: C9_14  and  C10_15 
ROOT
HETATM    1  C5  UNL     1     -22.283  -9.740  54.835  1.00  0.00     0.005 C 
HETATM    2  C6  UNL     1     -22.306  -8.881  53.606  1.00  0.00     0.022 C 
HETATM    3  C7  UNL     1     -22.784  -8.910  55.972  1.00  0.00     0.046 C 
HETATM    4  C8  UNL     1     -23.899  -9.592  56.721  1.00  0.00     0.278 C 
HETATM    5  N3  UNL     1     -24.989 -10.000  55.851  1.00  0.00     0.135 N 
HETATM    6  C11 UNL     1     -24.531 -10.899  54.807  1.00  0.00     0.296 C 
HETATM    7  C12 UNL     1     -25.221 -10.553  53.498  1.00  0.00     0.087 C 
HETATM    8  F1  UNL     1     -24.986 -12.201  55.102  1.00  0.00    -0.209 F 
HETATM    9  C13 UNL     1     -23.062 -11.021  54.686  1.00  0.00     0.092 C 
ENDROOT
BRANCH   1  10
HETATM   10  C4  UNL     1     -20.859 -10.216  55.049  1.00  0.00     0.026 A 
HETATM   11  N2  UNL     1     -19.980 -10.287  54.079  1.00  0.00    -0.339 N 
HETATM   12  C3  UNL     1     -18.743 -10.700  54.362  1.00  0.00     0.144 A 
ATOM     13  H2  UNL     1     -20.237 -10.032  53.126  1.00  0.00     0.168 HD
HETATM   14  S1  UNL     1     -18.817 -11.000  56.048  1.00  0.00    -0.064 SA
HETATM   15  C14 UNL     1     -20.450 -10.575  56.305  1.00  0.00     0.079 A 
BRANCH  12  16
HETATM   16  N1  UNL     1     -17.701 -10.850  53.614  1.00  0.00    -0.371 N 
ATOM     17  H1  UNL     1     -17.849 -10.775  52.607  1.00  0.00     0.161 HD
BRANCH  16  18
HETATM   18  C2  UNL     1     -16.370 -11.109  54.039  1.00  0.00     0.117 C 
HETATM   19  C1  UNL     1     -15.533 -11.450  52.795  1.00  0.00     0.026 C 
ENDBRANCH  16  18
ENDBRANCH  12  16
ENDBRANCH   1  10
BRANCH   5  20
HETATM   20  C9  UNL     1     -25.989 -10.700  56.612  1.00  0.00     0.355 C 
BRANCH  20  21
HETATM   21  C10 UNL     1     -27.127  -9.893  57.059  1.00  0.00     0.141 A 
HETATM   22  N4  UNL     1     -28.250 -10.359  57.609  1.00  0.00    -0.271 N 
HETATM   23  N5  UNL     1     -29.042  -9.319  57.893  1.00  0.00    -0.227 N 
ATOM     24  H4  UNL     1     -28.467 -11.341  57.783  1.00  0.00     0.190 HD
HETATM   25  N6  UNL     1     -28.442  -8.210  57.531  1.00  0.00    -0.227 N 
ATOM     26  H5  UNL     1     -29.966  -9.378  58.322  1.00  0.00     0.210 HD
HETATM   27  N7  UNL     1     -27.271  -8.551  57.021  1.00  0.00    -0.271 N 
ATOM     28  H6  UNL     1     -28.809  -7.263  57.626  1.00  0.00     0.210 HD
ATOM     29  H7  UNL     1     -26.579  -7.898  56.653  1.00  0.00     0.190 HD
ENDBRANCH  20  21
ENDBRANCH   5  20
TORSDOF 5
ENDMDL
MODEL 2
REMARK VINA RESULT: -7.171329680      3.505      4.930
REMARK  5 active torsions:
REMARK  status: ('A' for Active; 'I' for Inactive)
REMARK    1  A    between atoms: C2_2  and  N1_3 
REMARK    2  A    between atoms: N1_3  and  C3_5 
REMARK    3  A    between atoms: C4_8  and  C5_9 
REMARK    4  A    between atoms: N3_13  and  C9_14 
REMARK    5  A    between atoms: C9_14  and  C10_15 
ROOT
HETATM    1  C5  UNL     1     -24.821 -10.620  54.895  1.00  0.00     0.005 C 
HETATM    2  C6  UNL     1     -24.558 -12.080  55.108  1.00  0.00     0.022 C 
HETATM    3  C7  UNL     1     -26.298 -10.447  54.748  1.00  0.00     0.046 C 
HETATM    4  C8  UNL     1     -26.839  -9.394  55.680  1.00  0.00     0.278 C 
HETATM    5  N3  UNL     1     -26.475  -9.635  57.067  1.00  0.00     0.135 N 
HETATM    6  C11 UNL     1     -25.035  -9.692  57.239  1.00  0.00     0.296 C 
HETATM    7  C12 UNL     1     -24.683 -10.802  58.216  1.00  0.00     0.087 C 
HETATM    8  F1  UNL     1     -24.611  -8.515  57.888  1.00  0.00    -0.209 F 
HETATM    9  C13 UNL     1     -24.256  -9.742  55.982  1.00  0.00     0.092 C 
ENDROOT
BRANCH   1  10
HETATM   10  C4  UNL     1     -24.061 -10.181  53.658  1.00  0.00     0.026 A 
HETATM   11  N2  UNL     1     -24.606  -9.468  52.703  1.00  0.00    -0.339 N 
HETATM   12  C3  UNL     1     -23.857  -9.111  51.658  1.00  0.00     0.144 A 
ATOM     13  H2  UNL     1     -25.587  -9.192  52.758  1.00  0.00     0.168 HD
HETATM   14  S1  UNL     1     -22.332  -9.800  52.029  1.00  0.00    -0.064 SA
HETATM   15  C14 UNL     1     -22.741 -10.520  53.522  1.00  0.00     0.079 A 
BRANCH  12  16
HETATM   16  N1  UNL     1     -24.135  -8.415  50.606  1.00  0.00    -0.371 N 
ATOM     17  H1  UNL     1     -23.657  -7.519  50.514  1.00  0.00     0.161 HD
BRANCH  16  18
HETATM   18  C2  UNL     1     -25.035  -8.763  49.563  1.00  0.00     0.117 C 
HETATM   19  C1  UNL     1     -26.328  -7.954  49.764  1.00  0.00     0.026 C 
ENDBRANCH  16  18
ENDBRANCH  12  16
ENDBRANCH   1  10
BRANCH   5  20
HETATM   20  C9  UNL     1     -26.964  -8.566  57.895  1.00  0.00     0.355 C 
BRANCH  20  21
HETATM   21  C10 UNL     1     -28.407  -8.566  58.146  1.00  0.00     0.141 A 
HETATM   22  N4  UNL     1     -29.148  -7.503  58.466  1.00  0.00    -0.271 N 
HETATM   23  N5  UNL     1     -30.418  -7.900  58.602  1.00  0.00    -0.227 N 
ATOM     24  H4  UNL     1     -28.803  -6.550  58.588  1.00  0.00     0.190 HD
HETATM   25  N6  UNL     1     -30.491  -9.190  58.374  1.00  0.00    -0.227 N 
ATOM     26  H5  UNL     1     -31.205  -7.296  58.843  1.00  0.00     0.210 HD
HETATM   27  N7  UNL     1     -29.268  -9.605  58.094  1.00  0.00    -0.271 N 
ATOM     28  H6  UNL     1     -31.334  -9.764  58.407  1.00  0.00     0.210 HD
ATOM     29  H7  UNL     1     -29.012 -10.567  57.873  1.00  0.00     0.190 HD
ENDBRANCH  20  21
ENDBRANCH   5  20
TORSDOF 5
ENDMDL
MODEL 3
REMARK VINA RESULT: -7.129135134      4.320      8.949
REMARK  5 active torsions:
REMARK  status: ('A' for Active; 'I' for Inactive)
REMARK    1  A    between atoms: C2_2  and  N1_3 
REMARK    2  A    between atoms: N1_3  and  C3_5 
REMARK    3  A    between atoms: C4_8  and  C5_9 
REMARK    4  A    between atoms: N3_13  and  C9_14 
REMARK    5  A    between atoms: C9_14  and  C10_15 
ROOT
HETATM    1  C5  UNL     1     -27.144 -10.154  54.884  1.00  0.00     0.005 C 
HETATM    2  C6  UNL     1     -27.180  -9.029  55.874  1.00  0.00     0.022 C 
HETATM    3  C7  UNL     1     -26.991  -9.552  53.525  1.00  0.00     0.046 C 
HETATM    4  C8  UNL     1     -25.843 -10.160  52.763  1.00  0.00     0.278 C 
HETATM    5  N3  UNL     1     -24.592 -10.109  53.503  1.00  0.00     0.135 N 
HETATM    6  C11 UNL     1     -24.698 -10.791  54.779  1.00  0.00     0.296 C 
HETATM    7  C12 UNL     1     -23.961  -9.995  55.844  1.00  0.00     0.087 C 
HETATM    8  F1  UNL     1     -23.986 -12.005  54.703  1.00  0.00    -0.209 F 
HETATM    9  C13 UNL     1     -26.072 -11.173  55.173  1.00  0.00     0.092 C 
ENDROOT
BRANCH   1  10
HETATM   10  C4  UNL     1     -28.430 -10.946  55.025  1.00  0.00     0.026 A 
HETATM   11  N2  UNL     1     -29.605 -10.455  54.717  1.00  0.00    -0.339 N 
HETATM   12  C3  UNL     1     -30.682 -11.231  54.856  1.00  0.00     0.144 A 
ATOM     13  H2  UNL     1     -29.694  -9.498  54.378  1.00  0.00     0.168 HD
HETATM   14  S1  UNL     1     -30.022 -12.701  55.440  1.00  0.00    -0.064 SA
HETATM   15  C14 UNL     1     -28.379 -12.238  55.477  1.00  0.00     0.079 A 
BRANCH  12  16
HETATM   16  N1  UNL     1     -31.932 -11.006  54.619  1.00  0.00    -0.371 N 
ATOM     17  H1  UNL     1     -32.209 -10.028  54.530  1.00  0.00     0.161 HD
BRANCH  16  18
HETATM   18  C2  UNL     1     -32.963 -11.972  54.470  1.00  0.00     0.117 C 
HETATM   19  C1  UNL     1     -34.010 -11.401  53.499  1.00  0.00     0.026 C 
ENDBRANCH  16  18
ENDBRANCH  12  16
ENDBRANCH   1  10
BRANCH   5  20
HETATM   20  C9  UNL     1     -23.552 -10.760  52.753  1.00  0.00     0.355 C 
BRANCH  20  21
HETATM   21  C10 UNL     1     -23.125 -10.074  51.531  1.00  0.00     0.141 A 
HETATM   22  N4  UNL     1     -21.924  -9.533  51.314  1.00  0.00    -0.271 N 
HETATM   23  N5  UNL     1     -21.914  -9.012  50.081  1.00  0.00    -0.227 N 
ATOM     24  H4  UNL     1     -21.148  -9.519  51.975  1.00  0.00     0.190 HD
HETATM   25  N6  UNL     1     -23.082  -9.213  49.520  1.00  0.00    -0.227 N 
ATOM     26  H5  UNL     1     -21.123  -8.535  49.647  1.00  0.00     0.210 HD
HETATM   27  N7  UNL     1     -23.829  -9.861  50.398  1.00  0.00    -0.271 N 
ATOM     28  H6  UNL     1     -23.362  -8.924  48.583  1.00  0.00     0.210 HD
ATOM     29  H7  UNL     1     -24.792 -10.157  50.244  1.00  0.00     0.190 HD
ENDBRANCH  20  21
ENDBRANCH   5  20
TORSDOF 5
ENDMDL
MODEL 4
REMARK VINA RESULT: -6.893787851      4.194      8.958
REMARK  5 active torsions:
REMARK  status: ('A' for Active; 'I' for Inactive)
REMARK    1  A    between atoms: C2_2  and  N1_3 
REMARK    2  A    between atoms: N1_3  and  C3_5 
REMARK    3  A    between atoms: C4_8  and  C5_9 
REMARK    4  A    between atoms: N3_13  and  C9_14 
REMARK    5  A    between atoms: C9_14  and  C10_15 
ROOT
HETATM    1  C5  UNL     1     -27.245  -9.981  55.013  1.00  0.00     0.005 C 
HETATM    2  C6  UNL     1     -27.187  -8.879  56.028  1.00  0.00     0.022 C 
HETATM    3  C7  UNL     1     -27.097  -9.357  53.664  1.00  0.00     0.046 C 
HETATM    4  C8  UNL     1     -26.008 -10.012  52.855  1.00  0.00     0.278 C 
HETATM    5  N3  UNL     1     -24.735 -10.050  53.557  1.00  0.00     0.135 N 
HETATM    6  C11 UNL     1     -24.844 -10.755  54.821  1.00  0.00     0.296 C 
HETATM    7  C12 UNL     1     -24.031 -10.028  55.880  1.00  0.00     0.087 C 
HETATM    8  F1  UNL     1     -24.206 -12.006  54.696  1.00  0.00    -0.209 F 
HETATM    9  C13 UNL     1     -26.226 -11.066  55.248  1.00  0.00     0.092 C 
ENDROOT
BRANCH   1  10
HETATM   10  C4  UNL     1     -28.570 -10.701  55.176  1.00  0.00     0.026 A 
HETATM   11  N2  UNL     1     -29.345 -10.536  56.220  1.00  0.00    -0.339 N 
HETATM   12  C3  UNL     1     -30.504 -11.197  56.271  1.00  0.00     0.144 A 
ATOM     13  H2  UNL     1     -29.067  -9.915  56.979  1.00  0.00     0.168 HD
HETATM   14  S1  UNL     1     -30.504 -12.081  54.803  1.00  0.00    -0.064 SA
HETATM   15  C14 UNL     1     -29.000 -11.551  54.193  1.00  0.00     0.079 A 
BRANCH  12  16
HETATM   16  N1  UNL     1     -31.441 -11.209  57.160  1.00  0.00    -0.371 N 
ATOM     17  H1  UNL     1     -31.144 -11.148  58.134  1.00  0.00     0.161 HD
BRANCH  16  18
HETATM   18  C2  UNL     1     -32.840 -11.298  56.929  1.00  0.00     0.117 C 
HETATM   19  C1  UNL     1     -33.313  -9.947  56.365  1.00  0.00     0.026 C 
ENDBRANCH  16  18
ENDBRANCH  12  16
ENDBRANCH   1  10
BRANCH   5  20
HETATM   20  C9  UNL     1     -23.758 -10.742  52.762  1.00  0.00     0.355 C 
BRANCH  20  21
HETATM   21  C10 UNL     1     -23.317 -10.047  51.550  1.00  0.00     0.141 A 
HETATM   22  N4  UNL     1     -22.185  -9.355  51.411  1.00  0.00    -0.271 N 
HETATM   23  N5  UNL     1     -22.132  -8.881  50.160  1.00  0.00    -0.227 N 
ATOM     24  H4  UNL     1     -21.480  -9.211  52.134  1.00  0.00     0.190 HD
HETATM   25  N6  UNL     1     -23.207  -9.260  49.512  1.00  0.00    -0.227 N 
ATOM     26  H5  UNL     1     -21.376  -8.315  49.773  1.00  0.00     0.210 HD
HETATM   27  N7  UNL     1     -23.937  -9.973  50.353  1.00  0.00    -0.271 N 
ATOM     28  H6  UNL     1     -23.438  -9.045  48.541  1.00  0.00     0.210 HD
ATOM     29  H7  UNL     1     -24.835 -10.403  50.131  1.00  0.00     0.190 HD
ENDBRANCH  20  21
ENDBRANCH   5  20
TORSDOF 5
ENDMDL
MODEL 5
REMARK VINA RESULT: -6.831306412      4.200      6.061
REMARK  5 active torsions:
REMARK  status: ('A' for Active; 'I' for Inactive)
REMARK    1  A    between atoms: C2_2  and  N1_3 
REMARK    2  A    between atoms: N1_3  and  C3_5 
REMARK    3  A    between atoms: C4_8  and  C5_9 
REMARK    4  A    between atoms: N3_13  and  C9_14 
REMARK    5  A    between atoms: C9_14  and  C10_15 
ROOT
HETATM    1  C5  UNL     1     -24.481 -10.481  54.679  1.00  0.00     0.005 C 
HETATM    2  C6  UNL     1     -23.730 -11.777  54.758  1.00  0.00     0.022 C 
HETATM    3  C7  UNL     1     -25.799 -10.685  55.353  1.00  0.00     0.046 C 
HETATM    4  C8  UNL     1     -26.067  -9.634  56.399  1.00  0.00     0.278 C 
HETATM    5  N3  UNL     1     -24.992  -9.527  57.372  1.00  0.00     0.135 N 
HETATM    6  C11 UNL     1     -23.725  -9.217  56.736  1.00  0.00     0.296 C 
HETATM    7  C12 UNL     1     -22.615 -10.018  57.397  1.00  0.00     0.087 C 
HETATM    8  F1  UNL     1     -23.395  -7.876  57.017  1.00  0.00    -0.209 F 
HETATM    9  C13 UNL     1     -23.725  -9.314  55.260  1.00  0.00     0.092 C 
ENDROOT
BRANCH   1  10
HETATM   10  C4  UNL     1     -24.629 -10.112  53.216  1.00  0.00     0.026 A 
HETATM   11  N2  UNL     1     -25.770  -9.741  52.688  1.00  0.00    -0.339 N 
HETATM   12  C3  UNL     1     -25.804  -9.416  51.394  1.00  0.00     0.144 A 
ATOM     13  H2  UNL     1     -26.616  -9.703  53.256  1.00  0.00     0.168 HD
HETATM   14  S1  UNL     1     -24.178  -9.639  50.901  1.00  0.00    -0.064 SA
HETATM   15  C14 UNL     1     -23.531 -10.144  52.398  1.00  0.00     0.079 A 
BRANCH  12  16
HETATM   16  N1  UNL     1     -26.773  -9.016  50.640  1.00  0.00    -0.371 N 
ATOM     17  H1  UNL     1     -27.655  -9.522  50.725  1.00  0.00     0.161 HD
BRANCH  16  18
HETATM   18  C2  UNL     1     -26.746  -7.945  49.706  1.00  0.00     0.117 C 
HETATM   19  C1  UNL     1     -28.105  -7.910  48.986  1.00  0.00     0.026 C 
ENDBRANCH  16  18
ENDBRANCH  12  16
ENDBRANCH   1  10
BRANCH   5  20
HETATM   20  C9  UNL     1     -25.277  -8.468  58.302  1.00  0.00     0.355 C 
BRANCH  20  21
HETATM   21  C10 UNL     1     -24.988  -8.762  59.708  1.00  0.00     0.141 A 
HETATM   22  N4  UNL     1     -23.995  -8.241  60.430  1.00  0.00    -0.271 N 
HETATM   23  N5  UNL     1     -24.067  -8.742  61.669  1.00  0.00    -0.227 N 
ATOM     24  H4  UNL     1     -23.299  -7.574  60.095  1.00  0.00     0.190 HD
HETATM   25  N6  UNL     1     -25.083  -9.567  61.739  1.00  0.00    -0.227 N 
ATOM     26  H5  UNL     1     -23.432  -8.517  62.436  1.00  0.00     0.210 HD
HETATM   27  N7  UNL     1     -25.653  -9.586  60.546  1.00  0.00    -0.271 N 
ATOM     28  H6  UNL     1     -25.379 -10.096  62.560  1.00  0.00     0.210 HD
ATOM     29  H7  UNL     1     -26.471 -10.140  60.296  1.00  0.00     0.190 HD
ENDBRANCH  20  21
ENDBRANCH   5  20
TORSDOF 5
ENDMDL
