MODEL 1
REMARK VINA RESULT: -7.803406074      0.000      0.000
REMARK  4 active torsions:
REMARK  status: ('A' for Active; 'I' for Inactive)
REMARK    1  A    between atoms: C2_2  and  C4_4 
REMARK    2  A    between atoms: C6_6  and  C7_7 
REMARK    3  A    between atoms: C11_16  and  C12_17 
REMARK    4  A    between atoms: C15_20  and  O1_21 
ROOT
HETATM    1  C4  UNL     1     -41.877  25.295   0.767  1.00  0.00    -0.041 A 
HETATM    2  C5  UNL     1     -40.650  24.766   0.413  1.00  0.00     0.024 A 
HETATM    3  C6  UNL     1     -40.418  23.412   0.384  1.00  0.00     0.050 A 
HETATM    4  C8  UNL     1     -41.427  22.509   0.721  1.00  0.00     0.046 A 
HETATM    5  C9  UNL     1     -42.633  23.019   1.075  1.00  0.00     0.044 A 
HETATM    6  N1  UNL     1     -43.734  22.415   1.544  1.00  0.00    -0.365 N 
ATOM      7  H1  UNL     1     -43.848  21.406   1.641  1.00  0.00     0.165 HD
HETATM    8  C10 UNL     1     -44.652  23.313   1.862  1.00  0.00     0.096 A 
HETATM    9  C11 UNL     1     -44.136  24.596   1.590  1.00  0.00    -0.025 A 
HETATM   10  C17 UNL     1     -42.869  24.390   1.099  1.00  0.00     0.005 A 
ENDROOT
BRANCH   9  11
HETATM   11  C12 UNL     1     -44.963  25.771   1.754  1.00  0.00     0.023 C 
HETATM   12  C13 UNL     1     -45.942  25.667   2.977  1.00  0.00     0.012 C 
HETATM   13  C14 UNL     1     -46.944  26.759   2.561  1.00  0.00     0.032 C 
HETATM   14  C15 UNL     1     -47.076  26.607   1.031  1.00  0.00     0.118 C 
HETATM   15  C16 UNL     1     -46.137  25.473   0.737  1.00  0.00     0.041 C 
BRANCH  14  16
HETATM   16  O1  UNL     1     -48.398  26.382   0.716  1.00  0.00    -0.396 OA
ATOM     17  H1  UNL     1     -48.441  25.808  -0.040  1.00  0.00     0.210 HD
ENDBRANCH  14  16
ENDBRANCH   9  11
BRANCH   1  18
HETATM   18  C2  UNL     1     -42.204  26.722   0.652  1.00  0.00     0.011 C 
HETATM   19  C1  UNL     1     -41.678  27.521   1.848  1.00  0.00     0.015 C 
HETATM   20  C3  UNL     1     -41.086  27.258  -0.385  1.00  0.00     0.015 C 
ENDBRANCH   1  18
BRANCH   3  21
HETATM   21  C7  UNL     1     -39.082  22.796   0.035  1.00  0.00     0.417 C 
HETATM   22  F1  UNL     1     -38.534  22.102   1.070  1.00  0.00    -0.166 F 
HETATM   23  F2  UNL     1     -38.246  23.876  -0.306  1.00  0.00    -0.166 F 
HETATM   24  F3  UNL     1     -39.132  22.014  -1.081  1.00  0.00    -0.166 F 
ENDBRANCH   3  21
TORSDOF 4
ENDMDL
MODEL 2
REMARK VINA RESULT: -7.315599458      0.683      1.068
REMARK  4 active torsions:
REMARK  status: ('A' for Active; 'I' for Inactive)
REMARK    1  A    between atoms: C2_2  and  C4_4 
REMARK    2  A    between atoms: C6_6  and  C7_7 
REMARK    3  A    between atoms: C11_16  and  C12_17 
REMARK    4  A    between atoms: C15_20  and  O1_21 
ROOT
HETATM    1  C4  UNL     1     -41.965  25.494   0.866  1.00  0.00    -0.041 A 
HETATM    2  C5  UNL     1     -40.748  24.921   0.551  1.00  0.00     0.024 A 
HETATM    3  C6  UNL     1     -40.563  23.560   0.532  1.00  0.00     0.050 A 
HETATM    4  C8  UNL     1     -41.613  22.694   0.840  1.00  0.00     0.046 A 
HETATM    5  C9  UNL     1     -42.810  23.247   1.156  1.00  0.00     0.044 A 
HETATM    6  N1  UNL     1     -43.945  22.684   1.592  1.00  0.00    -0.365 N 
ATOM      7  H1  UNL     1     -44.098  21.680   1.688  1.00  0.00     0.165 HD
HETATM    8  C10 UNL     1     -44.841  23.615   1.881  1.00  0.00     0.096 A 
HETATM    9  C11 UNL     1     -44.271  24.878   1.623  1.00  0.00    -0.025 A 
HETATM   10  C17 UNL     1     -42.998  24.626   1.170  1.00  0.00     0.005 A 
ENDROOT
BRANCH   9  11
HETATM   11  C12 UNL     1     -45.060  26.082   1.759  1.00  0.00     0.023 C 
HETATM   12  C13 UNL     1     -45.148  26.594   3.241  1.00  0.00     0.012 C 
HETATM   13  C14 UNL     1     -46.388  27.494   3.099  1.00  0.00     0.032 C 
HETATM   14  C15 UNL     1     -47.325  26.723   2.145  1.00  0.00     0.118 C 
HETATM   15  C16 UNL     1     -46.525  25.491   1.835  1.00  0.00     0.041 C 
BRANCH  14  16
HETATM   16  O1  UNL     1     -48.530  26.506   2.778  1.00  0.00    -0.396 OA
ATOM     17  H1  UNL     1     -48.998  27.330   2.839  1.00  0.00     0.210 HD
ENDBRANCH  14  16
ENDBRANCH   9  11
BRANCH   1  18
HETATM   18  C2  UNL     1     -42.238  26.931   0.740  1.00  0.00     0.011 C 
HETATM   19  C1  UNL     1     -41.686  27.720   1.931  1.00  0.00     0.015 C 
HETATM   20  C3  UNL     1     -41.097  27.416  -0.299  1.00  0.00     0.015 C 
ENDBRANCH   1  18
BRANCH   3  21
HETATM   21  C7  UNL     1     -39.239  22.896   0.224  1.00  0.00     0.417 C 
HETATM   22  F1  UNL     1     -38.244  23.792  -0.024  1.00  0.00    -0.166 F 
HETATM   23  F2  UNL     1     -39.467  22.112  -0.921  1.00  0.00    -0.166 F 
HETATM   24  F3  UNL     1     -38.848  22.017   1.191  1.00  0.00    -0.166 F 
ENDBRANCH   3  21
TORSDOF 4
ENDMDL
MODEL 3
REMARK VINA RESULT: -6.742001401      4.375      6.360
REMARK  4 active torsions:
REMARK  status: ('A' for Active; 'I' for Inactive)
REMARK    1  A    between atoms: C2_2  and  C4_4 
REMARK    2  A    between atoms: C6_6  and  C7_7 
REMARK    3  A    between atoms: C11_16  and  C12_17 
REMARK    4  A    between atoms: C15_20  and  O1_21 
ROOT
HETATM    1  C4  UNL     1     -42.817  25.892   1.375  1.00  0.00    -0.041 A 
HETATM    2  C5  UNL     1     -44.037  26.524   1.522  1.00  0.00     0.024 A 
HETATM    3  C6  UNL     1     -45.212  25.824   1.657  1.00  0.00     0.050 A 
HETATM    4  C8  UNL     1     -45.216  24.429   1.644  1.00  0.00     0.046 A 
HETATM    5  C9  UNL     1     -44.024  23.800   1.493  1.00  0.00     0.044 A 
HETATM    6  N1  UNL     1     -43.733  22.501   1.337  1.00  0.00    -0.365 N 
ATOM      7  H1  UNL     1     -44.415  21.743   1.382  1.00  0.00     0.165 HD
HETATM    8  C10 UNL     1     -42.439  22.340   1.118  1.00  0.00     0.096 A 
HETATM    9  C11 UNL     1     -41.823  23.607   1.127  1.00  0.00    -0.025 A 
HETATM   10  C17 UNL     1     -42.833  24.509   1.363  1.00  0.00     0.005 A 
ENDROOT
BRANCH   9  11
HETATM   11  C12 UNL     1     -40.387  23.728   1.006  1.00  0.00     0.023 C 
HETATM   12  C13 UNL     1     -39.920  24.077  -0.453  1.00  0.00     0.012 C 
HETATM   13  C14 UNL     1     -38.451  23.636  -0.334  1.00  0.00     0.032 C 
HETATM   14  C15 UNL     1     -38.493  22.359   0.531  1.00  0.00     0.118 C 
HETATM   15  C16 UNL     1     -39.959  22.217   0.824  1.00  0.00     0.041 C 
BRANCH  14  16
HETATM   16  O1  UNL     1     -37.924  21.321  -0.175  1.00  0.00    -0.396 OA
ATOM     17  H1  UNL     1     -37.107  21.076   0.242  1.00  0.00     0.210 HD
ENDBRANCH  14  16
ENDBRANCH   9  11
BRANCH   1  18
HETATM   18  C2  UNL     1     -41.532  26.603   1.391  1.00  0.00     0.011 C 
HETATM   19  C1  UNL     1     -41.327  27.431   0.119  1.00  0.00     0.015 C 
HETATM   20  C3  UNL     1     -41.844  27.873   2.343  1.00  0.00     0.015 C 
ENDBRANCH   1  18
BRANCH   3  21
HETATM   21  C7  UNL     1     -46.569  26.479   1.787  1.00  0.00     0.417 C 
HETATM   22  F1  UNL     1     -47.456  25.720   2.486  1.00  0.00    -0.166 F 
HETATM   23  F2  UNL     1     -47.031  26.655   0.469  1.00  0.00    -0.166 F 
HETATM   24  F3  UNL     1     -46.505  27.734   2.317  1.00  0.00    -0.166 F 
ENDBRANCH   3  21
TORSDOF 4
ENDMDL
MODEL 4
REMARK VINA RESULT: -6.547578640      4.728      6.916
REMARK  4 active torsions:
REMARK  status: ('A' for Active; 'I' for Inactive)
REMARK    1  A    between atoms: C2_2  and  C4_4 
REMARK    2  A    between atoms: C6_6  and  C7_7 
REMARK    3  A    between atoms: C11_16  and  C12_17 
REMARK    4  A    between atoms: C15_20  and  O1_21 
ROOT
HETATM    1  C4  UNL     1     -43.599  25.635   1.477  1.00  0.00    -0.041 A 
HETATM    2  C5  UNL     1     -44.597  26.312   2.152  1.00  0.00     0.024 A 
HETATM    3  C6  UNL     1     -44.413  27.577   2.656  1.00  0.00     0.050 A 
HETATM    4  C8  UNL     1     -43.190  28.231   2.506  1.00  0.00     0.046 A 
HETATM    5  C9  UNL     1     -42.202  27.573   1.851  1.00  0.00     0.044 A 
HETATM    6  N1  UNL     1     -40.916  27.897   1.653  1.00  0.00    -0.365 N 
ATOM      7  H1  UNL     1     -40.489  28.780   1.932  1.00  0.00     0.165 HD
HETATM    8  C10 UNL     1     -40.279  26.908   1.047  1.00  0.00     0.096 A 
HETATM    9  C11 UNL     1     -41.192  25.858   0.824  1.00  0.00    -0.025 A 
HETATM   10  C17 UNL     1     -42.391  26.294   1.336  1.00  0.00     0.005 A 
ENDROOT
BRANCH   9  11
HETATM   11  C12 UNL     1     -40.792  24.679   0.088  1.00  0.00     0.023 C 
HETATM   12  C13 UNL     1     -40.762  23.383   0.974  1.00  0.00     0.012 C 
HETATM   13  C14 UNL     1     -39.860  22.515   0.078  1.00  0.00     0.032 C 
HETATM   14  C15 UNL     1     -38.803  23.492  -0.477  1.00  0.00     0.118 C 
HETATM   15  C16 UNL     1     -39.216  24.798   0.137  1.00  0.00     0.041 C 
BRANCH  14  16
HETATM   16  O1  UNL     1     -37.548  23.041  -0.128  1.00  0.00    -0.396 OA
ATOM     17  H1  UNL     1     -37.014  23.783   0.129  1.00  0.00     0.210 HD
ENDBRANCH  14  16
ENDBRANCH   9  11
BRANCH   1  18
HETATM   18  C2  UNL     1     -43.813  24.356   0.789  1.00  0.00     0.011 C 
HETATM   19  C1  UNL     1     -44.252  23.257   1.762  1.00  0.00     0.015 C 
HETATM   20  C3  UNL     1     -45.274  24.554   0.124  1.00  0.00     0.015 C 
ENDBRANCH   1  18
BRANCH   3  21
HETATM   21  C7  UNL     1     -45.469  28.336   3.428  1.00  0.00     0.417 C 
HETATM   22  F1  UNL     1     -45.045  29.564   3.834  1.00  0.00    -0.166 F 
HETATM   23  F2  UNL     1     -45.760  27.540   4.551  1.00  0.00    -0.166 F 
HETATM   24  F3  UNL     1     -46.647  28.446   2.749  1.00  0.00    -0.166 F 
ENDBRANCH   3  21
TORSDOF 4
ENDMDL
MODEL 5
REMARK VINA RESULT: -6.066804231      2.725      4.077
REMARK  4 active torsions:
REMARK  status: ('A' for Active; 'I' for Inactive)
REMARK    1  A    between atoms: C2_2  and  C4_4 
REMARK    2  A    between atoms: C6_6  and  C7_7 
REMARK    3  A    between atoms: C11_16  and  C12_17 
REMARK    4  A    between atoms: C15_20  and  O1_21 
ROOT
HETATM    1  C4  UNL     1     -41.600  24.769   0.868  1.00  0.00    -0.041 A 
HETATM    2  C5  UNL     1     -40.940  23.649   0.400  1.00  0.00     0.024 A 
HETATM    3  C6  UNL     1     -39.622  23.684   0.011  1.00  0.00     0.050 A 
HETATM    4  C8  UNL     1     -38.894  24.873   0.071  1.00  0.00     0.046 A 
HETATM    5  C9  UNL     1     -39.534  25.980   0.523  1.00  0.00     0.044 A 
HETATM    6  N1  UNL     1     -39.134  27.257   0.587  1.00  0.00    -0.365 N 
ATOM      7  H1  UNL     1     -38.198  27.587   0.350  1.00  0.00     0.165 HD
HETATM    8  C10 UNL     1     -40.124  28.031   1.001  1.00  0.00     0.096 A 
HETATM    9  C11 UNL     1     -41.257  27.224   1.228  1.00  0.00    -0.025 A 
HETATM   10  C17 UNL     1     -40.867  25.942   0.922  1.00  0.00     0.005 A 
ENDROOT
BRANCH   9  11
HETATM   11  C12 UNL     1     -42.466  27.793   1.781  1.00  0.00     0.023 C 
HETATM   12  C13 UNL     1     -42.425  29.361   1.864  1.00  0.00     0.012 C 
HETATM   13  C14 UNL     1     -43.546  29.564   2.898  1.00  0.00     0.032 C 
HETATM   14  C15 UNL     1     -43.369  28.405   3.901  1.00  0.00     0.118 C 
HETATM   15  C16 UNL     1     -42.194  27.663   3.333  1.00  0.00     0.041 C 
BRANCH  14  16
HETATM   16  O1  UNL     1     -43.188  28.928   5.163  1.00  0.00    -0.396 OA
ATOM     17  H1  UNL     1     -43.197  28.219   5.795  1.00  0.00     0.210 HD
ENDBRANCH  14  16
ENDBRANCH   9  11
BRANCH   1  18
HETATM   18  C2  UNL     1     -42.951  24.731   1.440  1.00  0.00     0.011 C 
HETATM   19  C1  UNL     1     -44.024  24.978   0.376  1.00  0.00     0.015 C 
HETATM   20  C3  UNL     1     -43.234  23.144   1.568  1.00  0.00     0.015 C 
ENDBRANCH   1  18
BRANCH   3  21
HETATM   21  C7  UNL     1     -38.876  22.489  -0.536  1.00  0.00     0.417 C 
HETATM   22  F1  UNL     1     -39.701  21.565  -1.102  1.00  0.00    -0.166 F 
HETATM   23  F2  UNL     1     -38.213  21.920   0.567  1.00  0.00    -0.166 F 
HETATM   24  F3  UNL     1     -37.889  22.834  -1.412  1.00  0.00    -0.166 F 
ENDBRANCH   3  21
TORSDOF 4
ENDMDL
