MODEL 1
REMARK VINA RESULT: -7.318797097      0.000      0.000
REMARK  3 active torsions:
REMARK  status: ('A' for Active; 'I' for Inactive)
REMARK    1  A    between atoms: C2_2  and  C4_4 
REMARK    2  A    between atoms: C7_7  and  C8_8 
REMARK    3  A    between atoms: C15_20  and  C16_21 
ROOT
HETATM    1  C4  UNL     1     -39.662  23.219   0.067  1.00  0.00    -0.054 A 
HETATM    2  C5  UNL     1     -40.715  22.466   0.534  1.00  0.00     0.008 A 
HETATM    3  C6  UNL     1     -41.843  23.127   1.015  1.00  0.00     0.011 A 
HETATM    4  C7  UNL     1     -41.929  24.491   1.027  1.00  0.00    -0.013 A 
HETATM    5  C15 UNL     1     -40.877  25.289   0.555  1.00  0.00     0.056 A 
HETATM    6  C17 UNL     1     -39.772  24.626   0.086  1.00  0.00     0.024 A 
ENDROOT
BRANCH   4   7
HETATM    7  C8  UNL     1     -43.189  25.205   1.373  1.00  0.00     0.223 C 
HETATM    8  C9  UNL     1     -44.235  24.468   2.088  1.00  0.00     0.078 C 
HETATM    9  C10 UNL     1     -45.136  24.725   0.915  1.00  0.00     0.144 C 
HETATM   10  C11 UNL     1     -45.922  23.411   0.748  1.00  0.00     0.042 C 
HETATM   11  C14 UNL     1     -46.062  25.911   1.027  1.00  0.00     0.152 C 
HETATM   12  N2  UNL     1     -44.033  24.985   0.113  1.00  0.00    -0.056 N 
HETATM   13  C12 UNL     1     -46.933  23.381  -0.298  1.00  0.00     0.022 C 
HETATM   14  C13 UNL     1     -47.246  24.791  -0.785  1.00  0.00     0.114 C 
HETATM   15  N1  UNL     1     -47.290  25.654   0.352  1.00  0.00    -0.419 N 
ATOM     16  H1  UNL     1     -48.166  26.069   0.668  1.00  0.00     0.153 HD
ATOM     17  H22 UNL     1     -44.080  25.706  -0.606  1.00  0.00     0.279 HD
ATOM     18  H21 UNL     1     -43.739  24.309  -0.591  1.00  0.00     0.279 HD
ENDBRANCH   4   7
BRANCH   5  19
HETATM   19  C16 UNL     1     -40.975  26.750   0.659  1.00  0.00     0.418 C 
HETATM   20  F1  UNL     1     -41.376  27.129   1.957  1.00  0.00    -0.166 F 
HETATM   21  F2  UNL     1     -39.623  27.191   0.657  1.00  0.00    -0.166 F 
HETATM   22  F3  UNL     1     -41.572  27.423  -0.333  1.00  0.00    -0.166 F 
ENDBRANCH   5  19
BRANCH   1  23
HETATM   23  C2  UNL     1     -38.388  22.657  -0.425  1.00  0.00     0.010 C 
HETATM   24  C1  UNL     1     -37.669  22.070   0.818  1.00  0.00     0.015 C 
HETATM   25  C3  UNL     1     -38.573  21.546  -1.399  1.00  0.00     0.015 C 
ENDBRANCH   1  23
TORSDOF 3
ENDMDL
MODEL 2
REMARK VINA RESULT: -7.135268958      2.470      6.482
REMARK  3 active torsions:
REMARK  status: ('A' for Active; 'I' for Inactive)
REMARK    1  A    between atoms: C2_2  and  C4_4 
REMARK    2  A    between atoms: C7_7  and  C8_8 
REMARK    3  A    between atoms: C15_20  and  C16_21 
ROOT
HETATM    1  C4  UNL     1     -43.870  23.576   1.125  1.00  0.00    -0.054 A 
HETATM    2  C5  UNL     1     -43.180  22.388   1.204  1.00  0.00     0.008 A 
HETATM    3  C6  UNL     1     -41.806  22.400   0.976  1.00  0.00     0.011 A 
HETATM    4  C7  UNL     1     -41.133  23.554   0.686  1.00  0.00    -0.013 A 
HETATM    5  C15 UNL     1     -41.803  24.782   0.602  1.00  0.00     0.056 A 
HETATM    6  C17 UNL     1     -43.155  24.757   0.827  1.00  0.00     0.024 A 
ENDROOT
BRANCH   4   7
HETATM    7  C8  UNL     1     -39.647  23.610   0.613  1.00  0.00     0.223 C 
HETATM    8  C9  UNL     1     -39.012  23.609  -0.708  1.00  0.00     0.078 C 
HETATM    9  C10 UNL     1     -38.331  22.330  -0.316  1.00  0.00     0.144 C 
HETATM   10  C11 UNL     1     -38.366  21.476  -1.598  1.00  0.00     0.042 C 
HETATM   11  C14 UNL     1     -36.928  22.455   0.226  1.00  0.00     0.152 C 
HETATM   12  N2  UNL     1     -39.271  22.125   0.684  1.00  0.00    -0.056 N 
HETATM   13  C12 UNL     1     -37.716  20.176  -1.536  1.00  0.00     0.022 C 
HETATM   14  C13 UNL     1     -36.822  20.079  -0.305  1.00  0.00     0.114 C 
HETATM   15  N1  UNL     1     -36.144  21.325  -0.148  1.00  0.00    -0.419 N 
ATOM     16  H1  UNL     1     -35.138  21.404  -0.298  1.00  0.00     0.153 HD
ATOM     17  H22 UNL     1     -38.994  21.707   1.572  1.00  0.00     0.279 HD
ATOM     18  H21 UNL     1     -39.988  21.408   0.577  1.00  0.00     0.279 HD
ENDBRANCH   4   7
BRANCH   5  19
HETATM   19  C16 UNL     1     -41.059  25.985   0.209  1.00  0.00     0.418 C 
HETATM   20  F1  UNL     1     -40.973  26.080  -1.195  1.00  0.00    -0.166 F 
HETATM   21  F2  UNL     1     -41.950  27.055   0.496  1.00  0.00    -0.166 F 
HETATM   22  F3  UNL     1     -39.926  26.278   0.863  1.00  0.00    -0.166 F 
ENDBRANCH   5  19
BRANCH   1  23
HETATM   23  C2  UNL     1     -45.331  23.706   1.293  1.00  0.00     0.010 C 
HETATM   24  C1  UNL     1     -45.572  23.904   2.813  1.00  0.00     0.015 C 
HETATM   25  C3  UNL     1     -45.899  24.891   0.594  1.00  0.00     0.015 C 
ENDBRANCH   1  23
TORSDOF 3
ENDMDL
MODEL 3
REMARK VINA RESULT: -7.114353375      3.266      4.898
REMARK  3 active torsions:
REMARK  status: ('A' for Active; 'I' for Inactive)
REMARK    1  A    between atoms: C2_2  and  C4_4 
REMARK    2  A    between atoms: C7_7  and  C8_8 
REMARK    3  A    between atoms: C15_20  and  C16_21 
ROOT
HETATM    1  C4  UNL     1     -38.799  22.713  -0.189  1.00  0.00    -0.054 A 
HETATM    2  C5  UNL     1     -38.284  23.989  -0.236  1.00  0.00     0.008 A 
HETATM    3  C6  UNL     1     -39.112  25.053   0.113  1.00  0.00     0.011 A 
HETATM    4  C7  UNL     1     -40.408  24.861   0.505  1.00  0.00    -0.013 A 
HETATM    5  C15 UNL     1     -40.963  23.575   0.568  1.00  0.00     0.056 A 
HETATM    6  C17 UNL     1     -40.138  22.537   0.221  1.00  0.00     0.024 A 
ENDROOT
BRANCH   4   7
HETATM    7  C8  UNL     1     -41.246  25.965   1.046  1.00  0.00     0.223 C 
HETATM    8  C9  UNL     1     -41.882  26.888   0.100  1.00  0.00     0.078 C 
HETATM    9  C10 UNL     1     -41.097  27.995   0.741  1.00  0.00     0.144 C 
HETATM   10  C11 UNL     1     -40.674  28.889  -0.439  1.00  0.00     0.042 C 
HETATM   11  C14 UNL     1     -41.807  28.790   1.809  1.00  0.00     0.152 C 
HETATM   12  N2  UNL     1     -40.207  27.070   1.271  1.00  0.00    -0.056 N 
HETATM   13  C12 UNL     1     -39.931  30.097  -0.112  1.00  0.00     0.022 C 
HETATM   14  C13 UNL     1     -40.034  30.405   1.378  1.00  0.00     0.114 C 
HETATM   15  N1  UNL     1     -41.375  30.148   1.793  1.00  0.00    -0.419 N 
ATOM     16  H1  UNL     1     -42.000  30.906   2.068  1.00  0.00     0.153 HD
ATOM     17  H22 UNL     1     -39.804  27.216   2.196  1.00  0.00     0.279 HD
ATOM     18  H21 UNL     1     -39.268  26.979   0.882  1.00  0.00     0.279 HD
ENDBRANCH   4   7
BRANCH   5  19
HETATM   19  C16 UNL     1     -42.380  23.417   0.916  1.00  0.00     0.418 C 
HETATM   20  F1  UNL     1     -43.202  23.809  -0.160  1.00  0.00    -0.166 F 
HETATM   21  F2  UNL     1     -42.585  22.010   0.911  1.00  0.00    -0.166 F 
HETATM   22  F3  UNL     1     -42.794  23.835   2.120  1.00  0.00    -0.166 F 
ENDBRANCH   5  19
BRANCH   1  23
HETATM   23  C2  UNL     1     -38.055  21.498  -0.578  1.00  0.00     0.010 C 
HETATM   24  C1  UNL     1     -37.314  21.851  -1.894  1.00  0.00     0.015 C 
HETATM   25  C3  UNL     1     -37.026  21.095   0.420  1.00  0.00     0.015 C 
ENDBRANCH   1  23
TORSDOF 3
ENDMDL
MODEL 4
REMARK VINA RESULT: -6.786307759      1.090      1.368
REMARK  3 active torsions:
REMARK  status: ('A' for Active; 'I' for Inactive)
REMARK    1  A    between atoms: C2_2  and  C4_4 
REMARK    2  A    between atoms: C7_7  and  C8_8 
REMARK    3  A    between atoms: C15_20  and  C16_21 
ROOT
HETATM    1  C4  UNL     1     -40.255  23.117   0.513  1.00  0.00    -0.054 A 
HETATM    2  C5  UNL     1     -41.475  22.568   0.832  1.00  0.00     0.008 A 
HETATM    3  C6  UNL     1     -42.566  23.418   0.992  1.00  0.00     0.011 A 
HETATM    4  C7  UNL     1     -42.455  24.772   0.833  1.00  0.00    -0.013 A 
HETATM    5  C15 UNL     1     -41.229  25.365   0.505  1.00  0.00     0.056 A 
HETATM    6  C17 UNL     1     -40.162  24.517   0.351  1.00  0.00     0.024 A 
ENDROOT
BRANCH   4   7
HETATM    7  C8  UNL     1     -43.642  25.671   0.829  1.00  0.00     0.223 C 
HETATM    8  C9  UNL     1     -44.296  25.971   2.106  1.00  0.00     0.078 C 
HETATM    9  C10 UNL     1     -45.540  25.341   1.551  1.00  0.00     0.144 C 
HETATM   10  C11 UNL     1     -46.130  24.561   2.741  1.00  0.00     0.042 C 
HETATM   11  C14 UNL     1     -46.556  26.279   0.947  1.00  0.00     0.152 C 
HETATM   12  N2  UNL     1     -44.787  24.681   0.589  1.00  0.00    -0.056 N 
HETATM   13  C12 UNL     1     -47.396  23.879   2.513  1.00  0.00     0.022 C 
HETATM   14  C13 UNL     1     -48.052  24.377   1.231  1.00  0.00     0.114 C 
HETATM   15  N1  UNL     1     -47.878  25.792   1.162  1.00  0.00    -0.419 N 
ATOM     16  H1  UNL     1     -48.668  26.429   1.263  1.00  0.00     0.153 HD
ATOM     17  H22 UNL     1     -45.161  24.545  -0.350  1.00  0.00     0.279 HD
ATOM     18  H21 UNL     1     -44.623  23.677   0.663  1.00  0.00     0.279 HD
ENDBRANCH   4   7
BRANCH   5  19
HETATM   19  C16 UNL     1     -41.133  26.828   0.422  1.00  0.00     0.418 C 
HETATM   20  F1  UNL     1     -41.584  27.422   1.618  1.00  0.00    -0.166 F 
HETATM   21  F2  UNL     1     -39.738  27.090   0.501  1.00  0.00    -0.166 F 
HETATM   22  F3  UNL     1     -41.548  27.434  -0.698  1.00  0.00    -0.166 F 
ENDBRANCH   5  19
BRANCH   1  23
HETATM   23  C2  UNL     1     -39.005  22.346   0.362  1.00  0.00     0.010 C 
HETATM   24  C1  UNL     1     -39.079  21.679  -1.037  1.00  0.00     0.015 C 
HETATM   25  C3  UNL     1     -37.783  23.196   0.386  1.00  0.00     0.015 C 
ENDBRANCH   1  23
TORSDOF 3
ENDMDL
MODEL 5
REMARK VINA RESULT: -6.551042170      2.756      6.161
REMARK  3 active torsions:
REMARK  status: ('A' for Active; 'I' for Inactive)
REMARK    1  A    between atoms: C2_2  and  C4_4 
REMARK    2  A    between atoms: C7_7  and  C8_8 
REMARK    3  A    between atoms: C15_20  and  C16_21 
ROOT
HETATM    1  C4  UNL     1     -45.405  24.372   0.763  1.00  0.00    -0.054 A 
HETATM    2  C5  UNL     1     -45.365  25.664   1.236  1.00  0.00     0.008 A 
HETATM    3  C6  UNL     1     -44.128  26.220   1.547  1.00  0.00     0.011 A 
HETATM    4  C7  UNL     1     -42.962  25.523   1.389  1.00  0.00    -0.013 A 
HETATM    5  C15 UNL     1     -42.965  24.207   0.906  1.00  0.00     0.056 A 
HETATM    6  C17 UNL     1     -44.190  23.670   0.604  1.00  0.00     0.024 A 
ENDROOT
BRANCH   4   7
HETATM    7  C8  UNL     1     -41.627  26.160   1.551  1.00  0.00     0.223 C 
HETATM    8  C9  UNL     1     -41.524  27.368   2.374  1.00  0.00     0.078 C 
HETATM    9  C10 UNL     1     -41.038  28.091   1.152  1.00  0.00     0.144 C 
HETATM   10  C11 UNL     1     -41.712  29.473   1.238  1.00  0.00     0.042 C 
HETATM   11  C14 UNL     1     -39.542  28.215   0.996  1.00  0.00     0.152 C 
HETATM   12  N2  UNL     1     -41.577  27.101   0.341  1.00  0.00    -0.056 N 
HETATM   13  C12 UNL     1     -41.376  30.430   0.194  1.00  0.00     0.022 C 
HETATM   14  C13 UNL     1     -40.143  29.975  -0.577  1.00  0.00     0.114 C 
HETATM   15  N1  UNL     1     -39.204  29.443   0.357  1.00  0.00    -0.419 N 
ATOM     16  H1  UNL     1     -38.328  29.923   0.560  1.00  0.00     0.153 HD
ATOM     17  H22 UNL     1     -41.095  26.816  -0.511  1.00  0.00     0.279 HD
ATOM     18  H21 UNL     1     -42.420  27.284  -0.202  1.00  0.00     0.279 HD
ENDBRANCH   4   7
BRANCH   5  19
HETATM   19  C16 UNL     1     -41.701  23.464   0.826  1.00  0.00     0.418 C 
HETATM   20  F1  UNL     1     -40.999  23.547   2.046  1.00  0.00    -0.166 F 
HETATM   21  F2  UNL     1     -42.098  22.099   0.838  1.00  0.00    -0.166 F 
HETATM   22  F3  UNL     1     -40.944  23.607  -0.270  1.00  0.00    -0.166 F 
ENDBRANCH   5  19
BRANCH   1  23
HETATM   23  C2  UNL     1     -46.645  23.638   0.440  1.00  0.00     0.010 C 
HETATM   24  C1  UNL     1     -47.737  24.204   1.385  1.00  0.00     0.015 C 
HETATM   25  C3  UNL     1     -47.108  23.856  -0.958  1.00  0.00     0.015 C 
ENDBRANCH   1  23
TORSDOF 3
ENDMDL
