MODEL 1
REMARK VINA RESULT: -8.629243323      0.000      0.000
REMARK  6 active torsions:
REMARK  status: ('A' for Active; 'I' for Inactive)
REMARK    1  A    between atoms: C2_2  and  C4_4 
REMARK    2  A    between atoms: C6_6  and  C7_7 
REMARK    3  A    between atoms: C14_14  and  C15_15 
REMARK    4  A    between atoms: C15_15  and  O1_16 
REMARK    5  A    between atoms: C15_15  and  C16_18 
REMARK    6  A    between atoms: C16_18  and  C17_19 
ROOT
HETATM    1  C4  UNL     1     -41.822  26.427   0.847  1.00  0.00    -0.003 A 
HETATM    2  C5  UNL     1     -43.190  26.286   1.149  1.00  0.00     0.022 A 
HETATM    3  C6  UNL     1     -43.868  25.112   1.093  1.00  0.00    -0.049 A 
HETATM    4  C11 UNL     1     -43.147  23.996   0.715  1.00  0.00     0.021 A 
HETATM    5  C12 UNL     1     -41.809  24.052   0.405  1.00  0.00    -0.006 A 
HETATM    6  C13 UNL     1     -40.865  23.115   0.015  1.00  0.00     0.041 A 
HETATM    7  C14 UNL     1     -39.666  23.731  -0.151  1.00  0.00     0.040 A 
HETATM    8  N1  UNL     1     -39.876  25.055   0.139  1.00  0.00    -0.356 N 
ATOM      9  H1  UNL     1     -39.152  25.772   0.103  1.00  0.00     0.166 HD
HETATM   10  C18 UNL     1     -41.144  25.287   0.474  1.00  0.00     0.053 A 
ENDROOT
BRANCH   7  11
HETATM   11  C15 UNL     1     -38.392  23.125  -0.545  1.00  0.00     0.176 C 
BRANCH  11  12
HETATM   12  O1  UNL     1     -37.551  23.198   0.629  1.00  0.00    -0.389 OA
ATOM     13  H1  UNL     1     -36.666  23.304   0.299  1.00  0.00     0.210 HD
ENDBRANCH  11  12
BRANCH  11  14
HETATM   14  C16 UNL     1     -38.444  21.703  -0.993  1.00  0.00     0.155 C 
BRANCH  14  15
HETATM   15  C17 UNL     1     -37.170  20.966  -1.115  1.00  0.00     0.390 C 
HETATM   16  F1  UNL     1     -36.252  21.695  -1.877  1.00  0.00    -0.171 F 
HETATM   17  F2  UNL     1     -36.600  20.458  -0.007  1.00  0.00    -0.171 F 
HETATM   18  F3  UNL     1     -37.452  19.850  -1.940  1.00  0.00    -0.171 F 
ENDBRANCH  14  15
ENDBRANCH  11  14
ENDBRANCH   7  11
BRANCH   1  19
HETATM   19  C2  UNL     1     -41.208  27.735   0.960  1.00  0.00    -0.059 C 
HETATM   20  C1  UNL     1     -40.957  28.284   2.157  1.00  0.00     0.019 C 
HETATM   21  C3  UNL     1     -40.872  28.568  -0.211  1.00  0.00     0.048 C 
ENDBRANCH   1  19
BRANCH   3  22
HETATM   22  C7  UNL     1     -45.292  24.944   1.403  1.00  0.00    -0.024 C 
HETATM   23  C8  UNL     1     -45.936  26.212   1.906  1.00  0.00     0.019 C 
HETATM   24  C9  UNL     1     -45.980  24.408   0.178  1.00  0.00     0.019 C 
HETATM   25  C10 UNL     1     -45.413  23.873   2.485  1.00  0.00     0.019 C 
ENDBRANCH   3  22
TORSDOF 6
ENDMDL
MODEL 2
REMARK VINA RESULT: -8.418909247      0.267      1.193
REMARK  6 active torsions:
REMARK  status: ('A' for Active; 'I' for Inactive)
REMARK    1  A    between atoms: C2_2  and  C4_4 
REMARK    2  A    between atoms: C6_6  and  C7_7 
REMARK    3  A    between atoms: C14_14  and  C15_15 
REMARK    4  A    between atoms: C15_15  and  O1_16 
REMARK    5  A    between atoms: C15_15  and  C16_18 
REMARK    6  A    between atoms: C16_18  and  C17_19 
ROOT
HETATM    1  C4  UNL     1     -41.889  26.460   0.919  1.00  0.00    -0.003 A 
HETATM    2  C5  UNL     1     -43.249  26.341   1.261  1.00  0.00     0.022 A 
HETATM    3  C6  UNL     1     -43.944  25.176   1.239  1.00  0.00    -0.049 A 
HETATM    4  C11 UNL     1     -43.249  24.047   0.854  1.00  0.00     0.021 A 
HETATM    5  C12 UNL     1     -41.920  24.081   0.506  1.00  0.00    -0.006 A 
HETATM    6  C13 UNL     1     -41.000  23.126   0.101  1.00  0.00     0.041 A 
HETATM    7  C14 UNL     1     -39.798  23.724  -0.106  1.00  0.00     0.040 A 
HETATM    8  N1  UNL     1     -39.982  25.054   0.174  1.00  0.00    -0.356 N 
ATOM      9  H1  UNL     1     -39.250  25.761   0.108  1.00  0.00     0.166 HD
HETATM   10  C18 UNL     1     -41.237  25.307   0.541  1.00  0.00     0.053 A 
ENDROOT
BRANCH   7  11
HETATM   11  C15 UNL     1     -38.543  23.096  -0.529  1.00  0.00     0.176 C 
BRANCH  11  12
HETATM   12  O1  UNL     1     -37.585  23.416   0.505  1.00  0.00    -0.389 OA
ATOM     13  H1  UNL     1     -37.193  24.241   0.240  1.00  0.00     0.210 HD
ENDBRANCH  11  12
BRANCH  11  14
HETATM   14  C16 UNL     1     -38.567  21.614  -0.697  1.00  0.00     0.155 C 
BRANCH  14  15
HETATM   15  C17 UNL     1     -37.396  20.967  -1.324  1.00  0.00     0.390 C 
HETATM   16  F1  UNL     1     -36.371  20.797  -0.389  1.00  0.00    -0.171 F 
HETATM   17  F2  UNL     1     -37.580  19.859  -2.064  1.00  0.00    -0.171 F 
HETATM   18  F3  UNL     1     -36.858  21.930  -2.213  1.00  0.00    -0.171 F 
ENDBRANCH  14  15
ENDBRANCH  11  14
ENDBRANCH   7  11
BRANCH   1  19
HETATM   19  C2  UNL     1     -41.255  27.762   0.998  1.00  0.00    -0.059 C 
HETATM   20  C1  UNL     1     -41.001  28.340   2.180  1.00  0.00     0.019 C 
HETATM   21  C3  UNL     1     -40.900  28.555  -0.193  1.00  0.00     0.048 C 
ENDBRANCH   1  19
BRANCH   3  22
HETATM   22  C7  UNL     1     -45.361  25.031   1.591  1.00  0.00    -0.024 C 
HETATM   23  C8  UNL     1     -45.602  23.955   2.622  1.00  0.00     0.019 C 
HETATM   24  C9  UNL     1     -45.873  26.371   2.041  1.00  0.00     0.019 C 
HETATM   25  C10 UNL     1     -46.124  24.667   0.320  1.00  0.00     0.019 C 
ENDBRANCH   3  22
TORSDOF 6
ENDMDL
MODEL 3
REMARK VINA RESULT: -7.491413174      1.084      1.535
REMARK  6 active torsions:
REMARK  status: ('A' for Active; 'I' for Inactive)
REMARK    1  A    between atoms: C2_2  and  C4_4 
REMARK    2  A    between atoms: C6_6  and  C7_7 
REMARK    3  A    between atoms: C14_14  and  C15_15 
REMARK    4  A    between atoms: C15_15  and  O1_16 
REMARK    5  A    between atoms: C15_15  and  C16_18 
REMARK    6  A    between atoms: C16_18  and  C17_19 
ROOT
HETATM    1  C4  UNL     1     -42.743  26.483   1.618  1.00  0.00    -0.003 A 
HETATM    2  C5  UNL     1     -44.121  26.247   1.782  1.00  0.00     0.022 A 
HETATM    3  C6  UNL     1     -44.756  25.117   1.383  1.00  0.00    -0.049 A 
HETATM    4  C11 UNL     1     -43.979  24.148   0.780  1.00  0.00     0.021 A 
HETATM    5  C12 UNL     1     -42.628  24.303   0.583  1.00  0.00    -0.006 A 
HETATM    6  C13 UNL     1     -41.633  23.513   0.029  1.00  0.00     0.041 A 
HETATM    7  C14 UNL     1     -40.446  24.169   0.106  1.00  0.00     0.040 A 
HETATM    8  N1  UNL     1     -40.715  25.370   0.712  1.00  0.00    -0.356 N 
ATOM      9  H1  UNL     1     -40.013  26.083   0.908  1.00  0.00     0.166 HD
HETATM   10  C18 UNL     1     -42.008  25.488   1.010  1.00  0.00     0.053 A 
ENDROOT
BRANCH   7  11
HETATM   11  C15 UNL     1     -39.132  23.704  -0.346  1.00  0.00     0.176 C 
BRANCH  11  12
HETATM   12  O1  UNL     1     -38.201  24.737   0.050  1.00  0.00    -0.389 OA
ATOM     13  H1  UNL     1     -38.210  24.735   1.001  1.00  0.00     0.210 HD
ENDBRANCH  11  12
BRANCH  11  14
HETATM   14  C16 UNL     1     -38.656  22.409   0.219  1.00  0.00     0.155 C 
BRANCH  14  15
HETATM   15  C17 UNL     1     -37.620  21.665  -0.526  1.00  0.00     0.390 C 
HETATM   16  F1  UNL     1     -37.045  22.475  -1.509  1.00  0.00    -0.171 F 
HETATM   17  F2  UNL     1     -36.686  20.981   0.160  1.00  0.00    -0.171 F 
HETATM   18  F3  UNL     1     -38.318  20.693  -1.284  1.00  0.00    -0.171 F 
ENDBRANCH  14  15
ENDBRANCH  11  14
ENDBRANCH   7  11
BRANCH   1  19
HETATM   19  C2  UNL     1     -42.178  27.727   2.102  1.00  0.00    -0.059 C 
HETATM   20  C1  UNL     1     -41.446  28.515   1.303  1.00  0.00     0.019 C 
HETATM   21  C3  UNL     1     -42.318  28.182   3.498  1.00  0.00     0.048 C 
ENDBRANCH   1  19
BRANCH   3  22
HETATM   22  C7  UNL     1     -46.190  24.853   1.545  1.00  0.00    -0.024 C 
HETATM   23  C8  UNL     1     -46.549  24.395   2.938  1.00  0.00     0.019 C 
HETATM   24  C9  UNL     1     -46.944  26.091   1.145  1.00  0.00     0.019 C 
HETATM   25  C10 UNL     1     -46.579  23.757   0.556  1.00  0.00     0.019 C 
ENDBRANCH   3  22
TORSDOF 6
ENDMDL
MODEL 4
REMARK VINA RESULT: -7.331101699      1.349      3.750
REMARK  6 active torsions:
REMARK  status: ('A' for Active; 'I' for Inactive)
REMARK    1  A    between atoms: C2_2  and  C4_4 
REMARK    2  A    between atoms: C6_6  and  C7_7 
REMARK    3  A    between atoms: C14_14  and  C15_15 
REMARK    4  A    between atoms: C15_15  and  O1_16 
REMARK    5  A    between atoms: C15_15  and  C16_18 
REMARK    6  A    between atoms: C16_18  and  C17_19 
ROOT
HETATM    1  C4  UNL     1     -42.256  25.014   0.823  1.00  0.00    -0.003 A 
HETATM    2  C5  UNL     1     -42.293  26.388   1.123  1.00  0.00     0.022 A 
HETATM    3  C6  UNL     1     -41.216  27.212   1.071  1.00  0.00    -0.049 A 
HETATM    4  C11 UNL     1     -40.016  26.641   0.697  1.00  0.00     0.021 A 
HETATM    5  C12 UNL     1     -39.898  25.307   0.388  1.00  0.00    -0.006 A 
HETATM    6  C13 UNL     1     -38.849  24.495  -0.015  1.00  0.00     0.041 A 
HETATM    7  C14 UNL     1     -39.308  23.229  -0.195  1.00  0.00     0.040 A 
HETATM    8  N1  UNL     1     -40.646  23.265   0.100  1.00  0.00    -0.356 N 
ATOM      9  H1  UNL     1     -41.265  22.456   0.053  1.00  0.00     0.166 HD
HETATM   10  C18 UNL     1     -41.037  24.488   0.454  1.00  0.00     0.053 A 
ENDROOT
BRANCH   7  11
HETATM   11  C15 UNL     1     -38.549  22.052  -0.628  1.00  0.00     0.176 C 
BRANCH  11  12
HETATM   12  O1  UNL     1     -37.842  22.467  -1.819  1.00  0.00    -0.389 OA
ATOM     13  H1  UNL     1     -38.235  21.975  -2.530  1.00  0.00     0.210 HD
ENDBRANCH  11  12
BRANCH  11  14
HETATM   14  C16 UNL     1     -37.552  21.512   0.340  1.00  0.00     0.155 C 
BRANCH  14  15
HETATM   15  C17 UNL     1     -36.555  20.542  -0.157  1.00  0.00     0.390 C 
HETATM   16  F1  UNL     1     -37.109  19.738  -1.157  1.00  0.00    -0.171 F 
HETATM   17  F2  UNL     1     -35.330  20.981  -0.497  1.00  0.00    -0.171 F 
HETATM   18  F3  UNL     1     -36.348  19.629   0.906  1.00  0.00    -0.171 F 
ENDBRANCH  14  15
ENDBRANCH  11  14
ENDBRANCH   7  11
BRANCH   1  19
HETATM   19  C2  UNL     1     -43.481  24.243   0.899  1.00  0.00    -0.059 C 
HETATM   20  C1  UNL     1     -44.636  24.725   0.420  1.00  0.00     0.019 C 
HETATM   21  C3  UNL     1     -43.558  22.920   1.548  1.00  0.00     0.048 C 
ENDBRANCH   1  19
BRANCH   3  22
HETATM   22  C7  UNL     1     -41.234  28.645   1.381  1.00  0.00    -0.024 C 
HETATM   23  C8  UNL     1     -41.206  29.512   0.145  1.00  0.00     0.019 C 
HETATM   24  C9  UNL     1     -42.435  28.926   2.241  1.00  0.00     0.019 C 
HETATM   25  C10 UNL     1     -40.001  28.959   2.223  1.00  0.00     0.019 C 
ENDBRANCH   3  22
TORSDOF 6
ENDMDL
MODEL 5
REMARK VINA RESULT: -7.280404429      1.594      3.997
REMARK  6 active torsions:
REMARK  status: ('A' for Active; 'I' for Inactive)
REMARK    1  A    between atoms: C2_2  and  C4_4 
REMARK    2  A    between atoms: C6_6  and  C7_7 
REMARK    3  A    between atoms: C14_14  and  C15_15 
REMARK    4  A    between atoms: C15_15  and  O1_16 
REMARK    5  A    between atoms: C15_15  and  C16_18 
REMARK    6  A    between atoms: C16_18  and  C17_19 
ROOT
HETATM    1  C4  UNL     1     -41.629  24.189   0.855  1.00  0.00    -0.003 A 
HETATM    2  C5  UNL     1     -41.713  25.575   1.084  1.00  0.00     0.022 A 
HETATM    3  C6  UNL     1     -40.703  26.451   0.849  1.00  0.00    -0.049 A 
HETATM    4  C11 UNL     1     -39.528  25.924   0.352  1.00  0.00     0.021 A 
HETATM    5  C12 UNL     1     -39.368  24.582   0.102  1.00  0.00    -0.006 A 
HETATM    6  C13 UNL     1     -38.331  23.805  -0.391  1.00  0.00     0.041 A 
HETATM    7  C14 UNL     1     -38.731  22.507  -0.442  1.00  0.00     0.040 A 
HETATM    8  N1  UNL     1     -40.021  22.489   0.022  1.00  0.00    -0.356 N 
ATOM      9  H1  UNL     1     -40.590  21.646   0.100  1.00  0.00     0.166 HD
HETATM   10  C18 UNL     1     -40.437  23.708   0.359  1.00  0.00     0.053 A 
ENDROOT
BRANCH   7  11
HETATM   11  C15 UNL     1     -37.963  21.349  -0.907  1.00  0.00     0.176 C 
BRANCH  11  12
HETATM   12  O1  UNL     1     -37.421  21.737  -2.190  1.00  0.00    -0.389 OA
ATOM     13  H1  UNL     1     -36.501  21.499  -2.158  1.00  0.00     0.210 HD
ENDBRANCH  11  12
BRANCH  11  14
HETATM   14  C16 UNL     1     -36.833  20.910  -0.039  1.00  0.00     0.155 C 
BRANCH  14  15
HETATM   15  C17 UNL     1     -35.481  20.855  -0.631  1.00  0.00     0.390 C 
HETATM   16  F1  UNL     1     -35.394  19.815  -1.561  1.00  0.00    -0.171 F 
HETATM   17  F2  UNL     1     -34.929  21.988  -1.102  1.00  0.00    -0.171 F 
HETATM   18  F3  UNL     1     -34.625  20.422   0.411  1.00  0.00    -0.171 F 
ENDBRANCH  14  15
ENDBRANCH  11  14
ENDBRANCH   7  11
BRANCH   1  19
HETATM   19  C2  UNL     1     -42.786  23.359   1.131  1.00  0.00    -0.059 C 
HETATM   20  C1  UNL     1     -42.736  22.028   0.985  1.00  0.00     0.019 C 
HETATM   21  C3  UNL     1     -44.093  23.912   1.531  1.00  0.00     0.048 C 
ENDBRANCH   1  19
BRANCH   3  22
HETATM   22  C7  UNL     1     -40.769  27.898   1.081  1.00  0.00    -0.024 C 
HETATM   23  C8  UNL     1     -41.887  28.291   2.016  1.00  0.00     0.019 C 
HETATM   24  C9  UNL     1     -39.427  28.356   1.581  1.00  0.00     0.019 C 
HETATM   25  C10 UNL     1     -40.998  28.579  -0.265  1.00  0.00     0.019 C 
ENDBRANCH   3  22
TORSDOF 6
ENDMDL
