MODEL 1
REMARK VINA RESULT: -7.401717424      0.000      0.000
REMARK  3 active torsions:
REMARK  status: ('A' for Active; 'I' for Inactive)
REMARK    1  A    between atoms: C2_2  and  C3_3 
REMARK    2  A    between atoms: C3_3  and  C4_4 
REMARK    3  A    between atoms: C15_19  and  C16_20 
ROOT
HETATM    1  C3  UNL     1      -2.912  22.480  10.396  1.00  0.00     0.017 C 
HETATM    2  C7  UNL     1      -4.036  22.838   9.502  1.00  0.00     0.011 A 
HETATM    3  C8  UNL     1      -3.905  23.390   8.245  1.00  0.00     0.110 A 
HETATM    4  N1  UNL     1      -5.110  23.624   7.690  1.00  0.00    -0.342 N 
ATOM      5  H1  UNL     1      -5.272  24.030   6.769  1.00  0.00     0.167 HD
HETATM    6  C9  UNL     1      -6.068  23.235   8.554  1.00  0.00     0.044 A 
HETATM    7  C10 UNL     1      -7.435  23.267   8.445  1.00  0.00     0.030 A 
HETATM    8  C11 UNL     1      -8.198  22.794   9.490  1.00  0.00     0.002 A 
HETATM    9  C12 UNL     1      -7.588  22.298  10.629  1.00  0.00     0.001 A 
HETATM   10  C13 UNL     1      -6.212  22.282  10.704  1.00  0.00     0.014 A 
HETATM   11  C14 UNL     1      -5.414  22.743   9.687  1.00  0.00     0.002 A 
HETATM   12  N2  UNL     1      -2.553  23.571   7.807  1.00  0.00    -0.362 N 
ATOM     13  H2  UNL     1      -2.276  24.354   7.215  1.00  0.00     0.161 HD
HETATM   14  C15 UNL     1      -1.603  22.574   8.258  1.00  0.00     0.195 C 
HETATM   15  C17 UNL     1      -1.572  22.538   9.728  1.00  0.00     0.030 C 
HETATM   16  C18 UNL     1      -0.617  21.494  10.289  1.00  0.00     0.014 C 
ENDROOT
BRANCH   1  17
HETATM   17  C2  UNL     1      -3.151  21.114  10.997  1.00  0.00    -0.022 C 
HETATM   18  C1  UNL     1      -3.345  20.949  12.293  1.00  0.00     0.008 C 
ENDBRANCH   1  17
BRANCH   1  19
HETATM   19  C4  UNL     1      -2.985  23.460  11.557  1.00  0.00    -0.005 C 
HETATM   20  C5  UNL     1      -1.676  24.005  11.977  1.00  0.00     0.011 C 
HETATM   21  C6  UNL     1      -3.900  24.627  11.268  1.00  0.00     0.011 C 
ENDBRANCH   1  19
BRANCH  14  22
HETATM   22  C16 UNL     1      -0.310  22.885   7.586  1.00  0.00     0.407 C 
HETATM   23  F1  UNL     1       0.713  23.211   8.409  1.00  0.00    -0.169 F 
HETATM   24  F2  UNL     1       0.072  21.758   6.856  1.00  0.00    -0.169 F 
HETATM   25  F3  UNL     1      -0.455  23.901   6.660  1.00  0.00    -0.169 F 
ENDBRANCH  14  22
TORSDOF 3
ENDMDL
MODEL 2
REMARK VINA RESULT: -6.909929013      3.392      4.913
REMARK  3 active torsions:
REMARK  status: ('A' for Active; 'I' for Inactive)
REMARK    1  A    between atoms: C2_2  and  C3_3 
REMARK    2  A    between atoms: C3_3  and  C4_4 
REMARK    3  A    between atoms: C15_19  and  C16_20 
ROOT
HETATM    1  C3  UNL     1      -6.410  22.182  12.261  1.00  0.00     0.017 C 
HETATM    2  C7  UNL     1      -5.667  22.521  11.027  1.00  0.00     0.011 A 
HETATM    3  C8  UNL     1      -4.293  22.548  10.910  1.00  0.00     0.110 A 
HETATM    4  N1  UNL     1      -3.919  22.916   9.669  1.00  0.00    -0.342 N 
ATOM      5  H1  UNL     1      -2.958  23.011   9.342  1.00  0.00     0.167 HD
HETATM    6  C9  UNL     1      -5.023  23.137   8.932  1.00  0.00     0.044 A 
HETATM    7  C10 UNL     1      -5.160  23.522   7.621  1.00  0.00     0.030 A 
HETATM    8  C11 UNL     1      -6.425  23.675   7.101  1.00  0.00     0.002 A 
HETATM    9  C12 UNL     1      -7.537  23.444   7.892  1.00  0.00     0.001 A 
HETATM   10  C13 UNL     1      -7.363  23.059   9.204  1.00  0.00     0.014 A 
HETATM   11  C14 UNL     1      -6.120  22.895   9.764  1.00  0.00     0.002 A 
HETATM   12  N2  UNL     1      -3.583  22.172  12.096  1.00  0.00    -0.362 N 
ATOM     13  H2  UNL     1      -2.687  22.591  12.347  1.00  0.00     0.161 HD
HETATM   14  C15 UNL     1      -4.216  21.160  12.918  1.00  0.00     0.195 C 
HETATM   15  C17 UNL     1      -5.545  21.620  13.347  1.00  0.00     0.030 C 
HETATM   16  C18 UNL     1      -6.294  20.602  14.195  1.00  0.00     0.014 C 
ENDROOT
BRANCH   1  17
HETATM   17  C2  UNL     1      -7.540  21.232  11.934  1.00  0.00    -0.022 C 
HETATM   18  C1  UNL     1      -8.792  21.646  11.848  1.00  0.00     0.008 C 
ENDBRANCH   1  17
BRANCH   1  19
HETATM   19  C4  UNL     1      -7.074  23.475  12.707  1.00  0.00    -0.005 C 
HETATM   20  C5  UNL     1      -7.162  23.641  14.174  1.00  0.00     0.011 C 
HETATM   21  C6  UNL     1      -6.385  24.698  12.145  1.00  0.00     0.011 C 
ENDBRANCH   1  19
BRANCH  14  22
HETATM   22  C16 UNL     1      -3.253  20.837  14.010  1.00  0.00     0.407 C 
HETATM   23  F1  UNL     1      -3.601  21.272  15.243  1.00  0.00    -0.169 F 
HETATM   24  F2  UNL     1      -3.126  19.448  14.067  1.00  0.00    -0.169 F 
HETATM   25  F3  UNL     1      -1.989  21.319  13.726  1.00  0.00    -0.169 F 
ENDBRANCH  14  22
TORSDOF 3
ENDMDL
MODEL 3
REMARK VINA RESULT: -6.848299171      3.750      5.655
REMARK  3 active torsions:
REMARK  status: ('A' for Active; 'I' for Inactive)
REMARK    1  A    between atoms: C2_2  and  C3_3 
REMARK    2  A    between atoms: C3_3  and  C4_4 
REMARK    3  A    between atoms: C15_19  and  C16_20 
ROOT
HETATM    1  C3  UNL     1      -4.344  22.787  10.969  1.00  0.00     0.017 C 
HETATM    2  C7  UNL     1      -4.789  21.982  12.129  1.00  0.00     0.011 A 
HETATM    3  C8  UNL     1      -6.104  21.709  12.448  1.00  0.00     0.110 A 
HETATM    4  N1  UNL     1      -6.186  20.974  13.574  1.00  0.00    -0.342 N 
ATOM      5  H1  UNL     1      -7.049  20.651  14.010  1.00  0.00     0.167 HD
HETATM    6  C9  UNL     1      -4.941  20.736  14.029  1.00  0.00     0.044 A 
HETATM    7  C10 UNL     1      -4.511  20.037  15.128  1.00  0.00     0.030 A 
HETATM    8  C11 UNL     1      -3.158  19.939  15.368  1.00  0.00     0.002 A 
HETATM    9  C12 UNL     1      -2.254  20.540  14.510  1.00  0.00     0.001 A 
HETATM   10  C13 UNL     1      -2.721  21.235  13.416  1.00  0.00     0.014 A 
HETATM   11  C14 UNL     1      -4.061  21.358  13.139  1.00  0.00     0.002 A 
HETATM   12  N2  UNL     1      -7.066  22.237  11.528  1.00  0.00    -0.362 N 
ATOM     13  H2  UNL     1      -7.984  22.564  11.832  1.00  0.00     0.161 HD
HETATM   14  C15 UNL     1      -6.656  22.279  10.139  1.00  0.00     0.195 C 
HETATM   15  C17 UNL     1      -5.442  23.095   9.997  1.00  0.00     0.030 C 
HETATM   16  C18 UNL     1      -4.924  23.170   8.568  1.00  0.00     0.014 C 
ENDROOT
BRANCH   1  17
HETATM   17  C2  UNL     1      -3.196  22.091  10.275  1.00  0.00    -0.022 C 
HETATM   18  C1  UNL     1      -3.092  20.774  10.255  1.00  0.00     0.008 C 
ENDBRANCH   1  17
BRANCH   1  19
HETATM   19  C4  UNL     1      -3.760  24.062  11.556  1.00  0.00    -0.005 C 
HETATM   20  C5  UNL     1      -2.375  24.352  11.126  1.00  0.00     0.011 C 
HETATM   21  C6  UNL     1      -4.604  25.277  11.245  1.00  0.00     0.011 C 
ENDBRANCH   1  19
BRANCH  14  22
HETATM   22  C16 UNL     1      -7.842  22.733   9.359  1.00  0.00     0.407 C 
HETATM   23  F1  UNL     1      -7.916  22.277   8.088  1.00  0.00    -0.169 F 
HETATM   24  F2  UNL     1      -8.985  22.303  10.035  1.00  0.00    -0.169 F 
HETATM   25  F3  UNL     1      -7.924  24.113   9.324  1.00  0.00    -0.169 F 
ENDBRANCH  14  22
TORSDOF 3
ENDMDL
MODEL 4
REMARK VINA RESULT: -6.802975075      4.452      6.034
REMARK  3 active torsions:
REMARK  status: ('A' for Active; 'I' for Inactive)
REMARK    1  A    between atoms: C2_2  and  C3_3 
REMARK    2  A    between atoms: C3_3  and  C4_4 
REMARK    3  A    between atoms: C15_19  and  C16_20 
ROOT
HETATM    1  C3  UNL     1      -6.861  21.643  13.989  1.00  0.00     0.017 C 
HETATM    2  C7  UNL     1      -6.238  21.931  12.678  1.00  0.00     0.011 A 
HETATM    3  C8  UNL     1      -4.881  22.004  12.443  1.00  0.00     0.110 A 
HETATM    4  N1  UNL     1      -4.628  22.306  11.154  1.00  0.00    -0.342 N 
ATOM      5  H1  UNL     1      -3.702  22.417  10.741  1.00  0.00     0.167 HD
HETATM    6  C9  UNL     1      -5.799  22.436  10.501  1.00  0.00     0.044 A 
HETATM    7  C10 UNL     1      -6.060  22.730   9.186  1.00  0.00     0.030 A 
HETATM    8  C11 UNL     1      -7.370  22.799   8.768  1.00  0.00     0.002 A 
HETATM    9  C12 UNL     1      -8.401  22.576   9.663  1.00  0.00     0.001 A 
HETATM   10  C13 UNL     1      -8.102  22.284  10.976  1.00  0.00     0.014 A 
HETATM   11  C14 UNL     1      -6.810  22.205  11.437  1.00  0.00     0.002 A 
HETATM   12  N2  UNL     1      -4.059  21.733  13.584  1.00  0.00    -0.362 N 
ATOM     13  H2  UNL     1      -3.165  22.202  13.732  1.00  0.00     0.161 HD
HETATM   14  C15 UNL     1      -4.576  20.753  14.517  1.00  0.00     0.195 C 
HETATM   15  C17 UNL     1      -5.884  21.186  15.029  1.00  0.00     0.030 C 
HETATM   16  C18 UNL     1      -6.515  20.197  15.999  1.00  0.00     0.014 C 
ENDROOT
BRANCH   1  17
HETATM   17  C2  UNL     1      -7.971  20.631  13.818  1.00  0.00    -0.022 C 
HETATM   18  C1  UNL     1      -7.753  19.448  13.272  1.00  0.00     0.008 C 
ENDBRANCH   1  17
BRANCH   1  19
HETATM   19  C4  UNL     1      -7.542  22.935  14.410  1.00  0.00    -0.005 C 
HETATM   20  C5  UNL     1      -8.980  22.791  14.726  1.00  0.00     0.011 C 
HETATM   21  C6  UNL     1      -6.870  23.578  15.602  1.00  0.00     0.011 C 
ENDBRANCH   1  19
BRANCH  14  22
HETATM   22  C16 UNL     1      -3.513  20.538  15.540  1.00  0.00     0.407 C 
HETATM   23  F1  UNL     1      -3.449  19.293  16.064  1.00  0.00    -0.169 F 
HETATM   24  F2  UNL     1      -2.284  20.813  14.940  1.00  0.00    -0.169 F 
HETATM   25  F3  UNL     1      -3.631  21.437  16.585  1.00  0.00    -0.169 F 
ENDBRANCH  14  22
TORSDOF 3
ENDMDL
MODEL 5
REMARK VINA RESULT: -6.672400864      3.464      4.885
REMARK  3 active torsions:
REMARK  status: ('A' for Active; 'I' for Inactive)
REMARK    1  A    between atoms: C2_2  and  C3_3 
REMARK    2  A    between atoms: C3_3  and  C4_4 
REMARK    3  A    between atoms: C15_19  and  C16_20 
ROOT
HETATM    1  C3  UNL     1      -5.206  22.826  10.836  1.00  0.00     0.017 C 
HETATM    2  C7  UNL     1      -6.355  22.154  11.484  1.00  0.00     0.011 A 
HETATM    3  C8  UNL     1      -7.630  22.083  10.963  1.00  0.00     0.110 A 
HETATM    4  N1  UNL     1      -8.459  21.427  11.799  1.00  0.00    -0.342 N 
ATOM      5  H1  UNL     1      -9.449  21.250  11.634  1.00  0.00     0.167 HD
HETATM    6  C9  UNL     1      -7.764  21.045  12.887  1.00  0.00     0.044 A 
HETATM    7  C10 UNL     1      -8.162  20.353  14.003  1.00  0.00     0.030 A 
HETATM    8  C11 UNL     1      -7.235  20.083  14.985  1.00  0.00     0.002 A 
HETATM    9  C12 UNL     1      -5.926  20.507  14.842  1.00  0.00     0.001 A 
HETATM   10  C13 UNL     1      -5.561  21.200  13.709  1.00  0.00     0.014 A 
HETATM   11  C14 UNL     1      -6.452  21.491  12.705  1.00  0.00     0.002 A 
HETATM   12  N2  UNL     1      -7.786  22.688   9.674  1.00  0.00    -0.362 N 
ATOM     13  H2  UNL     1      -8.650  23.153   9.395  1.00  0.00     0.161 HD
HETATM   14  C15 UNL     1      -6.641  22.598   8.790  1.00  0.00     0.195 C 
HETATM   15  C17 UNL     1      -5.471  23.230   9.417  1.00  0.00     0.030 C 
HETATM   16  C18 UNL     1      -4.212  23.156   8.566  1.00  0.00     0.014 C 
ENDROOT
BRANCH   1  17
HETATM   17  C2  UNL     1      -3.983  21.943  10.919  1.00  0.00    -0.022 C 
HETATM   18  C1  UNL     1      -3.006  22.188  11.775  1.00  0.00     0.008 C 
ENDBRANCH   1  17
BRANCH   1  19
HETATM   19  C4  UNL     1      -4.900  24.039  11.700  1.00  0.00    -0.005 C 
HETATM   20  C5  UNL     1      -3.982  25.015  11.076  1.00  0.00     0.011 C 
HETATM   21  C6  UNL     1      -6.150  24.780  12.114  1.00  0.00     0.011 C 
ENDBRANCH   1  19
BRANCH  14  22
HETATM   22  C16 UNL     1      -7.068  23.169   7.481  1.00  0.00     0.407 C 
HETATM   23  F1  UNL     1      -6.071  23.438   6.608  1.00  0.00    -0.169 F 
HETATM   24  F2  UNL     1      -7.929  22.251   6.878  1.00  0.00    -0.169 F 
HETATM   25  F3  UNL     1      -7.810  24.323   7.653  1.00  0.00    -0.169 F 
ENDBRANCH  14  22
TORSDOF 3
ENDMDL
