MODEL 1
REMARK VINA RESULT: -7.894308713      0.000      0.000
REMARK  4 active torsions:
REMARK  status: ('A' for Active; 'I' for Inactive)
REMARK    1  A    between atoms: C3_3  and  C4_4 
REMARK    2  A    between atoms: C4_4  and  O1_5 
REMARK    3  A    between atoms: C6_8  and  C7_9 
REMARK    4  A    between atoms: C10_17  and  C11_18 
ROOT
HETATM    1  C1  UNL     1      -4.431  22.223  12.168  1.00  0.00     0.050 C 
HETATM    2  C2  UNL     1      -5.133  22.539  10.913  1.00  0.00    -0.041 A 
HETATM    3  C3  UNL     1      -4.350  22.944   9.824  1.00  0.00    -0.027 A 
HETATM    4  C5  UNL     1      -5.012  23.217   8.658  1.00  0.00     0.028 A 
HETATM    5  C6  UNL     1      -6.374  23.106   8.534  1.00  0.00     0.076 A 
HETATM    6  C8  UNL     1      -7.153  22.704   9.611  1.00  0.00     0.058 A 
HETATM    7  N1  UNL     1      -8.474  22.507   9.760  1.00  0.00    -0.364 N 
ATOM      8  H1  UNL     1      -9.191  22.637   9.046  1.00  0.00     0.165 HD
HETATM    9  C9  UNL     1      -8.670  22.110  11.017  1.00  0.00     0.096 A 
HETATM   10  C10 UNL     1      -7.449  22.046  11.713  1.00  0.00    -0.025 A 
HETATM   11  C17 UNL     1      -6.496  22.426  10.797  1.00  0.00     0.006 A 
ENDROOT
BRANCH  10  12
HETATM   12  C11 UNL     1      -7.332  21.691  13.111  1.00  0.00     0.021 C 
HETATM   13  C12 UNL     1      -7.792  20.205  13.227  1.00  0.00     0.009 C 
HETATM   14  C13 UNL     1      -7.757  19.806  14.695  1.00  0.00     0.001 C 
HETATM   15  C14 UNL     1      -7.216  20.870  15.592  1.00  0.00     0.000 C 
HETATM   16  C15 UNL     1      -7.927  22.173  15.404  1.00  0.00     0.001 C 
HETATM   17  C16 UNL     1      -8.430  22.349  13.993  1.00  0.00     0.009 C 
ENDBRANCH  10  12
BRANCH   3  18
HETATM   18  C4  UNL     1      -2.865  23.055   9.943  1.00  0.00     0.203 C 
BRANCH  18  19
HETATM   19  O1  UNL     1      -2.307  23.463   8.728  1.00  0.00    -0.396 OA
ATOM     20  H1  UNL     1      -2.182  22.718   8.154  1.00  0.00     0.209 HD
ENDBRANCH  18  19
ENDBRANCH   3  18
BRANCH   5  21
HETATM   21  C7  UNL     1      -7.039  23.413   7.248  1.00  0.00     0.419 C 
HETATM   22  F1  UNL     1      -7.846  24.524   7.303  1.00  0.00    -0.166 F 
HETATM   23  F2  UNL     1      -7.762  22.284   6.858  1.00  0.00    -0.166 F 
HETATM   24  F3  UNL     1      -6.110  23.627   6.249  1.00  0.00    -0.166 F 
ENDBRANCH   5  21
TORSDOF 4
ENDMDL
MODEL 2
REMARK VINA RESULT: -7.646010774      3.269      6.356
REMARK  4 active torsions:
REMARK  status: ('A' for Active; 'I' for Inactive)
REMARK    1  A    between atoms: C3_3  and  C4_4 
REMARK    2  A    between atoms: C4_4  and  O1_5 
REMARK    3  A    between atoms: C6_8  and  C7_9 
REMARK    4  A    between atoms: C10_17  and  C11_18 
ROOT
HETATM    1  C1  UNL     1      -4.856  23.478   7.693  1.00  0.00     0.050 C 
HETATM    2  C2  UNL     1      -5.404  23.164   9.022  1.00  0.00    -0.041 A 
HETATM    3  C3  UNL     1      -6.799  23.111   9.146  1.00  0.00    -0.027 A 
HETATM    4  C5  UNL     1      -7.295  22.798  10.383  1.00  0.00     0.028 A 
HETATM    5  C6  UNL     1      -6.489  22.545  11.464  1.00  0.00     0.076 A 
HETATM    6  C8  UNL     1      -5.106  22.596  11.345  1.00  0.00     0.058 A 
HETATM    7  N1  UNL     1      -4.106  22.387  12.217  1.00  0.00    -0.364 N 
ATOM      8  H1  UNL     1      -4.201  22.140  13.202  1.00  0.00     0.165 HD
HETATM    9  C9  UNL     1      -2.964  22.564  11.552  1.00  0.00     0.096 A 
HETATM   10  C10 UNL     1      -3.220  22.899  10.209  1.00  0.00    -0.025 A 
HETATM   11  C17 UNL     1      -4.591  22.912  10.100  1.00  0.00     0.006 A 
ENDROOT
BRANCH  10  12
HETATM   12  C11 UNL     1      -2.188  23.198   9.240  1.00  0.00     0.021 C 
HETATM   13  C12 UNL     1      -1.466  21.850   8.937  1.00  0.00     0.009 C 
HETATM   14  C13 UNL     1      -0.320  22.126   7.974  1.00  0.00     0.001 C 
HETATM   15  C14 UNL     1      -0.255  23.544   7.513  1.00  0.00     0.000 C 
HETATM   16  C15 UNL     1      -0.239  24.505   8.660  1.00  0.00     0.001 C 
HETATM   17  C16 UNL     1      -0.991  23.977   9.855  1.00  0.00     0.009 C 
ENDBRANCH  10  12
BRANCH   3  18
HETATM   18  C4  UNL     1      -7.686  23.371   7.973  1.00  0.00     0.203 C 
BRANCH  18  19
HETATM   19  O1  UNL     1      -8.000  22.175   7.323  1.00  0.00    -0.396 OA
ATOM     20  H1  UNL     1      -7.210  21.689   7.123  1.00  0.00     0.209 HD
ENDBRANCH  18  19
ENDBRANCH   3  18
BRANCH   5  21
HETATM   21  C7  UNL     1      -7.079  22.211  12.779  1.00  0.00     0.419 C 
HETATM   22  F1  UNL     1      -6.767  23.118  13.763  1.00  0.00    -0.166 F 
HETATM   23  F2  UNL     1      -6.658  20.926  13.126  1.00  0.00    -0.166 F 
HETATM   24  F3  UNL     1      -8.456  22.146  12.702  1.00  0.00    -0.166 F 
ENDBRANCH   5  21
TORSDOF 4
ENDMDL
MODEL 3
REMARK VINA RESULT: -7.396872127      3.026      5.885
REMARK  4 active torsions:
REMARK  status: ('A' for Active; 'I' for Inactive)
REMARK    1  A    between atoms: C3_3  and  C4_4 
REMARK    2  A    between atoms: C4_4  and  O1_5 
REMARK    3  A    between atoms: C6_8  and  C7_9 
REMARK    4  A    between atoms: C10_17  and  C11_18 
ROOT
HETATM    1  C1  UNL     1      -4.792  23.386   7.419  1.00  0.00     0.050 C 
HETATM    2  C2  UNL     1      -5.643  23.007   8.559  1.00  0.00    -0.041 A 
HETATM    3  C3  UNL     1      -7.024  22.934   8.333  1.00  0.00    -0.027 A 
HETATM    4  C5  UNL     1      -7.802  22.563   9.396  1.00  0.00     0.028 A 
HETATM    5  C6  UNL     1      -7.281  22.271  10.631  1.00  0.00     0.076 A 
HETATM    6  C8  UNL     1      -5.913  22.342  10.859  1.00  0.00     0.058 A 
HETATM    7  N1  UNL     1      -5.154  22.106  11.942  1.00  0.00    -0.364 N 
ATOM      8  H1  UNL     1      -5.483  21.815  12.862  1.00  0.00     0.165 HD
HETATM    9  C9  UNL     1      -3.888  22.324  11.586  1.00  0.00     0.096 A 
HETATM   10  C10 UNL     1      -3.813  22.715  10.236  1.00  0.00    -0.025 A 
HETATM   11  C17 UNL     1      -5.114  22.718   9.793  1.00  0.00     0.006 A 
ENDROOT
BRANCH  10  12
HETATM   12  C11 UNL     1      -2.581  23.067   9.564  1.00  0.00     0.021 C 
HETATM   13  C12 UNL     1      -1.771  21.744   9.408  1.00  0.00     0.009 C 
HETATM   14  C13 UNL     1      -0.430  22.075   8.770  1.00  0.00     0.001 C 
HETATM   15  C14 UNL     1      -0.289  23.510   8.383  1.00  0.00     0.000 C 
HETATM   16  C15 UNL     1      -0.583  24.428   9.527  1.00  0.00     0.001 C 
HETATM   17  C16 UNL     1      -1.595  23.844  10.481  1.00  0.00     0.009 C 
ENDBRANCH  10  12
BRANCH   3  18
HETATM   18  C4  UNL     1      -7.601  23.236   6.989  1.00  0.00     0.203 C 
BRANCH  18  19
HETATM   19  O1  UNL     1      -7.883  24.600   6.874  1.00  0.00    -0.396 OA
ATOM     20  H1  UNL     1      -8.573  24.848   7.477  1.00  0.00     0.209 HD
ENDBRANCH  18  19
ENDBRANCH   3  18
BRANCH   5  21
HETATM   21  C7  UNL     1      -8.170  21.873  11.746  1.00  0.00     0.419 C 
HETATM   22  F1  UNL     1      -7.867  20.640  12.272  1.00  0.00    -0.166 F 
HETATM   23  F2  UNL     1      -9.486  21.914  11.281  1.00  0.00    -0.166 F 
HETATM   24  F3  UNL     1      -8.108  22.788  12.778  1.00  0.00    -0.166 F 
ENDBRANCH   5  21
TORSDOF 4
ENDMDL
MODEL 4
REMARK VINA RESULT: -7.214327906      2.803      3.955
REMARK  4 active torsions:
REMARK  status: ('A' for Active; 'I' for Inactive)
REMARK    1  A    between atoms: C3_3  and  C4_4 
REMARK    2  A    between atoms: C4_4  and  O1_5 
REMARK    3  A    between atoms: C6_8  and  C7_9 
REMARK    4  A    between atoms: C10_17  and  C11_18 
ROOT
HETATM    1  C1  UNL     1      -7.519  23.211   9.717  1.00  0.00     0.050 C 
HETATM    2  C2  UNL     1      -6.083  23.130   9.406  1.00  0.00    -0.041 A 
HETATM    3  C3  UNL     1      -5.689  23.452   8.100  1.00  0.00    -0.027 A 
HETATM    4  C5  UNL     1      -4.349  23.392   7.829  1.00  0.00     0.028 A 
HETATM    5  C6  UNL     1      -3.417  23.037   8.771  1.00  0.00     0.076 A 
HETATM    6  C8  UNL     1      -3.803  22.718  10.066  1.00  0.00     0.058 A 
HETATM    7  N1  UNL     1      -3.114  22.355  11.162  1.00  0.00    -0.364 N 
ATOM      8  H1  UNL     1      -2.104  22.237  11.232  1.00  0.00     0.165 HD
HETATM    9  C9  UNL     1      -4.002  22.179  12.140  1.00  0.00     0.096 A 
HETATM   10  C10 UNL     1      -5.307  22.431  11.677  1.00  0.00    -0.025 A 
HETATM   11  C17 UNL     1      -5.155  22.774  10.354  1.00  0.00     0.006 A 
ENDROOT
BRANCH  10  12
HETATM   12  C11 UNL     1      -6.496  22.282  12.488  1.00  0.00     0.021 C 
HETATM   13  C12 UNL     1      -6.610  23.581  13.342  1.00  0.00     0.009 C 
HETATM   14  C13 UNL     1      -7.809  23.441  14.269  1.00  0.00     0.001 C 
HETATM   15  C14 UNL     1      -8.589  22.186  14.053  1.00  0.00     0.000 C 
HETATM   16  C15 UNL     1      -7.718  20.971  14.110  1.00  0.00     0.001 C 
HETATM   17  C16 UNL     1      -6.314  21.254  13.640  1.00  0.00     0.009 C 
ENDBRANCH  10  12
BRANCH   3  18
HETATM   18  C4  UNL     1      -6.694  23.853   7.070  1.00  0.00     0.203 C 
BRANCH  18  19
HETATM   19  O1  UNL     1      -6.215  23.578   5.787  1.00  0.00    -0.396 OA
ATOM     20  H1  UNL     1      -6.874  23.125   5.277  1.00  0.00     0.209 HD
ENDBRANCH  18  19
ENDBRANCH   3  18
BRANCH   5  21
HETATM   21  C7  UNL     1      -1.979  22.989   8.423  1.00  0.00     0.419 C 
HETATM   22  F1  UNL     1      -1.498  21.710   8.268  1.00  0.00    -0.166 F 
HETATM   23  F2  UNL     1      -1.274  23.676   9.413  1.00  0.00    -0.166 F 
HETATM   24  F3  UNL     1      -1.731  23.667   7.247  1.00  0.00    -0.166 F 
ENDBRANCH   5  21
TORSDOF 4
ENDMDL
MODEL 5
REMARK VINA RESULT: -7.062515174      2.476      4.971
REMARK  4 active torsions:
REMARK  status: ('A' for Active; 'I' for Inactive)
REMARK    1  A    between atoms: C3_3  and  C4_4 
REMARK    2  A    between atoms: C4_4  and  O1_5 
REMARK    3  A    between atoms: C6_8  and  C7_9 
REMARK    4  A    between atoms: C10_17  and  C11_18 
ROOT
HETATM    1  C1  UNL     1      -4.988  21.896  12.175  1.00  0.00     0.050 C 
HETATM    2  C2  UNL     1      -5.509  22.390  10.890  1.00  0.00    -0.041 A 
HETATM    3  C3  UNL     1      -6.895  22.563  10.782  1.00  0.00    -0.027 A 
HETATM    4  C5  UNL     1      -7.364  23.039   9.588  1.00  0.00     0.028 A 
HETATM    5  C6  UNL     1      -6.541  23.342   8.534  1.00  0.00     0.076 A 
HETATM    6  C8  UNL     1      -5.166  23.172   8.637  1.00  0.00     0.058 A 
HETATM    7  N1  UNL     1      -4.152  23.393   7.784  1.00  0.00    -0.364 N 
ATOM      8  H1  UNL     1      -4.227  23.748   6.831  1.00  0.00     0.165 HD
HETATM    9  C9  UNL     1      -3.028  23.060   8.419  1.00  0.00     0.096 A 
HETATM   10  C10 UNL     1      -3.310  22.607   9.721  1.00  0.00    -0.025 A 
HETATM   11  C17 UNL     1      -4.678  22.689   9.838  1.00  0.00     0.006 A 
ENDROOT
BRANCH  10  12
HETATM   12  C11 UNL     1      -2.305  22.130  10.647  1.00  0.00     0.021 C 
HETATM   13  C12 UNL     1      -0.937  22.664  10.124  1.00  0.00     0.009 C 
HETATM   14  C13 UNL     1       0.164  22.126  11.026  1.00  0.00     0.001 C 
HETATM   15  C14 UNL     1      -0.346  21.341  12.189  1.00  0.00     0.000 C 
HETATM   16  C15 UNL     1      -1.275  20.249  11.761  1.00  0.00     0.001 C 
HETATM   17  C16 UNL     1      -2.035  20.605  10.509  1.00  0.00     0.009 C 
ENDBRANCH  10  12
BRANCH   3  18
HETATM   18  C4  UNL     1      -7.801  22.250  11.928  1.00  0.00     0.203 C 
BRANCH  18  19
HETATM   19  O1  UNL     1      -8.353  20.975  11.781  1.00  0.00    -0.396 OA
ATOM     20  H1  UNL     1      -8.310  20.698  10.874  1.00  0.00     0.209 HD
ENDBRANCH  18  19
ENDBRANCH   3  18
BRANCH   5  21
HETATM   21  C7  UNL     1      -7.102  23.855   7.265  1.00  0.00     0.419 C 
HETATM   22  F1  UNL     1      -8.244  24.601   7.437  1.00  0.00    -0.166 F 
HETATM   23  F2  UNL     1      -7.334  22.764   6.425  1.00  0.00    -0.166 F 
HETATM   24  F3  UNL     1      -6.187  24.649   6.604  1.00  0.00    -0.166 F 
ENDBRANCH   5  21
TORSDOF 4
ENDMDL
