MODEL 1
REMARK VINA RESULT: -7.031171519      0.000      0.000
REMARK  3 active torsions:
REMARK  status: ('A' for Active; 'I' for Inactive)
REMARK    1  A    between atoms: C2_2  and  C4_4 
REMARK    2  A    between atoms: C9_9  and  C10_10 
REMARK    3  A    between atoms: C15_17  and  C16_18 
ROOT
HETATM    1  C10 UNL     1      -7.537  21.475  12.708  1.00  0.00     0.086 A 
HETATM    2  N1  UNL     1      -8.413  21.696  11.714  1.00  0.00    -0.344 N 
ATOM      3  H1  UNL     1      -9.409  21.486  11.764  1.00  0.00     0.167 HD
HETATM    4  C11 UNL     1      -7.797  22.235  10.641  1.00  0.00     0.061 A 
HETATM    5  C12 UNL     1      -8.290  22.628   9.399  1.00  0.00     0.032 A 
HETATM    6  C13 UNL     1      -7.405  23.151   8.501  1.00  0.00     0.003 A 
HETATM    7  C14 UNL     1      -6.081  23.278   8.829  1.00  0.00     0.019 A 
HETATM    8  C15 UNL     1      -5.604  22.887  10.060  1.00  0.00     0.076 A 
HETATM    9  C17 UNL     1      -6.478  22.356  10.983  1.00  0.00     0.075 A 
HETATM   10  N2  UNL     1      -6.352  21.888  12.239  1.00  0.00    -0.343 N 
ATOM     11  H2  UNL     1      -5.476  21.853  12.760  1.00  0.00     0.167 HD
ENDROOT
BRANCH   1  12
HETATM   12  C9  UNL     1      -7.835  20.894  14.037  1.00  0.00     0.058 C 
HETATM   13  C4  UNL     1      -8.039  21.870  15.135  1.00  0.00     0.000 C 
HETATM   14  C5  UNL     1      -6.748  21.953  15.946  1.00  0.00     0.006 C 
HETATM   15  C6  UNL     1      -6.550  20.639  16.688  1.00  0.00     0.000 C 
HETATM   16  C7  UNL     1      -6.927  19.464  15.805  1.00  0.00     0.001 C 
HETATM   17  C8  UNL     1      -6.715  19.897  14.379  1.00  0.00     0.013 C 
BRANCH  13  18
HETATM   18  C2  UNL     1      -8.532  23.219  14.737  1.00  0.00    -0.018 C 
HETATM   19  C1  UNL     1      -9.742  23.565  15.580  1.00  0.00     0.010 C 
HETATM   20  C3  UNL     1      -7.522  24.311  14.914  1.00  0.00     0.010 C 
ENDBRANCH  13  18
ENDBRANCH   1  12
BRANCH   8  21
HETATM   21  C16 UNL     1      -4.172  23.026  10.410  1.00  0.00     0.419 C 
HETATM   22  F1  UNL     1      -3.943  24.044  11.311  1.00  0.00    -0.166 F 
HETATM   23  F2  UNL     1      -3.496  23.272   9.211  1.00  0.00    -0.166 F 
HETATM   24  F3  UNL     1      -3.676  21.831  10.897  1.00  0.00    -0.166 F 
ENDBRANCH   8  21
TORSDOF 3
ENDMDL
MODEL 2
REMARK VINA RESULT: -6.923395064      3.949      6.419
REMARK  3 active torsions:
REMARK  status: ('A' for Active; 'I' for Inactive)
REMARK    1  A    between atoms: C2_2  and  C4_4 
REMARK    2  A    between atoms: C9_9  and  C10_10 
REMARK    3  A    between atoms: C15_17  and  C16_18 
ROOT
HETATM    1  C10 UNL     1      -3.588  22.519   9.272  1.00  0.00     0.086 A 
HETATM    2  N1  UNL     1      -4.413  22.119  10.252  1.00  0.00    -0.344 N 
ATOM      3  H1  UNL     1      -4.111  21.657  11.110  1.00  0.00     0.167 HD
HETATM    4  C11 UNL     1      -5.695  22.412   9.952  1.00  0.00     0.061 A 
HETATM    5  C12 UNL     1      -6.878  22.190  10.655  1.00  0.00     0.032 A 
HETATM    6  C13 UNL     1      -8.045  22.608  10.081  1.00  0.00     0.003 A 
HETATM    7  C14 UNL     1      -8.032  23.221   8.856  1.00  0.00     0.019 A 
HETATM    8  C15 UNL     1      -6.857  23.435   8.170  1.00  0.00     0.076 A 
HETATM    9  C17 UNL     1      -5.667  23.023   8.728  1.00  0.00     0.075 A 
HETATM   10  N2  UNL     1      -4.378  23.074   8.343  1.00  0.00    -0.343 N 
ATOM     11  H2  UNL     1      -4.050  23.478   7.466  1.00  0.00     0.167 HD
ENDROOT
BRANCH   1  12
HETATM   12  C9  UNL     1      -2.115  22.370   9.239  1.00  0.00     0.058 C 
HETATM   13  C4  UNL     1      -1.366  23.149  10.254  1.00  0.00     0.000 C 
HETATM   14  C5  UNL     1      -0.816  24.405   9.582  1.00  0.00     0.006 C 
HETATM   15  C6  UNL     1       0.268  23.999   8.594  1.00  0.00     0.000 C 
HETATM   16  C7  UNL     1      -0.133  22.740   7.848  1.00  0.00     0.001 C 
HETATM   17  C8  UNL     1      -1.638  22.706   7.815  1.00  0.00     0.013 C 
BRANCH  13  18
HETATM   18  C2  UNL     1      -2.096  23.469  11.513  1.00  0.00    -0.018 C 
HETATM   19  C1  UNL     1      -1.190  23.177  12.691  1.00  0.00     0.010 C 
HETATM   20  C3  UNL     1      -2.535  24.898  11.615  1.00  0.00     0.010 C 
ENDBRANCH  13  18
ENDBRANCH   1  12
BRANCH   8  21
HETATM   21  C16 UNL     1      -6.848  24.099   6.847  1.00  0.00     0.419 C 
HETATM   22  F1  UNL     1      -5.966  25.157   6.790  1.00  0.00    -0.166 F 
HETATM   23  F2  UNL     1      -8.156  24.539   6.619  1.00  0.00    -0.166 F 
HETATM   24  F3  UNL     1      -6.568  23.183   5.850  1.00  0.00    -0.166 F 
ENDBRANCH   8  21
TORSDOF 3
ENDMDL
MODEL 3
REMARK VINA RESULT: -6.800480293      2.182      3.732
REMARK  3 active torsions:
REMARK  status: ('A' for Active; 'I' for Inactive)
REMARK    1  A    between atoms: C2_2  and  C4_4 
REMARK    2  A    between atoms: C9_9  and  C10_10 
REMARK    3  A    between atoms: C15_17  and  C16_18 
ROOT
HETATM    1  C10 UNL     1      -6.036  23.150  12.612  1.00  0.00     0.086 A 
HETATM    2  N1  UNL     1      -4.756  23.119  12.209  1.00  0.00    -0.344 N 
ATOM      3  H1  UNL     1      -3.953  23.092  12.837  1.00  0.00     0.167 HD
HETATM    4  C11 UNL     1      -4.675  23.127  10.863  1.00  0.00     0.061 A 
HETATM    5  C12 UNL     1      -3.574  23.105  10.008  1.00  0.00     0.032 A 
HETATM    6  C13 UNL     1      -3.814  23.120   8.664  1.00  0.00     0.003 A 
HETATM    7  C14 UNL     1      -5.100  23.157   8.191  1.00  0.00     0.019 A 
HETATM    8  C15 UNL     1      -6.180  23.180   9.046  1.00  0.00     0.076 A 
HETATM    9  C17 UNL     1      -5.963  23.164  10.406  1.00  0.00     0.075 A 
HETATM   10  N2  UNL     1      -6.764  23.177  11.488  1.00  0.00    -0.343 N 
ATOM     11  H2  UNL     1      -7.783  23.203  11.455  1.00  0.00     0.167 HD
ENDROOT
BRANCH   1  12
HETATM   12  C9  UNL     1      -6.524  23.155  14.010  1.00  0.00     0.058 C 
HETATM   13  C4  UNL     1      -7.163  21.898  14.473  1.00  0.00     0.000 C 
HETATM   14  C5  UNL     1      -8.677  22.079  14.405  1.00  0.00     0.006 C 
HETATM   15  C6  UNL     1      -9.099  23.088  15.464  1.00  0.00     0.000 C 
HETATM   16  C7  UNL     1      -8.107  24.234  15.536  1.00  0.00     0.001 C 
HETATM   17  C8  UNL     1      -7.472  24.355  14.176  1.00  0.00     0.013 C 
BRANCH  13  18
HETATM   18  C2  UNL     1      -6.722  20.646  13.797  1.00  0.00    -0.018 C 
HETATM   19  C1  UNL     1      -5.545  20.069  14.556  1.00  0.00     0.010 C 
HETATM   20  C3  UNL     1      -7.783  19.589  13.725  1.00  0.00     0.010 C 
ENDBRANCH  13  18
ENDBRANCH   1  12
BRANCH   8  21
HETATM   21  C16 UNL     1      -7.568  23.219   8.531  1.00  0.00     0.419 C 
HETATM   22  F1  UNL     1      -8.298  22.105   8.888  1.00  0.00    -0.166 F 
HETATM   23  F2  UNL     1      -7.468  23.314   7.139  1.00  0.00    -0.166 F 
HETATM   24  F3  UNL     1      -8.207  24.370   8.953  1.00  0.00    -0.166 F 
ENDBRANCH   8  21
TORSDOF 3
ENDMDL
MODEL 4
REMARK VINA RESULT: -6.768937331      3.641      6.121
REMARK  3 active torsions:
REMARK  status: ('A' for Active; 'I' for Inactive)
REMARK    1  A    between atoms: C2_2  and  C4_4 
REMARK    2  A    between atoms: C9_9  and  C10_10 
REMARK    3  A    between atoms: C15_17  and  C16_18 
ROOT
HETATM    1  C10 UNL     1      -3.751  23.263  10.506  1.00  0.00     0.086 A 
HETATM    2  N1  UNL     1      -4.759  22.800  11.263  1.00  0.00    -0.344 N 
ATOM      3  H1  UNL     1      -4.669  22.529  12.242  1.00  0.00     0.167 HD
HETATM    4  C11 UNL     1      -5.905  22.740  10.554  1.00  0.00     0.061 A 
HETATM    5  C12 UNL     1      -7.188  22.329  10.913  1.00  0.00     0.032 A 
HETATM    6  C13 UNL     1      -8.162  22.385   9.958  1.00  0.00     0.003 A 
HETATM    7  C14 UNL     1      -7.869  22.832   8.696  1.00  0.00     0.019 A 
HETATM    8  C15 UNL     1      -6.598  23.235   8.352  1.00  0.00     0.076 A 
HETATM    9  C17 UNL     1      -5.598  23.189   9.299  1.00  0.00     0.075 A 
HETATM   10  N2  UNL     1      -4.288  23.498   9.301  1.00  0.00    -0.343 N 
ATOM     11  H2  UNL     1      -3.775  23.860   8.497  1.00  0.00     0.167 HD
ENDROOT
BRANCH   1  12
HETATM   12  C9  UNL     1      -2.347  23.467  10.930  1.00  0.00     0.058 C 
HETATM   13  C4  UNL     1      -1.313  22.931  10.012  1.00  0.00     0.000 C 
HETATM   14  C5  UNL     1      -0.827  21.595  10.567  1.00  0.00     0.006 C 
HETATM   15  C6  UNL     1      -0.047  21.851  11.849  1.00  0.00     0.000 C 
HETATM   16  C7  UNL     1      -0.724  22.924  12.681  1.00  0.00     0.001 C 
HETATM   17  C8  UNL     1      -2.191  22.885  12.345  1.00  0.00     0.013 C 
BRANCH  13  18
HETATM   18  C2  UNL     1      -1.695  22.829   8.575  1.00  0.00    -0.018 C 
HETATM   19  C1  UNL     1      -1.091  23.998   7.824  1.00  0.00     0.010 C 
HETATM   20  C3  UNL     1      -1.229  21.568   7.911  1.00  0.00     0.010 C 
ENDBRANCH  13  18
ENDBRANCH   1  12
BRANCH   8  21
HETATM   21  C16 UNL     1      -6.286  23.717   6.988  1.00  0.00     0.419 C 
HETATM   22  F1  UNL     1      -6.432  25.083   6.861  1.00  0.00    -0.166 F 
HETATM   23  F2  UNL     1      -7.161  23.049   6.125  1.00  0.00    -0.166 F 
HETATM   24  F3  UNL     1      -5.010  23.332   6.620  1.00  0.00    -0.166 F 
ENDBRANCH   8  21
TORSDOF 3
ENDMDL
MODEL 5
REMARK VINA RESULT: -6.703513227      1.942      2.630
REMARK  3 active torsions:
REMARK  status: ('A' for Active; 'I' for Inactive)
REMARK    1  A    between atoms: C2_2  and  C4_4 
REMARK    2  A    between atoms: C9_9  and  C10_10 
REMARK    3  A    between atoms: C15_17  and  C16_18 
ROOT
HETATM    1  C10 UNL     1      -7.206  21.539  13.269  1.00  0.00     0.086 A 
HETATM    2  N1  UNL     1      -5.896  21.834  13.244  1.00  0.00    -0.344 N 
ATOM      3  H1  UNL     1      -5.256  21.688  14.024  1.00  0.00     0.167 HD
HETATM    4  C11 UNL     1      -5.542  22.347  12.047  1.00  0.00     0.061 A 
HETATM    5  C12 UNL     1      -4.312  22.791  11.566  1.00  0.00     0.032 A 
HETATM    6  C13 UNL     1      -4.266  23.267  10.286  1.00  0.00     0.003 A 
HETATM    7  C14 UNL     1      -5.400  23.298   9.519  1.00  0.00     0.019 A 
HETATM    8  C15 UNL     1      -6.611  22.857  10.006  1.00  0.00     0.076 A 
HETATM    9  C17 UNL     1      -6.683  22.372  11.293  1.00  0.00     0.075 A 
HETATM   10  N2  UNL     1      -7.672  21.877  12.059  1.00  0.00    -0.343 N 
ATOM     11  H2  UNL     1      -8.642  21.774  11.760  1.00  0.00     0.167 HD
ENDROOT
BRANCH   1  12
HETATM   12  C9  UNL     1      -7.962  20.963  14.404  1.00  0.00     0.058 C 
HETATM   13  C4  UNL     1      -8.404  21.927  15.441  1.00  0.00     0.000 C 
HETATM   14  C5  UNL     1      -7.431  21.846  16.615  1.00  0.00     0.006 C 
HETATM   15  C6  UNL     1      -7.606  20.500  17.304  1.00  0.00     0.000 C 
HETATM   16  C7  UNL     1      -7.800  19.396  16.280  1.00  0.00     0.001 C 
HETATM   17  C8  UNL     1      -7.109  19.838  15.018  1.00  0.00     0.013 C 
BRANCH  13  18
HETATM   18  C2  UNL     1      -8.612  23.332  14.989  1.00  0.00    -0.018 C 
HETATM   19  C1  UNL     1      -9.930  23.833  15.543  1.00  0.00     0.010 C 
HETATM   20  C3  UNL     1      -7.538  24.279  15.435  1.00  0.00     0.010 C 
ENDBRANCH  13  18
ENDBRANCH   1  12
BRANCH   8  21
HETATM   21  C16 UNL     1      -7.834  22.893   9.173  1.00  0.00     0.419 C 
HETATM   22  F1  UNL     1      -8.927  22.345   9.811  1.00  0.00    -0.166 F 
HETATM   23  F2  UNL     1      -7.538  22.176   8.008  1.00  0.00    -0.166 F 
HETATM   24  F3  UNL     1      -8.108  24.187   8.773  1.00  0.00    -0.166 F 
ENDBRANCH   8  21
TORSDOF 3
ENDMDL
