MODEL 1
REMARK VINA RESULT: -6.725428782      0.000      0.000
REMARK  4 active torsions:
REMARK  status: ('A' for Active; 'I' for Inactive)
REMARK    1  A    between atoms: N1_2  and  C3_4 
REMARK    2  A    between atoms: C12_13  and  C13_14 
REMARK    3  A    between atoms: C13_14  and  S1_15 
REMARK    4  A    between atoms: C15_19  and  O3_20 
ROOT
HETATM    1  C3  UNL     1       7.504  20.071  -7.754  1.00  0.00     0.294 C 
HETATM    2  C4  UNL     1       7.897  19.435  -6.455  1.00  0.00     0.078 C 
HETATM    3  C5  UNL     1       9.125  18.600  -6.532  1.00  0.00    -0.072 C 
HETATM    4  C6  UNL     1       9.465  18.323  -5.257  1.00  0.00    -0.023 C 
HETATM    5  C7  UNL     1      10.630  17.515  -4.851  1.00  0.00     0.033 C 
HETATM    6  C8  UNL     1      11.629  17.279  -5.922  1.00  0.00    -0.001 C 
HETATM    7  C9  UNL     1      11.417  18.151  -7.140  1.00  0.00     0.003 C 
HETATM    8  C10 UNL     1      11.772  19.578  -6.921  1.00  0.00     0.007 C 
HETATM    9  C11 UNL     1      12.675  19.794  -5.728  1.00  0.00     0.014 C 
HETATM   10  C12 UNL     1      13.698  18.709  -5.569  1.00  0.00     0.003 C 
HETATM   11  C15 UNL     1      14.253  18.839  -4.171  1.00  0.00     0.128 C 
HETATM   12  C16 UNL     1      14.510  17.442  -3.652  1.00  0.00     0.033 C 
HETATM   13  C17 UNL     1      13.349  16.694  -4.222  1.00  0.00     0.008 C 
HETATM   14  C18 UNL     1      13.064  17.331  -5.535  1.00  0.00     0.002 C 
HETATM   15  C19 UNL     1       9.971  18.049  -7.578  1.00  0.00    -0.016 C 
HETATM   16  C20 UNL     1       9.673  16.561  -7.789  1.00  0.00     0.020 C 
HETATM   17  C21 UNL     1       9.901  18.717  -8.921  1.00  0.00     0.021 C 
HETATM   18  C22 UNL     1       8.571  18.522  -9.617  1.00  0.00     0.081 C 
HETATM   19  C23 UNL     1       7.459  18.994  -8.765  1.00  0.00     0.160 C 
HETATM   20  O4  UNL     1       6.407  18.441  -8.911  1.00  0.00    -0.296 OA
ENDROOT
BRANCH  10  21
HETATM   21  C13 UNL     1      14.696  18.758  -6.634  1.00  0.00     0.152 C 
BRANCH  21  22
HETATM   22  S1  UNL     1      16.079  19.770  -6.615  1.00  0.00     0.141 S 
HETATM   23  C14 UNL     1      15.912  21.424  -6.117  1.00  0.00     0.161 C 
HETATM   24  O1  UNL     1      16.557  19.825  -8.079  1.00  0.00    -0.228 OA
HETATM   25  O2  UNL     1      17.293  19.102  -5.947  1.00  0.00    -0.228 OA
ENDBRANCH  21  22
ENDBRANCH  10  21
BRANCH  11  26
HETATM   26  O3  UNL     1      13.406  19.533  -3.312  1.00  0.00    -0.395 OA
ATOM     27  H3  UNL     1      13.019  18.979  -2.644  1.00  0.00     0.210 HD
ENDBRANCH  11  26
BRANCH   1  28
HETATM   28  N1  UNL     1       6.346  20.876  -7.650  1.00  0.00     0.092 N 
HETATM   29  C1  UNL     1       6.352  22.146  -8.282  1.00  0.00     0.310 C 
HETATM   30  C2  UNL     1       5.889  20.916  -6.273  1.00  0.00     0.310 C 
ENDBRANCH   1  28
TORSDOF 4
ENDMDL
MODEL 2
REMARK VINA RESULT: -6.706080752      1.658      2.508
REMARK  4 active torsions:
REMARK  status: ('A' for Active; 'I' for Inactive)
REMARK    1  A    between atoms: N1_2  and  C3_4 
REMARK    2  A    between atoms: C12_13  and  C13_14 
REMARK    3  A    between atoms: C13_14  and  S1_15 
REMARK    4  A    between atoms: C15_19  and  O3_20 
ROOT
HETATM    1  C3  UNL     1       9.341  18.422  -7.815  1.00  0.00     0.294 C 
HETATM    2  C4  UNL     1       9.942  17.737  -6.625  1.00  0.00     0.078 C 
HETATM    3  C5  UNL     1      11.429  17.704  -6.627  1.00  0.00    -0.072 C 
HETATM    4  C6  UNL     1      11.792  17.292  -5.395  1.00  0.00    -0.023 C 
HETATM    5  C7  UNL     1      13.184  17.112  -4.941  1.00  0.00     0.033 C 
HETATM    6  C8  UNL     1      14.210  17.731  -5.817  1.00  0.00    -0.001 C 
HETATM    7  C9  UNL     1      13.628  18.676  -6.844  1.00  0.00     0.003 C 
HETATM    8  C10 UNL     1      13.137  19.955  -6.268  1.00  0.00     0.007 C 
HETATM    9  C11 UNL     1      13.708  20.254  -4.900  1.00  0.00     0.014 C 
HETATM   10  C12 UNL     1      15.145  19.846  -4.769  1.00  0.00     0.003 C 
HETATM   11  C15 UNL     1      15.460  19.840  -3.292  1.00  0.00     0.128 C 
HETATM   12  C16 UNL     1      16.404  18.688  -3.034  1.00  0.00     0.033 C 
HETATM   13  C17 UNL     1      15.871  17.650  -3.966  1.00  0.00     0.008 C 
HETATM   14  C18 UNL     1      15.361  18.393  -5.148  1.00  0.00     0.002 C 
HETATM   15  C19 UNL     1      12.496  17.981  -7.574  1.00  0.00    -0.016 C 
HETATM   16  C20 UNL     1      13.067  16.678  -8.144  1.00  0.00     0.020 C 
HETATM   17  C21 UNL     1      12.152  18.868  -8.736  1.00  0.00     0.021 C 
HETATM   18  C22 UNL     1      11.183  18.229  -9.707  1.00  0.00     0.081 C 
HETATM   19  C23 UNL     1       9.947  17.808  -9.016  1.00  0.00     0.160 C 
HETATM   20  O4  UNL     1       9.374  16.865  -9.481  1.00  0.00    -0.296 OA
ENDROOT
BRANCH  10  21
HETATM   21  C13 UNL     1      16.015  20.694  -5.579  1.00  0.00     0.152 C 
BRANCH  21  22
HETATM   22  S1  UNL     1      17.190  20.102  -6.676  1.00  0.00     0.141 S 
HETATM   23  C14 UNL     1      18.371  18.958  -6.119  1.00  0.00     0.161 C 
HETATM   24  O1  UNL     1      17.993  21.343  -7.115  1.00  0.00    -0.228 OA
HETATM   25  O2  UNL     1      16.581  19.670  -8.021  1.00  0.00    -0.228 OA
ENDBRANCH  21  22
ENDBRANCH  10  21
BRANCH  11  26
HETATM   26  O3  UNL     1      14.324  19.731  -2.495  1.00  0.00    -0.395 OA
ATOM     27  H3  UNL     1      14.043  20.563  -2.134  1.00  0.00     0.210 HD
ENDBRANCH  11  26
BRANCH   1  28
HETATM   28  N1  UNL     1       7.928  18.458  -7.780  1.00  0.00     0.092 N 
HETATM   29  C1  UNL     1       7.259  19.385  -8.620  1.00  0.00     0.310 C 
HETATM   30  C2  UNL     1       7.464  18.483  -6.405  1.00  0.00     0.310 C 
ENDBRANCH   1  28
TORSDOF 4
ENDMDL
MODEL 3
REMARK VINA RESULT: -6.565444816      3.497      7.412
REMARK  4 active torsions:
REMARK  status: ('A' for Active; 'I' for Inactive)
REMARK    1  A    between atoms: N1_2  and  C3_4 
REMARK    2  A    between atoms: C12_13  and  C13_14 
REMARK    3  A    between atoms: C13_14  and  S1_15 
REMARK    4  A    between atoms: C15_19  and  O3_20 
ROOT
HETATM    1  C3  UNL     1      17.459  19.587  -5.125  1.00  0.00     0.294 C 
HETATM    2  C4  UNL     1      16.233  19.950  -4.343  1.00  0.00     0.078 C 
HETATM    3  C5  UNL     1      14.981  19.972  -5.146  1.00  0.00    -0.072 C 
HETATM    4  C6  UNL     1      13.972  20.063  -4.255  1.00  0.00    -0.023 C 
HETATM    5  C7  UNL     1      12.540  20.115  -4.606  1.00  0.00     0.033 C 
HETATM    6  C8  UNL     1      12.226  19.726  -6.002  1.00  0.00    -0.001 C 
HETATM    7  C9  UNL     1      13.386  19.069  -6.716  1.00  0.00     0.003 C 
HETATM    8  C10 UNL     1      13.676  17.690  -6.241  1.00  0.00     0.007 C 
HETATM    9  C11 UNL     1      12.520  17.058  -5.499  1.00  0.00     0.014 C 
HETATM   10  C12 UNL     1      11.187  17.409  -6.090  1.00  0.00     0.003 C 
HETATM   11  C15 UNL     1      10.147  17.047  -5.057  1.00  0.00     0.128 C 
HETATM   12  C16 UNL     1       9.057  18.093  -5.124  1.00  0.00     0.033 C 
HETATM   13  C17 UNL     1       9.848  19.333  -5.381  1.00  0.00     0.008 C 
HETATM   14  C18 UNL     1      11.001  18.910  -6.219  1.00  0.00     0.002 C 
HETATM   15  C19 UNL     1      14.622  19.931  -6.554  1.00  0.00    -0.016 C 
HETATM   16  C20 UNL     1      14.258  21.330  -7.062  1.00  0.00     0.020 C 
HETATM   17  C21 UNL     1      15.645  19.362  -7.494  1.00  0.00     0.021 C 
HETATM   18  C22 UNL     1      16.879  20.229  -7.628  1.00  0.00     0.081 C 
HETATM   19  C23 UNL     1      17.494  20.474  -6.307  1.00  0.00     0.160 C 
HETATM   20  O4  UNL     1      18.087  21.507  -6.182  1.00  0.00    -0.296 OA
ENDROOT
BRANCH  10  21
HETATM   21  C13 UNL     1      11.001  16.783  -7.395  1.00  0.00     0.152 C 
BRANCH  21  22
HETATM   22  S1  UNL     1      10.299  17.563  -8.749  1.00  0.00     0.141 S 
HETATM   23  C14 UNL     1       8.719  18.267  -8.598  1.00  0.00     0.161 C 
HETATM   24  O1  UNL     1      10.161  16.464  -9.820  1.00  0.00    -0.228 OA
HETATM   25  O2  UNL     1      11.276  18.521  -9.454  1.00  0.00    -0.228 OA
ENDBRANCH  21  22
ENDBRANCH  10  21
BRANCH  11  26
HETATM   26  O3  UNL     1      10.667  16.963  -3.768  1.00  0.00    -0.395 OA
ATOM     27  H3  UNL     1      10.708  16.072  -3.442  1.00  0.00     0.210 HD
ENDBRANCH  11  26
BRANCH   1  28
HETATM   28  N1  UNL     1      18.631  19.553  -4.337  1.00  0.00     0.092 N 
HETATM   29  C1  UNL     1      19.680  18.682  -4.730  1.00  0.00     0.310 C 
HETATM   30  C2  UNL     1      18.284  19.444  -2.932  1.00  0.00     0.310 C 
ENDBRANCH   1  28
TORSDOF 4
ENDMDL
MODEL 4
REMARK VINA RESULT: -6.432188740      3.434      7.671
REMARK  4 active torsions:
REMARK  status: ('A' for Active; 'I' for Inactive)
REMARK    1  A    between atoms: N1_2  and  C3_4 
REMARK    2  A    between atoms: C12_13  and  C13_14 
REMARK    3  A    between atoms: C13_14  and  S1_15 
REMARK    4  A    between atoms: C15_19  and  O3_20 
ROOT
HETATM    1  C3  UNL     1      12.614  19.659  -3.280  1.00  0.00     0.294 C 
HETATM    2  C4  UNL     1      12.537  19.837  -4.766  1.00  0.00     0.078 C 
HETATM    3  C5  UNL     1      11.499  19.001  -5.427  1.00  0.00    -0.072 C 
HETATM    4  C6  UNL     1      11.399  19.465  -6.689  1.00  0.00    -0.023 C 
HETATM    5  C7  UNL     1      10.484  18.930  -7.715  1.00  0.00     0.033 C 
HETATM    6  C8  UNL     1       9.413  18.044  -7.194  1.00  0.00    -0.001 C 
HETATM    7  C9  UNL     1       9.279  18.091  -5.688  1.00  0.00     0.003 C 
HETATM    8  C10 UNL     1       8.683  19.354  -5.180  1.00  0.00     0.007 C 
HETATM    9  C11 UNL     1       7.929  20.127  -6.238  1.00  0.00     0.014 C 
HETATM   10  C12 UNL     1       7.172  19.238  -7.179  1.00  0.00     0.003 C 
HETATM   11  C15 UNL     1       6.800  20.087  -8.371  1.00  0.00     0.128 C 
HETATM   12  C16 UNL     1       6.898  19.211  -9.600  1.00  0.00     0.033 C 
HETATM   13  C17 UNL     1       8.094  18.377  -9.277  1.00  0.00     0.008 C 
HETATM   14  C18 UNL     1       8.064  18.182  -7.804  1.00  0.00     0.002 C 
HETATM   15  C19 UNL     1      10.643  17.885  -5.061  1.00  0.00    -0.016 C 
HETATM   16  C20 UNL     1      11.197  16.571  -5.621  1.00  0.00     0.020 C 
HETATM   17  C21 UNL     1      10.393  17.680  -3.595  1.00  0.00     0.021 C 
HETATM   18  C22 UNL     1      11.628  17.243  -2.835  1.00  0.00     0.081 C 
HETATM   19  C23 UNL     1      12.730  18.208  -3.025  1.00  0.00     0.160 C 
HETATM   20  O4  UNL     1      13.840  17.763  -2.966  1.00  0.00    -0.296 OA
ENDROOT
BRANCH  10  21
HETATM   21  C13 UNL     1       6.047  18.590  -6.511  1.00  0.00     0.152 C 
BRANCH  21  22
HETATM   22  S1  UNL     1       4.625  19.403  -6.008  1.00  0.00     0.141 S 
HETATM   23  C14 UNL     1       4.660  20.356  -4.558  1.00  0.00     0.161 C 
HETATM   24  O1  UNL     1       3.595  18.286  -5.744  1.00  0.00    -0.228 OA
HETATM   25  O2  UNL     1       3.933  20.155  -7.159  1.00  0.00    -0.228 OA
ENDBRANCH  21  22
ENDBRANCH  10  21
BRANCH  11  26
HETATM   26  O3  UNL     1       7.604  21.215  -8.508  1.00  0.00    -0.395 OA
ATOM     27  H3  UNL     1       8.370  21.061  -9.046  1.00  0.00     0.210 HD
ENDBRANCH  11  26
BRANCH   1  28
HETATM   28  N1  UNL     1      13.593  20.478  -2.673  1.00  0.00     0.092 N 
HETATM   29  C1  UNL     1      13.234  21.203  -1.506  1.00  0.00     0.310 C 
HETATM   30  C2  UNL     1      14.256  21.289  -3.676  1.00  0.00     0.310 C 
ENDBRANCH   1  28
TORSDOF 4
ENDMDL
MODEL 5
REMARK VINA RESULT: -6.419607914      1.855      2.630
REMARK  4 active torsions:
REMARK  status: ('A' for Active; 'I' for Inactive)
REMARK    1  A    between atoms: N1_2  and  C3_4 
REMARK    2  A    between atoms: C12_13  and  C13_14 
REMARK    3  A    between atoms: C13_14  and  S1_15 
REMARK    4  A    between atoms: C15_19  and  O3_20 
ROOT
HETATM    1  C3  UNL     1       9.479  18.587  -7.819  1.00  0.00     0.294 C 
HETATM    2  C4  UNL     1      10.083  17.899  -6.632  1.00  0.00     0.078 C 
HETATM    3  C5  UNL     1      11.566  17.794  -6.678  1.00  0.00    -0.072 C 
HETATM    4  C6  UNL     1      11.946  17.391  -5.449  1.00  0.00    -0.023 C 
HETATM    5  C7  UNL     1      13.341  17.153  -5.033  1.00  0.00     0.033 C 
HETATM    6  C8  UNL     1      14.368  17.703  -5.952  1.00  0.00    -0.001 C 
HETATM    7  C9  UNL     1      13.800  18.654  -6.982  1.00  0.00     0.003 C 
HETATM    8  C10 UNL     1      13.389  19.967  -6.420  1.00  0.00     0.007 C 
HETATM    9  C11 UNL     1      14.015  20.265  -5.077  1.00  0.00     0.014 C 
HETATM   10  C12 UNL     1      15.435  19.792  -4.979  1.00  0.00     0.003 C 
HETATM   11  C15 UNL     1      15.795  19.801  -3.513  1.00  0.00     0.128 C 
HETATM   12  C16 UNL     1      16.691  18.610  -3.258  1.00  0.00     0.033 C 
HETATM   13  C17 UNL     1      16.080  17.580  -4.150  1.00  0.00     0.008 C 
HETATM   14  C18 UNL     1      15.569  18.322  -5.333  1.00  0.00     0.002 C 
HETATM   15  C19 UNL     1      12.615  18.000  -7.663  1.00  0.00    -0.016 C 
HETATM   16  C20 UNL     1      13.105  16.660  -8.221  1.00  0.00     0.020 C 
HETATM   17  C21 UNL     1      12.278  18.879  -8.833  1.00  0.00     0.021 C 
HETATM   18  C22 UNL     1      11.250  18.268  -9.761  1.00  0.00     0.081 C 
HETATM   19  C23 UNL     1      10.017  17.921  -9.023  1.00  0.00     0.160 C 
HETATM   20  O4  UNL     1       9.386  16.997  -9.451  1.00  0.00    -0.296 OA
ENDROOT
BRANCH  10  21
HETATM   21  C13 UNL     1      16.319  20.580  -5.833  1.00  0.00     0.152 C 
BRANCH  21  22
HETATM   22  S1  UNL     1      17.318  21.854  -5.273  1.00  0.00     0.141 S 
HETATM   23  C14 UNL     1      16.589  23.227  -4.500  1.00  0.00     0.161 C 
HETATM   24  O1  UNL     1      18.007  22.410  -6.535  1.00  0.00    -0.228 OA
HETATM   25  O2  UNL     1      18.539  21.349  -4.486  1.00  0.00    -0.228 OA
ENDBRANCH  21  22
ENDBRANCH  10  21
BRANCH  11  26
HETATM   26  O3  UNL     1      14.680  19.763  -2.680  1.00  0.00    -0.395 OA
ATOM     27  H3  UNL     1      14.633  20.505  -2.089  1.00  0.00     0.210 HD
ENDBRANCH  11  26
BRANCH   1  28
HETATM   28  N1  UNL     1       8.071  18.692  -7.743  1.00  0.00     0.092 N 
HETATM   29  C1  UNL     1       7.442  19.780  -8.403  1.00  0.00     0.310 C 
HETATM   30  C2  UNL     1       7.632  18.515  -6.371  1.00  0.00     0.310 C 
ENDBRANCH   1  28
TORSDOF 4
ENDMDL
