MODEL 1
REMARK VINA RESULT: -6.426710742      0.000      0.000
REMARK  4 active torsions:
REMARK  status: ('A' for Active; 'I' for Inactive)
REMARK    1  A    between atoms: C2_2  and  N1_3 
REMARK    2  A    between atoms: N2_6  and  C5_7 
REMARK    3  A    between atoms: C8_10  and  O1_11 
REMARK    4  A    between atoms: C22_27  and  C23_28 
ROOT
HETATM    1  C5  UNL     1      12.237  17.987  -7.582  1.00  0.00    -0.005 C 
HETATM    2  C6  UNL     1      13.342  18.260  -8.418  1.00  0.00    -0.004 C 
HETATM    3  C7  UNL     1      14.524  19.176  -8.124  1.00  0.00     0.067 C 
HETATM    4  C8  UNL     1      14.140  20.025  -7.038  1.00  0.00     0.069 C 
HETATM    5  C9  UNL     1      14.547  21.376  -6.647  1.00  0.00     0.017 C 
HETATM    6  C10 UNL     1      16.007  21.354  -6.200  1.00  0.00     0.013 C 
HETATM    7  C11 UNL     1      13.639  21.606  -5.427  1.00  0.00     0.008 C 
HETATM    8  C12 UNL     1      12.466  20.658  -5.237  1.00  0.00     0.012 C 
HETATM    9  C13 UNL     1      12.764  19.179  -5.370  1.00  0.00    -0.019 C 
HETATM   10  C14 UNL     1      12.919  18.757  -3.891  1.00  0.00     0.017 C 
HETATM   11  C15 UNL     1      13.750  17.600  -3.600  1.00  0.00     0.015 C 
HETATM   12  C16 UNL     1      14.949  17.355  -4.414  1.00  0.00     0.007 C 
HETATM   13  C17 UNL     1      14.995  18.000  -5.775  1.00  0.00     0.009 C 
HETATM   14  C18 UNL     1      14.201  19.236  -5.825  1.00  0.00     0.030 C 
HETATM   15  C19 UNL     1      12.822  16.389  -3.408  1.00  0.00     0.276 C 
HETATM   16  N3  UNL     1      11.617  16.756  -4.184  1.00  0.00     0.085 N 
HETATM   17  C20 UNL     1      10.623  15.764  -3.884  1.00  0.00     0.309 C 
HETATM   18  C21 UNL     1      12.043  16.842  -5.532  1.00  0.00     0.288 C 
HETATM   19  C22 UNL     1      11.935  18.277  -6.162  1.00  0.00     0.031 C 
ENDROOT
BRANCH   1  20
HETATM   20  N2  UNL     1      11.707  16.695  -8.065  1.00  0.00    -0.283 NA
HETATM   21  C4  UNL     1      10.631  16.906  -9.044  1.00  0.00     0.125 C 
HETATM   22  C3  UNL     1      10.081  15.491  -9.306  1.00  0.00     0.287 C 
HETATM   23  N1  UNL     1      10.905  14.933 -10.321  1.00  0.00     0.090 N 
HETATM   24  C26 UNL     1      12.219  15.516 -10.202  1.00  0.00     0.287 C 
HETATM   25  C25 UNL     1      12.568  15.832  -8.758  1.00  0.00     0.125 C 
BRANCH  23  26
HETATM   26  C2  UNL     1      10.311  15.176 -11.620  1.00  0.00     0.268 C 
HETATM   27  C1  UNL     1      10.768  14.245 -12.691  1.00  0.00     0.037 C 
ENDBRANCH  23  26
ENDBRANCH   1  20
BRANCH  19  28
HETATM   28  C23 UNL     1      10.481  18.510  -5.843  1.00  0.00     0.013 C 
HETATM   29  C24 UNL     1       9.526  19.111  -6.744  1.00  0.00     0.006 C 
ENDBRANCH  19  28
BRANCH   4  30
HETATM   30  O1  UNL     1      12.914  20.462  -7.614  1.00  0.00    -0.389 OA
ATOM     31  H1  UNL     1      13.139  21.385  -7.640  1.00  0.00     0.210 HD
ENDBRANCH   4  30
TORSDOF 4
ENDMDL
MODEL 2
REMARK VINA RESULT: -6.076224152      6.704      9.497
REMARK  4 active torsions:
REMARK  status: ('A' for Active; 'I' for Inactive)
REMARK    1  A    between atoms: C2_2  and  N1_3 
REMARK    2  A    between atoms: N2_6  and  C5_7 
REMARK    3  A    between atoms: C8_10  and  O1_11 
REMARK    4  A    between atoms: C22_27  and  C23_28 
ROOT
HETATM    1  C5  UNL     1       3.969  20.247  -6.053  1.00  0.00    -0.005 C 
HETATM    2  C6  UNL     1       4.511  18.944  -6.008  1.00  0.00    -0.004 C 
HETATM    3  C7  UNL     1       5.892  18.497  -6.472  1.00  0.00     0.067 C 
HETATM    4  C8  UNL     1       6.403  19.523  -7.329  1.00  0.00     0.069 C 
HETATM    5  C9  UNL     1       7.346  19.498  -8.449  1.00  0.00     0.017 C 
HETATM    6  C10 UNL     1       8.738  19.148  -7.929  1.00  0.00     0.013 C 
HETATM    7  C11 UNL     1       7.314  20.974  -8.881  1.00  0.00     0.008 C 
HETATM    8  C12 UNL     1       6.179  21.835  -8.353  1.00  0.00     0.012 C 
HETATM    9  C13 UNL     1       5.894  21.740  -6.868  1.00  0.00    -0.019 C 
HETATM   10  C14 UNL     1       6.644  22.978  -6.326  1.00  0.00     0.017 C 
HETATM   11  C15 UNL     1       7.103  22.941  -4.946  1.00  0.00     0.015 C 
HETATM   12  C16 UNL     1       7.572  21.668  -4.379  1.00  0.00     0.007 C 
HETATM   13  C17 UNL     1       7.111  20.406  -5.061  1.00  0.00     0.009 C 
HETATM   14  C18 UNL     1       6.829  20.621  -6.487  1.00  0.00     0.030 C 
HETATM   15  C19 UNL     1       6.084  23.711  -4.090  1.00  0.00     0.276 C 
HETATM   16  N3  UNL     1       4.834  23.611  -4.874  1.00  0.00     0.085 N 
HETATM   17  C20 UNL     1       3.885  24.481  -4.240  1.00  0.00     0.309 C 
HETATM   18  C21 UNL     1       4.511  22.232  -4.904  1.00  0.00     0.288 C 
HETATM   19  C22 UNL     1       4.545  21.582  -6.334  1.00  0.00     0.031 C 
ENDROOT
BRANCH   1  20
HETATM   20  N2  UNL     1       2.899  20.248  -5.035  1.00  0.00    -0.283 NA
HETATM   21  C4  UNL     1       1.638  19.754  -5.604  1.00  0.00     0.125 C 
HETATM   22  C3  UNL     1       0.606  19.984  -4.484  1.00  0.00     0.287 C 
HETATM   23  N1  UNL     1       0.682  18.841  -3.642  1.00  0.00     0.090 N 
HETATM   24  C26 UNL     1       2.028  18.326  -3.707  1.00  0.00     0.287 C 
HETATM   25  C25 UNL     1       3.048  19.434  -3.902  1.00  0.00     0.125 C 
BRANCH  23  26
HETATM   26  C2  UNL     1      -0.301  17.861  -4.059  1.00  0.00     0.268 C 
HETATM   27  C1  UNL     1       0.220  16.468  -4.161  1.00  0.00     0.037 C 
ENDBRANCH  23  26
ENDBRANCH   1  20
BRANCH  19  28
HETATM   28  C23 UNL     1       3.615  22.561  -7.003  1.00  0.00     0.013 C 
HETATM   29  C24 UNL     1       2.714  22.235  -8.083  1.00  0.00     0.006 C 
ENDBRANCH  19  28
BRANCH   4  30
HETATM   30  O1  UNL     1       5.260  19.596  -8.174  1.00  0.00    -0.389 OA
ATOM     31  H1  UNL     1       5.725  19.891  -8.948  1.00  0.00     0.210 HD
ENDBRANCH   4  30
TORSDOF 4
ENDMDL
MODEL 3
REMARK VINA RESULT: -6.053443832      2.092      4.644
REMARK  4 active torsions:
REMARK  status: ('A' for Active; 'I' for Inactive)
REMARK    1  A    between atoms: C2_2  and  N1_3 
REMARK    2  A    between atoms: N2_6  and  C5_7 
REMARK    3  A    between atoms: C8_10  and  O1_11 
REMARK    4  A    between atoms: C22_27  and  C23_28 
ROOT
HETATM    1  C5  UNL     1      12.616  17.828  -5.580  1.00  0.00    -0.005 C 
HETATM    2  C6  UNL     1      11.446  17.105  -5.260  1.00  0.00    -0.004 C 
HETATM    3  C7  UNL     1      10.792  16.955  -3.892  1.00  0.00     0.067 C 
HETATM    4  C8  UNL     1      11.768  17.326  -2.915  1.00  0.00     0.069 C 
HETATM    5  C9  UNL     1      11.973  16.929  -1.520  1.00  0.00     0.017 C 
HETATM    6  C10 UNL     1      10.822  17.461  -0.669  1.00  0.00     0.013 C 
HETATM    7  C11 UNL     1      13.259  17.703  -1.188  1.00  0.00     0.008 C 
HETATM    8  C12 UNL     1      14.057  18.269  -2.352  1.00  0.00     0.012 C 
HETATM    9  C13 UNL     1      13.273  19.025  -3.404  1.00  0.00    -0.019 C 
HETATM   10  C14 UNL     1      13.496  20.491  -2.968  1.00  0.00     0.017 C 
HETATM   11  C15 UNL     1      12.485  21.469  -3.338  1.00  0.00     0.015 C 
HETATM   12  C16 UNL     1      11.072  21.066  -3.361  1.00  0.00     0.007 C 
HETATM   13  C17 UNL     1      10.783  19.592  -3.481  1.00  0.00     0.009 C 
HETATM   14  C18 UNL     1      11.866  18.771  -2.924  1.00  0.00     0.030 C 
HETATM   15  C19 UNL     1      12.982  22.211  -4.590  1.00  0.00     0.276 C 
HETATM   16  N3  UNL     1      13.907  21.241  -5.216  1.00  0.00     0.085 N 
HETATM   17  C20 UNL     1      14.569  21.940  -6.281  1.00  0.00     0.309 C 
HETATM   18  C21 UNL     1      13.106  20.132  -5.585  1.00  0.00     0.288 C 
HETATM   19  C22 UNL     1      13.452  18.796  -4.835  1.00  0.00     0.031 C 
ENDROOT
BRANCH   1  20
HETATM   20  N2  UNL     1      12.509  18.104  -7.027  1.00  0.00    -0.283 NA
HETATM   21  C4  UNL     1      13.152  17.040  -7.810  1.00  0.00     0.125 C 
HETATM   22  C3  UNL     1      13.107  17.562  -9.258  1.00  0.00     0.287 C 
HETATM   23  N1  UNL     1      11.838  17.181  -9.772  1.00  0.00     0.090 N 
HETATM   24  C26 UNL     1      10.907  17.130  -8.671  1.00  0.00     0.287 C 
HETATM   25  C25 UNL     1      11.233  18.163  -7.606  1.00  0.00     0.125 C 
BRANCH  23  26
HETATM   26  C2  UNL     1      11.949  15.909 -10.456  1.00  0.00     0.268 C 
HETATM   27  C1  UNL     1      10.810  14.978 -10.218  1.00  0.00     0.037 C 
ENDBRANCH  23  26
ENDBRANCH   1  20
BRANCH  19  28
HETATM   28  C23 UNL     1      14.921  18.774  -5.166  1.00  0.00     0.013 C 
HETATM   29  C24 UNL     1      15.710  17.576  -5.335  1.00  0.00     0.006 C 
ENDBRANCH  19  28
BRANCH   4  30
HETATM   30  O1  UNL     1      12.802  16.478  -3.404  1.00  0.00    -0.389 OA
ATOM     31  H1  UNL     1      13.498  16.857  -2.881  1.00  0.00     0.210 HD
ENDBRANCH   4  30
TORSDOF 4
ENDMDL
MODEL 4
REMARK VINA RESULT: -6.011649304      2.679      5.927
REMARK  4 active torsions:
REMARK  status: ('A' for Active; 'I' for Inactive)
REMARK    1  A    between atoms: C2_2  and  N1_3 
REMARK    2  A    between atoms: N2_6  and  C5_7 
REMARK    3  A    between atoms: C8_10  and  O1_11 
REMARK    4  A    between atoms: C22_27  and  C23_28 
ROOT
HETATM    1  C5  UNL     1      14.311  19.082  -4.764  1.00  0.00    -0.005 C 
HETATM    2  C6  UNL     1      14.625  18.507  -3.512  1.00  0.00    -0.004 C 
HETATM    3  C7  UNL     1      13.670  18.210  -2.362  1.00  0.00     0.067 C 
HETATM    4  C8  UNL     1      12.482  18.973  -2.592  1.00  0.00     0.069 C 
HETATM    5  C9  UNL     1      11.476  19.534  -1.688  1.00  0.00     0.017 C 
HETATM    6  C10 UNL     1      10.698  18.398  -1.029  1.00  0.00     0.013 C 
HETATM    7  C11 UNL     1      10.568  20.267  -2.689  1.00  0.00     0.008 C 
HETATM    8  C12 UNL     1      11.111  20.497  -4.091  1.00  0.00     0.012 C 
HETATM    9  C13 UNL     1      11.752  19.305  -4.771  1.00  0.00    -0.019 C 
HETATM   10  C14 UNL     1      10.596  18.794  -5.660  1.00  0.00     0.017 C 
HETATM   11  C15 UNL     1      10.591  17.385  -6.021  1.00  0.00     0.015 C 
HETATM   12  C16 UNL     1      11.072  16.394  -5.048  1.00  0.00     0.007 C 
HETATM   13  C17 UNL     1      11.979  16.895  -3.954  1.00  0.00     0.009 C 
HETATM   14  C18 UNL     1      11.734  18.309  -3.639  1.00  0.00     0.030 C 
HETATM   15  C19 UNL     1      11.173  17.258  -7.438  1.00  0.00     0.276 C 
HETATM   16  N3  UNL     1      12.027  18.459  -7.565  1.00  0.00     0.085 N 
HETATM   17  C20 UNL     1      12.444  18.519  -8.937  1.00  0.00     0.309 C 
HETATM   18  C21 UNL     1      13.049  18.306  -6.596  1.00  0.00     0.288 C 
HETATM   19  C22 UNL     1      13.038  19.387  -5.456  1.00  0.00     0.031 C 
ENDROOT
BRANCH   1  20
HETATM   20  N2  UNL     1      15.405  18.659  -5.661  1.00  0.00    -0.283 NA
HETATM   21  C4  UNL     1      16.449  19.691  -5.733  1.00  0.00     0.125 C 
HETATM   22  C3  UNL     1      17.407  19.178  -6.825  1.00  0.00     0.287 C 
HETATM   23  N1  UNL     1      18.312  18.299  -6.170  1.00  0.00     0.090 N 
HETATM   24  C26 UNL     1      17.627  17.707  -5.046  1.00  0.00     0.287 C 
HETATM   25  C25 UNL     1      16.146  17.516  -5.325  1.00  0.00     0.125 C 
BRANCH  23  26
HETATM   26  C2  UNL     1      19.497  19.028  -5.768  1.00  0.00     0.268 C 
HETATM   27  C1  UNL     1      20.126  18.538  -4.508  1.00  0.00     0.037 C 
ENDBRANCH  23  26
ENDBRANCH   1  20
BRANCH  19  28
HETATM   28  C23 UNL     1      13.062  20.599  -6.351  1.00  0.00     0.013 C 
HETATM   29  C24 UNL     1      13.770  21.823  -6.062  1.00  0.00     0.006 C 
ENDBRANCH  19  28
BRANCH   4  30
HETATM   30  O1  UNL     1      13.139  20.221  -2.784  1.00  0.00    -0.389 OA
ATOM     31  H1  UNL     1      13.749  19.913  -3.444  1.00  0.00     0.210 HD
ENDBRANCH   4  30
TORSDOF 4
ENDMDL
MODEL 5
REMARK VINA RESULT: -5.938132668      6.823     10.002
REMARK  4 active torsions:
REMARK  status: ('A' for Active; 'I' for Inactive)
REMARK    1  A    between atoms: C2_2  and  N1_3 
REMARK    2  A    between atoms: N2_6  and  C5_7 
REMARK    3  A    between atoms: C8_10  and  O1_11 
REMARK    4  A    between atoms: C22_27  and  C23_28 
ROOT
HETATM    1  C5  UNL     1       6.392  22.506  -5.483  1.00  0.00    -0.005 C 
HETATM    2  C6  UNL     1       6.726  23.014  -6.758  1.00  0.00    -0.004 C 
HETATM    3  C7  UNL     1       6.720  22.266  -8.085  1.00  0.00     0.067 C 
HETATM    4  C8  UNL     1       6.713  20.868  -7.782  1.00  0.00     0.069 C 
HETATM    5  C9  UNL     1       7.212  19.696  -8.504  1.00  0.00     0.017 C 
HETATM    6  C10 UNL     1       6.383  19.492  -9.770  1.00  0.00     0.013 C 
HETATM    7  C11 UNL     1       6.894  18.580  -7.495  1.00  0.00     0.008 C 
HETATM    8  C12 UNL     1       6.558  18.997  -6.072  1.00  0.00     0.012 C 
HETATM    9  C13 UNL     1       5.552  20.119  -5.916  1.00  0.00    -0.019 C 
HETATM   10  C14 UNL     1       4.249  19.334  -5.643  1.00  0.00     0.017 C 
HETATM   11  C15 UNL     1       2.989  19.967  -6.000  1.00  0.00     0.015 C 
HETATM   12  C16 UNL     1       2.928  20.817  -7.198  1.00  0.00     0.007 C 
HETATM   13  C17 UNL     1       4.232  21.379  -7.705  1.00  0.00     0.009 C 
HETATM   14  C18 UNL     1       5.373  20.520  -7.359  1.00  0.00     0.030 C 
HETATM   15  C19 UNL     1       2.389  20.579  -4.724  1.00  0.00     0.276 C 
HETATM   16  N3  UNL     1       3.572  20.809  -3.867  1.00  0.00     0.085 N 
HETATM   17  C20 UNL     1       3.071  21.188  -2.576  1.00  0.00     0.309 C 
HETATM   18  C21 UNL     1       4.358  21.768  -4.551  1.00  0.00     0.288 C 
HETATM   19  C22 UNL     1       5.765  21.249  -5.018  1.00  0.00     0.031 C 
ENDROOT
BRANCH   1  20
HETATM   20  N2  UNL     1       6.036  23.696  -4.682  1.00  0.00    -0.283 NA
HETATM   21  C4  UNL     1       7.196  24.173  -3.915  1.00  0.00     0.125 C 
HETATM   22  C3  UNL     1       6.618  25.285  -3.018  1.00  0.00     0.287 C 
HETATM   23  N1  UNL     1       6.640  26.470  -3.801  1.00  0.00     0.090 N 
HETATM   24  C26 UNL     1       6.499  26.093  -5.187  1.00  0.00     0.287 C 
HETATM   25  C25 UNL     1       5.629  24.859  -5.351  1.00  0.00     0.125 C 
BRANCH  23  26
HETATM   26  C2  UNL     1       7.869  27.197  -3.552  1.00  0.00     0.268 C 
HETATM   27  C1  UNL     1       8.235  27.315  -2.112  1.00  0.00     0.037 C 
ENDBRANCH  23  26
ENDBRANCH   1  20
BRANCH  19  28
HETATM   28  C23 UNL     1       6.233  20.750  -3.675  1.00  0.00     0.013 C 
HETATM   29  C24 UNL     1       7.606  20.750  -3.228  1.00  0.00     0.006 C 
ENDBRANCH  19  28
BRANCH   4  30
HETATM   30  O1  UNL     1       7.821  20.902  -6.888  1.00  0.00    -0.389 OA
ATOM     31  H1  UNL     1       7.507  21.631  -6.367  1.00  0.00     0.210 HD
ENDBRANCH   4  30
TORSDOF 4
ENDMDL
