MODEL 1
REMARK VINA RESULT: -8.490145099      0.000      0.000
REMARK  3 active torsions:
REMARK  status: ('A' for Active; 'I' for Inactive)
REMARK    1  A    between atoms: C5_5  and  C6_6 
REMARK    2  A    between atoms: N3_18  and  C15_19 
REMARK    3  A    between atoms: C15_19  and  C16_20 
ROOT
HETATM    1  C6  UNL     1      11.026  16.777  -9.307  1.00  0.00    -0.034 A 
HETATM    2  C7  UNL     1      10.373  15.585  -9.088  1.00  0.00     0.096 A 
HETATM    3  N1  UNL     1      10.646  14.757 -10.108  1.00  0.00    -0.357 N 
ATOM      4  H1  UNL     1      10.296  13.804 -10.211  1.00  0.00     0.166 HD
HETATM    5  C8  UNL     1      11.462  15.398 -10.978  1.00  0.00     0.114 A 
HETATM    6  C9  UNL     1      11.958  14.810 -12.189  1.00  0.00     0.117 C 
HETATM    7  N2  UNL     1      12.366  14.342 -13.169  1.00  0.00    -0.190 NA
HETATM    8  C10 UNL     1      11.718  16.680 -10.493  1.00  0.00     0.050 A 
ENDROOT
BRANCH   1   9
HETATM    9  C5  UNL     1      10.986  17.958  -8.412  1.00  0.00     0.044 C 
HETATM   10  C4  UNL     1       9.691  18.045  -7.680  1.00  0.00     0.096 C 
HETATM   11  C3  UNL     1      10.091  19.120  -6.644  1.00  0.00     0.051 C 
HETATM   12  N4  UNL     1       8.542  18.379  -8.410  1.00  0.00    -0.383 N 
HETATM   13  C2  UNL     1       8.903  19.536  -5.955  1.00  0.00     0.228 C 
HETATM   14  C12 UNL     1      11.274  18.504  -6.046  1.00  0.00    -0.023 C 
HETATM   15  C1  UNL     1       8.939  19.814  -4.488  1.00  0.00     0.043 C 
HETATM   16  N5  UNL     1       7.717  18.676  -6.166  1.00  0.00     0.115 N 
HETATM   17  C23 UNL     1       7.427  18.446  -7.554  1.00  0.00     0.320 C 
HETATM   18  C26 UNL     1       6.584  19.399  -5.602  1.00  0.00     0.276 C 
HETATM   19  C24 UNL     1       6.365  19.443  -7.921  1.00  0.00     0.059 C 
HETATM   20  C25 UNL     1       5.480  19.312  -6.670  1.00  0.00     0.034 C 
HETATM   21  C11 UNL     1      11.928  17.789  -7.231  1.00  0.00     0.022 C 
HETATM   22  C13 UNL     1      11.100  17.461  -5.007  1.00  0.00     0.055 C 
HETATM   23  C21 UNL     1      12.251  19.593  -5.631  1.00  0.00     0.055 C 
HETATM   24  C14 UNL     1      12.462  16.964  -4.573  1.00  0.00     0.064 C 
HETATM   25  N3  UNL     1      13.167  18.005  -3.956  1.00  0.00    -0.373 N 
HETATM   26  C20 UNL     1      12.941  19.336  -4.343  1.00  0.00     0.064 C 
HETATM   27  C22 UNL     1       8.647  19.306  -9.462  1.00  0.00     0.146 C 
BRANCH  25  28
HETATM   28  C15 UNL     1      14.568  17.795  -3.737  1.00  0.00     0.131 C 
BRANCH  28  29
HETATM   29  C16 UNL     1      15.331  17.200  -4.854  1.00  0.00     0.004 C 
HETATM   30  C17 UNL     1      15.908  18.229  -5.804  1.00  0.00     0.006 C 
HETATM   31  C18 UNL     1      17.156  18.241  -4.947  1.00  0.00     0.001 C 
HETATM   32  C19 UNL     1      16.756  16.870  -4.449  1.00  0.00     0.006 C 
ENDBRANCH  28  29
ENDBRANCH  25  28
ENDBRANCH   1   9
TORSDOF 3
ENDMDL
MODEL 2
REMARK VINA RESULT: -7.938145896      2.657      5.959
REMARK  3 active torsions:
REMARK  status: ('A' for Active; 'I' for Inactive)
REMARK    1  A    between atoms: C5_5  and  C6_6 
REMARK    2  A    between atoms: N3_18  and  C15_19 
REMARK    3  A    between atoms: C15_19  and  C16_20 
ROOT
HETATM    1  C6  UNL     1       8.239  18.892  -6.223  1.00  0.00    -0.034 A 
HETATM    2  C7  UNL     1       8.171  20.090  -5.551  1.00  0.00     0.096 A 
HETATM    3  N1  UNL     1       7.032  20.709  -5.899  1.00  0.00    -0.357 N 
ATOM      4  H1  UNL     1       6.719  21.617  -5.554  1.00  0.00     0.166 HD
HETATM    5  C8  UNL     1       6.369  19.928  -6.784  1.00  0.00     0.114 A 
HETATM    6  C9  UNL     1       5.107  20.278  -7.369  1.00  0.00     0.117 C 
HETATM    7  N2  UNL     1       4.086  20.551  -7.845  1.00  0.00    -0.190 NA
HETATM    8  C10 UNL     1       7.113  18.769  -7.006  1.00  0.00     0.050 A 
ENDROOT
BRANCH   1   9
HETATM    9  C5  UNL     1       9.340  17.905  -6.116  1.00  0.00     0.044 C 
HETATM   10  C4  UNL     1      10.508  18.297  -6.953  1.00  0.00     0.096 C 
HETATM   11  C3  UNL     1      11.541  17.303  -6.378  1.00  0.00     0.051 C 
HETATM   12  N4  UNL     1      10.378  18.217  -8.347  1.00  0.00    -0.383 N 
HETATM   13  C2  UNL     1      12.710  17.347  -7.209  1.00  0.00     0.228 C 
HETATM   14  C12 UNL     1      11.472  17.623  -4.953  1.00  0.00    -0.023 C 
HETATM   15  C1  UNL     1      14.073  17.270  -6.600  1.00  0.00     0.043 C 
HETATM   16  N5  UNL     1      12.765  18.477  -8.162  1.00  0.00     0.115 N 
HETATM   17  C23 UNL     1      11.582  18.593  -8.969  1.00  0.00     0.320 C 
HETATM   18  C26 UNL     1      13.877  18.198  -9.062  1.00  0.00     0.276 C 
HETATM   19  C24 UNL     1      11.903  17.907 -10.267  1.00  0.00     0.059 C 
HETATM   20  C25 UNL     1      13.325  18.458 -10.474  1.00  0.00     0.034 C 
HETATM   21  C11 UNL     1       9.992  17.950  -4.744  1.00  0.00     0.022 C 
HETATM   22  C13 UNL     1      12.211  18.801  -4.440  1.00  0.00     0.055 C 
HETATM   23  C21 UNL     1      11.735  16.362  -4.143  1.00  0.00     0.055 C 
HETATM   24  C14 UNL     1      11.957  18.934  -2.954  1.00  0.00     0.064 C 
HETATM   25  N3  UNL     1      12.492  17.826  -2.285  1.00  0.00    -0.373 N 
HETATM   26  C20 UNL     1      12.557  16.579  -2.927  1.00  0.00     0.064 C 
HETATM   27  C22 UNL     1       9.626  17.167  -8.902  1.00  0.00     0.146 C 
BRANCH  25  28
HETATM   28  C15 UNL     1      12.101  17.647  -0.917  1.00  0.00     0.131 C 
BRANCH  28  29
HETATM   29  C16 UNL     1      10.752  17.089  -0.682  1.00  0.00     0.004 C 
HETATM   30  C17 UNL     1      10.748  15.908   0.266  1.00  0.00     0.006 C 
HETATM   31  C18 UNL     1      10.549  16.889   1.402  1.00  0.00     0.001 C 
HETATM   32  C19 UNL     1      10.001  17.865   0.384  1.00  0.00     0.006 C 
ENDBRANCH  28  29
ENDBRANCH  25  28
ENDBRANCH   1   9
TORSDOF 3
ENDMDL
MODEL 3
REMARK VINA RESULT: -7.894878830      2.902      6.027
REMARK  3 active torsions:
REMARK  status: ('A' for Active; 'I' for Inactive)
REMARK    1  A    between atoms: C5_5  and  C6_6 
REMARK    2  A    between atoms: N3_18  and  C15_19 
REMARK    3  A    between atoms: C15_19  and  C16_20 
ROOT
HETATM    1  C6  UNL     1       7.776  19.027  -7.071  1.00  0.00    -0.034 A 
HETATM    2  C7  UNL     1       6.669  18.735  -7.834  1.00  0.00     0.096 A 
HETATM    3  N1  UNL     1       5.946  19.855  -7.982  1.00  0.00    -0.357 N 
ATOM      4  H1  UNL     1       5.071  19.934  -8.502  1.00  0.00     0.166 HD
HETATM    5  C8  UNL     1       6.571  20.862  -7.327  1.00  0.00     0.114 A 
HETATM    6  C9  UNL     1       6.078  22.208  -7.274  1.00  0.00     0.117 C 
HETATM    7  N2  UNL     1       5.688  23.299  -7.228  1.00  0.00    -0.190 NA
HETATM    8  C10 UNL     1       7.734  20.364  -6.741  1.00  0.00     0.050 A 
ENDROOT
BRANCH   1   9
HETATM    9  C5  UNL     1       8.832  18.063  -6.678  1.00  0.00     0.044 C 
HETATM   10  C4  UNL     1      10.135  18.389  -7.323  1.00  0.00     0.096 C 
HETATM   11  C3  UNL     1      11.039  17.458  -6.482  1.00  0.00     0.051 C 
HETATM   12  N4  UNL     1      10.258  18.182  -8.704  1.00  0.00    -0.383 N 
HETATM   13  C2  UNL     1      12.340  17.437  -7.089  1.00  0.00     0.228 C 
HETATM   14  C12 UNL     1      10.716  17.905  -5.129  1.00  0.00    -0.023 C 
HETATM   15  C1  UNL     1      13.569  17.428  -6.239  1.00  0.00     0.043 C 
HETATM   16  N5  UNL     1      12.575  18.478  -8.115  1.00  0.00     0.115 N 
HETATM   17  C23 UNL     1      11.559  18.510  -9.129  1.00  0.00     0.320 C 
HETATM   18  C26 UNL     1      13.830  18.128  -8.770  1.00  0.00     0.276 C 
HETATM   19  C24 UNL     1      12.104  17.714 -10.280  1.00  0.00     0.059 C 
HETATM   20  C25 UNL     1      13.544  18.255 -10.276  1.00  0.00     0.034 C 
HETATM   21  C11 UNL     1       9.225  18.237  -5.221  1.00  0.00     0.022 C 
HETATM   22  C13 UNL     1      11.359  19.131  -4.599  1.00  0.00     0.055 C 
HETATM   23  C21 UNL     1      10.818  16.725  -4.174  1.00  0.00     0.055 C 
HETATM   24  C14 UNL     1      10.841  19.395  -3.201  1.00  0.00     0.064 C 
HETATM   25  N3  UNL     1      11.237  18.357  -2.350  1.00  0.00    -0.373 N 
HETATM   26  C20 UNL     1      11.408  17.057  -2.854  1.00  0.00     0.064 C 
HETATM   27  C22 UNL     1       9.611  17.080  -9.289  1.00  0.00     0.146 C 
BRANCH  25  28
HETATM   28  C15 UNL     1      10.604  18.298  -1.065  1.00  0.00     0.131 C 
BRANCH  28  29
HETATM   29  C16 UNL     1      10.924  17.127  -0.221  1.00  0.00     0.004 C 
HETATM   30  C17 UNL     1      11.898  17.438   0.895  1.00  0.00     0.006 C 
HETATM   31  C18 UNL     1      10.706  17.755   1.773  1.00  0.00     0.001 C 
HETATM   32  C19 UNL     1       9.871  16.899   0.847  1.00  0.00     0.006 C 
ENDBRANCH  28  29
ENDBRANCH  25  28
ENDBRANCH   1   9
TORSDOF 3
ENDMDL
MODEL 4
REMARK VINA RESULT: -7.766811514      2.523      4.609
REMARK  3 active torsions:
REMARK  status: ('A' for Active; 'I' for Inactive)
REMARK    1  A    between atoms: C5_5  and  C6_6 
REMARK    2  A    between atoms: N3_18  and  C15_19 
REMARK    3  A    between atoms: C15_19  and  C16_20 
ROOT
HETATM    1  C6  UNL     1      13.225  17.938  -8.851  1.00  0.00    -0.034 A 
HETATM    2  C7  UNL     1      13.691  18.394 -10.062  1.00  0.00     0.096 A 
HETATM    3  N1  UNL     1      13.322  17.525 -11.016  1.00  0.00    -0.357 N 
ATOM      4  H1  UNL     1      13.530  17.609 -12.011  1.00  0.00     0.166 HD
HETATM    5  C8  UNL     1      12.627  16.518 -10.436  1.00  0.00     0.114 A 
HETATM    6  C9  UNL     1      12.075  15.407 -11.159  1.00  0.00     0.117 C 
HETATM    7  N2  UNL     1      11.624  14.508 -11.735  1.00  0.00    -0.190 NA
HETATM    8  C10 UNL     1      12.551  16.755  -9.064  1.00  0.00     0.050 A 
ENDROOT
BRANCH   1   9
HETATM    9  C5  UNL     1      13.418  18.610  -7.544  1.00  0.00     0.044 C 
HETATM   10  C4  UNL     1      13.098  17.699  -6.409  1.00  0.00     0.096 C 
HETATM   11  C3  UNL     1      13.699  18.546  -5.265  1.00  0.00     0.051 C 
HETATM   12  N4  UNL     1      11.755  17.355  -6.198  1.00  0.00    -0.383 N 
HETATM   13  C2  UNL     1      13.300  17.955  -4.019  1.00  0.00     0.228 C 
HETATM   14  C12 UNL     1      15.068  18.728  -5.744  1.00  0.00    -0.023 C 
HETATM   15  C1  UNL     1      14.257  17.892  -2.873  1.00  0.00     0.043 C 
HETATM   16  N5  UNL     1      12.715  16.599  -4.122  1.00  0.00     0.115 N 
HETATM   17  C23 UNL     1      11.640  16.519  -5.071  1.00  0.00     0.320 C 
HETATM   18  C26 UNL     1      12.157  16.297  -2.809  1.00  0.00     0.276 C 
HETATM   19  C24 UNL     1      10.376  16.651  -4.271  1.00  0.00     0.059 C 
HETATM   20  C25 UNL     1      10.752  15.737  -3.092  1.00  0.00     0.034 C 
HETATM   21  C11 UNL     1      14.890  18.853  -7.259  1.00  0.00     0.022 C 
HETATM   22  C13 UNL     1      16.053  17.637  -5.554  1.00  0.00     0.055 C 
HETATM   23  C21 UNL     1      15.587  20.079  -5.276  1.00  0.00     0.055 C 
HETATM   24  C14 UNL     1      17.377  18.055  -6.157  1.00  0.00     0.064 C 
HETATM   25  N3  UNL     1      17.885  19.156  -5.456  1.00  0.00    -0.373 N 
HETATM   26  C20 UNL     1      17.009  20.075  -4.855  1.00  0.00     0.064 C 
HETATM   27  C22 UNL     1      10.759  18.318  -6.432  1.00  0.00     0.146 C 
BRANCH  25  28
HETATM   28  C15 UNL     1      18.981  19.855  -6.059  1.00  0.00     0.131 C 
BRANCH  28  29
HETATM   29  C16 UNL     1      18.642  21.035  -6.883  1.00  0.00     0.004 C 
HETATM   30  C17 UNL     1      19.855  21.737  -7.456  1.00  0.00     0.006 C 
HETATM   31  C18 UNL     1      19.731  20.843  -8.671  1.00  0.00     0.001 C 
HETATM   32  C19 UNL     1      18.277  20.643  -8.302  1.00  0.00     0.006 C 
ENDBRANCH  28  29
ENDBRANCH  25  28
ENDBRANCH   1   9
TORSDOF 3
ENDMDL
MODEL 5
REMARK VINA RESULT: -7.760258755      2.747      6.153
REMARK  3 active torsions:
REMARK  status: ('A' for Active; 'I' for Inactive)
REMARK    1  A    between atoms: C5_5  and  C6_6 
REMARK    2  A    between atoms: N3_18  and  C15_19 
REMARK    3  A    between atoms: C15_19  and  C16_20 
ROOT
HETATM    1  C6  UNL     1       7.775  19.024  -7.062  1.00  0.00    -0.034 A 
HETATM    2  C7  UNL     1       6.665  18.739  -7.822  1.00  0.00     0.096 A 
HETATM    3  N1  UNL     1       5.942  19.862  -7.958  1.00  0.00    -0.357 N 
ATOM      4  H1  UNL     1       5.066  19.947  -8.473  1.00  0.00     0.166 HD
HETATM    5  C8  UNL     1       6.571  20.862  -7.296  1.00  0.00     0.114 A 
HETATM    6  C9  UNL     1       6.079  22.208  -7.228  1.00  0.00     0.117 C 
HETATM    7  N2  UNL     1       5.691  23.299  -7.171  1.00  0.00    -0.190 NA
HETATM    8  C10 UNL     1       7.736  20.357  -6.719  1.00  0.00     0.050 A 
ENDROOT
BRANCH   1   9
HETATM    9  C5  UNL     1       8.831  18.055  -6.682  1.00  0.00     0.044 C 
HETATM   10  C4  UNL     1      10.133  18.387  -7.327  1.00  0.00     0.096 C 
HETATM   11  C3  UNL     1      11.039  17.447  -6.499  1.00  0.00     0.051 C 
HETATM   12  N4  UNL     1      10.252  18.195  -8.710  1.00  0.00    -0.383 N 
HETATM   13  C2  UNL     1      12.338  17.432  -7.109  1.00  0.00     0.228 C 
HETATM   14  C12 UNL     1      10.720  17.879  -5.140  1.00  0.00    -0.023 C 
HETATM   15  C1  UNL     1      13.569  17.413  -6.263  1.00  0.00     0.043 C 
HETATM   16  N5  UNL     1      12.571  18.484  -8.125  1.00  0.00     0.115 N 
HETATM   17  C23 UNL     1      11.552  18.527  -9.136  1.00  0.00     0.320 C 
HETATM   18  C26 UNL     1      13.823  18.140  -8.787  1.00  0.00     0.276 C 
HETATM   19  C24 UNL     1      12.093  17.743 -10.297  1.00  0.00     0.059 C 
HETATM   20  C25 UNL     1      13.533  18.283 -10.291  1.00  0.00     0.034 C 
HETATM   21  C11 UNL     1       9.229  18.213  -5.224  1.00  0.00     0.022 C 
HETATM   22  C13 UNL     1      11.365  19.099  -4.598  1.00  0.00     0.055 C 
HETATM   23  C21 UNL     1      10.824  16.689  -4.198  1.00  0.00     0.055 C 
HETATM   24  C14 UNL     1      10.851  19.349  -3.196  1.00  0.00     0.064 C 
HETATM   25  N3  UNL     1      11.249  18.301  -2.358  1.00  0.00    -0.373 N 
HETATM   26  C20 UNL     1      11.418  17.007  -2.876  1.00  0.00     0.064 C 
HETATM   27  C22 UNL     1       9.603  17.099  -9.306  1.00  0.00     0.146 C 
BRANCH  25  28
HETATM   28  C15 UNL     1      10.620  18.229  -1.071  1.00  0.00     0.131 C 
BRANCH  28  29
HETATM   29  C16 UNL     1       9.832  19.408  -0.652  1.00  0.00     0.004 C 
HETATM   30  C17 UNL     1       8.800  19.094   0.410  1.00  0.00     0.006 C 
HETATM   31  C18 UNL     1       9.852  19.417   1.451  1.00  0.00     0.001 C 
HETATM   32  C19 UNL     1      10.565  20.230   0.392  1.00  0.00     0.006 C 
ENDBRANCH  28  29
ENDBRANCH  25  28
ENDBRANCH   1   9
TORSDOF 3
ENDMDL
