MODEL 1
REMARK VINA RESULT: -7.590996312      0.000      0.000
REMARK  6 active torsions:
REMARK  status: ('A' for Active; 'I' for Inactive)
REMARK    1  A    between atoms: C2_2  and  C3_3 
REMARK    2  A    between atoms: C3_3  and  C4_4 
REMARK    3  A    between atoms: C4_4  and  C5_5 
REMARK    4  A    between atoms: C5_5  and  C6_6 
REMARK    5  A    between atoms: C7_7  and  C8_8 
REMARK    6  A    between atoms: N1_27  and  C24_28 
ROOT
HETATM    1  C24 UNL     1      11.162  16.924  -0.980  1.00  0.00     0.398 C 
HETATM    2  C25 UNL     1      10.376  17.469   0.125  1.00  0.00     0.089 C 
HETATM    3  N2  UNL     1       9.745  17.883   1.000  1.00  0.00    -0.195 NA
ENDROOT
BRANCH   1   4
HETATM    4  N1  UNL     1      11.126  17.896  -2.052  1.00  0.00     0.134 N 
HETATM    5  C21 UNL     1      12.375  18.561  -2.246  1.00  0.00     0.384 C 
HETATM    6  C20 UNL     1      12.225  19.976  -2.751  1.00  0.00     0.232 C 
HETATM    7  O3  UNL     1      13.114  17.851  -3.150  1.00  0.00    -0.348 OA
HETATM    8  O2  UNL     1      13.004  20.165  -3.862  1.00  0.00    -0.380 OA
HETATM    9  C19 UNL     1      12.345  20.041  -5.033  1.00  0.00     0.138 A 
HETATM   10  C16 UNL     1      12.593  19.084  -6.038  1.00  0.00     0.026 A 
HETATM   11  C17 UNL     1      13.001  20.443  -6.325  1.00  0.00     0.026 A 
HETATM   12  C11 UNL     1      13.426  17.896  -5.930  1.00  0.00    -0.025 C 
HETATM   13  C15 UNL     1      11.325  18.492  -6.684  1.00  0.00     0.136 C 
HETATM   14  C10 UNL     1      13.751  17.285  -7.281  1.00  0.00     0.014 C 
HETATM   15  C12 UNL     1      14.721  17.980  -5.193  1.00  0.00     0.016 C 
HETATM   16  C13 UNL     1      12.453  16.894  -5.279  1.00  0.00     0.028 C 
HETATM   17  C9  UNL     1      13.512  18.110  -8.480  1.00  0.00     0.045 C 
HETATM   18  C8  UNL     1      12.076  18.229  -8.907  1.00  0.00     0.200 C 
HETATM   19  O1  UNL     1      11.206  18.662  -8.002  1.00  0.00    -0.367 OA
HETATM   20  C14 UNL     1      11.253  17.074  -6.166  1.00  0.00     0.041 C 
HETATM   21  C22 UNL     1      12.258  16.991  -3.844  1.00  0.00     0.157 C 
HETATM   22  C23 UNL     1      10.863  17.279  -3.346  1.00  0.00     0.309 C 
HETATM   23  C18 UNL     1      14.356  21.010  -6.135  1.00  0.00     0.014 C 
BRANCH  18  24
HETATM   24  C7  UNL     1      11.695  16.973  -9.578  1.00  0.00    -0.074 C 
HETATM   25  C6  UNL     1      11.392  15.935 -10.110  1.00  0.00    -0.104 C 
BRANCH  25  26
HETATM   26  C5  UNL     1      11.033  14.642 -10.746  1.00  0.00     0.094 C 
BRANCH  26  27
HETATM   27  C4  UNL     1      11.501  14.577 -12.151  1.00  0.00     0.012 C 
BRANCH  27  28
HETATM   28  C3  UNL     1      10.765  13.722 -13.103  1.00  0.00     0.000 C 
BRANCH  28  29
HETATM   29  C2  UNL     1       9.574  14.268 -13.783  1.00  0.00    -0.005 C 
HETATM   30  C1  UNL     1       8.270  14.269 -13.097  1.00  0.00     0.005 C 
ENDBRANCH  28  29
ENDBRANCH  27  28
ENDBRANCH  26  27
ENDBRANCH  25  26
ENDBRANCH  18  24
ENDBRANCH   1   4
TORSDOF 6
ENDMDL
MODEL 2
REMARK VINA RESULT: -7.495261795      6.242      7.318
REMARK  6 active torsions:
REMARK  status: ('A' for Active; 'I' for Inactive)
REMARK    1  A    between atoms: C2_2  and  C3_3 
REMARK    2  A    between atoms: C3_3  and  C4_4 
REMARK    3  A    between atoms: C4_4  and  C5_5 
REMARK    4  A    between atoms: C5_5  and  C6_6 
REMARK    5  A    between atoms: C7_7  and  C8_8 
REMARK    6  A    between atoms: N1_27  and  C24_28 
ROOT
HETATM    1  C24 UNL     1       5.797  22.515  -1.883  1.00  0.00     0.398 C 
HETATM    2  C25 UNL     1       4.752  23.145  -1.081  1.00  0.00     0.089 C 
HETATM    3  N2  UNL     1       3.933  23.635  -0.430  1.00  0.00    -0.195 NA
ENDROOT
BRANCH   1   4
HETATM    4  N1  UNL     1       5.145  21.842  -2.987  1.00  0.00     0.134 N 
HETATM    5  C21 UNL     1       4.599  22.745  -3.948  1.00  0.00     0.384 C 
HETATM    6  C20 UNL     1       3.365  22.212  -4.634  1.00  0.00     0.232 C 
HETATM    7  O3  UNL     1       5.548  23.004  -4.897  1.00  0.00    -0.348 OA
HETATM    8  O2  UNL     1       3.504  22.303  -5.995  1.00  0.00    -0.380 OA
HETATM    9  C19 UNL     1       3.912  21.164  -6.591  1.00  0.00     0.138 A 
HETATM   10  C16 UNL     1       5.110  20.977  -7.311  1.00  0.00     0.026 A 
HETATM   11  C17 UNL     1       3.892  21.037  -8.090  1.00  0.00     0.026 A 
HETATM   12  C11 UNL     1       6.255  21.874  -7.357  1.00  0.00    -0.025 C 
HETATM   13  C15 UNL     1       5.809  19.628  -7.050  1.00  0.00     0.136 C 
HETATM   14  C10 UNL     1       7.213  21.542  -8.485  1.00  0.00     0.014 C 
HETATM   15  C12 UNL     1       6.022  23.346  -7.432  1.00  0.00     0.016 C 
HETATM   16  C13 UNL     1       7.014  21.473  -6.077  1.00  0.00     0.028 C 
HETATM   17  C9  UNL     1       6.730  20.647  -9.553  1.00  0.00     0.045 C 
HETATM   18  C8  UNL     1       6.679  19.187  -9.200  1.00  0.00     0.200 C 
HETATM   19  O1  UNL     1       5.991  18.847  -8.116  1.00  0.00    -0.367 OA
HETATM   20  C14 UNL     1       7.034  19.978  -6.238  1.00  0.00     0.041 C 
HETATM   21  C22 UNL     1       6.532  22.014  -4.819  1.00  0.00     0.157 C 
HETATM   22  C23 UNL     1       6.074  21.034  -3.767  1.00  0.00     0.309 C 
HETATM   23  C18 UNL     1       3.340  22.235  -8.765  1.00  0.00     0.014 C 
BRANCH  18  24
HETATM   24  C7  UNL     1       8.055  18.659  -9.250  1.00  0.00    -0.074 C 
HETATM   25  C6  UNL     1       9.177  18.223  -9.269  1.00  0.00    -0.104 C 
BRANCH  25  26
HETATM   26  C5  UNL     1      10.561  17.683  -9.266  1.00  0.00     0.094 C 
BRANCH  26  27
HETATM   27  C4  UNL     1      10.608  16.307  -8.718  1.00  0.00     0.012 C 
BRANCH  27  28
HETATM   28  C3  UNL     1      10.365  15.173  -9.632  1.00  0.00     0.000 C 
BRANCH  28  29
HETATM   29  C2  UNL     1      11.491  14.629 -10.416  1.00  0.00    -0.005 C 
HETATM   30  C1  UNL     1      11.428  14.623 -11.888  1.00  0.00     0.005 C 
ENDBRANCH  28  29
ENDBRANCH  27  28
ENDBRANCH  26  27
ENDBRANCH  25  26
ENDBRANCH  18  24
ENDBRANCH   1   4
TORSDOF 6
ENDMDL
MODEL 3
REMARK VINA RESULT: -7.273986804      2.907      4.641
REMARK  6 active torsions:
REMARK  status: ('A' for Active; 'I' for Inactive)
REMARK    1  A    between atoms: C2_2  and  C3_3 
REMARK    2  A    between atoms: C3_3  and  C4_4 
REMARK    3  A    between atoms: C4_4  and  C5_5 
REMARK    4  A    between atoms: C5_5  and  C6_6 
REMARK    5  A    between atoms: C7_7  and  C8_8 
REMARK    6  A    between atoms: N1_27  and  C24_28 
ROOT
HETATM    1  C24 UNL     1      18.357  18.452  -5.221  1.00  0.00     0.398 C 
HETATM    2  C25 UNL     1      19.339  18.422  -4.140  1.00  0.00     0.089 C 
HETATM    3  N2  UNL     1      20.126  18.385  -3.296  1.00  0.00    -0.195 NA
ENDROOT
BRANCH   1   4
HETATM    4  N1  UNL     1      17.051  18.291  -4.619  1.00  0.00     0.134 N 
HETATM    5  C21 UNL     1      16.403  19.535  -4.347  1.00  0.00     0.384 C 
HETATM    6  C20 UNL     1      15.494  19.483  -3.143  1.00  0.00     0.232 C 
HETATM    7  O3  UNL     1      15.662  19.891  -5.439  1.00  0.00    -0.348 OA
HETATM    8  O2  UNL     1      14.253  19.965  -3.468  1.00  0.00    -0.380 OA
HETATM    9  C19 UNL     1      13.346  19.012  -3.767  1.00  0.00     0.138 A 
HETATM   10  C16 UNL     1      12.691  18.836  -5.003  1.00  0.00     0.026 A 
HETATM   11  C17 UNL     1      11.891  19.364  -3.918  1.00  0.00     0.026 A 
HETATM   12  C11 UNL     1      13.023  19.470  -6.269  1.00  0.00    -0.025 C 
HETATM   13  C15 UNL     1      12.543  17.366  -5.444  1.00  0.00     0.136 C 
HETATM   14  C10 UNL     1      11.919  19.330  -7.301  1.00  0.00     0.014 C 
HETATM   15  C12 UNL     1      13.420  20.908  -6.281  1.00  0.00     0.016 C 
HETATM   16  C13 UNL     1      14.151  18.555  -6.787  1.00  0.00     0.028 C 
HETATM   17  C9  UNL     1      10.585  18.920  -6.824  1.00  0.00     0.045 C 
HETATM   18  C8  UNL     1      10.435  17.460  -6.502  1.00  0.00     0.200 C 
HETATM   19  O1  UNL     1      11.295  16.936  -5.637  1.00  0.00    -0.367 OA
HETATM   20  C14 UNL     1      13.510  17.209  -6.595  1.00  0.00     0.041 C 
HETATM   21  C22 UNL     1      15.479  18.759  -6.238  1.00  0.00     0.157 C 
HETATM   22  C23 UNL     1      16.116  17.606  -5.503  1.00  0.00     0.309 C 
HETATM   23  C18 UNL     1      11.610  20.793  -3.651  1.00  0.00     0.014 C 
BRANCH  18  24
HETATM   24  C7  UNL     1      10.312  16.724  -7.774  1.00  0.00    -0.074 C 
HETATM   25  C6  UNL     1      10.231  16.114  -8.809  1.00  0.00    -0.104 C 
BRANCH  25  26
HETATM   26  C5  UNL     1      10.158  15.356 -10.084  1.00  0.00     0.094 C 
BRANCH  26  27
HETATM   27  C4  UNL     1      11.506  15.064 -10.625  1.00  0.00     0.012 C 
BRANCH  27  28
HETATM   28  C3  UNL     1      12.624  15.955 -10.256  1.00  0.00     0.000 C 
BRANCH  28  29
HETATM   29  C2  UNL     1      12.759  17.257 -10.940  1.00  0.00    -0.005 C 
HETATM   30  C1  UNL     1      13.691  18.270 -10.416  1.00  0.00     0.005 C 
ENDBRANCH  28  29
ENDBRANCH  27  28
ENDBRANCH  26  27
ENDBRANCH  25  26
ENDBRANCH  18  24
ENDBRANCH   1   4
TORSDOF 6
ENDMDL
MODEL 4
REMARK VINA RESULT: -7.273623078      3.844      6.284
REMARK  6 active torsions:
REMARK  status: ('A' for Active; 'I' for Inactive)
REMARK    1  A    between atoms: C2_2  and  C3_3 
REMARK    2  A    between atoms: C3_3  and  C4_4 
REMARK    3  A    between atoms: C4_4  and  C5_5 
REMARK    4  A    between atoms: C5_5  and  C6_6 
REMARK    5  A    between atoms: C7_7  and  C8_8 
REMARK    6  A    between atoms: N1_27  and  C24_28 
ROOT
HETATM    1  C24 UNL     1      17.655  20.798  -7.445  1.00  0.00     0.398 C 
HETATM    2  C25 UNL     1      18.810  20.349  -8.219  1.00  0.00     0.089 C 
HETATM    3  N2  UNL     1      19.718  20.006  -8.845  1.00  0.00    -0.195 NA
ENDROOT
BRANCH   1   4
HETATM    4  N1  UNL     1      16.913  19.617  -7.056  1.00  0.00     0.134 N 
HETATM    5  C21 UNL     1      16.549  19.614  -5.676  1.00  0.00     0.384 C 
HETATM    6  C20 UNL     1      16.476  18.228  -5.082  1.00  0.00     0.232 C 
HETATM    7  O3  UNL     1      15.328  20.211  -5.542  1.00  0.00    -0.348 OA
HETATM    8  O2  UNL     1      15.275  18.050  -4.447  1.00  0.00    -0.380 OA
HETATM    9  C19 UNL     1      14.343  17.412  -5.185  1.00  0.00     0.138 A 
HETATM   10  C16 UNL     1      13.103  17.936  -5.605  1.00  0.00     0.026 A 
HETATM   11  C17 UNL     1      13.061  16.941  -4.554  1.00  0.00     0.026 A 
HETATM   12  C11 UNL     1      12.674  19.325  -5.549  1.00  0.00    -0.025 C 
HETATM   13  C15 UNL     1      12.711  17.570  -7.050  1.00  0.00     0.136 C 
HETATM   14  C10 UNL     1      11.179  19.484  -5.753  1.00  0.00     0.014 C 
HETATM   15  C12 UNL     1      13.016  20.144  -4.349  1.00  0.00     0.016 C 
HETATM   16  C13 UNL     1      13.300  19.895  -6.836  1.00  0.00     0.028 C 
HETATM   17  C9  UNL     1      10.339  18.278  -5.627  1.00  0.00     0.045 C 
HETATM   18  C8  UNL     1      10.375  17.340  -6.801  1.00  0.00     0.200 C 
HETATM   19  O1  UNL     1      11.565  16.902  -7.194  1.00  0.00    -0.367 OA
HETATM   20  C14 UNL     1      12.859  18.856  -7.829  1.00  0.00     0.041 C 
HETATM   21  C22 UNL     1      14.709  20.239  -6.796  1.00  0.00     0.157 C 
HETATM   22  C23 UNL     1      15.633  19.519  -7.747  1.00  0.00     0.309 C 
HETATM   23  C18 UNL     1      13.000  17.204  -3.098  1.00  0.00     0.014 C 
BRANCH  18  24
HETATM   24  C7  UNL     1       9.546  17.921  -7.873  1.00  0.00    -0.074 C 
HETATM   25  C6  UNL     1       8.860  18.410  -8.733  1.00  0.00    -0.104 C 
BRANCH  25  26
HETATM   26  C5  UNL     1       8.001  19.027  -9.776  1.00  0.00     0.094 C 
BRANCH  26  27
HETATM   27  C4  UNL     1       6.839  19.729  -9.182  1.00  0.00     0.012 C 
BRANCH  27  28
HETATM   28  C3  UNL     1       7.019  21.115  -8.705  1.00  0.00     0.000 C 
BRANCH  28  29
HETATM   29  C2  UNL     1       6.765  21.423  -7.284  1.00  0.00    -0.005 C 
HETATM   30  C1  UNL     1       7.375  20.593  -6.230  1.00  0.00     0.005 C 
ENDBRANCH  28  29
ENDBRANCH  27  28
ENDBRANCH  26  27
ENDBRANCH  25  26
ENDBRANCH  18  24
ENDBRANCH   1   4
TORSDOF 6
ENDMDL
MODEL 5
REMARK VINA RESULT: -7.264710313      2.867      3.659
REMARK  6 active torsions:
REMARK  status: ('A' for Active; 'I' for Inactive)
REMARK    1  A    between atoms: C2_2  and  C3_3 
REMARK    2  A    between atoms: C3_3  and  C4_4 
REMARK    3  A    between atoms: C4_4  and  C5_5 
REMARK    4  A    between atoms: C5_5  and  C6_6 
REMARK    5  A    between atoms: C7_7  and  C8_8 
REMARK    6  A    between atoms: N1_27  and  C24_28 
ROOT
HETATM    1  C24 UNL     1      17.657  17.034  -2.892  1.00  0.00     0.398 C 
HETATM    2  C25 UNL     1      18.488  17.705  -1.895  1.00  0.00     0.089 C 
HETATM    3  N2  UNL     1      19.146  18.218  -1.096  1.00  0.00    -0.195 NA
ENDROOT
BRANCH   1   4
HETATM    4  N1  UNL     1      16.494  17.868  -3.112  1.00  0.00     0.134 N 
HETATM    5  C21 UNL     1      16.793  19.069  -3.824  1.00  0.00     0.384 C 
HETATM    6  C20 UNL     1      15.898  20.224  -3.448  1.00  0.00     0.232 C 
HETATM    7  O3  UNL     1      16.658  18.831  -5.163  1.00  0.00    -0.348 OA
HETATM    8  O2  UNL     1      15.355  20.787  -4.573  1.00  0.00    -0.380 OA
HETATM    9  C19 UNL     1      14.108  20.360  -4.864  1.00  0.00     0.138 A 
HETATM   10  C16 UNL     1      13.710  19.664  -6.023  1.00  0.00     0.026 A 
HETATM   11  C17 UNL     1      13.295  21.047  -5.927  1.00  0.00     0.026 A 
HETATM   12  C11 UNL     1      14.575  19.049  -7.018  1.00  0.00    -0.025 C 
HETATM   13  C15 UNL     1      12.704  18.523  -5.770  1.00  0.00     0.136 C 
HETATM   14  C10 UNL     1      13.838  18.693  -8.296  1.00  0.00     0.014 C 
HETATM   15  C12 UNL     1      15.816  19.761  -7.442  1.00  0.00     0.016 C 
HETATM   16  C13 UNL     1      14.885  17.689  -6.362  1.00  0.00     0.028 C 
HETATM   17  C9  UNL     1      12.510  19.299  -8.511  1.00  0.00     0.045 C 
HETATM   18  C8  UNL     1      11.386  18.690  -7.721  1.00  0.00     0.200 C 
HETATM   19  O1  UNL     1      11.534  18.623  -6.403  1.00  0.00    -0.367 OA
HETATM   20  C14 UNL     1      13.496  17.254  -5.985  1.00  0.00     0.041 C 
HETATM   21  C22 UNL     1      15.907  17.664  -5.332  1.00  0.00     0.157 C 
HETATM   22  C23 UNL     1      15.497  17.213  -3.951  1.00  0.00     0.309 C 
HETATM   23  C18 UNL     1      13.987  22.214  -6.522  1.00  0.00     0.014 C 
BRANCH  18  24
HETATM   24  C7  UNL     1      11.015  17.416  -8.366  1.00  0.00    -0.074 C 
HETATM   25  C6  UNL     1      10.711  16.387  -8.913  1.00  0.00    -0.104 C 
BRANCH  25  26
HETATM   26  C5  UNL     1      10.330  15.132  -9.608  1.00  0.00     0.094 C 
BRANCH  26  27
HETATM   27  C4  UNL     1      11.462  14.571 -10.383  1.00  0.00     0.012 C 
BRANCH  27  28
HETATM   28  C3  UNL     1      11.538  14.854 -11.830  1.00  0.00     0.000 C 
BRANCH  28  29
HETATM   29  C2  UNL     1      11.088  13.824 -12.786  1.00  0.00    -0.005 C 
HETATM   30  C1  UNL     1       9.727  13.885 -13.348  1.00  0.00     0.005 C 
ENDBRANCH  28  29
ENDBRANCH  27  28
ENDBRANCH  26  27
ENDBRANCH  25  26
ENDBRANCH  18  24
ENDBRANCH   1   4
TORSDOF 6
ENDMDL
