MODEL 1
REMARK VINA RESULT: -8.515551506      0.000      0.000
REMARK  4 active torsions:
REMARK  status: ('A' for Active; 'I' for Inactive)
REMARK    1  A    between atoms: C9_12  and  C11_14 
REMARK    2  A    between atoms: C11_14  and  N2_15 
REMARK    3  A    between atoms: C19_23  and  O2_24 
REMARK    4  A    between atoms: O2_24  and  C20_25 
ROOT
HETATM    1  C1  UNL     1       6.662  22.253  -5.251  1.00  0.00     0.025 C 
HETATM    2  C2  UNL     1       6.762  20.982  -5.629  1.00  0.00     0.005 C 
HETATM    3  C3  UNL     1       5.616  20.081  -5.634  1.00  0.00     0.247 C 
HETATM    4  O1  UNL     1       4.611  20.422  -4.960  1.00  0.00    -0.268 OA
HETATM    5  N1  UNL     1       5.697  18.888  -6.384  1.00  0.00    -0.356 N 
ATOM      6  H1  UNL     1       4.844  18.340  -6.500  1.00  0.00     0.162 HD
HETATM    7  C4  UNL     1       6.899  18.395  -6.996  1.00  0.00     0.133 C 
HETATM    8  C5  UNL     1       7.887  19.489  -7.257  1.00  0.00    -0.016 C 
HETATM    9  C6  UNL     1       7.251  20.355  -8.359  1.00  0.00     0.018 C 
HETATM   10  C7  UNL     1       8.057  20.409  -6.073  1.00  0.00     0.034 C 
HETATM   11  C8  UNL     1       8.538  19.488  -4.958  1.00  0.00     0.025 C 
HETATM   12  C9  UNL     1       9.899  18.942  -5.216  1.00  0.00    -0.007 C 
HETATM   13  C10 UNL     1       9.882  17.595  -4.446  1.00  0.00     0.021 C 
HETATM   14  C14 UNL     1      10.252  18.738  -6.651  1.00  0.00     0.008 C 
HETATM   15  C15 UNL     1      10.759  17.396  -7.052  1.00  0.00    -0.005 C 
HETATM   16  C16 UNL     1      12.153  17.039  -6.775  1.00  0.00     0.005 C 
HETATM   17  C17 UNL     1      13.163  17.454  -7.824  1.00  0.00     0.003 C 
HETATM   18  C18 UNL     1      13.032  16.673  -9.103  1.00  0.00     0.032 C 
HETATM   19  C19 UNL     1      12.404  17.642 -10.101  1.00  0.00     0.132 C 
HETATM   20  C22 UNL     1      11.223  18.257  -9.388  1.00  0.00     0.037 C 
HETATM   21  C23 UNL     1      10.444  17.295  -8.559  1.00  0.00    -0.007 C 
HETATM   22  C24 UNL     1       9.011  17.791  -8.530  1.00  0.00     0.011 C 
HETATM   23  C25 UNL     1       9.225  19.044  -7.679  1.00  0.00     0.002 C 
ENDROOT
BRANCH  12  24
HETATM   24  C11 UNL     1      10.945  19.757  -4.504  1.00  0.00     0.071 C 
BRANCH  24  25
HETATM   25  N2  UNL     1      12.284  19.483  -4.619  1.00  0.00    -0.384 N 
HETATM   26  C12 UNL     1      13.105  18.776  -3.782  1.00  0.00     0.120 C 
HETATM   27  C13 UNL     1      12.983  20.428  -5.453  1.00  0.00     0.153 C 
ENDBRANCH  24  25
ENDBRANCH  12  24
BRANCH  19  28
HETATM   28  O2  UNL     1      12.101  17.045 -11.320  1.00  0.00    -0.316 OA
BRANCH  28  29
HETATM   29  C20 UNL     1      12.309  15.661 -11.439  1.00  0.00     0.255 C 
HETATM   30  C21 UNL     1      11.360  14.653 -10.949  1.00  0.00     0.126 C 
HETATM   31  O3  UNL     1      13.363  15.246 -11.996  1.00  0.00    -0.266 OA
ENDBRANCH  28  29
ENDBRANCH  19  28
TORSDOF 4
ENDMDL
MODEL 2
REMARK VINA RESULT: -8.457578398      2.801      6.742
REMARK  4 active torsions:
REMARK  status: ('A' for Active; 'I' for Inactive)
REMARK    1  A    between atoms: C9_12  and  C11_14 
REMARK    2  A    between atoms: C11_14  and  N2_15 
REMARK    3  A    between atoms: C19_23  and  O2_24 
REMARK    4  A    between atoms: O2_24  and  C20_25 
ROOT
HETATM    1  C1  UNL     1      13.911  18.074  -5.111  1.00  0.00     0.025 C 
HETATM    2  C2  UNL     1      12.651  17.651  -5.135  1.00  0.00     0.005 C 
HETATM    3  C3  UNL     1      12.177  16.577  -4.269  1.00  0.00     0.247 C 
HETATM    4  O1  UNL     1      13.044  15.832  -3.746  1.00  0.00    -0.268 OA
HETATM    5  N1  UNL     1      10.787  16.433  -4.069  1.00  0.00    -0.356 N 
ATOM      6  H1  UNL     1      10.474  15.778  -3.352  1.00  0.00     0.162 HD
HETATM    7  C4  UNL     1       9.784  17.147  -4.808  1.00  0.00     0.133 C 
HETATM    8  C5  UNL     1      10.309  18.427  -5.378  1.00  0.00    -0.016 C 
HETATM    9  C6  UNL     1      10.575  19.334  -4.163  1.00  0.00     0.018 C 
HETATM   10  C7  UNL     1      11.650  18.254  -6.049  1.00  0.00     0.034 C 
HETATM   11  C8  UNL     1      11.382  17.232  -7.147  1.00  0.00     0.025 C 
HETATM   12  C9  UNL     1      10.487  17.762  -8.214  1.00  0.00    -0.007 C 
HETATM   13  C10 UNL     1       9.803  16.479  -8.757  1.00  0.00     0.021 C 
HETATM   14  C14 UNL     1       9.477  18.765  -7.770  1.00  0.00     0.008 C 
HETATM   15  C15 UNL     1       8.053  18.515  -8.131  1.00  0.00    -0.005 C 
HETATM   16  C16 UNL     1       7.590  18.815  -9.488  1.00  0.00     0.005 C 
HETATM   17  C17 UNL     1       7.138  20.240  -9.733  1.00  0.00     0.003 C 
HETATM   18  C18 UNL     1       5.851  20.575  -9.028  1.00  0.00     0.032 C 
HETATM   19  C19 UNL     1       6.253  21.475  -7.864  1.00  0.00     0.132 C 
HETATM   20  C22 UNL     1       7.406  20.773  -7.183  1.00  0.00     0.037 C 
HETATM   21  C23 UNL     1       7.241  19.297  -7.076  1.00  0.00    -0.007 C 
HETATM   22  C24 UNL     1       7.990  18.854  -5.834  1.00  0.00     0.011 C 
HETATM   23  C25 UNL     1       9.415  19.111  -6.327  1.00  0.00     0.002 C 
ENDROOT
BRANCH  12  24
HETATM   24  C11 UNL     1      11.290  18.271  -9.381  1.00  0.00     0.071 C 
BRANCH  24  25
HETATM   25  N2  UNL     1      12.598  17.910  -9.576  1.00  0.00    -0.384 N 
HETATM   26  C12 UNL     1      13.747  18.570  -9.230  1.00  0.00     0.120 C 
HETATM   27  C13 UNL     1      12.770  16.981 -10.664  1.00  0.00     0.153 C 
ENDBRANCH  24  25
ENDBRANCH  12  24
BRANCH  19  28
HETATM   28  O2  UNL     1       5.189  21.790  -7.027  1.00  0.00    -0.316 OA
BRANCH  28  29
HETATM   29  C20 UNL     1       4.961  23.147  -6.743  1.00  0.00     0.255 C 
HETATM   30  C21 UNL     1       6.025  24.083  -6.353  1.00  0.00     0.126 C 
HETATM   31  O3  UNL     1       3.786  23.600  -6.822  1.00  0.00    -0.266 OA
ENDBRANCH  28  29
ENDBRANCH  19  28
TORSDOF 4
ENDMDL
MODEL 3
REMARK VINA RESULT: -8.211621070      2.773      6.552
REMARK  4 active torsions:
REMARK  status: ('A' for Active; 'I' for Inactive)
REMARK    1  A    between atoms: C9_12  and  C11_14 
REMARK    2  A    between atoms: C11_14  and  N2_15 
REMARK    3  A    between atoms: C19_23  and  O2_24 
REMARK    4  A    between atoms: O2_24  and  C20_25 
ROOT
HETATM    1  C1  UNL     1      14.115  18.342  -5.293  1.00  0.00     0.025 C 
HETATM    2  C2  UNL     1      12.879  17.853  -5.254  1.00  0.00     0.005 C 
HETATM    3  C3  UNL     1      12.495  16.786  -4.337  1.00  0.00     0.247 C 
HETATM    4  O1  UNL     1      13.420  16.106  -3.824  1.00  0.00    -0.268 OA
HETATM    5  N1  UNL     1      11.123  16.577  -4.079  1.00  0.00    -0.356 N 
ATOM      6  H1  UNL     1      10.873  15.931  -3.329  1.00  0.00     0.162 HD
HETATM    7  C4  UNL     1      10.057  17.212  -4.801  1.00  0.00     0.133 C 
HETATM    8  C5  UNL     1      10.492  18.498  -5.431  1.00  0.00    -0.016 C 
HETATM    9  C6  UNL     1      10.754  19.458  -4.257  1.00  0.00     0.018 C 
HETATM   10  C7  UNL     1      11.815  18.372  -6.148  1.00  0.00     0.034 C 
HETATM   11  C8  UNL     1      11.560  17.301  -7.201  1.00  0.00     0.025 C 
HETATM   12  C9  UNL     1      10.600  17.747  -8.249  1.00  0.00    -0.007 C 
HETATM   13  C10 UNL     1       9.965  16.412  -8.724  1.00  0.00     0.021 C 
HETATM   14  C14 UNL     1       9.554  18.711  -7.798  1.00  0.00     0.008 C 
HETATM   15  C15 UNL     1       8.134  18.375  -8.096  1.00  0.00    -0.005 C 
HETATM   16  C16 UNL     1       7.605  18.604  -9.443  1.00  0.00     0.005 C 
HETATM   17  C17 UNL     1       7.070  19.995  -9.715  1.00  0.00     0.003 C 
HETATM   18  C18 UNL     1       5.793  20.286  -8.972  1.00  0.00     0.032 C 
HETATM   19  C19 UNL     1       6.190  21.244  -7.854  1.00  0.00     0.132 C 
HETATM   20  C22 UNL     1       7.403  20.627  -7.196  1.00  0.00     0.037 C 
HETATM   21  C23 UNL     1       7.321  19.148  -7.036  1.00  0.00    -0.007 C 
HETATM   22  C24 UNL     1       8.138  18.788  -5.809  1.00  0.00     0.011 C 
HETATM   23  C25 UNL     1       9.528  19.101  -6.366  1.00  0.00     0.002 C 
ENDROOT
BRANCH  12  24
HETATM   24  C11 UNL     1      11.331  18.257  -9.462  1.00  0.00     0.071 C 
BRANCH  24  25
HETATM   25  N2  UNL     1      12.622  17.890  -9.740  1.00  0.00    -0.384 N 
HETATM   26  C12 UNL     1      13.790  18.570  -9.518  1.00  0.00     0.120 C 
HETATM   27  C13 UNL     1      12.715  16.908 -10.791  1.00  0.00     0.153 C 
ENDBRANCH  24  25
ENDBRANCH  12  24
BRANCH  19  28
HETATM   28  O2  UNL     1       5.142  21.532  -6.987  1.00  0.00    -0.316 OA
BRANCH  28  29
HETATM   29  C20 UNL     1       4.096  20.598  -6.895  1.00  0.00     0.255 C 
HETATM   30  C21 UNL     1       4.049  19.530  -5.886  1.00  0.00     0.126 C 
HETATM   31  O3  UNL     1       3.139  20.668  -7.714  1.00  0.00    -0.266 OA
ENDBRANCH  28  29
ENDBRANCH  19  28
TORSDOF 4
ENDMDL
MODEL 4
REMARK VINA RESULT: -7.947425983      3.097      6.347
REMARK  4 active torsions:
REMARK  status: ('A' for Active; 'I' for Inactive)
REMARK    1  A    between atoms: C9_12  and  C11_14 
REMARK    2  A    between atoms: C11_14  and  N2_15 
REMARK    3  A    between atoms: C19_23  and  O2_24 
REMARK    4  A    between atoms: O2_24  and  C20_25 
ROOT
HETATM    1  C1  UNL     1      14.012  19.580  -4.305  1.00  0.00     0.025 C 
HETATM    2  C2  UNL     1      12.962  18.777  -4.457  1.00  0.00     0.005 C 
HETATM    3  C3  UNL     1      12.720  17.643  -3.573  1.00  0.00     0.247 C 
HETATM    4  O1  UNL     1      13.687  17.233  -2.881  1.00  0.00    -0.268 OA
HETATM    5  N1  UNL     1      11.429  17.072  -3.544  1.00  0.00    -0.356 N 
ATOM      6  H1  UNL     1      11.231  16.380  -2.821  1.00  0.00     0.162 HD
HETATM    7  C4  UNL     1      10.377  17.401  -4.463  1.00  0.00     0.133 C 
HETATM    8  C5  UNL     1      10.560  18.759  -5.066  1.00  0.00    -0.016 C 
HETATM    9  C6  UNL     1      10.347  19.749  -3.907  1.00  0.00     0.018 C 
HETATM   10  C7  UNL     1      11.973  18.995  -5.540  1.00  0.00     0.034 C 
HETATM   11  C8  UNL     1      12.201  17.899  -6.574  1.00  0.00     0.025 C 
HETATM   12  C9  UNL     1      11.356  18.075  -7.788  1.00  0.00    -0.007 C 
HETATM   13  C10 UNL     1      11.191  16.621  -8.307  1.00  0.00     0.021 C 
HETATM   14  C14 UNL     1      10.030  18.722  -7.565  1.00  0.00     0.008 C 
HETATM   15  C15 UNL     1       8.825  18.018  -8.085  1.00  0.00    -0.005 C 
HETATM   16  C16 UNL     1       8.499  18.103  -9.511  1.00  0.00     0.005 C 
HETATM   17  C17 UNL     1       7.671  19.300  -9.931  1.00  0.00     0.003 C 
HETATM   18  C18 UNL     1       6.254  19.235  -9.429  1.00  0.00     0.032 C 
HETATM   19  C19 UNL     1       6.179  20.260  -8.302  1.00  0.00     0.132 C 
HETATM   20  C22 UNL     1       7.377  19.988  -7.422  1.00  0.00     0.037 C 
HETATM   21  C23 UNL     1       7.663  18.541  -7.213  1.00  0.00    -0.007 C 
HETATM   22  C24 UNL     1       8.317  18.408  -5.852  1.00  0.00     0.011 C 
HETATM   23  C25 UNL     1       9.650  19.085  -6.176  1.00  0.00     0.002 C 
ENDROOT
BRANCH  12  24
HETATM   24  C11 UNL     1      12.127  18.768  -8.880  1.00  0.00     0.071 C 
BRANCH  24  25
HETATM   25  N2  UNL     1      13.463  18.538  -9.084  1.00  0.00    -0.384 N 
HETATM   26  C12 UNL     1      14.550  19.092  -8.461  1.00  0.00     0.120 C 
HETATM   27  C13 UNL     1      13.751  18.021 -10.398  1.00  0.00     0.153 C 
ENDBRANCH  24  25
ENDBRANCH  12  24
BRANCH  19  28
HETATM   28  O2  UNL     1       4.957  20.252  -7.640  1.00  0.00    -0.316 OA
BRANCH  28  29
HETATM   29  C20 UNL     1       4.017  21.235  -7.993  1.00  0.00     0.255 C 
HETATM   30  C21 UNL     1       4.379  22.524  -8.597  1.00  0.00     0.126 C 
HETATM   31  O3  UNL     1       2.792  21.012  -7.786  1.00  0.00    -0.266 OA
ENDBRANCH  28  29
ENDBRANCH  19  28
TORSDOF 4
ENDMDL
MODEL 5
REMARK VINA RESULT: -7.896815082      3.373      6.385
REMARK  4 active torsions:
REMARK  status: ('A' for Active; 'I' for Inactive)
REMARK    1  A    between atoms: C9_12  and  C11_14 
REMARK    2  A    between atoms: C11_14  and  N2_15 
REMARK    3  A    between atoms: C19_23  and  O2_24 
REMARK    4  A    between atoms: O2_24  and  C20_25 
ROOT
HETATM    1  C1  UNL     1      16.757  17.684  -2.207  1.00  0.00     0.025 C 
HETATM    2  C2  UNL     1      16.425  18.463  -3.233  1.00  0.00     0.005 C 
HETATM    3  C3  UNL     1      17.182  19.662  -3.572  1.00  0.00     0.247 C 
HETATM    4  O1  UNL     1      17.941  20.135  -2.688  1.00  0.00    -0.268 OA
HETATM    5  N1  UNL     1      17.022  20.222  -4.858  1.00  0.00    -0.356 N 
ATOM      6  H1  UNL     1      17.660  20.968  -5.135  1.00  0.00     0.162 HD
HETATM    7  C4  UNL     1      16.020  19.811  -5.802  1.00  0.00     0.133 C 
HETATM    8  C5  UNL     1      15.554  18.410  -5.552  1.00  0.00    -0.016 C 
HETATM    9  C6  UNL     1      16.759  17.515  -5.893  1.00  0.00     0.018 C 
HETATM   10  C7  UNL     1      15.260  18.150  -4.095  1.00  0.00     0.034 C 
HETATM   11  C8  UNL     1      14.172  19.160  -3.754  1.00  0.00     0.025 C 
HETATM   12  C9  UNL     1      12.890  18.880  -4.459  1.00  0.00    -0.007 C 
HETATM   13  C10 UNL     1      12.241  20.286  -4.564  1.00  0.00     0.021 C 
HETATM   14  C14 UNL     1      13.017  18.241  -5.801  1.00  0.00     0.008 C 
HETATM   15  C15 UNL     1      12.311  18.890  -6.941  1.00  0.00    -0.005 C 
HETATM   16  C16 UNL     1      10.869  18.688  -7.106  1.00  0.00     0.005 C 
HETATM   17  C17 UNL     1      10.459  17.454  -7.882  1.00  0.00     0.003 C 
HETATM   18  C18 UNL     1      10.793  17.546  -9.346  1.00  0.00     0.032 C 
HETATM   19  C19 UNL     1      11.984  16.614  -9.546  1.00  0.00     0.132 C 
HETATM   20  C22 UNL     1      12.967  16.967  -8.454  1.00  0.00     0.037 C 
HETATM   21  C23 UNL     1      13.088  18.428  -8.192  1.00  0.00    -0.007 C 
HETATM   22  C24 UNL     1      14.498  18.677  -7.694  1.00  0.00     0.011 C 
HETATM   23  C25 UNL     1      14.379  17.988  -6.333  1.00  0.00     0.002 C 
ENDROOT
BRANCH  12  24
HETATM   24  C11 UNL     1      11.950  18.108  -3.570  1.00  0.00     0.071 C 
BRANCH  24  25
HETATM   25  N2  UNL     1      11.468  16.874  -3.921  1.00  0.00    -0.384 N 
HETATM   26  C12 UNL     1      10.215  16.511  -4.337  1.00  0.00     0.120 C 
HETATM   27  C13 UNL     1      12.221  15.790  -3.340  1.00  0.00     0.153 C 
ENDBRANCH  24  25
ENDBRANCH  12  24
BRANCH  19  28
HETATM   28  O2  UNL     1      12.504  16.664 -10.834  1.00  0.00    -0.316 OA
BRANCH  28  29
HETATM   29  C20 UNL     1      12.414  15.503 -11.620  1.00  0.00     0.255 C 
HETATM   30  C21 UNL     1      11.294  14.556 -11.542  1.00  0.00     0.126 C 
HETATM   31  O3  UNL     1      13.337  15.248 -12.442  1.00  0.00    -0.266 OA
ENDBRANCH  28  29
ENDBRANCH  19  28
TORSDOF 4
ENDMDL
