MODEL 1
REMARK VINA RESULT: -8.654937855      0.000      0.000
REMARK  4 active torsions:
REMARK  status: ('A' for Active; 'I' for Inactive)
REMARK    1  A    between atoms: C7_7  and  C8_8 
REMARK    2  A    between atoms: C8_8  and  O1_9 
REMARK    3  A    between atoms: C11_13  and  C12_14 
REMARK    4  A    between atoms: C12_14  and  C13_15 
REMARK       I    between atoms: C13_15  and  N1_17 
ROOT
HETATM    1  C1  UNL     1      11.852  18.522 -10.055  1.00  0.00     0.024 C 
HETATM    2  C2  UNL     1      11.304  17.405  -9.208  1.00  0.00     0.021 C 
HETATM    3  C3  UNL     1      11.731  17.643  -7.787  1.00  0.00     0.017 C 
HETATM    4  C4  UNL     1      10.780  18.593  -7.134  1.00  0.00     0.006 C 
HETATM    5  C5  UNL     1       9.387  17.938  -7.188  1.00  0.00    -0.009 C 
HETATM    6  C6  UNL     1       8.532  18.408  -6.095  1.00  0.00     0.021 C 
HETATM    7  C7  UNL     1       7.304  19.210  -6.405  1.00  0.00     0.005 C 
HETATM    8  C9  UNL     1       7.064  20.078  -5.147  1.00  0.00     0.020 C 
HETATM    9  C10 UNL     1       6.271  21.277  -5.613  1.00  0.00     0.036 C 
HETATM   10  C11 UNL     1       6.923  21.547  -6.960  1.00  0.00    -0.068 C 
HETATM   11  C17 UNL     1       7.507  20.276  -7.433  1.00  0.00    -0.066 C 
HETATM   12  C18 UNL     1       7.376  19.890  -8.843  1.00  0.00     0.036 C 
HETATM   13  C19 UNL     1       8.654  19.153  -9.270  1.00  0.00     0.010 C 
HETATM   14  C20 UNL     1       8.892  17.876  -8.571  1.00  0.00    -0.005 C 
HETATM   15  C21 UNL     1       9.887  17.086  -9.421  1.00  0.00     0.006 C 
HETATM   16  C22 UNL     1       9.695  15.602  -9.301  1.00  0.00     0.013 C 
HETATM   17  C23 UNL     1      10.977  15.115  -9.995  1.00  0.00     0.079 C 
HETATM   18  C24 UNL     1      11.997  16.138  -9.635  1.00  0.00     0.135 C 
HETATM   19  O3  UNL     1      13.193  15.936  -9.692  1.00  0.00    -0.297 OA
ENDROOT
BRANCH  10  20
HETATM   20  C12 UNL     1       6.183  22.436  -7.857  1.00  0.00     0.137 C 
BRANCH  20  21
HETATM   21  C13 UNL     1       4.996  23.136  -7.430  1.00  0.00     0.224 C 
HETATM   22  O2  UNL     1       5.094  24.201  -6.777  1.00  0.00    -0.273 OA
HETATM   23  N1  UNL     1       3.674  22.704  -7.698  1.00  0.00    -0.342 N 
HETATM   24  C14 UNL     1       2.476  23.407  -7.280  1.00  0.00     0.137 C 
HETATM   25  C16 UNL     1       3.276  21.511  -8.417  1.00  0.00     0.199 C 
HETATM   26  C15 UNL     1       1.725  22.467  -6.336  1.00  0.00     0.095 C 
HETATM   27  S1  UNL     1       1.996  20.889  -7.245  1.00  0.00    -0.148 SA
ENDBRANCH  20  21
ENDBRANCH  10  20
BRANCH   7  28
HETATM   28  C8  UNL     1       6.139  18.327  -6.473  1.00  0.00     0.178 C 
BRANCH  28  29
HETATM   29  O1  UNL     1       4.902  18.927  -6.681  1.00  0.00    -0.400 OA
ATOM     30  H1  UNL     1       4.146  18.502  -6.294  1.00  0.00     0.209 HD
ENDBRANCH  28  29
ENDBRANCH   7  28
TORSDOF 4
ENDMDL
MODEL 2
REMARK VINA RESULT: -7.991723541      5.878      8.421
REMARK  4 active torsions:
REMARK  status: ('A' for Active; 'I' for Inactive)
REMARK    1  A    between atoms: C7_7  and  C8_8 
REMARK    2  A    between atoms: C8_8  and  O1_9 
REMARK    3  A    between atoms: C11_13  and  C12_14 
REMARK    4  A    between atoms: C12_14  and  C13_15 
REMARK       I    between atoms: C13_15  and  N1_17 
ROOT
HETATM    1  C1  UNL     1      10.746  15.398  -3.189  1.00  0.00     0.024 C 
HETATM    2  C2  UNL     1      11.337  16.763  -2.964  1.00  0.00     0.021 C 
HETATM    3  C3  UNL     1      12.834  16.641  -3.034  1.00  0.00     0.017 C 
HETATM    4  C4  UNL     1      13.271  16.696  -4.462  1.00  0.00     0.006 C 
HETATM    5  C5  UNL     1      12.802  18.052  -5.021  1.00  0.00    -0.009 C 
HETATM    6  C6  UNL     1      13.656  18.500  -6.124  1.00  0.00     0.021 C 
HETATM    7  C7  UNL     1      13.085  18.620  -7.505  1.00  0.00     0.005 C 
HETATM    8  C9  UNL     1      14.289  18.420  -8.456  1.00  0.00     0.020 C 
HETATM    9  C10 UNL     1      13.711  17.934  -9.765  1.00  0.00     0.036 C 
HETATM   10  C11 UNL     1      12.609  17.012  -9.267  1.00  0.00    -0.068 C 
HETATM   11  C17 UNL     1      12.224  17.469  -7.917  1.00  0.00    -0.066 C 
HETATM   12  C18 UNL     1      10.807  17.514  -7.535  1.00  0.00     0.036 C 
HETATM   13  C19 UNL     1      10.688  17.147  -6.049  1.00  0.00     0.010 C 
HETATM   14  C20 UNL     1      11.337  18.097  -5.125  1.00  0.00    -0.005 C 
HETATM   15  C21 UNL     1      10.732  17.851  -3.743  1.00  0.00     0.006 C 
HETATM   16  C22 UNL     1      10.695  19.094  -2.902  1.00  0.00     0.013 C 
HETATM   17  C23 UNL     1      10.337  18.479  -1.540  1.00  0.00     0.079 C 
HETATM   18  C24 UNL     1      11.026  17.158  -1.545  1.00  0.00     0.135 C 
HETATM   19  O3  UNL     1      11.277  16.533  -0.535  1.00  0.00    -0.297 OA
ENDROOT
BRANCH  10  20
HETATM   20  C12 UNL     1      11.609  16.622 -10.263  1.00  0.00     0.137 C 
BRANCH  20  21
HETATM   21  C13 UNL     1      11.849  15.562 -11.211  1.00  0.00     0.224 C 
HETATM   22  O2  UNL     1      13.005  15.362 -11.652  1.00  0.00    -0.273 OA
HETATM   23  N1  UNL     1      10.849  14.690 -11.705  1.00  0.00    -0.342 N 
HETATM   24  C14 UNL     1      11.083  13.616 -12.651  1.00  0.00     0.137 C 
HETATM   25  C16 UNL     1       9.438  14.706 -11.373  1.00  0.00     0.199 C 
HETATM   26  C15 UNL     1      10.267  13.948 -13.901  1.00  0.00     0.095 C 
HETATM   27  S1  UNL     1       8.746  14.578 -13.078  1.00  0.00    -0.148 SA
ENDBRANCH  20  21
ENDBRANCH  10  20
BRANCH   7  28
HETATM   28  C8  UNL     1      12.648  19.995  -7.743  1.00  0.00     0.178 C 
BRANCH  28  29
HETATM   29  O1  UNL     1      13.309  20.998  -7.044  1.00  0.00    -0.400 OA
ATOM     30  H1  UNL     1      13.463  21.816  -7.502  1.00  0.00     0.209 HD
ENDBRANCH  28  29
ENDBRANCH   7  28
TORSDOF 4
ENDMDL
MODEL 3
REMARK VINA RESULT: -7.966471924      4.553      8.663
REMARK  4 active torsions:
REMARK  status: ('A' for Active; 'I' for Inactive)
REMARK    1  A    between atoms: C7_7  and  C8_8 
REMARK    2  A    between atoms: C8_8  and  O1_9 
REMARK    3  A    between atoms: C11_13  and  C12_14 
REMARK    4  A    between atoms: C12_14  and  C13_15 
REMARK       I    between atoms: C13_15  and  N1_17 
ROOT
HETATM    1  C1  UNL     1       6.831  21.697  -6.630  1.00  0.00     0.024 C 
HETATM    2  C2  UNL     1       6.442  20.359  -7.199  1.00  0.00     0.021 C 
HETATM    3  C3  UNL     1       6.623  20.415  -8.690  1.00  0.00     0.017 C 
HETATM    4  C4  UNL     1       8.051  20.134  -9.029  1.00  0.00     0.006 C 
HETATM    5  C5  UNL     1       8.370  18.728  -8.487  1.00  0.00    -0.009 C 
HETATM    6  C6  UNL     1       9.445  18.090  -9.253  1.00  0.00     0.021 C 
HETATM    7  C7  UNL     1      10.753  17.788  -8.586  1.00  0.00     0.005 C 
HETATM    8  C9  UNL     1      11.797  17.801  -9.728  1.00  0.00     0.020 C 
HETATM    9  C10 UNL     1      13.125  18.108  -9.075  1.00  0.00     0.036 C 
HETATM   10  C11 UNL     1      12.703  19.133  -8.034  1.00  0.00    -0.068 C 
HETATM   11  C17 UNL     1      11.278  18.896  -7.730  1.00  0.00    -0.066 C 
HETATM   12  C18 UNL     1      10.805  18.959  -6.341  1.00  0.00     0.036 C 
HETATM   13  C19 UNL     1       9.386  19.547  -6.333  1.00  0.00     0.010 C 
HETATM   14  C20 UNL     1       8.374  18.721  -7.018  1.00  0.00    -0.005 C 
HETATM   15  C21 UNL     1       7.009  19.191  -6.514  1.00  0.00     0.006 C 
HETATM   16  C22 UNL     1       5.989  18.088  -6.502  1.00  0.00     0.013 C 
HETATM   17  C23 UNL     1       4.715  18.911  -6.253  1.00  0.00     0.079 C 
HETATM   18  C24 UNL     1       4.962  20.190  -6.974  1.00  0.00     0.135 C 
HETATM   19  O3  UNL     1       4.076  20.949  -7.310  1.00  0.00    -0.297 OA
ENDROOT
BRANCH  10  20
HETATM   20  C12 UNL     1      13.681  19.407  -6.980  1.00  0.00     0.137 C 
BRANCH  20  21
HETATM   21  C13 UNL     1      14.457  18.357  -6.367  1.00  0.00     0.224 C 
HETATM   22  O2  UNL     1      13.888  17.335  -5.916  1.00  0.00    -0.273 OA
HETATM   23  N1  UNL     1      15.866  18.382  -6.225  1.00  0.00    -0.342 N 
HETATM   24  C14 UNL     1      16.654  17.327  -5.618  1.00  0.00     0.137 C 
HETATM   25  C16 UNL     1      16.765  19.439  -6.645  1.00  0.00     0.199 C 
HETATM   26  C15 UNL     1      17.332  17.938  -4.392  1.00  0.00     0.095 C 
HETATM   27  S1  UNL     1      17.776  19.575  -5.109  1.00  0.00    -0.148 SA
ENDBRANCH  20  21
ENDBRANCH  10  20
BRANCH   7  28
HETATM   28  C8  UNL     1      10.754  16.410  -8.098  1.00  0.00     0.178 C 
BRANCH  28  29
HETATM   29  O1  UNL     1      10.374  15.420  -8.998  1.00  0.00    -0.400 OA
ATOM     30  H1  UNL     1      10.687  14.540  -8.829  1.00  0.00     0.209 HD
ENDBRANCH  28  29
ENDBRANCH   7  28
TORSDOF 4
ENDMDL
MODEL 4
REMARK VINA RESULT: -7.949729185      3.915      7.905
REMARK  4 active torsions:
REMARK  status: ('A' for Active; 'I' for Inactive)
REMARK    1  A    between atoms: C7_7  and  C8_8 
REMARK    2  A    between atoms: C8_8  and  O1_9 
REMARK    3  A    between atoms: C11_13  and  C12_14 
REMARK    4  A    between atoms: C12_14  and  C13_15 
REMARK       I    between atoms: C13_15  and  N1_17 
ROOT
HETATM    1  C1  UNL     1       7.278  21.589  -6.484  1.00  0.00     0.024 C 
HETATM    2  C2  UNL     1       6.678  20.365  -7.122  1.00  0.00     0.021 C 
HETATM    3  C3  UNL     1       6.776  20.520  -8.614  1.00  0.00     0.017 C 
HETATM    4  C4  UNL     1       8.131  20.085  -9.072  1.00  0.00     0.006 C 
HETATM    5  C5  UNL     1       8.288  18.609  -8.660  1.00  0.00    -0.009 C 
HETATM    6  C6  UNL     1       9.220  17.903  -9.544  1.00  0.00     0.021 C 
HETATM    7  C7  UNL     1      10.513  17.380  -8.994  1.00  0.00     0.005 C 
HETATM    8  C9  UNL     1      11.479  17.352 -10.203  1.00  0.00     0.020 C 
HETATM    9  C10 UNL     1      12.873  17.429  -9.624  1.00  0.00     0.036 C 
HETATM   10  C11 UNL     1      12.656  18.410  -8.483  1.00  0.00    -0.068 C 
HETATM   11  C17 UNL     1      11.233  18.336  -8.098  1.00  0.00    -0.066 C 
HETATM   12  C18 UNL     1      10.857  18.344  -6.679  1.00  0.00     0.036 C 
HETATM   13  C19 UNL     1       9.533  19.108  -6.527  1.00  0.00     0.010 C 
HETATM   14  C20 UNL     1       8.379  18.481  -7.199  1.00  0.00    -0.005 C 
HETATM   15  C21 UNL     1       7.122  19.080  -6.567  1.00  0.00     0.006 C 
HETATM   16  C22 UNL     1       5.966  18.122  -6.565  1.00  0.00     0.013 C 
HETATM   17  C23 UNL     1       4.832  19.079  -6.168  1.00  0.00     0.079 C 
HETATM   18  C24 UNL     1       5.206  20.371  -6.807  1.00  0.00     0.135 C 
HETATM   19  O3  UNL     1       4.411  21.263  -7.023  1.00  0.00    -0.297 OA
ENDROOT
BRANCH  10  20
HETATM   20  C12 UNL     1      13.723  18.467  -7.483  1.00  0.00     0.137 C 
BRANCH  20  21
HETATM   21  C13 UNL     1      14.558  19.633  -7.322  1.00  0.00     0.224 C 
HETATM   22  O2  UNL     1      15.570  19.785  -8.044  1.00  0.00    -0.273 OA
HETATM   23  N1  UNL     1      14.321  20.662  -6.379  1.00  0.00    -0.342 N 
HETATM   24  C14 UNL     1      15.150  21.840  -6.217  1.00  0.00     0.137 C 
HETATM   25  C16 UNL     1      13.237  20.731  -5.419  1.00  0.00     0.199 C 
HETATM   26  C15 UNL     1      15.718  21.784  -4.799  1.00  0.00     0.095 C 
HETATM   27  S1  UNL     1      14.214  21.184  -3.923  1.00  0.00    -0.148 SA
ENDBRANCH  20  21
ENDBRANCH  10  20
BRANCH   7  28
HETATM   28  C8  UNL     1      10.357  15.977  -8.611  1.00  0.00     0.178 C 
BRANCH  28  29
HETATM   29  O1  UNL     1       9.619  15.167  -9.467  1.00  0.00    -0.400 OA
ATOM     30  H1  UNL     1       9.077  14.498  -9.067  1.00  0.00     0.209 HD
ENDBRANCH  28  29
ENDBRANCH   7  28
TORSDOF 4
ENDMDL
MODEL 5
REMARK VINA RESULT: -7.946940941      4.514      8.411
REMARK  4 active torsions:
REMARK  status: ('A' for Active; 'I' for Inactive)
REMARK    1  A    between atoms: C7_7  and  C8_8 
REMARK    2  A    between atoms: C8_8  and  O1_9 
REMARK    3  A    between atoms: C11_13  and  C12_14 
REMARK    4  A    between atoms: C12_14  and  C13_15 
REMARK       I    between atoms: C13_15  and  N1_17 
ROOT
HETATM    1  C1  UNL     1       7.034  21.617  -6.110  1.00  0.00     0.024 C 
HETATM    2  C2  UNL     1       6.411  20.452  -6.831  1.00  0.00     0.021 C 
HETATM    3  C3  UNL     1       6.520  20.705  -8.309  1.00  0.00     0.017 C 
HETATM    4  C4  UNL     1       7.867  20.272  -8.789  1.00  0.00     0.006 C 
HETATM    5  C5  UNL     1       7.991  18.769  -8.477  1.00  0.00    -0.009 C 
HETATM    6  C6  UNL     1       8.912  18.103  -9.403  1.00  0.00     0.021 C 
HETATM    7  C7  UNL     1      10.190  17.516  -8.885  1.00  0.00     0.005 C 
HETATM    8  C9  UNL     1      11.162  17.547 -10.089  1.00  0.00     0.020 C 
HETATM    9  C10 UNL     1      12.554  17.555  -9.501  1.00  0.00     0.036 C 
HETATM   10  C11 UNL     1      12.352  18.462  -8.297  1.00  0.00    -0.068 C 
HETATM   11  C17 UNL     1      10.926  18.393  -7.923  1.00  0.00    -0.066 C 
HETATM   12  C18 UNL     1      10.542  18.315  -6.508  1.00  0.00     0.036 C 
HETATM   13  C19 UNL     1       9.235  19.096  -6.311  1.00  0.00     0.010 C 
HETATM   14  C20 UNL     1       8.071  18.540  -7.027  1.00  0.00    -0.005 C 
HETATM   15  C21 UNL     1       6.824  19.123  -6.362  1.00  0.00     0.006 C 
HETATM   16  C22 UNL     1       5.648  18.193  -6.428  1.00  0.00     0.013 C 
HETATM   17  C23 UNL     1       4.532  19.146  -5.972  1.00  0.00     0.079 C 
HETATM   18  C24 UNL     1       4.937  20.470  -6.522  1.00  0.00     0.135 C 
HETATM   19  O3  UNL     1       4.163  21.391  -6.680  1.00  0.00    -0.297 OA
ENDROOT
BRANCH  10  20
HETATM   20  C12 UNL     1      13.415  18.428  -7.291  1.00  0.00     0.137 C 
BRANCH  20  21
HETATM   21  C13 UNL     1      14.138  19.615  -6.903  1.00  0.00     0.224 C 
HETATM   22  O2  UNL     1      13.637  20.747  -7.097  1.00  0.00    -0.273 OA
HETATM   23  N1  UNL     1      15.417  19.609  -6.297  1.00  0.00    -0.342 N 
HETATM   24  C14 UNL     1      16.146  20.797  -5.896  1.00  0.00     0.137 C 
HETATM   25  C16 UNL     1      16.223  18.449  -5.972  1.00  0.00     0.199 C 
HETATM   26  C15 UNL     1      17.432  20.820  -6.722  1.00  0.00     0.095 C 
HETATM   27  S1  UNL     1      17.835  19.025  -6.655  1.00  0.00    -0.148 SA
ENDBRANCH  20  21
ENDBRANCH  10  20
BRANCH   7  28
HETATM   28  C8  UNL     1      10.002  16.094  -8.597  1.00  0.00     0.178 C 
BRANCH  28  29
HETATM   29  O1  UNL     1       9.626  15.279  -9.660  1.00  0.00    -0.400 OA
ATOM     30  H1  UNL     1       9.311  14.409  -9.445  1.00  0.00     0.209 HD
ENDBRANCH  28  29
ENDBRANCH   7  28
TORSDOF 4
ENDMDL
