MODEL 1
REMARK VINA RESULT: -7.862237182      0.000      0.000
REMARK  16 active torsions:
REMARK  status: ('A' for Active; 'I' for Inactive)
REMARK    1  A    between atoms: N1_2  and  C2_4 
REMARK    2  A    between atoms: C4_6  and  S1_7 
REMARK    3  A    between atoms: S1_7  and  C5_8 
REMARK    4  A    between atoms: C6_11  and  N3_12 
REMARK    5  A    between atoms: N3_12  and  N4_14 
REMARK    6  A    between atoms: C7_17  and  N5_18 
REMARK    7  A    between atoms: N5_18  and  O1_20 
REMARK    8  A    between atoms: O1_20  and  C8_21 
REMARK       I    between atoms: C8_21  and  N6_23 
REMARK    9  A    between atoms: N6_23  and  N7_25 
REMARK   10  A    between atoms: N8_28  and  C9_29 
REMARK   11  A    between atoms: C9_29  and  C10_30 
REMARK   12  A    between atoms: C10_30  and  O3_31 
REMARK   13  A    between atoms: C10_30  and  C11_33 
REMARK   14  A    between atoms: C11_33  and  O4_34 
REMARK   15  A    between atoms: O4_34  and  S2_35 
REMARK   16  A    between atoms: N11_47  and  O9_48 
ROOT
HETATM    1  C5  UNL     1      20.694 -10.887  25.433  1.00  0.00     0.256 A 
HETATM    2  N2  UNL     1      20.291 -10.400  26.710  1.00  0.00    -0.342 N 
ATOM      3  H2  UNL     1      20.698 -10.682  27.602  1.00  0.00     0.164 HD
HETATM    4  C6  UNL     1      19.345  -9.562  26.567  1.00  0.00     0.164 A 
HETATM    5  C7  UNL     1      19.045  -9.437  25.151  1.00  0.00     0.172 A 
HETATM    6  N8  UNL     1      19.833 -10.213  24.490  1.00  0.00    -0.330 N 
ENDROOT
BRANCH   1   7
HETATM    7  S1  UNL     1      22.402 -10.338  25.118  1.00  0.00    -0.081 SA
BRANCH   7   8
HETATM    8  C4  UNL     1      23.603 -11.589  25.443  1.00  0.00     0.041 A 
HETATM    9  C3  UNL     1      24.086 -11.748  26.730  1.00  0.00     0.069 A 
HETATM   10  C2  UNL     1      25.034 -12.751  26.962  1.00  0.00     0.103 A 
HETATM   11  N9  UNL     1      25.478 -13.550  25.994  1.00  0.00    -0.327 N 
HETATM   12  C13 UNL     1      24.991 -13.377  24.748  1.00  0.00     0.142 A 
ATOM     13  H9  UNL     1      26.170 -14.274  26.190  1.00  0.00     0.169 HD
HETATM   14  C12 UNL     1      24.057 -12.414  24.435  1.00  0.00     0.129 A 
HETATM   15  N10 UNL     1      25.276 -14.062  23.615  1.00  0.00    -0.291 N 
HETATM   16  N11 UNL     1      23.807 -12.548  23.124  1.00  0.00    -0.168 N 
HETATM   17  C14 UNL     1      24.547 -13.551  22.619  1.00  0.00     0.352 A 
HETATM   18  O8  UNL     1      24.518 -13.909  21.397  1.00  0.00    -0.244 OA
ATOM     19  H10 UNL     1      25.935 -14.836  23.536  1.00  0.00     0.172 HD
BRANCH  10  20
HETATM   20  N1  UNL     1      25.470 -12.886  28.150  1.00  0.00    -0.381 N 
HETATM   21  C1  UNL     1      26.757 -12.419  28.568  1.00  0.00     0.147 C 
ATOM     22  H1  UNL     1      24.874 -13.349  28.836  1.00  0.00     0.160 HD
ENDBRANCH  10  20
BRANCH  16  23
HETATM   23  O9  UNL     1      22.902 -11.779  22.396  1.00  0.00    -0.278 OA
ATOM     24  H9  UNL     1      22.084 -11.433  22.731  1.00  0.00     0.245 HD
ENDBRANCH  16  23
ENDBRANCH   7   8
ENDBRANCH   1   7
BRANCH   6  25
HETATM   25  C9  UNL     1      19.781 -10.336  23.049  1.00  0.00     0.161 C 
BRANCH  25  26
HETATM   26  C10 UNL     1      19.349 -11.656  22.529  1.00  0.00     0.161 C 
BRANCH  26  27
HETATM   27  O3  UNL     1      20.162 -12.718  22.906  1.00  0.00    -0.392 OA
ATOM     28  H3  UNL     1      20.213 -13.420  22.268  1.00  0.00     0.210 HD
ENDBRANCH  26  27
BRANCH  26  29
HETATM   29  C11 UNL     1      19.390 -11.521  20.990  1.00  0.00     0.226 C 
BRANCH  29  30
HETATM   30  O4  UNL     1      20.654 -11.095  20.589  1.00  0.00    -0.254 OA
BRANCH  30  31
HETATM   31  S2  UNL     1      21.370 -12.219  19.586  1.00  0.00     0.251 S 
HETATM   32  O5  UNL     1      21.377 -13.555  20.314  1.00  0.00    -0.572 OA
HETATM   33  O6  UNL     1      20.588 -12.440  18.324  1.00  0.00    -0.572 OA
HETATM   34  O7  UNL     1      22.969 -11.776  19.257  1.00  0.00    -0.572 OA
ENDBRANCH  30  31
ENDBRANCH  29  30
ENDBRANCH  26  29
ENDBRANCH  25  26
ENDBRANCH   6  25
BRANCH   4  35
HETATM   35  N3  UNL     1      18.707  -8.883  27.632  1.00  0.00    -0.289 N 
ATOM     36  H3  UNL     1      19.082  -7.999  27.974  1.00  0.00     0.188 HD
BRANCH  35  37
HETATM   37  N4  UNL     1      17.565  -9.429  28.208  1.00  0.00    -0.344 N 
ATOM     38  H42 UNL     1      17.446 -10.442  28.213  1.00  0.00     0.176 HD
ATOM     39  H41 UNL     1      16.863  -8.813  28.618  1.00  0.00     0.176 HD
ENDBRANCH  35  37
ENDBRANCH   4  35
BRANCH   5  40
HETATM   40  N5  UNL     1      18.033  -8.582  24.578  1.00  0.00    -0.237 N 
ATOM     41  H5  UNL     1      18.019  -8.425  23.571  1.00  0.00     0.197 HD
BRANCH  40  42
HETATM   42  O1  UNL     1      17.085  -7.973  25.375  1.00  0.00    -0.178 OA
BRANCH  42  43
HETATM   43  C8  UNL     1      15.724  -8.085  25.107  1.00  0.00     0.401 C 
HETATM   44  O2  UNL     1      15.219  -9.245  25.027  1.00  0.00    -0.235 OA
HETATM   45  N6  UNL     1      14.897  -6.932  24.921  1.00  0.00    -0.250 N 
ATOM     46  H6  UNL     1      15.298  -5.996  24.984  1.00  0.00     0.191 HD
BRANCH  45  47
HETATM   47  N7  UNL     1      13.545  -7.100  24.654  1.00  0.00    -0.341 N 
ATOM     48  H72 UNL     1      13.233  -7.186  23.686  1.00  0.00     0.177 HD
ATOM     49  H71 UNL     1      12.884  -7.136  25.429  1.00  0.00     0.177 HD
ENDBRANCH  45  47
ENDBRANCH  42  43
ENDBRANCH  40  42
ENDBRANCH   5  40
TORSDOF 16
ENDMDL
MODEL 2
REMARK VINA RESULT: -7.673464452      1.554      2.125
REMARK  16 active torsions:
REMARK  status: ('A' for Active; 'I' for Inactive)
REMARK    1  A    between atoms: N1_2  and  C2_4 
REMARK    2  A    between atoms: C4_6  and  S1_7 
REMARK    3  A    between atoms: S1_7  and  C5_8 
REMARK    4  A    between atoms: C6_11  and  N3_12 
REMARK    5  A    between atoms: N3_12  and  N4_14 
REMARK    6  A    between atoms: C7_17  and  N5_18 
REMARK    7  A    between atoms: N5_18  and  O1_20 
REMARK    8  A    between atoms: O1_20  and  C8_21 
REMARK       I    between atoms: C8_21  and  N6_23 
REMARK    9  A    between atoms: N6_23  and  N7_25 
REMARK   10  A    between atoms: N8_28  and  C9_29 
REMARK   11  A    between atoms: C9_29  and  C10_30 
REMARK   12  A    between atoms: C10_30  and  O3_31 
REMARK   13  A    between atoms: C10_30  and  C11_33 
REMARK   14  A    between atoms: C11_33  and  O4_34 
REMARK   15  A    between atoms: O4_34  and  S2_35 
REMARK   16  A    between atoms: N11_47  and  O9_48 
ROOT
HETATM    1  C5  UNL     1      20.695 -10.962  25.107  1.00  0.00     0.256 A 
HETATM    2  N2  UNL     1      20.445 -10.493  26.429  1.00  0.00    -0.342 N 
ATOM      3  H2  UNL     1      20.930 -10.813  27.267  1.00  0.00     0.164 HD
HETATM    4  C6  UNL     1      19.525  -9.616  26.403  1.00  0.00     0.164 A 
HETATM    5  C7  UNL     1      19.087  -9.442  25.029  1.00  0.00     0.172 A 
HETATM    6  N8  UNL     1      19.769 -10.231  24.273  1.00  0.00    -0.330 N 
ENDROOT
BRANCH   1   7
HETATM    7  S1  UNL     1      22.382 -10.471  24.628  1.00  0.00    -0.081 SA
BRANCH   7   8
HETATM    8  C4  UNL     1      23.613 -11.620  25.155  1.00  0.00     0.041 A 
HETATM    9  C3  UNL     1      23.922 -11.714  26.501  1.00  0.00     0.069 A 
HETATM   10  C2  UNL     1      24.898 -12.637  26.893  1.00  0.00     0.103 A 
HETATM   11  N9  UNL     1      25.530 -13.420  26.021  1.00  0.00    -0.327 N 
HETATM   12  C13 UNL     1      25.211 -13.312  24.716  1.00  0.00     0.142 A 
ATOM     13  H9  UNL     1      26.238 -14.085  26.334  1.00  0.00     0.169 HD
HETATM   14  C12 UNL     1      24.263 -12.429  24.246  1.00  0.00     0.129 A 
HETATM   15  N10 UNL     1      25.700 -13.998  23.655  1.00  0.00    -0.291 N 
HETATM   16  N11 UNL     1      24.208 -12.610  22.919  1.00  0.00    -0.168 N 
HETATM   17  C14 UNL     1      25.082 -13.565  22.552  1.00  0.00     0.352 A 
HETATM   18  O8  UNL     1      25.250 -13.950  21.350  1.00  0.00    -0.244 OA
ATOM     19  H10 UNL     1      26.418 -14.721  23.692  1.00  0.00     0.172 HD
BRANCH  10  20
HETATM   20  N1  UNL     1      25.173 -12.713  28.133  1.00  0.00    -0.381 N 
HETATM   21  C1  UNL     1      26.488 -12.501  28.657  1.00  0.00     0.147 C 
ATOM     22  H1  UNL     1      24.420 -12.935  28.785  1.00  0.00     0.160 HD
ENDBRANCH  10  20
BRANCH  16  23
HETATM   23  O9  UNL     1      23.361 -11.928  22.049  1.00  0.00    -0.278 OA
ATOM     24  H9  UNL     1      23.633 -11.484  21.255  1.00  0.00     0.245 HD
ENDBRANCH  16  23
ENDBRANCH   7   8
ENDBRANCH   1   7
BRANCH   6  25
HETATM   25  C9  UNL     1      19.565 -10.315  22.843  1.00  0.00     0.161 C 
BRANCH  25  26
HETATM   26  C10 UNL     1      20.131 -11.514  22.179  1.00  0.00     0.161 C 
BRANCH  26  27
HETATM   27  O3  UNL     1      20.927 -11.239  21.074  1.00  0.00    -0.392 OA
ATOM     28  H3  UNL     1      20.445 -11.088  20.269  1.00  0.00     0.210 HD
ENDBRANCH  26  27
BRANCH  26  29
HETATM   29  C11 UNL     1      18.908 -12.338  21.716  1.00  0.00     0.226 C 
BRANCH  29  30
HETATM   30  O4  UNL     1      18.337 -12.988  22.808  1.00  0.00    -0.254 OA
BRANCH  30  31
HETATM   31  S2  UNL     1      17.237 -14.137  22.307  1.00  0.00     0.251 S 
HETATM   32  O5  UNL     1      17.572 -15.442  23.013  1.00  0.00    -0.572 OA
HETATM   33  O6  UNL     1      15.831 -13.798  22.709  1.00  0.00    -0.572 OA
HETATM   34  O7  UNL     1      17.364 -14.380  20.637  1.00  0.00    -0.572 OA
ENDBRANCH  30  31
ENDBRANCH  29  30
ENDBRANCH  26  29
ENDBRANCH  25  26
ENDBRANCH   6  25
BRANCH   4  35
HETATM   35  N3  UNL     1      19.028  -8.940  27.543  1.00  0.00    -0.289 N 
ATOM     36  H3  UNL     1      19.492  -8.098  27.883  1.00  0.00     0.188 HD
BRANCH  35  37
HETATM   37  N4  UNL     1      17.903  -9.432  28.196  1.00  0.00    -0.344 N 
ATOM     38  H42 UNL     1      17.338 -10.150  27.743  1.00  0.00     0.176 HD
ATOM     39  H41 UNL     1      17.657  -9.070  29.118  1.00  0.00     0.176 HD
ENDBRANCH  35  37
ENDBRANCH   4  35
BRANCH   5  40
HETATM   40  N5  UNL     1      18.057  -8.534  24.583  1.00  0.00    -0.237 N 
ATOM     41  H5  UNL     1      18.047  -8.222  23.612  1.00  0.00     0.197 HD
BRANCH  40  42
HETATM   42  O1  UNL     1      17.085  -8.082  25.452  1.00  0.00    -0.178 OA
BRANCH  42  43
HETATM   43  C8  UNL     1      15.731  -8.164  25.141  1.00  0.00     0.401 C 
HETATM   44  O2  UNL     1      15.204  -9.311  25.043  1.00  0.00    -0.235 OA
HETATM   45  N6  UNL     1      14.936  -6.992  24.934  1.00  0.00    -0.250 N 
ATOM     46  H6  UNL     1      15.354  -6.065  25.012  1.00  0.00     0.191 HD
BRANCH  45  47
HETATM   47  N7  UNL     1      13.589  -7.131  24.624  1.00  0.00    -0.341 N 
ATOM     48  H72 UNL     1      13.230  -6.722  23.761  1.00  0.00     0.177 HD
ATOM     49  H71 UNL     1      12.980  -7.639  25.265  1.00  0.00     0.177 HD
ENDBRANCH  45  47
ENDBRANCH  42  43
ENDBRANCH  40  42
ENDBRANCH   5  40
TORSDOF 16
ENDMDL
MODEL 3
REMARK VINA RESULT: -7.429791111      1.229      1.508
REMARK  16 active torsions:
REMARK  status: ('A' for Active; 'I' for Inactive)
REMARK    1  A    between atoms: N1_2  and  C2_4 
REMARK    2  A    between atoms: C4_6  and  S1_7 
REMARK    3  A    between atoms: S1_7  and  C5_8 
REMARK    4  A    between atoms: C6_11  and  N3_12 
REMARK    5  A    between atoms: N3_12  and  N4_14 
REMARK    6  A    between atoms: C7_17  and  N5_18 
REMARK    7  A    between atoms: N5_18  and  O1_20 
REMARK    8  A    between atoms: O1_20  and  C8_21 
REMARK       I    between atoms: C8_21  and  N6_23 
REMARK    9  A    between atoms: N6_23  and  N7_25 
REMARK   10  A    between atoms: N8_28  and  C9_29 
REMARK   11  A    between atoms: C9_29  and  C10_30 
REMARK   12  A    between atoms: C10_30  and  O3_31 
REMARK   13  A    between atoms: C10_30  and  C11_33 
REMARK   14  A    between atoms: C11_33  and  O4_34 
REMARK   15  A    between atoms: O4_34  and  S2_35 
REMARK   16  A    between atoms: N11_47  and  O9_48 
ROOT
HETATM    1  C5  UNL     1      20.903 -10.968  25.359  1.00  0.00     0.256 A 
HETATM    2  N2  UNL     1      20.478 -10.450  26.616  1.00  0.00    -0.342 N 
ATOM      3  H2  UNL     1      20.853 -10.728  27.523  1.00  0.00     0.164 HD
HETATM    4  C6  UNL     1      19.560  -9.590  26.433  1.00  0.00     0.164 A 
HETATM    5  C7  UNL     1      19.303  -9.479  25.008  1.00  0.00     0.172 A 
HETATM    6  N8  UNL     1      20.087 -10.287  24.381  1.00  0.00    -0.330 N 
ENDROOT
BRANCH   1   7
HETATM    7  S1  UNL     1      22.633 -10.469  25.083  1.00  0.00    -0.081 SA
BRANCH   7   8
HETATM    8  C4  UNL     1      23.789 -11.755  25.438  1.00  0.00     0.041 A 
HETATM    9  C3  UNL     1      24.124 -12.021  26.754  1.00  0.00     0.069 A 
HETATM   10  C2  UNL     1      25.039 -13.050  27.009  1.00  0.00     0.103 A 
HETATM   11  N9  UNL     1      25.589 -13.772  26.035  1.00  0.00    -0.327 N 
HETATM   12  C13 UNL     1      25.246 -13.495  24.761  1.00  0.00     0.142 A 
ATOM     13  H9  UNL     1      26.254 -14.516  26.248  1.00  0.00     0.169 HD
HETATM   14  C12 UNL     1      24.354 -12.500  24.424  1.00  0.00     0.129 A 
HETATM   15  N10 UNL     1      25.656 -14.089  23.615  1.00  0.00    -0.291 N 
HETATM   16  N11 UNL     1      24.252 -12.526  23.087  1.00  0.00    -0.168 N 
HETATM   17  C14 UNL     1      25.044 -13.492  22.588  1.00  0.00     0.352 A 
HETATM   18  O8  UNL     1      25.152 -13.750  21.346  1.00  0.00    -0.244 OA
ATOM     19  H10 UNL     1      26.319 -14.861  23.548  1.00  0.00     0.172 HD
BRANCH  10  20
HETATM   20  N1  UNL     1      25.339 -13.284  28.223  1.00  0.00    -0.381 N 
HETATM   21  C1  UNL     1      25.929 -14.514  28.660  1.00  0.00     0.147 C 
ATOM     22  H1  UNL     1      25.149 -12.562  28.919  1.00  0.00     0.160 HD
ENDBRANCH  10  20
BRANCH  16  23
HETATM   23  O9  UNL     1      23.436 -11.692  22.327  1.00  0.00    -0.278 OA
ATOM     24  H9  UNL     1      23.676 -10.827  22.015  1.00  0.00     0.245 HD
ENDBRANCH  16  23
ENDBRANCH   7   8
ENDBRANCH   1   7
BRANCH   6  25
HETATM   25  C9  UNL     1      20.072 -10.432  22.942  1.00  0.00     0.161 C 
BRANCH  25  26
HETATM   26  C10 UNL     1      19.202 -11.510  22.411  1.00  0.00     0.161 C 
BRANCH  26  27
HETATM   27  O3  UNL     1      18.527 -12.237  23.384  1.00  0.00    -0.392 OA
ATOM     28  H3  UNL     1      17.598 -12.350  23.217  1.00  0.00     0.210 HD
ENDBRANCH  26  27
BRANCH  26  29
HETATM   29  C11 UNL     1      20.152 -12.462  21.650  1.00  0.00     0.226 C 
BRANCH  29  30
HETATM   30  O4  UNL     1      20.947 -13.159  22.557  1.00  0.00    -0.254 OA
BRANCH  30  31
HETATM   31  S2  UNL     1      21.332 -14.671  21.970  1.00  0.00     0.251 S 
HETATM   32  O5  UNL     1      20.034 -15.445  21.788  1.00  0.00    -0.572 OA
HETATM   33  O6  UNL     1      21.972 -14.613  20.613  1.00  0.00    -0.572 OA
HETATM   34  O7  UNL     1      22.303 -15.501  23.079  1.00  0.00    -0.572 OA
ENDBRANCH  30  31
ENDBRANCH  29  30
ENDBRANCH  26  29
ENDBRANCH  25  26
ENDBRANCH   6  25
BRANCH   4  35
HETATM   35  N3  UNL     1      18.910  -8.877  27.469  1.00  0.00    -0.289 N 
ATOM     36  H3  UNL     1      19.286  -7.985  27.792  1.00  0.00     0.188 HD
BRANCH  35  37
HETATM   37  N4  UNL     1      17.757  -9.399  28.044  1.00  0.00    -0.344 N 
ATOM     38  H42 UNL     1      17.835  -9.972  28.884  1.00  0.00     0.176 HD
ATOM     39  H41 UNL     1      16.850  -9.203  27.621  1.00  0.00     0.176 HD
ENDBRANCH  35  37
ENDBRANCH   4  35
BRANCH   5  40
HETATM   40  N5  UNL     1      18.330  -8.607  24.394  1.00  0.00    -0.237 N 
ATOM     41  H5  UNL     1      18.296  -8.529  23.378  1.00  0.00     0.197 HD
BRANCH  40  42
HETATM   42  O1  UNL     1      17.446  -7.878  25.162  1.00  0.00    -0.178 OA
BRANCH  42  43
HETATM   43  C8  UNL     1      16.069  -8.041  25.045  1.00  0.00     0.401 C 
HETATM   44  O2  UNL     1      15.598  -9.217  25.063  1.00  0.00    -0.235 OA
HETATM   45  N6  UNL     1      15.189  -6.921  24.906  1.00  0.00    -0.250 N 
ATOM     46  H6  UNL     1      15.561  -5.972  24.892  1.00  0.00     0.191 HD
BRANCH  45  47
HETATM   47  N7  UNL     1      13.822  -7.141  24.792  1.00  0.00    -0.341 N 
ATOM     48  H72 UNL     1      13.353  -7.739  25.472  1.00  0.00     0.177 HD
ATOM     49  H71 UNL     1      13.308  -6.701  24.029  1.00  0.00     0.177 HD
ENDBRANCH  45  47
ENDBRANCH  42  43
ENDBRANCH  40  42
ENDBRANCH   5  40
TORSDOF 16
ENDMDL
MODEL 4
REMARK VINA RESULT: -7.272240830      3.279      5.621
REMARK  16 active torsions:
REMARK  status: ('A' for Active; 'I' for Inactive)
REMARK    1  A    between atoms: N1_2  and  C2_4 
REMARK    2  A    between atoms: C4_6  and  S1_7 
REMARK    3  A    between atoms: S1_7  and  C5_8 
REMARK    4  A    between atoms: C6_11  and  N3_12 
REMARK    5  A    between atoms: N3_12  and  N4_14 
REMARK    6  A    between atoms: C7_17  and  N5_18 
REMARK    7  A    between atoms: N5_18  and  O1_20 
REMARK    8  A    between atoms: O1_20  and  C8_21 
REMARK       I    between atoms: C8_21  and  N6_23 
REMARK    9  A    between atoms: N6_23  and  N7_25 
REMARK   10  A    between atoms: N8_28  and  C9_29 
REMARK   11  A    between atoms: C9_29  and  C10_30 
REMARK   12  A    between atoms: C10_30  and  O3_31 
REMARK   13  A    between atoms: C10_30  and  C11_33 
REMARK   14  A    between atoms: C11_33  and  O4_34 
REMARK   15  A    between atoms: O4_34  and  S2_35 
REMARK   16  A    between atoms: N11_47  and  O9_48 
ROOT
HETATM    1  C5  UNL     1      17.886 -10.920  26.276  1.00  0.00     0.256 A 
HETATM    2  N2  UNL     1      18.251 -10.137  27.407  1.00  0.00    -0.342 N 
ATOM      3  H2  UNL     1      19.185 -10.095  27.817  1.00  0.00     0.164 HD
HETATM    4  C6  UNL     1      17.236  -9.498  27.829  1.00  0.00     0.164 A 
HETATM    5  C7  UNL     1      16.098  -9.826  26.988  1.00  0.00     0.172 A 
HETATM    6  N8  UNL     1      16.478 -10.659  26.082  1.00  0.00    -0.330 N 
ENDROOT
BRANCH   1   7
HETATM    7  S1  UNL     1      18.775 -10.283  24.819  1.00  0.00    -0.081 SA
BRANCH   7   8
HETATM    8  C4  UNL     1      20.336 -11.065  24.564  1.00  0.00     0.041 A 
HETATM    9  C3  UNL     1      21.403 -10.732  25.380  1.00  0.00     0.069 A 
HETATM   10  C2  UNL     1      22.629 -11.371  25.161  1.00  0.00     0.103 A 
HETATM   11  N9  UNL     1      22.797 -12.280  24.203  1.00  0.00    -0.327 N 
HETATM   12  C13 UNL     1      21.743 -12.590  23.422  1.00  0.00     0.142 A 
ATOM     13  H9  UNL     1      23.702 -12.731  24.064  1.00  0.00     0.169 HD
HETATM   14  C12 UNL     1      20.503 -12.007  23.571  1.00  0.00     0.129 A 
HETATM   15  N10 UNL     1      21.663 -13.478  22.403  1.00  0.00    -0.291 N 
HETATM   16  N11 UNL     1      19.715 -12.563  22.639  1.00  0.00    -0.168 N 
HETATM   17  C14 UNL     1      20.416 -13.461  21.924  1.00  0.00     0.352 A 
HETATM   18  O8  UNL     1      19.927 -14.146  20.969  1.00  0.00    -0.244 OA
ATOM     19  H10 UNL     1      22.426 -14.062  22.060  1.00  0.00     0.172 HD
BRANCH  10  20
HETATM   20  N1  UNL     1      23.602 -11.055  25.918  1.00  0.00    -0.381 N 
HETATM   21  C1  UNL     1      24.198 -11.968  26.847  1.00  0.00     0.147 C 
ATOM     22  H1  UNL     1      23.974 -10.107  25.861  1.00  0.00     0.160 HD
ENDBRANCH  10  20
BRANCH  16  23
HETATM   23  O9  UNL     1      18.366 -12.272  22.451  1.00  0.00    -0.278 OA
ATOM     24  H9  UNL     1      17.644 -12.836  22.701  1.00  0.00     0.245 HD
ENDBRANCH  16  23
ENDBRANCH   7   8
ENDBRANCH   1   7
BRANCH   6  25
HETATM   25  C9  UNL     1      15.576 -11.201  25.089  1.00  0.00     0.161 C 
BRANCH  25  26
HETATM   26  C10 UNL     1      15.437 -12.677  25.080  1.00  0.00     0.161 C 
BRANCH  26  27
HETATM   27  O3  UNL     1      14.433 -13.156  24.247  1.00  0.00    -0.392 OA
ATOM     28  H3  UNL     1      14.157 -14.046  24.435  1.00  0.00     0.210 HD
ENDBRANCH  26  27
BRANCH  26  29
HETATM   29  C11 UNL     1      15.098 -13.063  26.538  1.00  0.00     0.226 C 
BRANCH  29  30
HETATM   30  O4  UNL     1      13.892 -12.474  26.913  1.00  0.00    -0.254 OA
BRANCH  30  31
HETATM   31  S2  UNL     1      13.805 -12.303  28.570  1.00  0.00     0.251 S 
HETATM   32  O5  UNL     1      15.210 -12.465  29.130  1.00  0.00    -0.572 OA
HETATM   33  O6  UNL     1      13.351 -10.933  28.981  1.00  0.00    -0.572 OA
HETATM   34  O7  UNL     1      12.819 -13.508  29.231  1.00  0.00    -0.572 OA
ENDBRANCH  30  31
ENDBRANCH  29  30
ENDBRANCH  26  29
ENDBRANCH  25  26
ENDBRANCH   6  25
BRANCH   4  35
HETATM   35  N3  UNL     1      17.244  -8.621  28.940  1.00  0.00    -0.289 N 
ATOM     36  H3  UNL     1      16.833  -7.691  28.863  1.00  0.00     0.188 HD
BRANCH  35  37
HETATM   37  N4  UNL     1      17.815  -9.037  30.138  1.00  0.00    -0.344 N 
ATOM     38  H42 UNL     1      18.340  -9.911  30.163  1.00  0.00     0.176 HD
ATOM     39  H41 UNL     1      17.703  -8.464  30.975  1.00  0.00     0.176 HD
ENDBRANCH  35  37
ENDBRANCH   4  35
BRANCH   5  40
HETATM   40  N5  UNL     1      14.761  -9.304  27.140  1.00  0.00    -0.237 N 
ATOM     41  H5  UNL     1      14.028  -9.901  27.522  1.00  0.00     0.197 HD
BRANCH  40  42
HETATM   42  O1  UNL     1      14.460  -8.007  26.776  1.00  0.00    -0.178 OA
BRANCH  42  43
HETATM   43  C8  UNL     1      14.100  -7.679  25.472  1.00  0.00     0.401 C 
HETATM   44  O2  UNL     1      14.975  -7.781  24.562  1.00  0.00    -0.235 OA
HETATM   45  N6  UNL     1      12.779  -7.234  25.148  1.00  0.00    -0.250 N 
ATOM     46  H6  UNL     1      12.070  -7.150  25.876  1.00  0.00     0.191 HD
BRANCH  45  47
HETATM   47  N7  UNL     1      12.473  -6.919  23.830  1.00  0.00    -0.341 N 
ATOM     48  H72 UNL     1      13.087  -7.242  23.083  1.00  0.00     0.177 HD
ATOM     49  H71 UNL     1      11.638  -6.368  23.630  1.00  0.00     0.177 HD
ENDBRANCH  45  47
ENDBRANCH  42  43
ENDBRANCH  40  42
ENDBRANCH   5  40
TORSDOF 16
ENDMDL
MODEL 5
REMARK VINA RESULT: -7.228121539      1.581      2.826
REMARK  16 active torsions:
REMARK  status: ('A' for Active; 'I' for Inactive)
REMARK    1  A    between atoms: N1_2  and  C2_4 
REMARK    2  A    between atoms: C4_6  and  S1_7 
REMARK    3  A    between atoms: S1_7  and  C5_8 
REMARK    4  A    between atoms: C6_11  and  N3_12 
REMARK    5  A    between atoms: N3_12  and  N4_14 
REMARK    6  A    between atoms: C7_17  and  N5_18 
REMARK    7  A    between atoms: N5_18  and  O1_20 
REMARK    8  A    between atoms: O1_20  and  C8_21 
REMARK       I    between atoms: C8_21  and  N6_23 
REMARK    9  A    between atoms: N6_23  and  N7_25 
REMARK   10  A    between atoms: N8_28  and  C9_29 
REMARK   11  A    between atoms: C9_29  and  C10_30 
REMARK   12  A    between atoms: C10_30  and  O3_31 
REMARK   13  A    between atoms: C10_30  and  C11_33 
REMARK   14  A    between atoms: C11_33  and  O4_34 
REMARK   15  A    between atoms: O4_34  and  S2_35 
REMARK   16  A    between atoms: N11_47  and  O9_48 
ROOT
HETATM    1  C5  UNL     1      20.771 -10.944  25.324  1.00  0.00     0.256 A 
HETATM    2  N2  UNL     1      20.434 -10.413  26.602  1.00  0.00    -0.342 N 
ATOM      3  H2  UNL     1      20.855 -10.698  27.486  1.00  0.00     0.164 HD
HETATM    4  C6  UNL     1      19.528  -9.531  26.471  1.00  0.00     0.164 A 
HETATM    5  C7  UNL     1      19.189  -9.417  25.063  1.00  0.00     0.172 A 
HETATM    6  N8  UNL     1      19.915 -10.244  24.394  1.00  0.00    -0.330 N 
ENDROOT
BRANCH   1   7
HETATM    7  S1  UNL     1      22.493 -10.488  24.944  1.00  0.00    -0.081 SA
BRANCH   7   8
HETATM    8  C4  UNL     1      23.474 -11.862  24.428  1.00  0.00     0.041 A 
HETATM    9  C3  UNL     1      23.577 -12.153  23.079  1.00  0.00     0.069 A 
HETATM   10  C2  UNL     1      24.366 -13.244  22.696  1.00  0.00     0.103 A 
HETATM   11  N9  UNL     1      25.014 -14.000  23.579  1.00  0.00    -0.327 N 
HETATM   12  C13 UNL     1      24.900 -13.696  24.888  1.00  0.00     0.142 A 
ATOM     13  H9  UNL     1      25.582 -14.790  23.274  1.00  0.00     0.169 HD
HETATM   14  C12 UNL     1      24.144 -12.640  25.349  1.00  0.00     0.129 A 
HETATM   15  N10 UNL     1      25.464 -14.300  25.961  1.00  0.00    -0.291 N 
HETATM   16  N11 UNL     1      24.276 -12.639  26.683  1.00  0.00    -0.168 N 
HETATM   17  C14 UNL     1      25.080 -13.650  27.062  1.00  0.00     0.352 A 
HETATM   18  O8  UNL     1      25.387 -13.896  28.273  1.00  0.00    -0.244 OA
ATOM     19  H10 UNL     1      26.077 -15.114  25.932  1.00  0.00     0.172 HD
BRANCH  10  20
HETATM   20  N1  UNL     1      24.452 -13.501  21.452  1.00  0.00    -0.381 N 
HETATM   21  C1  UNL     1      24.849 -14.779  20.944  1.00  0.00     0.147 C 
ATOM     22  H1  UNL     1      24.228 -12.761  20.787  1.00  0.00     0.160 HD
ENDBRANCH  10  20
BRANCH  16  23
HETATM   23  O9  UNL     1      23.688 -11.720  27.549  1.00  0.00    -0.278 OA
ATOM     24  H9  UNL     1      22.754 -11.612  27.680  1.00  0.00     0.245 HD
ENDBRANCH  16  23
ENDBRANCH   7   8
ENDBRANCH   1   7
BRANCH   6  25
HETATM   25  C9  UNL     1      19.810 -10.392  22.958  1.00  0.00     0.161 C 
BRANCH  25  26
HETATM   26  C10 UNL     1      19.354 -11.719  22.477  1.00  0.00     0.161 C 
BRANCH  26  27
HETATM   27  O3  UNL     1      20.145 -12.784  22.890  1.00  0.00    -0.392 OA
ATOM     28  H3  UNL     1      19.871 -13.184  23.707  1.00  0.00     0.210 HD
ENDBRANCH  26  27
BRANCH  26  29
HETATM   29  C11 UNL     1      19.406 -11.632  20.935  1.00  0.00     0.226 C 
BRANCH  29  30
HETATM   30  O4  UNL     1      20.641 -11.130  20.532  1.00  0.00    -0.254 OA
BRANCH  30  31
HETATM   31  S2  UNL     1      21.489 -12.270  19.659  1.00  0.00     0.251 S 
HETATM   32  O5  UNL     1      22.936 -11.808  19.569  1.00  0.00    -0.572 OA
HETATM   33  O6  UNL     1      21.525 -13.606  20.345  1.00  0.00    -0.572 OA
HETATM   34  O7  UNL     1      20.864 -12.393  18.092  1.00  0.00    -0.572 OA
ENDBRANCH  30  31
ENDBRANCH  29  30
ENDBRANCH  26  29
ENDBRANCH  25  26
ENDBRANCH   6  25
BRANCH   4  35
HETATM   35  N3  UNL     1      18.959  -8.800  27.542  1.00  0.00    -0.289 N 
ATOM     36  H3  UNL     1      19.369  -7.913  27.832  1.00  0.00     0.188 HD
BRANCH  35  37
HETATM   37  N4  UNL     1      17.837  -9.299  28.194  1.00  0.00    -0.344 N 
ATOM     38  H42 UNL     1      17.798 -10.291  28.431  1.00  0.00     0.176 HD
ATOM     39  H41 UNL     1      17.068  -8.670  28.428  1.00  0.00     0.176 HD
ENDBRANCH  35  37
ENDBRANCH   4  35
BRANCH   5  40
HETATM   40  N5  UNL     1      18.204  -8.522  24.505  1.00  0.00    -0.237 N 
ATOM     41  H5  UNL     1      18.195  -8.347  23.501  1.00  0.00     0.197 HD
BRANCH  40  42
HETATM   42  O1  UNL     1      17.273  -7.900  25.312  1.00  0.00    -0.178 OA
BRANCH  42  43
HETATM   43  C8  UNL     1      15.905  -8.039  25.091  1.00  0.00     0.401 C 
HETATM   44  O2  UNL     1      15.418  -9.207  25.046  1.00  0.00    -0.235 OA
HETATM   45  N6  UNL     1      15.053  -6.902  24.918  1.00  0.00    -0.250 N 
ATOM     46  H6  UNL     1      15.439  -5.959  24.954  1.00  0.00     0.191 HD
BRANCH  45  47
HETATM   47  N7  UNL     1      13.696  -7.098  24.699  1.00  0.00    -0.341 N 
ATOM     48  H72 UNL     1      13.230  -7.898  25.128  1.00  0.00     0.177 HD
ATOM     49  H71 UNL     1      13.185  -6.438  24.113  1.00  0.00     0.177 HD
ENDBRANCH  45  47
ENDBRANCH  42  43
ENDBRANCH  40  42
ENDBRANCH   5  40
TORSDOF 16
ENDMDL
