MODEL 1
REMARK VINA RESULT: -7.436591041      0.000      0.000
REMARK  18 active torsions:
REMARK  status: ('A' for Active; 'I' for Inactive)
REMARK    1  A    between atoms: N1_1  and  C1_4 
REMARK    2  A    between atoms: C2_7  and  O1_8 
REMARK    3  A    between atoms: C3_10  and  C4_11 
REMARK    4  A    between atoms: C4_11  and  N3_12 
REMARK    5  A    between atoms: C4_11  and  C14_38 
REMARK    6  A    between atoms: C6_15  and  C7_16 
REMARK    7  A    between atoms: C7_16  and  O2_17 
REMARK    8  A    between atoms: C9_22  and  C10_23 
REMARK    9  A    between atoms: N6_30  and  N7_31 
REMARK   10  A    between atoms: N7_31  and  O4_33 
REMARK   11  A    between atoms: N8_35  and  O5_36 
REMARK   12  A    between atoms: C14_38  and  C15_40 
REMARK   13  A    between atoms: C15_40  and  O7_41 
REMARK   14  A    between atoms: C15_40  and  C16_43 
REMARK   15  A    between atoms: C16_43  and  O8_44 
REMARK   16  A    between atoms: C16_43  and  C17_46 
REMARK   17  A    between atoms: C17_46  and  O9_47 
REMARK   18  A    between atoms: C17_46  and  O10_49 
ROOT
HETATM    1  C4  UNL     1      21.390 -12.889  22.679  1.00  0.00     0.203 C 
ENDROOT
BRANCH   1   2
HETATM    2  C3  UNL     1      20.570 -14.003  22.106  1.00  0.00     0.092 A 
HETATM    3  C2  UNL     1      19.317 -13.816  21.575  1.00  0.00     0.169 A 
HETATM    4  N2  UNL     1      18.598 -14.814  21.030  1.00  0.00    -0.170 N 
HETATM    5  C1  UNL     1      19.125 -16.037  21.003  1.00  0.00     0.680 A 
ATOM      6  H2  UNL     1      17.670 -14.638  20.646  1.00  0.00     0.186 HD
HETATM    7  N9  UNL     1      20.342 -16.278  21.505  1.00  0.00    -0.156 N 
HETATM    8  C18 UNL     1      21.083 -15.271  22.062  1.00  0.00     0.272 A 
ATOM      9  H9  UNL     1      20.722 -17.223  21.472  1.00  0.00     0.187 HD
HETATM   10  O11 UNL     1      22.195 -15.556  22.501  1.00  0.00    -0.267 OA
BRANCH   3  11
HETATM   11  O1  UNL     1      18.747 -12.552  21.590  1.00  0.00    -0.345 OA
ATOM     12  H1  UNL     1      18.684 -12.090  20.763  1.00  0.00     0.219 HD
ENDBRANCH   3  11
BRANCH   5  13
HETATM   13  N1  UNL     1      18.442 -17.015  20.478  1.00  0.00    -0.234 N 
ATOM     14  H12 UNL     1      17.422 -16.984  20.498  1.00  0.00     0.174 HD
ATOM     15  H11 UNL     1      18.937 -17.799  20.053  1.00  0.00     0.174 HD
ENDBRANCH   5  13
ENDBRANCH   1   2
BRANCH   1  16
HETATM   16  N3  UNL     1      20.641 -11.972  23.388  1.00  0.00    -0.357 N 
HETATM   17  C5  UNL     1      20.491 -11.255  24.354  1.00  0.00     0.150 C 
HETATM   18  C6  UNL     1      21.378 -11.058  25.500  1.00  0.00     0.075 C 
HETATM   19  N8  UNL     1      19.282 -10.446  24.474  1.00  0.00    -0.231 N 
HETATM   20  N4  UNL     1      21.088 -10.262  26.466  1.00  0.00    -0.386 N 
HETATM   21  C8  UNL     1      19.879  -9.457  26.575  1.00  0.00     0.154 C 
ATOM     22  H4  UNL     1      21.766 -10.187  27.225  1.00  0.00     0.159 HD
HETATM   23  C9  UNL     1      18.823 -10.124  25.809  1.00  0.00     0.187 C 
ATOM     24  H3  UNL     1      19.804 -11.827  22.823  1.00  0.00     0.162 HD
BRANCH  18  25
HETATM   25  C7  UNL     1      22.672 -11.755  25.590  1.00  0.00     0.224 C 
BRANCH  25  26
HETATM   26  O2  UNL     1      23.752 -10.884  25.836  1.00  0.00    -0.395 OA
ATOM     27  H2  UNL     1      24.275 -11.144  26.586  1.00  0.00     0.209 HD
ENDBRANCH  25  26
ENDBRANCH  18  25
BRANCH  23  28
HETATM   28  C10 UNL     1      17.506  -9.517  25.707  1.00  0.00     0.082 A 
HETATM   29  C11 UNL     1      17.470  -8.215  25.204  1.00  0.00     0.117 A 
HETATM   30  N5  UNL     1      16.307  -7.553  25.071  1.00  0.00    -0.368 N 
HETATM   31  C12 UNL     1      15.144  -8.093  25.406  1.00  0.00     0.164 A 
ATOM     32  H5  UNL     1      16.320  -6.603  24.701  1.00  0.00     0.164 HD
HETATM   33  C13 UNL     1      15.166  -9.380  25.904  1.00  0.00     0.283 A 
HETATM   34  O3  UNL     1      14.092  -9.925  26.230  1.00  0.00    -0.265 OA
HETATM   35  N6  UNL     1      16.339 -10.044  26.037  1.00  0.00    -0.200 N 
BRANCH  35  36
HETATM   36  N7  UNL     1      16.284 -11.318  26.535  1.00  0.00    -0.200 N 
ATOM     37  H7  UNL     1      16.369 -12.081  25.863  1.00  0.00     0.216 HD
BRANCH  36  38
HETATM   38  O4  UNL     1      16.142 -11.632  27.728  1.00  0.00    -0.274 OA
ATOM     39  H4  UNL     1      15.770 -12.444  28.053  1.00  0.00     0.246 HD
ENDBRANCH  36  38
ENDBRANCH  35  36
ENDBRANCH  23  28
BRANCH  19  40
HETATM   40  O5  UNL     1      18.639 -10.018  23.340  1.00  0.00    -0.285 OA
ATOM     41  H5  UNL     1      18.174  -9.191  23.349  1.00  0.00     0.245 HD
ENDBRANCH  19  40
ENDBRANCH   1  16
BRANCH   1  42
HETATM   42  C14 UNL     1      22.201 -12.194  21.607  1.00  0.00     0.212 C 
HETATM   43  O6  UNL     1      21.630 -11.496  20.819  1.00  0.00    -0.287 OA
BRANCH  42  44
HETATM   44  C15 UNL     1      23.659 -12.351  21.522  1.00  0.00     0.148 C 
BRANCH  44  45
HETATM   45  O7  UNL     1      24.167 -11.549  20.496  1.00  0.00    -0.355 OA
ATOM     46  H7  UNL     1      24.645 -12.083  19.873  1.00  0.00     0.218 HD
ENDBRANCH  44  45
BRANCH  44  47
HETATM   47  C16 UNL     1      24.460 -12.413  22.743  1.00  0.00     0.135 C 
BRANCH  47  48
HETATM   48  O8  UNL     1      25.079 -11.230  23.113  1.00  0.00    -0.358 OA
ATOM     49  H8  UNL     1      25.941 -11.322  23.501  1.00  0.00     0.217 HD
ENDBRANCH  47  48
BRANCH  47  50
HETATM   50  C17 UNL     1      25.370 -13.568  22.967  1.00  0.00     0.315 C 
BRANCH  50  51
HETATM   51  O9  UNL     1      25.644 -14.088  21.664  1.00  0.00    -0.365 OA
ATOM     52  H9  UNL     1      26.591 -14.137  21.610  1.00  0.00     0.213 HD
ENDBRANCH  50  51
BRANCH  50  53
HETATM   53  O10 UNL     1      24.735 -14.654  23.597  1.00  0.00    -0.365 OA
ATOM     54  H10 UNL     1      24.897 -15.482  23.161  1.00  0.00     0.213 HD
ENDBRANCH  50  53
ENDBRANCH  47  50
ENDBRANCH  44  47
ENDBRANCH  42  44
ENDBRANCH   1  42
TORSDOF 18
ENDMDL
MODEL 2
REMARK VINA RESULT: -7.433732901      3.001      7.348
REMARK  18 active torsions:
REMARK  status: ('A' for Active; 'I' for Inactive)
REMARK    1  A    between atoms: N1_1  and  C1_4 
REMARK    2  A    between atoms: C2_7  and  O1_8 
REMARK    3  A    between atoms: C3_10  and  C4_11 
REMARK    4  A    between atoms: C4_11  and  N3_12 
REMARK    5  A    between atoms: C4_11  and  C14_38 
REMARK    6  A    between atoms: C6_15  and  C7_16 
REMARK    7  A    between atoms: C7_16  and  O2_17 
REMARK    8  A    between atoms: C9_22  and  C10_23 
REMARK    9  A    between atoms: N6_30  and  N7_31 
REMARK   10  A    between atoms: N7_31  and  O4_33 
REMARK   11  A    between atoms: N8_35  and  O5_36 
REMARK   12  A    between atoms: C14_38  and  C15_40 
REMARK   13  A    between atoms: C15_40  and  O7_41 
REMARK   14  A    between atoms: C15_40  and  C16_43 
REMARK   15  A    between atoms: C16_43  and  O8_44 
REMARK   16  A    between atoms: C16_43  and  C17_46 
REMARK   17  A    between atoms: C17_46  and  O9_47 
REMARK   18  A    between atoms: C17_46  and  O10_49 
ROOT
HETATM    1  C4  UNL     1      20.454 -11.168  22.740  1.00  0.00     0.203 C 
ENDROOT
BRANCH   1   2
HETATM    2  C3  UNL     1      19.855 -11.693  21.471  1.00  0.00     0.092 A 
HETATM    3  C2  UNL     1      19.509 -13.010  21.293  1.00  0.00     0.169 A 
HETATM    4  N2  UNL     1      18.939 -13.469  20.164  1.00  0.00    -0.170 N 
HETATM    5  C1  UNL     1      18.700 -12.609  19.176  1.00  0.00     0.680 A 
ATOM      6  H2  UNL     1      18.696 -14.455  20.067  1.00  0.00     0.186 HD
HETATM    7  N9  UNL     1      19.016 -11.314  19.294  1.00  0.00    -0.156 N 
HETATM    8  C18 UNL     1      19.596 -10.835  20.437  1.00  0.00     0.272 A 
ATOM      9  H9  UNL     1      18.823 -10.676  18.522  1.00  0.00     0.187 HD
HETATM   10  O11 UNL     1      19.857  -9.634  20.485  1.00  0.00    -0.267 OA
BRANCH   3  11
HETATM   11  O1  UNL     1      19.747 -13.925  22.307  1.00  0.00    -0.345 OA
ATOM     12  H1  UNL     1      20.490 -13.764  22.876  1.00  0.00     0.219 HD
ENDBRANCH   3  11
BRANCH   5  13
HETATM   13  N1  UNL     1      18.149 -13.038  18.075  1.00  0.00    -0.234 N 
ATOM     14  H12 UNL     1      17.133 -13.062  17.998  1.00  0.00     0.174 HD
ATOM     15  H11 UNL     1      18.744 -13.343  17.304  1.00  0.00     0.174 HD
ENDBRANCH   5  13
ENDBRANCH   1   2
BRANCH   1  16
HETATM   16  N3  UNL     1      21.469 -11.964  23.230  1.00  0.00    -0.357 N 
HETATM   17  C5  UNL     1      22.370 -12.156  24.019  1.00  0.00     0.150 C 
HETATM   18  C6  UNL     1      22.847 -11.293  25.099  1.00  0.00     0.075 C 
HETATM   19  N8  UNL     1      23.142 -13.392  23.947  1.00  0.00    -0.231 N 
HETATM   20  N4  UNL     1      23.825 -11.624  25.864  1.00  0.00    -0.386 N 
HETATM   21  C8  UNL     1      24.588 -12.862  25.785  1.00  0.00     0.154 C 
ATOM     22  H4  UNL     1      24.091 -10.960  26.591  1.00  0.00     0.159 HD
HETATM   23  C9  UNL     1      24.515 -13.350  24.405  1.00  0.00     0.187 C 
ATOM     24  H3  UNL     1      21.455 -12.797  22.642  1.00  0.00     0.162 HD
BRANCH  18  25
HETATM   25  C7  UNL     1      22.205  -9.997  25.378  1.00  0.00     0.224 C 
BRANCH  25  26
HETATM   26  O2  UNL     1      21.779  -9.870  26.715  1.00  0.00    -0.395 OA
ATOM     27  H2  UNL     1      20.893  -9.533  26.791  1.00  0.00     0.209 HD
ENDBRANCH  25  26
ENDBRANCH  18  25
BRANCH  23  28
HETATM   28  C10 UNL     1      25.158 -14.603  24.043  1.00  0.00     0.082 A 
HETATM   29  C11 UNL     1      26.075 -14.539  22.993  1.00  0.00     0.117 A 
HETATM   30  N5  UNL     1      26.725 -15.638  22.569  1.00  0.00    -0.368 N 
HETATM   31  C12 UNL     1      26.533 -16.828  23.119  1.00  0.00     0.164 A 
ATOM     32  H5  UNL     1      27.388 -15.552  21.799  1.00  0.00     0.164 HD
HETATM   33  C13 UNL     1      25.629 -16.905  24.159  1.00  0.00     0.283 A 
HETATM   34  O3  UNL     1      25.420 -18.008  24.704  1.00  0.00    -0.265 OA
HETATM   35  N6  UNL     1      24.976 -15.796  24.583  1.00  0.00    -0.200 N 
BRANCH  35  36
HETATM   36  N7  UNL     1      24.095 -15.946  25.620  1.00  0.00    -0.200 N 
ATOM     37  H7  UNL     1      24.396 -15.608  26.534  1.00  0.00     0.216 HD
BRANCH  36  38
HETATM   38  O4  UNL     1      22.964 -16.456  25.553  1.00  0.00    -0.274 OA
ATOM     39  H4  UNL     1      22.533 -16.954  26.237  1.00  0.00     0.246 HD
ENDBRANCH  36  38
ENDBRANCH  35  36
ENDBRANCH  23  28
BRANCH  19  40
HETATM   40  O5  UNL     1      22.550 -14.533  23.467  1.00  0.00    -0.285 OA
ATOM     41  H5  UNL     1      22.572 -14.716  22.536  1.00  0.00     0.245 HD
ENDBRANCH  19  40
ENDBRANCH   1  16
BRANCH   1  42
HETATM   42  C14 UNL     1      19.395 -10.949  23.798  1.00  0.00     0.212 C 
HETATM   43  O6  UNL     1      18.769 -11.893  24.186  1.00  0.00    -0.287 OA
BRANCH  42  44
HETATM   44  C15 UNL     1      19.131  -9.617  24.358  1.00  0.00     0.148 C 
BRANCH  44  45
HETATM   45  O7  UNL     1      19.197  -8.652  23.348  1.00  0.00    -0.355 OA
ATOM     46  H7  UNL     1      18.548  -7.975  23.503  1.00  0.00     0.218 HD
ENDBRANCH  44  45
BRANCH  44  47
HETATM   47  C16 UNL     1      18.069  -9.437  25.347  1.00  0.00     0.135 C 
BRANCH  47  48
HETATM   48  O8  UNL     1      16.858  -8.983  24.849  1.00  0.00    -0.358 OA
ATOM     49  H8  UNL     1      16.589  -8.123  25.148  1.00  0.00     0.217 HD
ENDBRANCH  47  48
BRANCH  47  50
HETATM   50  C17 UNL     1      18.378  -8.778  26.644  1.00  0.00     0.315 C 
BRANCH  50  51
HETATM   51  O9  UNL     1      19.438  -7.863  26.356  1.00  0.00    -0.365 OA
ATOM     52  H9  UNL     1      19.179  -7.046  26.766  1.00  0.00     0.213 HD
ENDBRANCH  50  51
BRANCH  50  53
HETATM   53  O10 UNL     1      18.976  -9.648  27.574  1.00  0.00    -0.365 OA
ATOM     54  H10 UNL     1      19.702  -9.251  28.040  1.00  0.00     0.213 HD
ENDBRANCH  50  53
ENDBRANCH  47  50
ENDBRANCH  44  47
ENDBRANCH  42  44
ENDBRANCH   1  42
TORSDOF 18
ENDMDL
MODEL 3
REMARK VINA RESULT: -7.308066675      1.099      1.565
REMARK  18 active torsions:
REMARK  status: ('A' for Active; 'I' for Inactive)
REMARK    1  A    between atoms: N1_1  and  C1_4 
REMARK    2  A    between atoms: C2_7  and  O1_8 
REMARK    3  A    between atoms: C3_10  and  C4_11 
REMARK    4  A    between atoms: C4_11  and  N3_12 
REMARK    5  A    between atoms: C4_11  and  C14_38 
REMARK    6  A    between atoms: C6_15  and  C7_16 
REMARK    7  A    between atoms: C7_16  and  O2_17 
REMARK    8  A    between atoms: C9_22  and  C10_23 
REMARK    9  A    between atoms: N6_30  and  N7_31 
REMARK   10  A    between atoms: N7_31  and  O4_33 
REMARK   11  A    between atoms: N8_35  and  O5_36 
REMARK   12  A    between atoms: C14_38  and  C15_40 
REMARK   13  A    between atoms: C15_40  and  O7_41 
REMARK   14  A    between atoms: C15_40  and  C16_43 
REMARK   15  A    between atoms: C16_43  and  O8_44 
REMARK   16  A    between atoms: C16_43  and  C17_46 
REMARK   17  A    between atoms: C17_46  and  O9_47 
REMARK   18  A    between atoms: C17_46  and  O10_49 
ROOT
HETATM    1  C4  UNL     1      21.675 -13.034  22.878  1.00  0.00     0.203 C 
ENDROOT
BRANCH   1   2
HETATM    2  C3  UNL     1      21.021 -14.244  22.286  1.00  0.00     0.092 A 
HETATM    3  C2  UNL     1      19.763 -14.223  21.734  1.00  0.00     0.169 A 
HETATM    4  N2  UNL     1      19.194 -15.304  21.172  1.00  0.00    -0.170 N 
HETATM    5  C1  UNL     1      19.880 -16.446  21.149  1.00  0.00     0.680 A 
ATOM      6  H2  UNL     1      18.257 -15.252  20.773  1.00  0.00     0.186 HD
HETATM    7  N9  UNL     1      21.110 -16.525  21.671  1.00  0.00    -0.156 N 
HETATM    8  C18 UNL     1      21.700 -15.431  22.246  1.00  0.00     0.272 A 
ATOM      9  H9  UNL     1      21.614 -17.411  21.640  1.00  0.00     0.187 HD
HETATM   10  O11 UNL     1      22.833 -15.568  22.703  1.00  0.00    -0.267 OA
BRANCH   3  11
HETATM   11  O1  UNL     1      19.029 -13.047  21.745  1.00  0.00    -0.345 OA
ATOM     12  H1  UNL     1      18.558 -12.832  22.541  1.00  0.00     0.219 HD
ENDBRANCH   3  11
BRANCH   5  13
HETATM   13  N1  UNL     1      19.343 -17.503  20.608  1.00  0.00    -0.234 N 
ATOM     14  H12 UNL     1      18.709 -18.082  21.158  1.00  0.00     0.174 HD
ATOM     15  H11 UNL     1      19.563 -17.736  19.640  1.00  0.00     0.174 HD
ENDBRANCH   5  13
ENDBRANCH   1   2
BRANCH   1  16
HETATM   16  N3  UNL     1      20.800 -12.236  23.586  1.00  0.00    -0.357 N 
HETATM   17  C5  UNL     1      20.577 -11.465  24.495  1.00  0.00     0.150 C 
HETATM   18  C6  UNL     1      21.496 -10.939  25.503  1.00  0.00     0.075 C 
HETATM   19  N8  UNL     1      19.227 -10.944  24.686  1.00  0.00    -0.231 N 
HETATM   20  N4  UNL     1      21.119 -10.123  26.421  1.00  0.00    -0.386 N 
HETATM   21  C8  UNL     1      19.769  -9.607  26.602  1.00  0.00     0.154 C 
ATOM     22  H4  UNL     1      21.829  -9.809  27.083  1.00  0.00     0.159 HD
HETATM   23  C9  UNL     1      18.834 -10.582  26.032  1.00  0.00     0.187 C 
ATOM     24  H3  UNL     1      19.903 -12.351  23.115  1.00  0.00     0.162 HD
BRANCH  18  25
HETATM   25  C7  UNL     1      22.922 -11.309  25.499  1.00  0.00     0.224 C 
BRANCH  25  26
HETATM   26  O2  UNL     1      23.781 -10.194  25.576  1.00  0.00    -0.395 OA
ATOM     27  H2  UNL     1      24.006  -9.960  26.469  1.00  0.00     0.209 HD
ENDBRANCH  25  26
ENDBRANCH  18  25
BRANCH  23  28
HETATM   28  C10 UNL     1      17.407 -10.306  26.035  1.00  0.00     0.082 A 
HETATM   29  C11 UNL     1      16.596 -11.284  26.613  1.00  0.00     0.117 A 
HETATM   30  N5  UNL     1      15.260 -11.137  26.666  1.00  0.00    -0.368 N 
HETATM   31  C12 UNL     1      14.647 -10.069  26.178  1.00  0.00     0.164 A 
ATOM     32  H5  UNL     1      14.699 -11.874  27.096  1.00  0.00     0.164 HD
HETATM   33  C13 UNL     1      15.437  -9.094  25.605  1.00  0.00     0.283 A 
HETATM   34  O3  UNL     1      14.898  -8.071  25.134  1.00  0.00    -0.265 OA
HETATM   35  N6  UNL     1      16.783  -9.245  25.553  1.00  0.00    -0.200 N 
BRANCH  35  36
HETATM   36  N7  UNL     1      17.504  -8.237  24.972  1.00  0.00    -0.200 N 
ATOM     37  H7  UNL     1      17.810  -7.478  25.580  1.00  0.00     0.216 HD
BRANCH  36  38
HETATM   38  O4  UNL     1      17.820  -8.160  23.773  1.00  0.00    -0.274 OA
ATOM     39  H4  UNL     1      18.702  -8.214  23.422  1.00  0.00     0.246 HD
ENDBRANCH  36  38
ENDBRANCH  35  36
ENDBRANCH  23  28
BRANCH  19  40
HETATM   40  O5  UNL     1      18.394 -10.808  23.604  1.00  0.00    -0.285 OA
ATOM     41  H5  UNL     1      18.428 -11.449  22.904  1.00  0.00     0.245 HD
ENDBRANCH  19  40
ENDBRANCH   1  16
BRANCH   1  42
HETATM   42  C14 UNL     1      22.394 -12.224  21.822  1.00  0.00     0.212 C 
HETATM   43  O6  UNL     1      21.753 -11.484  21.133  1.00  0.00    -0.287 OA
BRANCH  42  44
HETATM   44  C15 UNL     1      23.847 -12.322  21.634  1.00  0.00     0.148 C 
BRANCH  44  45
HETATM   45  O7  UNL     1      24.251 -11.484  20.590  1.00  0.00    -0.355 OA
ATOM     46  H7  UNL     1      24.806 -10.791  20.927  1.00  0.00     0.218 HD
ENDBRANCH  44  45
BRANCH  44  47
HETATM   47  C16 UNL     1      24.733 -12.371  22.796  1.00  0.00     0.135 C 
BRANCH  47  48
HETATM   48  O8  UNL     1      25.404 -11.193  23.086  1.00  0.00    -0.358 OA
ATOM     49  H8  UNL     1      24.852 -10.439  23.254  1.00  0.00     0.217 HD
ENDBRANCH  47  48
BRANCH  47  50
HETATM   50  C17 UNL     1      25.630 -13.541  22.987  1.00  0.00     0.315 C 
BRANCH  50  51
HETATM   51  O9  UNL     1      25.596 -14.247  21.744  1.00  0.00    -0.365 OA
ATOM     52  H9  UNL     1      25.713 -15.161  21.973  1.00  0.00     0.213 HD
ENDBRANCH  50  51
BRANCH  50  53
HETATM   53  O10 UNL     1      25.112 -14.491  23.886  1.00  0.00    -0.365 OA
ATOM     54  H10 UNL     1      24.714 -15.235  23.451  1.00  0.00     0.213 HD
ENDBRANCH  50  53
ENDBRANCH  47  50
ENDBRANCH  44  47
ENDBRANCH  42  44
ENDBRANCH   1  42
TORSDOF 18
ENDMDL
MODEL 4
REMARK VINA RESULT: -7.238496116      2.914      7.736
REMARK  18 active torsions:
REMARK  status: ('A' for Active; 'I' for Inactive)
REMARK    1  A    between atoms: N1_1  and  C1_4 
REMARK    2  A    between atoms: C2_7  and  O1_8 
REMARK    3  A    between atoms: C3_10  and  C4_11 
REMARK    4  A    between atoms: C4_11  and  N3_12 
REMARK    5  A    between atoms: C4_11  and  C14_38 
REMARK    6  A    between atoms: C6_15  and  C7_16 
REMARK    7  A    between atoms: C7_16  and  O2_17 
REMARK    8  A    between atoms: C9_22  and  C10_23 
REMARK    9  A    between atoms: N6_30  and  N7_31 
REMARK   10  A    between atoms: N7_31  and  O4_33 
REMARK   11  A    between atoms: N8_35  and  O5_36 
REMARK   12  A    between atoms: C14_38  and  C15_40 
REMARK   13  A    between atoms: C15_40  and  O7_41 
REMARK   14  A    between atoms: C15_40  and  C16_43 
REMARK   15  A    between atoms: C16_43  and  O8_44 
REMARK   16  A    between atoms: C16_43  and  C17_46 
REMARK   17  A    between atoms: C17_46  and  O9_47 
REMARK   18  A    between atoms: C17_46  and  O10_49 
ROOT
HETATM    1  C4  UNL     1      20.848 -11.412  22.708  1.00  0.00     0.203 C 
ENDROOT
BRANCH   1   2
HETATM    2  C3  UNL     1      20.111 -11.887  21.494  1.00  0.00     0.092 A 
HETATM    3  C2  UNL     1      19.737 -13.195  21.307  1.00  0.00     0.169 A 
HETATM    4  N2  UNL     1      19.045 -13.610  20.232  1.00  0.00    -0.170 N 
HETATM    5  C1  UNL     1      18.707 -12.713  19.306  1.00  0.00     0.680 A 
ATOM      6  H2  UNL     1      18.784 -14.591  20.126  1.00  0.00     0.186 HD
HETATM    7  N9  UNL     1      19.045 -11.424  19.436  1.00  0.00    -0.156 N 
HETATM    8  C18 UNL     1      19.749 -10.990  20.526  1.00  0.00     0.272 A 
ATOM      9  H9  UNL     1      18.775 -10.758  18.713  1.00  0.00     0.187 HD
HETATM   10  O11 UNL     1      20.024  -9.793  20.588  1.00  0.00    -0.267 OA
BRANCH   3  11
HETATM   11  O1  UNL     1      20.075 -14.147  22.256  1.00  0.00    -0.345 OA
ATOM     12  H1  UNL     1      20.749 -13.919  22.885  1.00  0.00     0.219 HD
ENDBRANCH   3  11
BRANCH   5  13
HETATM   13  N1  UNL     1      18.037 -13.099  18.257  1.00  0.00    -0.234 N 
ATOM     14  H12 UNL     1      17.891 -14.095  18.092  1.00  0.00     0.174 HD
ATOM     15  H11 UNL     1      17.665 -12.398  17.616  1.00  0.00     0.174 HD
ENDBRANCH   5  13
ENDBRANCH   1   2
BRANCH   1  16
HETATM   16  N3  UNL     1      21.792 -12.313  23.158  1.00  0.00    -0.357 N 
HETATM   17  C5  UNL     1      22.726 -12.588  23.879  1.00  0.00     0.150 C 
HETATM   18  C6  UNL     1      23.405 -11.749  24.866  1.00  0.00     0.075 C 
HETATM   19  N8  UNL     1      23.323 -13.919  23.814  1.00  0.00    -0.231 N 
HETATM   20  N4  UNL     1      24.397 -12.173  25.565  1.00  0.00    -0.386 N 
HETATM   21  C8  UNL     1      24.983 -13.504  25.494  1.00  0.00     0.154 C 
ATOM     22  H4  UNL     1      24.810 -11.518  26.230  1.00  0.00     0.159 HD
HETATM   23  C9  UNL     1      24.725 -14.040  24.154  1.00  0.00     0.187 C 
ATOM     24  H3  UNL     1      21.618 -13.162  22.620  1.00  0.00     0.162 HD
BRANCH  18  25
HETATM   25  C7  UNL     1      22.964 -10.368  25.123  1.00  0.00     0.224 C 
BRANCH  25  26
HETATM   26  O2  UNL     1      23.822  -9.402  24.561  1.00  0.00    -0.395 OA
ATOM     27  H2  UNL     1      23.356  -8.725  24.082  1.00  0.00     0.209 HD
ENDBRANCH  25  26
ENDBRANCH  18  25
BRANCH  23  28
HETATM   28  C10 UNL     1      25.166 -15.383  23.812  1.00  0.00     0.082 A 
HETATM   29  C11 UNL     1      25.316 -16.268  24.880  1.00  0.00     0.117 A 
HETATM   30  N5  UNL     1      25.724 -17.534  24.682  1.00  0.00    -0.368 N 
HETATM   31  C12 UNL     1      26.002 -18.006  23.476  1.00  0.00     0.164 A 
ATOM     32  H5  UNL     1      25.823 -18.152  25.487  1.00  0.00     0.164 HD
HETATM   33  C13 UNL     1      25.857 -17.141  22.410  1.00  0.00     0.283 A 
HETATM   34  O3  UNL     1      26.109 -17.546  21.257  1.00  0.00    -0.265 OA
HETATM   35  N6  UNL     1      25.446 -15.865  22.613  1.00  0.00    -0.200 N 
BRANCH  35  36
HETATM   36  N7  UNL     1      25.322 -15.064  21.511  1.00  0.00    -0.200 N 
ATOM     37  H7  UNL     1      24.403 -14.657  21.336  1.00  0.00     0.216 HD
BRANCH  36  38
HETATM   38  O4  UNL     1      26.223 -14.786  20.703  1.00  0.00    -0.274 OA
ATOM     39  H4  UNL     1      26.180 -14.886  19.759  1.00  0.00     0.246 HD
ENDBRANCH  36  38
ENDBRANCH  35  36
ENDBRANCH  23  28
BRANCH  19  40
HETATM   40  O5  UNL     1      22.548 -14.991  23.449  1.00  0.00    -0.285 OA
ATOM     41  H5  UNL     1      21.851 -14.870  22.816  1.00  0.00     0.245 HD
ENDBRANCH  19  40
ENDBRANCH   1  16
BRANCH   1  42
HETATM   42  C14 UNL     1      19.893 -11.045  23.823  1.00  0.00     0.212 C 
HETATM   43  O6  UNL     1      19.205 -11.904  24.293  1.00  0.00    -0.287 OA
BRANCH  42  44
HETATM   44  C15 UNL     1      19.803  -9.673  24.339  1.00  0.00     0.148 C 
BRANCH  44  45
HETATM   45  O7  UNL     1      19.251  -8.833  23.368  1.00  0.00    -0.355 OA
ATOM     46  H7  UNL     1      18.332  -9.040  23.244  1.00  0.00     0.218 HD
ENDBRANCH  44  45
BRANCH  44  47
HETATM   47  C16 UNL     1      19.367  -9.437  25.714  1.00  0.00     0.135 C 
BRANCH  47  48
HETATM   48  O8  UNL     1      19.677 -10.438  26.621  1.00  0.00    -0.358 OA
ATOM     49  H8  UNL     1      20.546 -10.812  26.537  1.00  0.00     0.217 HD
ENDBRANCH  47  48
BRANCH  47  50
HETATM   50  C17 UNL     1      18.000  -8.908  25.971  1.00  0.00     0.315 C 
BRANCH  50  51
HETATM   51  O9  UNL     1      17.123  -9.766  25.237  1.00  0.00    -0.365 OA
ATOM     52  H9  UNL     1      16.742 -10.345  25.886  1.00  0.00     0.213 HD
ENDBRANCH  50  51
BRANCH  50  53
HETATM   53  O10 UNL     1      17.772  -7.657  25.367  1.00  0.00    -0.365 OA
ATOM     54  H10 UNL     1      18.554  -7.287  24.974  1.00  0.00     0.213 HD
ENDBRANCH  50  53
ENDBRANCH  47  50
ENDBRANCH  44  47
ENDBRANCH  42  44
ENDBRANCH   1  42
TORSDOF 18
ENDMDL
MODEL 5
REMARK VINA RESULT: -7.196933837      2.908      8.488
REMARK  18 active torsions:
REMARK  status: ('A' for Active; 'I' for Inactive)
REMARK    1  A    between atoms: N1_1  and  C1_4 
REMARK    2  A    between atoms: C2_7  and  O1_8 
REMARK    3  A    between atoms: C3_10  and  C4_11 
REMARK    4  A    between atoms: C4_11  and  N3_12 
REMARK    5  A    between atoms: C4_11  and  C14_38 
REMARK    6  A    between atoms: C6_15  and  C7_16 
REMARK    7  A    between atoms: C7_16  and  O2_17 
REMARK    8  A    between atoms: C9_22  and  C10_23 
REMARK    9  A    between atoms: N6_30  and  N7_31 
REMARK   10  A    between atoms: N7_31  and  O4_33 
REMARK   11  A    between atoms: N8_35  and  O5_36 
REMARK   12  A    between atoms: C14_38  and  C15_40 
REMARK   13  A    between atoms: C15_40  and  O7_41 
REMARK   14  A    between atoms: C15_40  and  C16_43 
REMARK   15  A    between atoms: C16_43  and  O8_44 
REMARK   16  A    between atoms: C16_43  and  C17_46 
REMARK   17  A    between atoms: C17_46  and  O9_47 
REMARK   18  A    between atoms: C17_46  and  O10_49 
ROOT
HETATM    1  C4  UNL     1      16.984 -10.093  26.391  1.00  0.00     0.203 C 
ENDROOT
BRANCH   1   2
HETATM    2  C3  UNL     1      16.052  -9.035  25.885  1.00  0.00     0.092 A 
HETATM    3  C2  UNL     1      14.685  -9.162  25.917  1.00  0.00     0.169 A 
HETATM    4  N2  UNL     1      13.852  -8.195  25.493  1.00  0.00    -0.170 N 
HETATM    5  C1  UNL     1      14.376  -7.065  25.021  1.00  0.00     0.680 A 
ATOM      6  H2  UNL     1      12.841  -8.324  25.532  1.00  0.00     0.186 HD
HETATM    7  N9  UNL     1      15.701  -6.886  24.966  1.00  0.00    -0.156 N 
HETATM    8  C18 UNL     1      16.559  -7.863  25.394  1.00  0.00     0.272 A 
ATOM      9  H9  UNL     1      16.076  -6.012  24.599  1.00  0.00     0.187 HD
HETATM   10  O11 UNL     1      17.765  -7.636  25.322  1.00  0.00    -0.267 OA
BRANCH   3  11
HETATM   11  O1  UNL     1      14.115 -10.328  26.405  1.00  0.00    -0.345 OA
ATOM     12  H1  UNL     1      14.698 -11.052  26.600  1.00  0.00     0.219 HD
ENDBRANCH   3  11
BRANCH   5  13
HETATM   13  N1  UNL     1      13.582  -6.117  24.606  1.00  0.00    -0.234 N 
ATOM     14  H12 UNL     1      13.435  -5.988  23.605  1.00  0.00     0.174 HD
ATOM     15  H11 UNL     1      13.118  -5.519  25.289  1.00  0.00     0.174 HD
ENDBRANCH   5  13
ENDBRANCH   1   2
BRANCH   1  16
HETATM   16  N3  UNL     1      17.665 -10.744  25.382  1.00  0.00    -0.357 N 
HETATM   17  C5  UNL     1      18.706 -11.057  24.846  1.00  0.00     0.150 C 
HETATM   18  C6  UNL     1      20.077 -10.726  25.232  1.00  0.00     0.075 C 
HETATM   19  N8  UNL     1      18.679 -11.873  23.635  1.00  0.00    -0.231 N 
HETATM   20  N4  UNL     1      21.098 -11.125  24.561  1.00  0.00    -0.386 N 
HETATM   21  C8  UNL     1      21.060 -11.941  23.355  1.00  0.00     0.154 C 
ATOM     22  H4  UNL     1      22.017 -10.845  24.903  1.00  0.00     0.159 HD
HETATM   23  C9  UNL     1      19.770 -11.714  22.697  1.00  0.00     0.187 C 
ATOM     24  H3  UNL     1      16.937 -11.170  24.809  1.00  0.00     0.162 HD
BRANCH  18  25
HETATM   25  C7  UNL     1      20.356  -9.926  26.437  1.00  0.00     0.224 C 
BRANCH  25  26
HETATM   26  O2  UNL     1      21.672  -9.425  26.472  1.00  0.00    -0.395 OA
ATOM     27  H2  UNL     1      22.135  -9.654  27.270  1.00  0.00     0.209 HD
ENDBRANCH  25  26
ENDBRANCH  18  25
BRANCH  23  28
HETATM   28  C10 UNL     1      19.438 -12.438  21.480  1.00  0.00     0.082 A 
HETATM   29  C11 UNL     1      19.575 -13.826  21.538  1.00  0.00     0.117 A 
HETATM   30  N5  UNL     1      19.301 -14.596  20.470  1.00  0.00    -0.368 N 
HETATM   31  C12 UNL     1      18.891 -14.087  19.318  1.00  0.00     0.164 A 
ATOM     32  H5  UNL     1      19.413 -15.607  20.550  1.00  0.00     0.164 HD
HETATM   33  C13 UNL     1      18.750 -12.716  19.248  1.00  0.00     0.283 A 
HETATM   34  O3  UNL     1      18.365 -12.196  18.181  1.00  0.00    -0.265 OA
HETATM   35  N6  UNL     1      19.027 -11.942  20.326  1.00  0.00    -0.200 N 
BRANCH  35  36
HETATM   36  N7  UNL     1      18.863 -10.590  20.185  1.00  0.00    -0.200 N 
ATOM     37  H7  UNL     1      18.049 -10.174  20.637  1.00  0.00     0.216 HD
BRANCH  36  38
HETATM   38  O4  UNL     1      19.613  -9.823  19.559  1.00  0.00    -0.274 OA
ATOM     39  H4  UNL     1      19.871  -8.949  19.828  1.00  0.00     0.246 HD
ENDBRANCH  36  38
ENDBRANCH  35  36
ENDBRANCH  23  28
BRANCH  19  40
HETATM   40  O5  UNL     1      17.646 -12.754  23.436  1.00  0.00    -0.285 OA
ATOM     41  H5  UNL     1      17.551 -13.503  24.013  1.00  0.00     0.245 HD
ENDBRANCH  19  40
ENDBRANCH   1  16
BRANCH   1  42
HETATM   42  C14 UNL     1      16.260 -11.089  27.269  1.00  0.00     0.212 C 
HETATM   43  O6  UNL     1      15.898 -12.123  26.786  1.00  0.00    -0.287 OA
BRANCH  42  44
HETATM   44  C15 UNL     1      16.003 -10.818  28.690  1.00  0.00     0.148 C 
BRANCH  44  45
HETATM   45  O7  UNL     1      15.613  -9.487  28.859  1.00  0.00    -0.355 OA
ATOM     46  H7  UNL     1      16.378  -8.938  28.991  1.00  0.00     0.218 HD
ENDBRANCH  44  45
BRANCH  44  47
HETATM   47  C16 UNL     1      15.294 -11.803  29.506  1.00  0.00     0.135 C 
BRANCH  47  48
HETATM   48  O8  UNL     1      15.861 -13.067  29.545  1.00  0.00    -0.358 OA
ATOM     49  H8  UNL     1      16.775 -13.114  29.292  1.00  0.00     0.217 HD
ENDBRANCH  47  48
BRANCH  47  50
HETATM   50  C17 UNL     1      13.813 -11.899  29.417  1.00  0.00     0.315 C 
BRANCH  50  51
HETATM   51  O9  UNL     1      13.560 -12.832  28.364  1.00  0.00    -0.365 OA
ATOM     52  H9  UNL     1      12.898 -13.421  28.706  1.00  0.00     0.213 HD
ENDBRANCH  50  51
BRANCH  50  53
HETATM   53  O10 UNL     1      13.213 -10.724  28.928  1.00  0.00    -0.365 OA
ATOM     54  H10 UNL     1      13.234 -10.664  27.981  1.00  0.00     0.213 HD
ENDBRANCH  50  53
ENDBRANCH  47  50
ENDBRANCH  44  47
ENDBRANCH  42  44
ENDBRANCH   1  42
TORSDOF 18
ENDMDL
