MODEL 1
REMARK VINA RESULT: -7.816863517      0.000      0.000
REMARK  16 active torsions:
REMARK  status: ('A' for Active; 'I' for Inactive)
REMARK    1  A    between atoms: C2_2  and  O1_3 
REMARK    2  A    between atoms: O1_3  and  C3_4 
REMARK       I    between atoms: C3_4  and  N1_6 
REMARK    3  A    between atoms: C4_7  and  N2_8 
REMARK    4  A    between atoms: C6_14  and  C7_15 
REMARK    5  A    between atoms: C7_15  and  O3_16 
REMARK    6  A    between atoms: C7_15  and  N5_18 
REMARK    7  A    between atoms: N5_18  and  C8_20 
REMARK    8  A    between atoms: C8_20  and  C9_21 
REMARK    9  A    between atoms: C10_22  and  O4_23 
REMARK   10  A    between atoms: C11_25  and  O5_26 
REMARK   11  A    between atoms: C12_28  and  N6_29 
REMARK   12  A    between atoms: C14_31  and  C15_32 
REMARK   13  A    between atoms: C15_32  and  N8_36 
REMARK   14  A    between atoms: N8_36  and  N9_38 
REMARK   15  A    between atoms: C16_45  and  O6_46 
REMARK   16  A    between atoms: C17_48  and  O7_49 
ROOT
HETATM    1  N2  UNL     1      16.647 -11.142  27.146  1.00  0.00    -0.126 N 
ATOM      2  H2  UNL     1      16.935 -10.875  28.087  1.00  0.00     0.197 HD
HETATM    3  C5  UNL     1      15.755 -12.237  26.953  1.00  0.00     0.196 C 
HETATM    4  N3  UNL     1      15.019 -13.109  26.798  1.00  0.00    -0.171 NA
ENDROOT
BRANCH   1   5
HETATM    5  C4  UNL     1      17.131 -10.425  26.018  1.00  0.00     0.695 C 
HETATM    6  N1  UNL     1      16.613  -9.180  25.555  1.00  0.00    -0.119 N 
HETATM    7  C3  UNL     1      15.316  -8.629  25.646  1.00  0.00     0.381 C 
HETATM    8  C19 UNL     1      17.805  -8.575  24.899  1.00  0.00     0.140 C 
HETATM    9  O2  UNL     1      14.371  -9.274  26.137  1.00  0.00    -0.237 OA
HETATM   10  C6  UNL     1      18.261  -9.842  24.190  1.00  0.00     0.197 C 
HETATM   11  C20 UNL     1      18.687  -8.170  26.038  1.00  0.00     0.036 C 
HETATM   12  N4  UNL     1      18.092 -10.803  25.226  1.00  0.00    -0.211 N 
ATOM     13  H4  UNL     1      18.638 -11.657  25.331  1.00  0.00     0.178 HD
BRANCH   7  14
HETATM   14  O1  UNL     1      15.104  -7.360  25.182  1.00  0.00    -0.304 OA
BRANCH  14  15
HETATM   15  C2  UNL     1      13.891  -6.666  25.124  1.00  0.00     0.176 C 
HETATM   16  C1  UNL     1      14.125  -5.172  25.220  1.00  0.00     0.034 C 
ENDBRANCH  14  15
ENDBRANCH   7  14
BRANCH  10  17
HETATM   17  C7  UNL     1      19.612  -9.749  23.555  1.00  0.00     0.137 C 
BRANCH  17  18
HETATM   18  O3  UNL     1      19.938  -8.601  22.924  1.00  0.00    -0.348 OA
ATOM     19  H3  UNL     1      20.855  -8.355  22.892  1.00  0.00     0.219 HD
ENDBRANCH  17  18
BRANCH  17  20
HETATM   20  N5  UNL     1      19.974 -10.999  23.041  1.00  0.00    -0.372 N 
ATOM     21  H5  UNL     1      19.248 -11.673  22.799  1.00  0.00     0.161 HD
BRANCH  20  22
HETATM   22  C8  UNL     1      21.328 -11.336  22.856  1.00  0.00     0.131 C 
BRANCH  22  23
HETATM   23  C9  UNL     1      21.818 -12.204  24.053  1.00  0.00     0.066 C 
HETATM   24  C10 UNL     1      21.861 -11.324  25.236  1.00  0.00     0.157 C 
HETATM   25  C11 UNL     1      23.098 -11.401  26.076  1.00  0.00     0.174 C 
HETATM   26  C12 UNL     1      23.831 -12.715  25.857  1.00  0.00     0.171 C 
HETATM   27  C16 UNL     1      24.286 -12.603  24.416  1.00  0.00     0.175 C 
HETATM   28  C17 UNL     1      22.988 -12.976  23.647  1.00  0.00     0.160 C 
BRANCH  24  29
HETATM   29  O4  UNL     1      20.790 -11.497  26.113  1.00  0.00    -0.392 OA
ATOM     30  H4  UNL     1      20.687 -10.793  26.742  1.00  0.00     0.210 HD
ENDBRANCH  24  29
BRANCH  25  31
HETATM   31  O5  UNL     1      22.831 -11.254  27.429  1.00  0.00    -0.391 OA
ATOM     32  H5  UNL     1      23.559 -10.873  27.905  1.00  0.00     0.210 HD
ENDBRANCH  25  31
BRANCH  26  33
HETATM   33  N6  UNL     1      24.865 -12.864  26.798  1.00  0.00    -0.277 N 
HETATM   34  C13 UNL     1      25.195 -13.925  27.533  1.00  0.00     0.147 A 
HETATM   35  C14 UNL     1      26.283 -13.597  28.315  1.00  0.00     0.111 A 
HETATM   36  N10 UNL     1      26.578 -12.306  28.012  1.00  0.00    -0.281 N 
HETATM   37  N11 UNL     1      25.722 -11.881  27.105  1.00  0.00    -0.240 N 
ATOM     38  H10 UNL     1      27.336 -11.757  28.418  1.00  0.00     0.188 HD
ATOM     39  H11 UNL     1      25.714 -10.945  26.699  1.00  0.00     0.208 HD
BRANCH  35  40
HETATM   40  C15 UNL     1      26.938 -14.475  29.257  1.00  0.00     0.143 C 
HETATM   41  N7  UNL     1      27.852 -14.029  30.075  1.00  0.00    -0.383 N 
ATOM     42  H72 UNL     1      28.102 -13.040  30.053  1.00  0.00     0.157 HD
ATOM     43  H71 UNL     1      28.315 -14.649  30.740  1.00  0.00     0.157 HD
BRANCH  40  44
HETATM   44  N8  UNL     1      26.591 -15.855  29.288  1.00  0.00    -0.291 N 
ATOM     45  H8  UNL     1      27.026 -16.506  28.635  1.00  0.00     0.188 HD
BRANCH  44  46
HETATM   46  N9  UNL     1      25.663 -16.313  30.205  1.00  0.00    -0.344 N 
ATOM     47  H92 UNL     1      25.657 -15.915  31.144  1.00  0.00     0.176 HD
ATOM     48  H91 UNL     1      24.997 -17.038  29.937  1.00  0.00     0.176 HD
ENDBRANCH  44  46
ENDBRANCH  40  44
ENDBRANCH  35  40
ENDBRANCH  26  33
BRANCH  27  49
HETATM   49  O6  UNL     1      24.647 -11.312  24.061  1.00  0.00    -0.391 OA
ATOM     50  H6  UNL     1      25.432 -11.279  23.526  1.00  0.00     0.210 HD
ENDBRANCH  27  49
BRANCH  28  51
HETATM   51  O7  UNL     1      22.911 -14.340  23.880  1.00  0.00    -0.388 OA
HETATM   52  C18 UNL     1      23.086 -15.191  22.853  1.00  0.00     0.202 C 
ENDBRANCH  28  51
ENDBRANCH  22  23
ENDBRANCH  20  22
ENDBRANCH  17  20
ENDBRANCH  10  17
ENDBRANCH   1   5
TORSDOF 16
ENDMDL
MODEL 2
REMARK VINA RESULT: -7.569447351      4.041      5.194
REMARK  16 active torsions:
REMARK  status: ('A' for Active; 'I' for Inactive)
REMARK    1  A    between atoms: C2_2  and  O1_3 
REMARK    2  A    between atoms: O1_3  and  C3_4 
REMARK       I    between atoms: C3_4  and  N1_6 
REMARK    3  A    between atoms: C4_7  and  N2_8 
REMARK    4  A    between atoms: C6_14  and  C7_15 
REMARK    5  A    between atoms: C7_15  and  O3_16 
REMARK    6  A    between atoms: C7_15  and  N5_18 
REMARK    7  A    between atoms: N5_18  and  C8_20 
REMARK    8  A    between atoms: C8_20  and  C9_21 
REMARK    9  A    between atoms: C10_22  and  O4_23 
REMARK   10  A    between atoms: C11_25  and  O5_26 
REMARK   11  A    between atoms: C12_28  and  N6_29 
REMARK   12  A    between atoms: C14_31  and  C15_32 
REMARK   13  A    between atoms: C15_32  and  N8_36 
REMARK   14  A    between atoms: N8_36  and  N9_38 
REMARK   15  A    between atoms: C16_45  and  O6_46 
REMARK   16  A    between atoms: C17_48  and  O7_49 
ROOT
HETATM    1  N2  UNL     1      15.867 -11.195  28.781  1.00  0.00    -0.126 N 
ATOM      2  H2  UNL     1      16.423 -11.530  29.568  1.00  0.00     0.197 HD
HETATM    3  C5  UNL     1      14.469 -10.966  28.937  1.00  0.00     0.196 C 
HETATM    4  N3  UNL     1      13.343 -10.762  29.068  1.00  0.00    -0.171 NA
ENDROOT
BRANCH   1   5
HETATM    5  C4  UNL     1      16.482 -10.951  27.522  1.00  0.00     0.695 C 
HETATM    6  N1  UNL     1      16.030 -11.476  26.276  1.00  0.00    -0.119 N 
HETATM    7  C3  UNL     1      15.334 -12.667  25.973  1.00  0.00     0.381 C 
HETATM    8  C19 UNL     1      16.505 -10.441  25.316  1.00  0.00     0.140 C 
HETATM    9  O2  UNL     1      15.073 -13.506  26.855  1.00  0.00    -0.237 OA
HETATM   10  C6  UNL     1      17.884 -10.266  25.935  1.00  0.00     0.197 C 
HETATM   11  C20 UNL     1      15.590  -9.279  25.544  1.00  0.00     0.036 C 
HETATM   12  N4  UNL     1      17.556 -10.246  27.318  1.00  0.00    -0.211 N 
ATOM     13  H4  UNL     1      18.082  -9.753  28.040  1.00  0.00     0.178 HD
BRANCH   7  14
HETATM   14  O1  UNL     1      14.945 -12.894  24.681  1.00  0.00    -0.304 OA
BRANCH  14  15
HETATM   15  C2  UNL     1      15.463 -13.837  23.789  1.00  0.00     0.176 C 
HETATM   16  C1  UNL     1      14.472 -14.125  22.679  1.00  0.00     0.034 C 
ENDBRANCH  14  15
ENDBRANCH   7  14
BRANCH  10  17
HETATM   17  C7  UNL     1      18.667  -9.110  25.398  1.00  0.00     0.137 C 
BRANCH  17  18
HETATM   18  O3  UNL     1      18.637  -7.949  26.087  1.00  0.00    -0.348 OA
ATOM     19  H3  UNL     1      18.150  -7.223  25.716  1.00  0.00     0.219 HD
ENDBRANCH  17  18
BRANCH  17  20
HETATM   20  N5  UNL     1      18.639  -9.136  23.999  1.00  0.00    -0.372 N 
ATOM     21  H5  UNL     1      17.795  -8.845  23.507  1.00  0.00     0.161 HD
BRANCH  20  22
HETATM   22  C8  UNL     1      19.763  -9.559  23.266  1.00  0.00     0.131 C 
BRANCH  22  23
HETATM   23  C9  UNL     1      19.957 -11.094  23.448  1.00  0.00     0.066 C 
HETATM   24  C10 UNL     1      21.281 -11.292  24.069  1.00  0.00     0.157 C 
HETATM   25  C11 UNL     1      22.149 -12.347  23.459  1.00  0.00     0.174 C 
HETATM   26  C12 UNL     1      21.323 -13.352  22.672  1.00  0.00     0.171 C 
HETATM   27  C16 UNL     1      20.785 -12.514  21.530  1.00  0.00     0.175 C 
HETATM   28  C17 UNL     1      19.596 -11.780  22.212  1.00  0.00     0.160 C 
BRANCH  24  29
HETATM   29  O4  UNL     1      21.232 -11.575  25.434  1.00  0.00    -0.392 OA
ATOM     30  H4  UNL     1      20.901 -10.861  25.965  1.00  0.00     0.210 HD
ENDBRANCH  24  29
BRANCH  25  31
HETATM   31  O5  UNL     1      22.902 -13.027  24.405  1.00  0.00    -0.391 OA
ATOM     32  H5  UNL     1      23.078 -13.926  24.153  1.00  0.00     0.210 HD
ENDBRANCH  25  31
BRANCH  26  33
HETATM   33  N6  UNL     1      22.117 -14.446  22.285  1.00  0.00    -0.277 N 
HETATM   34  C13 UNL     1      21.893 -15.751  22.438  1.00  0.00     0.147 A 
HETATM   35  C14 UNL     1      22.956 -16.445  21.899  1.00  0.00     0.111 A 
HETATM   36  N10 UNL     1      23.810 -15.500  21.425  1.00  0.00    -0.281 N 
HETATM   37  N11 UNL     1      23.296 -14.312  21.664  1.00  0.00    -0.240 N 
ATOM     38  H10 UNL     1      24.701 -15.681  20.962  1.00  0.00     0.188 HD
ATOM     39  H11 UNL     1      23.730 -13.423  21.414  1.00  0.00     0.208 HD
BRANCH  35  40
HETATM   40  C15 UNL     1      23.097 -17.883  21.872  1.00  0.00     0.143 C 
HETATM   41  N7  UNL     1      23.550 -18.499  20.813  1.00  0.00    -0.383 N 
ATOM     42  H72 UNL     1      23.816 -17.952  19.994  1.00  0.00     0.157 HD
ATOM     43  H71 UNL     1      23.649 -19.514  20.794  1.00  0.00     0.157 HD
BRANCH  40  44
HETATM   44  N8  UNL     1      22.725 -18.646  23.014  1.00  0.00    -0.291 N 
ATOM     45  H8  UNL     1      23.344 -18.687  23.824  1.00  0.00     0.188 HD
BRANCH  44  46
HETATM   46  N9  UNL     1      21.524 -19.330  23.027  1.00  0.00    -0.344 N 
ATOM     47  H92 UNL     1      20.653 -18.802  22.980  1.00  0.00     0.176 HD
ATOM     48  H91 UNL     1      21.519 -20.349  23.082  1.00  0.00     0.176 HD
ENDBRANCH  44  46
ENDBRANCH  40  44
ENDBRANCH  35  40
ENDBRANCH  26  33
BRANCH  27  49
HETATM   49  O6  UNL     1      21.689 -11.561  21.085  1.00  0.00    -0.391 OA
ATOM     50  H6  UNL     1      21.275 -10.851  20.609  1.00  0.00     0.210 HD
ENDBRANCH  27  49
BRANCH  28  51
HETATM   51  O7  UNL     1      18.677 -12.809  22.349  1.00  0.00    -0.388 OA
HETATM   52  C18 UNL     1      18.168 -13.382  21.244  1.00  0.00     0.202 C 
ENDBRANCH  28  51
ENDBRANCH  22  23
ENDBRANCH  20  22
ENDBRANCH  17  20
ENDBRANCH  10  17
ENDBRANCH   1   5
TORSDOF 16
ENDMDL
MODEL 3
REMARK VINA RESULT: -7.477683352      2.590     10.257
REMARK  16 active torsions:
REMARK  status: ('A' for Active; 'I' for Inactive)
REMARK    1  A    between atoms: C2_2  and  O1_3 
REMARK    2  A    between atoms: O1_3  and  C3_4 
REMARK       I    between atoms: C3_4  and  N1_6 
REMARK    3  A    between atoms: C4_7  and  N2_8 
REMARK    4  A    between atoms: C6_14  and  C7_15 
REMARK    5  A    between atoms: C7_15  and  O3_16 
REMARK    6  A    between atoms: C7_15  and  N5_18 
REMARK    7  A    between atoms: N5_18  and  C8_20 
REMARK    8  A    between atoms: C8_20  and  C9_21 
REMARK    9  A    between atoms: C10_22  and  O4_23 
REMARK   10  A    between atoms: C11_25  and  O5_26 
REMARK   11  A    between atoms: C12_28  and  N6_29 
REMARK   12  A    between atoms: C14_31  and  C15_32 
REMARK   13  A    between atoms: C15_32  and  N8_36 
REMARK   14  A    between atoms: N8_36  and  N9_38 
REMARK   15  A    between atoms: C16_45  and  O6_46 
REMARK   16  A    between atoms: C17_48  and  O7_49 
ROOT
HETATM    1  N2  UNL     1      25.667 -15.122  24.562  1.00  0.00    -0.126 N 
ATOM      2  H2  UNL     1      26.125 -15.982  24.864  1.00  0.00     0.197 HD
HETATM    3  C5  UNL     1      25.739 -14.713  23.198  1.00  0.00     0.196 C 
HETATM    4  N3  UNL     1      25.779 -14.392  22.094  1.00  0.00    -0.171 NA
ENDROOT
BRANCH   1   5
HETATM    5  C4  UNL     1      24.954 -14.324  25.498  1.00  0.00     0.695 C 
HETATM    6  N1  UNL     1      24.756 -14.652  26.871  1.00  0.00    -0.119 N 
HETATM    7  C3  UNL     1      24.676 -15.904  27.519  1.00  0.00     0.381 C 
HETATM    8  C19 UNL     1      24.623 -13.306  27.493  1.00  0.00     0.140 C 
HETATM    9  O2  UNL     1      24.707 -16.969  26.875  1.00  0.00    -0.237 OA
HETATM   10  C6  UNL     1      23.716 -12.720  26.420  1.00  0.00     0.197 C 
HETATM   11  C20 UNL     1      26.013 -12.752  27.475  1.00  0.00     0.036 C 
HETATM   12  N4  UNL     1      24.352 -13.199  25.242  1.00  0.00    -0.211 N 
ATOM     13  H4  UNL     1      24.338 -12.732  24.335  1.00  0.00     0.178 HD
BRANCH   7  14
HETATM   14  O1  UNL     1      24.561 -15.936  28.882  1.00  0.00    -0.304 OA
BRANCH  14  15
HETATM   15  C2  UNL     1      25.510 -16.384  29.806  1.00  0.00     0.176 C 
HETATM   16  C1  UNL     1      26.880 -15.822  29.480  1.00  0.00     0.034 C 
ENDBRANCH  14  15
ENDBRANCH   7  14
BRANCH  10  17
HETATM   17  C7  UNL     1      23.493 -11.245  26.529  1.00  0.00     0.137 C 
BRANCH  17  18
HETATM   18  O3  UNL     1      23.133 -10.745  27.730  1.00  0.00    -0.348 OA
ATOM     19  H3  UNL     1      23.549 -11.103  28.505  1.00  0.00     0.219 HD
ENDBRANCH  17  18
BRANCH  17  20
HETATM   20  N5  UNL     1      22.938 -10.767  25.338  1.00  0.00    -0.372 N 
ATOM     21  H5  UNL     1      23.448 -10.080  24.784  1.00  0.00     0.161 HD
BRANCH  20  22
HETATM   22  C8  UNL     1      21.682 -11.225  24.895  1.00  0.00     0.131 C 
BRANCH  22  23
HETATM   23  C9  UNL     1      20.690 -10.026  24.811  1.00  0.00     0.066 C 
HETATM   24  C10 UNL     1      20.233  -9.746  26.186  1.00  0.00     0.157 C 
HETATM   25  C11 UNL     1      18.761  -9.552  26.369  1.00  0.00     0.174 C 
HETATM   26  C12 UNL     1      18.089  -9.166  25.060  1.00  0.00     0.171 C 
HETATM   27  C16 UNL     1      18.265 -10.414  24.219  1.00  0.00     0.175 C 
HETATM   28  C17 UNL     1      19.734 -10.261  23.734  1.00  0.00     0.160 C 
BRANCH  24  29
HETATM   29  O4  UNL     1      20.844  -8.637  26.772  1.00  0.00    -0.392 OA
ATOM     30  H4  UNL     1      21.316  -8.834  27.572  1.00  0.00     0.210 HD
ENDBRANCH  24  29
BRANCH  25  31
HETATM   31  O5  UNL     1      18.467  -8.592  27.326  1.00  0.00    -0.391 OA
ATOM     32  H5  UNL     1      18.339  -8.966  28.189  1.00  0.00     0.210 HD
ENDBRANCH  25  31
BRANCH  26  33
HETATM   33  N6  UNL     1      16.755  -8.783  25.286  1.00  0.00    -0.277 N 
HETATM   34  C13 UNL     1      16.110  -7.688  24.888  1.00  0.00     0.147 A 
HETATM   35  C14 UNL     1      14.812  -7.751  25.350  1.00  0.00     0.111 A 
HETATM   36  N10 UNL     1      14.720  -8.922  26.033  1.00  0.00    -0.281 N 
HETATM   37  N11 UNL     1      15.889  -9.527  25.988  1.00  0.00    -0.240 N 
ATOM     38  H10 UNL     1      13.886  -9.273  26.503  1.00  0.00     0.188 HD
ATOM     39  H11 UNL     1      16.103 -10.426  26.421  1.00  0.00     0.208 HD
BRANCH  35  40
HETATM   40  C15 UNL     1      13.791  -6.750  25.135  1.00  0.00     0.143 C 
HETATM   41  N7  UNL     1      14.074  -5.476  25.175  1.00  0.00    -0.383 N 
ATOM     42  H72 UNL     1      15.035  -5.184  25.355  1.00  0.00     0.157 HD
ATOM     43  H71 UNL     1      13.355  -4.770  25.024  1.00  0.00     0.157 HD
BRANCH  40  44
HETATM   44  N8  UNL     1      12.451  -7.157  24.884  1.00  0.00    -0.291 N 
ATOM     45  H8  UNL     1      11.927  -7.659  25.602  1.00  0.00     0.188 HD
BRANCH  44  46
HETATM   46  N9  UNL     1      11.859  -6.873  23.668  1.00  0.00    -0.344 N 
ATOM     47  H92 UNL     1      12.047  -5.974  23.224  1.00  0.00     0.176 HD
ATOM     48  H91 UNL     1      11.245  -7.559  23.228  1.00  0.00     0.176 HD
ENDBRANCH  44  46
ENDBRANCH  40  44
ENDBRANCH  35  40
ENDBRANCH  26  33
BRANCH  27  49
HETATM   49  O6  UNL     1      18.170 -11.584  24.958  1.00  0.00    -0.391 OA
ATOM     50  H6  UNL     1      18.668 -12.301  24.584  1.00  0.00     0.210 HD
ENDBRANCH  27  49
BRANCH  28  51
HETATM   51  O7  UNL     1      19.615  -9.235  22.810  1.00  0.00    -0.388 OA
HETATM   52  C18 UNL     1      19.447  -9.540  21.511  1.00  0.00     0.202 C 
ENDBRANCH  28  51
ENDBRANCH  22  23
ENDBRANCH  20  22
ENDBRANCH  17  20
ENDBRANCH  10  17
ENDBRANCH   1   5
TORSDOF 16
ENDMDL
MODEL 4
REMARK VINA RESULT: -7.454007050      3.643      9.348
REMARK  16 active torsions:
REMARK  status: ('A' for Active; 'I' for Inactive)
REMARK    1  A    between atoms: C2_2  and  O1_3 
REMARK    2  A    between atoms: O1_3  and  C3_4 
REMARK       I    between atoms: C3_4  and  N1_6 
REMARK    3  A    between atoms: C4_7  and  N2_8 
REMARK    4  A    between atoms: C6_14  and  C7_15 
REMARK    5  A    between atoms: C7_15  and  O3_16 
REMARK    6  A    between atoms: C7_15  and  N5_18 
REMARK    7  A    between atoms: N5_18  and  C8_20 
REMARK    8  A    between atoms: C8_20  and  C9_21 
REMARK    9  A    between atoms: C10_22  and  O4_23 
REMARK   10  A    between atoms: C11_25  and  O5_26 
REMARK   11  A    between atoms: C12_28  and  N6_29 
REMARK   12  A    between atoms: C14_31  and  C15_32 
REMARK   13  A    between atoms: C15_32  and  N8_36 
REMARK   14  A    between atoms: N8_36  and  N9_38 
REMARK   15  A    between atoms: C16_45  and  O6_46 
REMARK   16  A    between atoms: C17_48  and  O7_49 
ROOT
HETATM    1  N2  UNL     1      24.204 -14.814  26.773  1.00  0.00    -0.126 N 
ATOM      2  H2  UNL     1      23.642 -15.336  27.444  1.00  0.00     0.197 HD
HETATM    3  C5  UNL     1      24.358 -13.403  26.911  1.00  0.00     0.196 C 
HETATM    4  N3  UNL     1      24.500 -12.267  27.034  1.00  0.00    -0.171 NA
ENDROOT
BRANCH   1   5
HETATM    5  C4  UNL     1      24.838 -15.486  25.692  1.00  0.00     0.695 C 
HETATM    6  N1  UNL     1      25.424 -16.783  25.766  1.00  0.00    -0.119 N 
HETATM    7  C3  UNL     1      26.015 -17.469  26.850  1.00  0.00     0.381 C 
HETATM    8  C19 UNL     1      25.287 -17.264  24.364  1.00  0.00     0.140 C 
HETATM    9  O2  UNL     1      26.159 -16.923  27.960  1.00  0.00    -0.237 OA
HETATM   10  C6  UNL     1      25.717 -15.962  23.703  1.00  0.00     0.197 C 
HETATM   11  C20 UNL     1      23.828 -17.561  24.217  1.00  0.00     0.036 C 
HETATM   12  N4  UNL     1      25.006 -15.015  24.490  1.00  0.00    -0.211 N 
ATOM     13  H4  UNL     1      24.678 -14.107  24.164  1.00  0.00     0.178 HD
BRANCH   7  14
HETATM   14  O1  UNL     1      26.435 -18.758  26.666  1.00  0.00    -0.304 OA
BRANCH  14  15
HETATM   15  C2  UNL     1      27.684 -19.299  26.982  1.00  0.00     0.176 C 
HETATM   16  C1  UNL     1      28.777 -18.629  26.173  1.00  0.00     0.034 C 
ENDBRANCH  14  15
ENDBRANCH   7  14
BRANCH  10  17
HETATM   17  C7  UNL     1      25.509 -15.916  22.222  1.00  0.00     0.137 C 
BRANCH  17  18
HETATM   18  O3  UNL     1      26.163 -16.821  21.462  1.00  0.00    -0.348 OA
ATOM     19  H3  UNL     1      26.754 -16.498  20.793  1.00  0.00     0.219 HD
ENDBRANCH  17  18
BRANCH  17  20
HETATM   20  N5  UNL     1      25.353 -14.588  21.813  1.00  0.00    -0.372 N 
ATOM     21  H5  UNL     1      25.938 -13.862  22.225  1.00  0.00     0.161 HD
BRANCH  20  22
HETATM   22  C8  UNL     1      24.399 -14.243  20.838  1.00  0.00     0.131 C 
BRANCH  22  23
HETATM   23  C9  UNL     1      23.625 -12.969  21.293  1.00  0.00     0.066 C 
HETATM   24  C10 UNL     1      24.403 -12.360  22.389  1.00  0.00     0.157 C 
HETATM   25  C11 UNL     1      23.629 -11.945  23.601  1.00  0.00     0.174 C 
HETATM   26  C12 UNL     1      22.156 -11.750  23.274  1.00  0.00     0.171 C 
HETATM   27  C16 UNL     1      21.707 -13.155  22.926  1.00  0.00     0.175 C 
HETATM   28  C17 UNL     1      22.213 -13.293  21.462  1.00  0.00     0.160 C 
BRANCH  24  29
HETATM   29  O4  UNL     1      25.145 -11.242  22.006  1.00  0.00    -0.392 OA
ATOM     30  H4  UNL     1      25.376 -10.666  22.725  1.00  0.00     0.210 HD
ENDBRANCH  24  29
BRANCH  25  31
HETATM   31  O5  UNL     1      24.121 -10.781  24.172  1.00  0.00    -0.391 OA
ATOM     32  H5  UNL     1      23.598 -10.489  24.910  1.00  0.00     0.210 HD
ENDBRANCH  25  31
BRANCH  26  33
HETATM   33  N6  UNL     1      21.485 -11.162  24.360  1.00  0.00    -0.277 N 
HETATM   34  C13 UNL     1      20.524 -10.240  24.362  1.00  0.00     0.147 A 
HETATM   35  C14 UNL     1      20.174  -9.972  25.669  1.00  0.00     0.111 A 
HETATM   36  N10 UNL     1      20.966 -10.770  26.432  1.00  0.00    -0.281 N 
HETATM   37  N11 UNL     1      21.744 -11.474  25.636  1.00  0.00    -0.240 N 
ATOM     38  H10 UNL     1      20.959 -10.817  27.451  1.00  0.00     0.188 HD
ATOM     39  H11 UNL     1      22.439 -12.154  25.946  1.00  0.00     0.208 HD
BRANCH  35  40
HETATM   40  C15 UNL     1      19.171  -9.023  26.096  1.00  0.00     0.143 C 
HETATM   41  N7  UNL     1      18.304  -8.531  25.253  1.00  0.00    -0.383 N 
ATOM     42  H72 UNL     1      18.332  -8.829  24.278  1.00  0.00     0.157 HD
ATOM     43  H71 UNL     1      17.596  -7.861  25.554  1.00  0.00     0.157 HD
BRANCH  40  44
HETATM   44  N8  UNL     1      19.133  -8.607  27.456  1.00  0.00    -0.291 N 
ATOM     45  H8  UNL     1      19.731  -7.844  27.774  1.00  0.00     0.188 HD
BRANCH  44  46
HETATM   46  N9  UNL     1      18.284  -9.237  28.347  1.00  0.00    -0.344 N 
ATOM     47  H92 UNL     1      17.370  -8.827  28.535  1.00  0.00     0.176 HD
ATOM     48  H91 UNL     1      18.577 -10.101  28.805  1.00  0.00     0.176 HD
ENDBRANCH  44  46
ENDBRANCH  40  44
ENDBRANCH  35  40
ENDBRANCH  26  33
BRANCH  27  49
HETATM   49  O6  UNL     1      22.327 -14.128  23.695  1.00  0.00    -0.391 OA
ATOM     50  H6  UNL     1      23.272 -14.131  23.598  1.00  0.00     0.210 HD
ENDBRANCH  27  49
BRANCH  28  51
HETATM   51  O7  UNL     1      21.328 -12.469  20.785  1.00  0.00    -0.388 OA
HETATM   52  C18 UNL     1      21.453 -12.329  19.453  1.00  0.00     0.202 C 
ENDBRANCH  28  51
ENDBRANCH  22  23
ENDBRANCH  20  22
ENDBRANCH  17  20
ENDBRANCH  10  17
ENDBRANCH   1   5
TORSDOF 16
ENDMDL
MODEL 5
REMARK VINA RESULT: -7.348304610      2.888      4.441
REMARK  16 active torsions:
REMARK  status: ('A' for Active; 'I' for Inactive)
REMARK    1  A    between atoms: C2_2  and  O1_3 
REMARK    2  A    between atoms: O1_3  and  C3_4 
REMARK       I    between atoms: C3_4  and  N1_6 
REMARK    3  A    between atoms: C4_7  and  N2_8 
REMARK    4  A    between atoms: C6_14  and  C7_15 
REMARK    5  A    between atoms: C7_15  and  O3_16 
REMARK    6  A    between atoms: C7_15  and  N5_18 
REMARK    7  A    between atoms: N5_18  and  C8_20 
REMARK    8  A    between atoms: C8_20  and  C9_21 
REMARK    9  A    between atoms: C10_22  and  O4_23 
REMARK   10  A    between atoms: C11_25  and  O5_26 
REMARK   11  A    between atoms: C12_28  and  N6_29 
REMARK   12  A    between atoms: C14_31  and  C15_32 
REMARK   13  A    between atoms: C15_32  and  N8_36 
REMARK   14  A    between atoms: N8_36  and  N9_38 
REMARK   15  A    between atoms: C16_45  and  O6_46 
REMARK   16  A    between atoms: C17_48  and  O7_49 
ROOT
HETATM    1  N2  UNL     1      14.829  -8.397  25.303  1.00  0.00    -0.126 N 
ATOM      2  H2  UNL     1      14.198  -9.113  24.945  1.00  0.00     0.197 HD
HETATM    3  C5  UNL     1      14.437  -7.026  25.297  1.00  0.00     0.196 C 
HETATM    4  N3  UNL     1      14.111  -5.922  25.312  1.00  0.00    -0.171 NA
ENDROOT
BRANCH   1   5
HETATM    5  C4  UNL     1      16.108  -8.758  25.812  1.00  0.00     0.695 C 
HETATM    6  N1  UNL     1      16.332  -9.627  26.919  1.00  0.00    -0.119 N 
HETATM    7  C3  UNL     1      15.539  -9.898  28.056  1.00  0.00     0.381 C 
HETATM    8  C19 UNL     1      17.670 -10.196  26.598  1.00  0.00     0.140 C 
HETATM    9  O2  UNL     1      14.476  -9.286  28.264  1.00  0.00    -0.237 OA
HETATM   10  C6  UNL     1      18.303  -8.883  26.159  1.00  0.00     0.197 C 
HETATM   11  C20 UNL     1      17.407 -11.145  25.471  1.00  0.00     0.036 C 
HETATM   12  N4  UNL     1      17.255  -8.332  25.371  1.00  0.00    -0.211 N 
ATOM     13  H4  UNL     1      17.384  -7.700  24.581  1.00  0.00     0.178 HD
BRANCH   7  14
HETATM   14  O1  UNL     1      15.959 -10.852  28.942  1.00  0.00    -0.304 OA
BRANCH  14  15
HETATM   15  C2  UNL     1      15.382 -12.103  29.182  1.00  0.00     0.176 C 
HETATM   16  C1  UNL     1      14.770 -12.662  27.914  1.00  0.00     0.034 C 
ENDBRANCH  14  15
ENDBRANCH   7  14
BRANCH  10  17
HETATM   17  C7  UNL     1      19.646  -9.023  25.515  1.00  0.00     0.137 C 
BRANCH  17  18
HETATM   18  O3  UNL     1      19.710  -8.974  24.167  1.00  0.00    -0.348 OA
ATOM     19  H3  UNL     1      18.991  -9.347  23.672  1.00  0.00     0.219 HD
ENDBRANCH  17  18
BRANCH  17  20
HETATM   20  N5  UNL     1      20.430  -9.913  26.257  1.00  0.00    -0.372 N 
ATOM     21  H5  UNL     1      20.001 -10.461  27.002  1.00  0.00     0.161 HD
BRANCH  20  22
HETATM   22  C8  UNL     1      21.803 -10.059  25.986  1.00  0.00     0.131 C 
BRANCH  22  23
HETATM   23  C9  UNL     1      22.090 -11.519  25.522  1.00  0.00     0.066 C 
HETATM   24  C10 UNL     1      23.246 -12.001  26.301  1.00  0.00     0.157 C 
HETATM   25  C11 UNL     1      24.325 -12.693  25.529  1.00  0.00     0.174 C 
HETATM   26  C12 UNL     1      23.800 -13.223  24.204  1.00  0.00     0.171 C 
HETATM   27  C16 UNL     1      23.467 -11.953  23.449  1.00  0.00     0.175 C 
HETATM   28  C17 UNL     1      22.090 -11.574  24.064  1.00  0.00     0.160 C 
BRANCH  24  29
HETATM   29  O4  UNL     1      22.908 -12.862  27.346  1.00  0.00    -0.392 OA
ATOM     30  H4  UNL     1      23.473 -13.621  27.419  1.00  0.00     0.210 HD
ENDBRANCH  24  29
BRANCH  25  31
HETATM   31  O5  UNL     1      24.898 -13.739  26.238  1.00  0.00    -0.391 OA
ATOM     32  H5  UNL     1      25.804 -13.889  25.996  1.00  0.00     0.210 HD
ENDBRANCH  25  31
BRANCH  26  33
HETATM   33  N6  UNL     1      24.760 -14.047  23.590  1.00  0.00    -0.277 N 
HETATM   34  C13 UNL     1      24.630 -15.282  23.105  1.00  0.00     0.147 A 
HETATM   35  C14 UNL     1      25.847 -15.684  22.596  1.00  0.00     0.111 A 
HETATM   36  N10 UNL     1      26.694 -14.641  22.801  1.00  0.00    -0.281 N 
HETATM   37  N11 UNL     1      26.031 -13.672  23.396  1.00  0.00    -0.240 N 
ATOM     38  H10 UNL     1      27.679 -14.614  22.537  1.00  0.00     0.188 HD
ATOM     39  H11 UNL     1      26.425 -12.771  23.668  1.00  0.00     0.208 HD
BRANCH  35  40
HETATM   40  C15 UNL     1      26.123 -16.965  21.986  1.00  0.00     0.143 C 
HETATM   41  N7  UNL     1      25.586 -17.300  20.845  1.00  0.00    -0.383 N 
ATOM     42  H72 UNL     1      24.965 -16.642  20.373  1.00  0.00     0.157 HD
ATOM     43  H71 UNL     1      25.780 -18.204  20.414  1.00  0.00     0.157 HD
BRANCH  40  44
HETATM   44  N8  UNL     1      26.989 -17.883  22.644  1.00  0.00    -0.291 N 
ATOM     45  H8  UNL     1      27.612 -18.479  22.098  1.00  0.00     0.188 HD
BRANCH  44  46
HETATM   46  N9  UNL     1      26.984 -17.968  24.024  1.00  0.00    -0.344 N 
ATOM     47  H92 UNL     1      26.322 -17.401  24.553  1.00  0.00     0.176 HD
ATOM     48  H91 UNL     1      27.637 -18.593  24.498  1.00  0.00     0.176 HD
ENDBRANCH  44  46
ENDBRANCH  40  44
ENDBRANCH  35  40
ENDBRANCH  26  33
BRANCH  27  49
HETATM   49  O6  UNL     1      24.358 -10.921  23.705  1.00  0.00    -0.391 OA
ATOM     50  H6  UNL     1      24.407 -10.289  22.998  1.00  0.00     0.210 HD
ENDBRANCH  27  49
BRANCH  28  51
HETATM   51  O7  UNL     1      21.264 -12.536  23.505  1.00  0.00    -0.388 OA
HETATM   52  C18 UNL     1      20.062 -12.168  23.026  1.00  0.00     0.202 C 
ENDBRANCH  28  51
ENDBRANCH  22  23
ENDBRANCH  20  22
ENDBRANCH  17  20
ENDBRANCH  10  17
ENDBRANCH   1   5
TORSDOF 16
ENDMDL
