MODEL 1
REMARK VINA RESULT: -9.633189410      0.000      0.000
REMARK  12 active torsions:
REMARK  status: ('A' for Active; 'I' for Inactive)
REMARK       I    between atoms: C2_2  and  N1_4 
REMARK    1  A    between atoms: N1_4  and  C3_6 
REMARK    2  A    between atoms: N2_8  and  C5_9 
REMARK    3  A    between atoms: C5_9  and  C6_10 
REMARK    4  A    between atoms: C6_10  and  C7_11 
REMARK    5  A    between atoms: C7_11  and  S1_12 
REMARK    6  A    between atoms: S1_12  and  C8_13 
REMARK    7  A    between atoms: C9_16  and  C10_17 
REMARK       I    between atoms: C10_17  and  N4_19 
REMARK    8  A    between atoms: N4_19  and  C11_20 
REMARK    9  A    between atoms: C14_28  and  C15_29 
REMARK   10  A    between atoms: N7_32  and  N8_33 
REMARK   11  A    between atoms: C16_38  and  O6_39 
REMARK   12  A    between atoms: C17_41  and  O7_42 
ROOT
HETATM    1  S1  UNL     1      17.893  -9.179  27.156  1.00  0.00    -0.089 SA
ENDROOT
BRANCH   1   2
HETATM    2  C7  UNL     1      16.851 -10.032  28.233  1.00  0.00     0.119 C 
BRANCH   2   3
HETATM    3  C6  UNL     1      15.454 -10.344  27.793  1.00  0.00     0.119 C 
HETATM    4  N9  UNL     1      14.496  -9.854  28.759  1.00  0.00    -0.126 NA
HETATM    5  N10 UNL     1      13.352 -10.648  28.603  1.00  0.00    -0.113 NA
HETATM    6  C16 UNL     1      13.758 -11.934  28.024  1.00  0.00     0.258 C 
HETATM    7  C17 UNL     1      15.267 -11.857  28.058  1.00  0.00     0.195 C 
BRANCH   3   8
HETATM    8  C5  UNL     1      15.025 -10.013  26.450  1.00  0.00     0.122 C 
BRANCH   8   9
HETATM    9  N2  UNL     1      14.159  -9.010  26.036  1.00  0.00    -0.262 N 
HETATM   10  C4  UNL     1      14.474  -7.744  25.713  1.00  0.00     0.166 A 
HETATM   11  C3  UNL     1      13.331  -7.078  25.263  1.00  0.00     0.141 A 
HETATM   12  N12 UNL     1      12.351  -7.978  25.332  1.00  0.00    -0.269 N 
HETATM   13  N11 UNL     1      12.831  -9.091  25.777  1.00  0.00    -0.235 N 
ATOM     14  H12 UNL     1      11.377  -7.815  25.075  1.00  0.00     0.190 HD
ATOM     15  H11 UNL     1      12.275  -9.934  25.918  1.00  0.00     0.209 HD
BRANCH  11  16
HETATM   16  N1  UNL     1      13.284  -5.704  24.838  1.00  0.00    -0.311 N 
HETATM   17  C2  UNL     1      12.087  -4.952  24.781  1.00  0.00     0.219 C 
HETATM   18  C1  UNL     1      10.742  -5.526  25.086  1.00  0.00     0.117 C 
HETATM   19  O1  UNL     1      12.182  -3.741  24.447  1.00  0.00    -0.274 OA
ATOM     20  H1  UNL     1      14.156  -5.251  24.564  1.00  0.00     0.170 HD
ENDBRANCH  11  16
ENDBRANCH   8   9
ENDBRANCH   3   8
BRANCH   6  21
HETATM   21  O6  UNL     1      13.275 -12.944  28.849  1.00  0.00    -0.376 OA
ATOM     22  H6  UNL     1      12.502 -13.312  28.436  1.00  0.00     0.211 HD
ENDBRANCH   6  21
BRANCH   7  23
HETATM   23  O7  UNL     1      15.950 -12.660  27.215  1.00  0.00    -0.389 OA
ATOM     24  H7  UNL     1      16.184 -13.505  27.580  1.00  0.00     0.210 HD
ENDBRANCH   7  23
ENDBRANCH   2   3
ENDBRANCH   1   2
BRANCH   1  25
HETATM   25  C8  UNL     1      19.274  -9.730  26.329  1.00  0.00     0.167 A 
HETATM   26  N3  UNL     1      20.516  -9.590  26.556  1.00  0.00    -0.328 N 
HETATM   27  C9  UNL     1      21.562  -9.976  26.135  1.00  0.00     0.153 A 
ATOM     28  H3  UNL     1      20.664  -8.953  27.339  1.00  0.00     0.168 HD
HETATM   29  C14 UNL     1      20.640 -10.809  25.033  1.00  0.00     0.168 A 
HETATM   30  N7  UNL     1      19.389 -10.588  25.271  1.00  0.00    -0.231 N 
BRANCH  27  31
HETATM   31  C10 UNL     1      22.882 -10.462  25.603  1.00  0.00     0.348 C 
HETATM   32  O2  UNL     1      23.419  -9.728  24.707  1.00  0.00    -0.249 OA
HETATM   33  N4  UNL     1      23.523 -11.555  26.020  1.00  0.00    -0.321 NA
BRANCH  33  34
HETATM   34  C11 UNL     1      24.026 -12.421  26.676  1.00  0.00     0.327 A 
HETATM   35  N5  UNL     1      23.601 -13.620  27.094  1.00  0.00    -0.297 N 
HETATM   36  C12 UNL     1      24.550 -14.246  27.791  1.00  0.00     0.102 A 
ATOM     37  H5  UNL     1      22.675 -14.004  26.906  1.00  0.00     0.172 HD
HETATM   38  C13 UNL     1      24.551 -15.608  28.427  1.00  0.00     0.091 C 
HETATM   39  N6  UNL     1      25.606 -13.376  27.799  1.00  0.00    -0.245 N 
HETATM   40  O3  UNL     1      25.286 -12.336  27.158  1.00  0.00    -0.186 OA
ATOM     41  H6  UNL     1      26.506 -13.541  28.251  1.00  0.00     0.196 HD
ENDBRANCH  33  34
ENDBRANCH  27  31
BRANCH  29  42
HETATM   42  C15 UNL     1      21.164 -11.392  23.839  1.00  0.00     0.231 C 
HETATM   43  O4  UNL     1      20.804 -10.805  22.627  1.00  0.00    -0.643 OA
HETATM   44  O5  UNL     1      21.641 -12.684  23.801  1.00  0.00    -0.643 OA
ENDBRANCH  29  42
BRANCH  30  45
HETATM   45  N8  UNL     1      18.280 -11.119  24.591  1.00  0.00    -0.336 N 
ATOM     46  H82 UNL     1      17.375 -11.377  24.984  1.00  0.00     0.177 HD
ATOM     47  H81 UNL     1      18.277 -11.301  23.587  1.00  0.00     0.177 HD
ENDBRANCH  30  45
ENDBRANCH   1  25
TORSDOF 12
ENDMDL
MODEL 2
REMARK VINA RESULT: -9.251625739      3.237     10.931
REMARK  12 active torsions:
REMARK  status: ('A' for Active; 'I' for Inactive)
REMARK       I    between atoms: C2_2  and  N1_4 
REMARK    1  A    between atoms: N1_4  and  C3_6 
REMARK    2  A    between atoms: N2_8  and  C5_9 
REMARK    3  A    between atoms: C5_9  and  C6_10 
REMARK    4  A    between atoms: C6_10  and  C7_11 
REMARK    5  A    between atoms: C7_11  and  S1_12 
REMARK    6  A    between atoms: S1_12  and  C8_13 
REMARK    7  A    between atoms: C9_16  and  C10_17 
REMARK       I    between atoms: C10_17  and  N4_19 
REMARK    8  A    between atoms: N4_19  and  C11_20 
REMARK    9  A    between atoms: C14_28  and  C15_29 
REMARK   10  A    between atoms: N7_32  and  N8_33 
REMARK   11  A    between atoms: C16_38  and  O6_39 
REMARK   12  A    between atoms: C17_41  and  O7_42 
ROOT
HETATM    1  S1  UNL     1      21.914 -11.856  23.895  1.00  0.00    -0.089 SA
ENDROOT
BRANCH   1   2
HETATM    2  C7  UNL     1      23.623 -11.877  24.120  1.00  0.00     0.119 C 
BRANCH   2   3
HETATM    3  C6  UNL     1      24.411 -13.025  23.570  1.00  0.00     0.119 C 
HETATM    4  N9  UNL     1      25.109 -12.631  22.366  1.00  0.00    -0.126 NA
HETATM    5  N10 UNL     1      25.311 -13.809  21.635  1.00  0.00    -0.113 NA
HETATM    6  C16 UNL     1      24.287 -14.782  22.035  1.00  0.00     0.258 C 
HETATM    7  C17 UNL     1      23.370 -13.962  22.914  1.00  0.00     0.195 C 
BRANCH   3   8
HETATM    8  C5  UNL     1      25.293 -13.781  24.434  1.00  0.00     0.122 C 
BRANCH   8   9
HETATM    9  N2  UNL     1      25.281 -13.879  25.819  1.00  0.00    -0.262 N 
HETATM   10  C4  UNL     1      24.876 -14.926  26.559  1.00  0.00     0.166 A 
HETATM   11  C3  UNL     1      25.105 -14.660  27.911  1.00  0.00     0.141 A 
HETATM   12  N12 UNL     1      25.646 -13.442  27.942  1.00  0.00    -0.269 N 
HETATM   13  N11 UNL     1      25.746 -12.996  26.735  1.00  0.00    -0.235 N 
ATOM     14  H12 UNL     1      25.934 -12.944  28.784  1.00  0.00     0.190 HD
ATOM     15  H11 UNL     1      26.131 -12.082  26.498  1.00  0.00     0.209 HD
BRANCH  11  16
HETATM   16  N1  UNL     1      24.790 -15.551  28.997  1.00  0.00    -0.311 N 
HETATM   17  C2  UNL     1      25.733 -16.439  29.566  1.00  0.00     0.219 C 
HETATM   18  C1  UNL     1      27.126 -16.597  29.053  1.00  0.00     0.117 C 
HETATM   19  O1  UNL     1      25.354 -17.129  30.551  1.00  0.00    -0.274 OA
ATOM     20  H1  UNL     1      23.843 -15.541  29.374  1.00  0.00     0.170 HD
ENDBRANCH  11  16
ENDBRANCH   8   9
ENDBRANCH   3   8
BRANCH   6  21
HETATM   21  O6  UNL     1      23.642 -15.219  20.882  1.00  0.00    -0.376 OA
ATOM     22  H6  UNL     1      22.933 -14.613  20.699  1.00  0.00     0.211 HD
ENDBRANCH   6  21
BRANCH   7  23
HETATM   23  O7  UNL     1      22.589 -14.630  23.790  1.00  0.00    -0.389 OA
ATOM     24  H7  UNL     1      21.656 -14.529  23.641  1.00  0.00     0.210 HD
ENDBRANCH   7  23
ENDBRANCH   2   3
ENDBRANCH   1   2
BRANCH   1  25
HETATM   25  C8  UNL     1      20.752 -10.803  24.556  1.00  0.00     0.167 A 
HETATM   26  N3  UNL     1      19.602 -10.441  24.154  1.00  0.00    -0.328 N 
HETATM   27  C9  UNL     1      18.670  -9.804  24.535  1.00  0.00     0.153 A 
ATOM     28  H3  UNL     1      19.422 -10.808  23.220  1.00  0.00     0.168 HD
HETATM   29  C14 UNL     1      19.589  -9.553  25.896  1.00  0.00     0.168 A 
HETATM   30  N7  UNL     1      20.712 -10.178  25.772  1.00  0.00    -0.231 N 
BRANCH  27  31
HETATM   31  C10 UNL     1      17.493  -9.000  25.015  1.00  0.00     0.348 C 
HETATM   32  O2  UNL     1      17.498  -7.766  24.687  1.00  0.00    -0.249 OA
HETATM   33  N4  UNL     1      16.461  -9.486  25.707  1.00  0.00    -0.321 NA
BRANCH  33  34
HETATM   34  C11 UNL     1      15.549 -10.146  26.112  1.00  0.00     0.327 A 
HETATM   35  N5  UNL     1      15.292 -10.735  27.288  1.00  0.00    -0.297 N 
HETATM   36  C12 UNL     1      14.110 -11.350  27.265  1.00  0.00     0.102 A 
ATOM     37  H5  UNL     1      15.917 -10.714  28.094  1.00  0.00     0.172 HD
HETATM   38  C13 UNL     1      13.388 -12.109  28.343  1.00  0.00     0.091 C 
HETATM   39  N6  UNL     1      13.627 -11.128  26.005  1.00  0.00    -0.245 N 
HETATM   40  O3  UNL     1      14.466 -10.439  25.358  1.00  0.00    -0.186 OA
ATOM     41  H6  UNL     1      12.733 -11.464  25.644  1.00  0.00     0.196 HD
ENDBRANCH  33  34
ENDBRANCH  27  31
BRANCH  29  42
HETATM   42  C15 UNL     1      19.303  -8.549  26.871  1.00  0.00     0.231 C 
HETATM   43  O4  UNL     1      20.101  -7.406  26.867  1.00  0.00    -0.643 OA
HETATM   44  O5  UNL     1      18.592  -8.823  28.019  1.00  0.00    -0.643 OA
ENDBRANCH  29  42
BRANCH  30  45
HETATM   45  N8  UNL     1      21.763 -10.248  26.703  1.00  0.00    -0.336 N 
ATOM     46  H82 UNL     1      22.702 -10.615  26.555  1.00  0.00     0.177 HD
ATOM     47  H81 UNL     1      21.677  -9.915  27.664  1.00  0.00     0.177 HD
ENDBRANCH  30  45
ENDBRANCH   1  25
TORSDOF 12
ENDMDL
MODEL 3
REMARK VINA RESULT: -9.196297622      3.283     10.466
REMARK  12 active torsions:
REMARK  status: ('A' for Active; 'I' for Inactive)
REMARK       I    between atoms: C2_2  and  N1_4 
REMARK    1  A    between atoms: N1_4  and  C3_6 
REMARK    2  A    between atoms: N2_8  and  C5_9 
REMARK    3  A    between atoms: C5_9  and  C6_10 
REMARK    4  A    between atoms: C6_10  and  C7_11 
REMARK    5  A    between atoms: C7_11  and  S1_12 
REMARK    6  A    between atoms: S1_12  and  C8_13 
REMARK    7  A    between atoms: C9_16  and  C10_17 
REMARK       I    between atoms: C10_17  and  N4_19 
REMARK    8  A    between atoms: N4_19  and  C11_20 
REMARK    9  A    between atoms: C14_28  and  C15_29 
REMARK   10  A    between atoms: N7_32  and  N8_33 
REMARK   11  A    between atoms: C16_38  and  O6_39 
REMARK   12  A    between atoms: C17_41  and  O7_42 
ROOT
HETATM    1  S1  UNL     1      22.077 -11.652  23.880  1.00  0.00    -0.089 SA
ENDROOT
BRANCH   1   2
HETATM    2  C7  UNL     1      21.893 -13.127  23.006  1.00  0.00     0.119 C 
BRANCH   2   3
HETATM    3  C6  UNL     1      23.119 -13.890  22.608  1.00  0.00     0.119 C 
HETATM    4  N9  UNL     1      24.021 -13.046  21.857  1.00  0.00    -0.126 NA
HETATM    5  N10 UNL     1      24.787 -13.911  21.064  1.00  0.00    -0.113 NA
HETATM    6  C16 UNL     1      24.023 -15.147  20.859  1.00  0.00     0.258 C 
HETATM    7  C17 UNL     1      22.672 -14.809  21.447  1.00  0.00     0.195 C 
BRANCH   3   8
HETATM    8  C5  UNL     1      23.853 -14.651  23.597  1.00  0.00     0.122 C 
BRANCH   8   9
HETATM    9  N2  UNL     1      24.203 -14.288  24.891  1.00  0.00    -0.262 N 
HETATM   10  C4  UNL     1      24.887 -13.196  25.274  1.00  0.00     0.166 A 
HETATM   11  C3  UNL     1      24.956 -13.153  26.669  1.00  0.00     0.141 A 
HETATM   12  N12 UNL     1      24.304 -14.238  27.085  1.00  0.00    -0.269 N 
HETATM   13  N11 UNL     1      23.871 -14.890  26.058  1.00  0.00    -0.235 N 
ATOM     14  H12 UNL     1      24.168 -14.510  28.059  1.00  0.00     0.190 HD
ATOM     15  H11 UNL     1      23.340 -15.758  26.119  1.00  0.00     0.209 HD
BRANCH  11  16
HETATM   16  N1  UNL     1      25.616 -12.130  27.436  1.00  0.00    -0.311 N 
HETATM   17  C2  UNL     1      26.558 -12.413  28.453  1.00  0.00     0.219 C 
HETATM   18  C1  UNL     1      26.908 -13.800  28.884  1.00  0.00     0.117 C 
HETATM   19  O1  UNL     1      27.112 -11.431  29.016  1.00  0.00    -0.274 OA
ATOM     20  H1  UNL     1      25.395 -11.155  27.236  1.00  0.00     0.170 HD
ENDBRANCH  11  16
ENDBRANCH   8   9
ENDBRANCH   3   8
BRANCH   6  21
HETATM   21  O6  UNL     1      23.947 -15.378  19.490  1.00  0.00    -0.376 OA
ATOM     22  H6  UNL     1      23.824 -16.311  19.359  1.00  0.00     0.211 HD
ENDBRANCH   6  21
BRANCH   7  23
HETATM   23  O7  UNL     1      21.882 -15.838  21.821  1.00  0.00    -0.389 OA
ATOM     24  H7  UNL     1      20.971 -15.745  21.570  1.00  0.00     0.210 HD
ENDBRANCH   7  23
ENDBRANCH   2   3
ENDBRANCH   1   2
BRANCH   1  25
HETATM   25  C8  UNL     1      20.887 -10.659  24.581  1.00  0.00     0.167 A 
HETATM   26  N3  UNL     1      19.724 -10.320  24.197  1.00  0.00    -0.328 N 
HETATM   27  C9  UNL     1      18.774  -9.726  24.603  1.00  0.00     0.153 A 
ATOM     28  H3  UNL     1      19.550 -10.660  23.251  1.00  0.00     0.168 HD
HETATM   29  C14 UNL     1      19.692  -9.493  25.968  1.00  0.00     0.168 A 
HETATM   30  N7  UNL     1      20.834 -10.078  25.818  1.00  0.00    -0.231 N 
BRANCH  27  31
HETATM   31  C10 UNL     1      17.575  -8.976  25.116  1.00  0.00     0.348 C 
HETATM   32  O2  UNL     1      17.565  -7.722  24.875  1.00  0.00    -0.249 OA
HETATM   33  N4  UNL     1      16.540  -9.525  25.752  1.00  0.00    -0.321 NA
BRANCH  33  34
HETATM   34  C11 UNL     1      15.631 -10.227  26.091  1.00  0.00     0.327 A 
HETATM   35  N5  UNL     1      15.247 -10.723  27.275  1.00  0.00    -0.297 N 
HETATM   36  C12 UNL     1      14.134 -11.445  27.151  1.00  0.00     0.102 A 
ATOM     37  H5  UNL     1      15.740 -10.568  28.155  1.00  0.00     0.172 HD
HETATM   38  C13 UNL     1      13.319 -12.163  28.190  1.00  0.00     0.091 C 
HETATM   39  N6  UNL     1      13.830 -11.389  25.818  1.00  0.00    -0.245 N 
HETATM   40  O3  UNL     1      14.700 -10.689  25.227  1.00  0.00    -0.186 OA
ATOM     41  H6  UNL     1      13.030 -11.840  25.373  1.00  0.00     0.196 HD
ENDBRANCH  33  34
ENDBRANCH  27  31
BRANCH  29  42
HETATM   42  C15 UNL     1      19.381  -8.532  26.979  1.00  0.00     0.231 C 
HETATM   43  O4  UNL     1      20.192  -7.402  27.061  1.00  0.00    -0.643 OA
HETATM   44  O5  UNL     1      18.621  -8.850  28.084  1.00  0.00    -0.643 OA
ENDBRANCH  29  42
BRANCH  30  45
HETATM   45  N8  UNL     1      21.891 -10.146  26.742  1.00  0.00    -0.336 N 
ATOM     46  H82 UNL     1      22.849 -10.451  26.570  1.00  0.00     0.177 HD
ATOM     47  H81 UNL     1      21.791  -9.879  27.721  1.00  0.00     0.177 HD
ENDBRANCH  30  45
ENDBRANCH   1  25
TORSDOF 12
ENDMDL
MODEL 4
REMARK VINA RESULT: -9.183651708      3.545     10.009
REMARK  12 active torsions:
REMARK  status: ('A' for Active; 'I' for Inactive)
REMARK       I    between atoms: C2_2  and  N1_4 
REMARK    1  A    between atoms: N1_4  and  C3_6 
REMARK    2  A    between atoms: N2_8  and  C5_9 
REMARK    3  A    between atoms: C5_9  and  C6_10 
REMARK    4  A    between atoms: C6_10  and  C7_11 
REMARK    5  A    between atoms: C7_11  and  S1_12 
REMARK    6  A    between atoms: S1_12  and  C8_13 
REMARK    7  A    between atoms: C9_16  and  C10_17 
REMARK       I    between atoms: C10_17  and  N4_19 
REMARK    8  A    between atoms: N4_19  and  C11_20 
REMARK    9  A    between atoms: C14_28  and  C15_29 
REMARK   10  A    between atoms: N7_32  and  N8_33 
REMARK   11  A    between atoms: C16_38  and  O6_39 
REMARK   12  A    between atoms: C17_41  and  O7_42 
ROOT
HETATM    1  S1  UNL     1      23.433 -11.698  25.981  1.00  0.00    -0.089 SA
ENDROOT
BRANCH   1   2
HETATM    2  C7  UNL     1      24.249 -12.283  27.383  1.00  0.00     0.119 C 
BRANCH   2   3
HETATM    3  C6  UNL     1      24.885 -13.637  27.338  1.00  0.00     0.119 C 
HETATM    4  N9  UNL     1      24.123 -14.583  28.123  1.00  0.00    -0.126 NA
HETATM    5  N10 UNL     1      25.027 -15.584  28.503  1.00  0.00    -0.113 NA
HETATM    6  C16 UNL     1      26.379 -15.013  28.492  1.00  0.00     0.258 C 
HETATM    7  C17 UNL     1      26.122 -13.542  28.263  1.00  0.00     0.195 C 
BRANCH   3   8
HETATM    8  C5  UNL     1      25.254 -14.224  26.067  1.00  0.00     0.122 C 
BRANCH   8   9
HETATM    9  N2  UNL     1      24.496 -15.031  25.228  1.00  0.00    -0.262 N 
HETATM   10  C4  UNL     1      24.539 -15.078  23.885  1.00  0.00     0.166 A 
HETATM   11  C3  UNL     1      23.683 -16.082  23.425  1.00  0.00     0.141 A 
HETATM   12  N12 UNL     1      23.144 -16.613  24.522  1.00  0.00    -0.269 N 
HETATM   13  N11 UNL     1      23.615 -16.005  25.559  1.00  0.00    -0.235 N 
ATOM     14  H12 UNL     1      22.467 -17.376  24.540  1.00  0.00     0.190 HD
ATOM     15  H11 UNL     1      23.353 -16.232  26.519  1.00  0.00     0.209 HD
BRANCH  11  16
HETATM   16  N1  UNL     1      23.465 -16.418  22.043  1.00  0.00    -0.311 N 
HETATM   17  C2  UNL     1      22.448 -15.829  21.256  1.00  0.00     0.219 C 
HETATM   18  C1  UNL     1      21.452 -14.855  21.795  1.00  0.00     0.117 C 
HETATM   19  O1  UNL     1      22.392 -16.163  20.041  1.00  0.00    -0.274 OA
ATOM     20  H1  UNL     1      24.073 -17.113  21.610  1.00  0.00     0.170 HD
ENDBRANCH  11  16
ENDBRANCH   8   9
ENDBRANCH   3   8
BRANCH   6  21
HETATM   21  O6  UNL     1      26.951 -15.249  29.738  1.00  0.00    -0.376 OA
ATOM     22  H6  UNL     1      27.877 -15.420  29.605  1.00  0.00     0.211 HD
ENDBRANCH   6  21
BRANCH   7  23
HETATM   23  O7  UNL     1      27.136 -12.803  27.765  1.00  0.00    -0.389 OA
ATOM     24  H7  UNL     1      27.388 -12.065  28.307  1.00  0.00     0.210 HD
ENDBRANCH   7  23
ENDBRANCH   2   3
ENDBRANCH   1   2
BRANCH   1  25
HETATM   25  C8  UNL     1      21.889 -10.997  25.846  1.00  0.00     0.167 A 
HETATM   26  N3  UNL     1      21.231 -10.227  26.615  1.00  0.00    -0.328 N 
HETATM   27  C9  UNL     1      20.214  -9.606  26.618  1.00  0.00     0.153 A 
ATOM     28  H3  UNL     1      21.724 -10.104  27.499  1.00  0.00     0.168 HD
HETATM   29  C14 UNL     1      19.998 -10.239  25.098  1.00  0.00     0.168 A 
HETATM   30  N7  UNL     1      21.012 -10.981  24.797  1.00  0.00    -0.231 N 
BRANCH  27  31
HETATM   31  C10 UNL     1      18.931  -8.821  26.623  1.00  0.00     0.348 C 
HETATM   32  O2  UNL     1      18.974  -7.693  26.026  1.00  0.00    -0.249 OA
HETATM   33  N4  UNL     1      17.782  -9.231  27.160  1.00  0.00    -0.321 NA
BRANCH  33  34
HETATM   34  C11 UNL     1      16.821  -9.863  27.492  1.00  0.00     0.327 A 
HETATM   35  N5  UNL     1      16.428 -11.124  27.265  1.00  0.00    -0.297 N 
HETATM   36  C12 UNL     1      15.274 -11.381  27.880  1.00  0.00     0.102 A 
ATOM     37  H5  UNL     1      16.943 -11.797  26.698  1.00  0.00     0.172 HD
HETATM   38  C13 UNL     1      14.467 -12.648  27.943  1.00  0.00     0.091 C 
HETATM   39  N6  UNL     1      14.947 -10.212  28.510  1.00  0.00    -0.245 N 
HETATM   40  O3  UNL     1      15.843  -9.353  28.274  1.00  0.00    -0.186 OA
ATOM     41  H6  UNL     1      14.113 -10.057  29.078  1.00  0.00     0.196 HD
ENDBRANCH  33  34
ENDBRANCH  27  31
BRANCH  29  42
HETATM   42  C15 UNL     1      18.750 -10.221  24.401  1.00  0.00     0.231 C 
HETATM   43  O4  UNL     1      17.951 -11.359  24.488  1.00  0.00    -0.643 OA
HETATM   44  O5  UNL     1      18.502  -9.348  23.365  1.00  0.00    -0.643 OA
ENDBRANCH  29  42
BRANCH  30  45
HETATM   45  N8  UNL     1      21.238 -11.680  23.599  1.00  0.00    -0.336 N 
ATOM     46  H82 UNL     1      22.050 -12.245  23.353  1.00  0.00     0.177 HD
ATOM     47  H81 UNL     1      20.573 -11.688  22.826  1.00  0.00     0.177 HD
ENDBRANCH  30  45
ENDBRANCH   1  25
TORSDOF 12
ENDMDL
MODEL 5
REMARK VINA RESULT: -9.147256901      5.617      9.833
REMARK  12 active torsions:
REMARK  status: ('A' for Active; 'I' for Inactive)
REMARK       I    between atoms: C2_2  and  N1_4 
REMARK    1  A    between atoms: N1_4  and  C3_6 
REMARK    2  A    between atoms: N2_8  and  C5_9 
REMARK    3  A    between atoms: C5_9  and  C6_10 
REMARK    4  A    between atoms: C6_10  and  C7_11 
REMARK    5  A    between atoms: C7_11  and  S1_12 
REMARK    6  A    between atoms: S1_12  and  C8_13 
REMARK    7  A    between atoms: C9_16  and  C10_17 
REMARK       I    between atoms: C10_17  and  N4_19 
REMARK    8  A    between atoms: N4_19  and  C11_20 
REMARK    9  A    between atoms: C14_28  and  C15_29 
REMARK   10  A    between atoms: N7_32  and  N8_33 
REMARK   11  A    between atoms: C16_38  and  O6_39 
REMARK   12  A    between atoms: C17_41  and  O7_42 
ROOT
HETATM    1  S1  UNL     1      15.257 -14.507  24.818  1.00  0.00    -0.089 SA
ENDROOT
BRANCH   1   2
HETATM    2  C7  UNL     1      15.302 -14.716  23.107  1.00  0.00     0.119 C 
BRANCH   2   3
HETATM    3  C6  UNL     1      15.922 -15.958  22.546  1.00  0.00     0.119 C 
HETATM    4  N9  UNL     1      17.070 -16.353  23.331  1.00  0.00    -0.126 NA
HETATM    5  N10 UNL     1      17.888 -17.096  22.470  1.00  0.00    -0.113 NA
HETATM    6  C16 UNL     1      17.596 -16.689  21.090  1.00  0.00     0.258 C 
HETATM    7  C17 UNL     1      16.680 -15.502  21.276  1.00  0.00     0.195 C 
BRANCH   3   8
HETATM    8  C5  UNL     1      15.097 -17.111  22.251  1.00  0.00     0.122 C 
BRANCH   8   9
HETATM    9  N2  UNL     1      13.775 -17.151  21.830  1.00  0.00    -0.262 N 
HETATM   10  C4  UNL     1      12.696 -17.483  22.561  1.00  0.00     0.166 A 
HETATM   11  C3  UNL     1      11.541 -17.313  21.794  1.00  0.00     0.141 A 
HETATM   12  N12 UNL     1      11.968 -16.880  20.608  1.00  0.00    -0.269 N 
HETATM   13  N11 UNL     1      13.256 -16.787  20.632  1.00  0.00    -0.235 N 
ATOM     14  H12 UNL     1      11.374 -16.657  19.809  1.00  0.00     0.190 HD
ATOM     15  H11 UNL     1      13.818 -16.476  19.840  1.00  0.00     0.209 HD
BRANCH  11  16
HETATM   16  N1  UNL     1      10.200 -17.578  22.244  1.00  0.00    -0.311 N 
HETATM   17  C2  UNL     1       9.277 -16.555  22.568  1.00  0.00     0.219 C 
HETATM   18  C1  UNL     1       9.621 -15.102  22.547  1.00  0.00     0.117 C 
HETATM   19  O1  UNL     1       8.114 -16.911  22.896  1.00  0.00    -0.274 OA
ATOM     20  H1  UNL     1       9.901 -18.548  22.333  1.00  0.00     0.170 HD
ENDBRANCH  11  16
ENDBRANCH   8   9
ENDBRANCH   3   8
BRANCH   6  21
HETATM   21  O6  UNL     1      18.798 -16.325  20.492  1.00  0.00    -0.376 OA
ATOM     22  H6  UNL     1      18.667 -15.485  20.066  1.00  0.00     0.211 HD
ENDBRANCH   6  21
BRANCH   7  23
HETATM   23  O7  UNL     1      15.882 -15.165  20.241  1.00  0.00    -0.389 OA
ATOM     24  H7  UNL     1      15.534 -15.904  19.755  1.00  0.00     0.210 HD
ENDBRANCH   7  23
ENDBRANCH   2   3
ENDBRANCH   1   2
BRANCH   1  25
HETATM   25  C8  UNL     1      15.283 -13.071  25.730  1.00  0.00     0.167 A 
HETATM   26  N3  UNL     1      15.659 -11.890  25.450  1.00  0.00    -0.328 N 
HETATM   27  C9  UNL     1      15.657 -10.801  25.935  1.00  0.00     0.153 A 
ATOM     28  H3  UNL     1      16.096 -11.866  24.529  1.00  0.00     0.168 HD
HETATM   29  C14 UNL     1      14.928 -11.543  27.230  1.00  0.00     0.168 A 
HETATM   30  N7  UNL     1      14.772 -12.799  26.968  1.00  0.00    -0.231 N 
BRANCH  27  31
HETATM   31  C10 UNL     1      15.655  -9.427  26.547  1.00  0.00     0.348 C 
HETATM   32  O2  UNL     1      16.601  -9.189  27.371  1.00  0.00    -0.249 OA
HETATM   33  N4  UNL     1      14.779  -8.462  26.265  1.00  0.00    -0.321 NA
BRANCH  33  34
HETATM   34  C11 UNL     1      14.053  -7.683  25.719  1.00  0.00     0.327 A 
HETATM   35  N5  UNL     1      12.767  -7.734  25.343  1.00  0.00    -0.297 N 
HETATM   36  C12 UNL     1      12.389  -6.586  24.782  1.00  0.00     0.102 A 
ATOM     37  H5  UNL     1      12.159  -8.543  25.471  1.00  0.00     0.172 HD
HETATM   38  C13 UNL     1      11.052  -6.162  24.241  1.00  0.00     0.091 C 
HETATM   39  N6  UNL     1      13.507  -5.798  24.813  1.00  0.00    -0.245 N 
HETATM   40  O3  UNL     1      14.450  -6.445  25.350  1.00  0.00    -0.186 OA
ATOM     41  H6  UNL     1      13.570  -4.844  24.459  1.00  0.00     0.196 HD
ENDBRANCH  33  34
ENDBRANCH  27  31
BRANCH  29  42
HETATM   42  C15 UNL     1      14.808 -10.946  28.522  1.00  0.00     0.231 C 
HETATM   43  O4  UNL     1      15.696 -11.371  29.510  1.00  0.00    -0.643 OA
HETATM   44  O5  UNL     1      13.656 -10.314  28.934  1.00  0.00    -0.643 OA
ENDBRANCH  29  42
BRANCH  30  45
HETATM   45  N8  UNL     1      14.175 -13.777  27.783  1.00  0.00    -0.336 N 
ATOM     46  H82 UNL     1      14.640 -14.521  28.303  1.00  0.00     0.177 HD
ATOM     47  H81 UNL     1      13.168 -13.832  27.939  1.00  0.00     0.177 HD
ENDBRANCH  30  45
ENDBRANCH   1  25
TORSDOF 12
ENDMDL
