MODEL 1
REMARK VINA RESULT: -8.873883534      0.000      0.000
REMARK  12 active torsions:
REMARK  status: ('A' for Active; 'I' for Inactive)
REMARK    1  A    between atoms: N1_2  and  C3_4 
REMARK    2  A    between atoms: C6_11  and  C7_12 
REMARK    3  A    between atoms: C7_12  and  N4_13 
REMARK    4  A    between atoms: C7_12  and  C8_17 
REMARK    5  A    between atoms: N4_13  and  N5_14 
REMARK       I    between atoms: N8_21  and  C9_22 
REMARK    6  A    between atoms: C9_22  and  C10_24 
REMARK    7  A    between atoms: C10_24  and  O2_25 
REMARK    8  A    between atoms: C10_24  and  C11_27 
REMARK    9  A    between atoms: C12_29  and  O4_30 
REMARK   10  A    between atoms: C13_32  and  N9_33 
REMARK       I    between atoms: N9_33  and  C14_35 
REMARK   11  A    between atoms: C14_35  and  C15_37 
REMARK   12  A    between atoms: C18_48  and  O6_49 
ROOT
HETATM    1  C10 UNL     1      21.810 -12.586  22.460  1.00  0.00     0.244 C 
ENDROOT
BRANCH   1   2
HETATM    2  C9  UNL     1      22.008 -14.041  22.675  1.00  0.00     0.287 C 
HETATM    3  N8  UNL     1      23.120 -14.557  23.394  1.00  0.00    -0.141 N 
HETATM    4  N7  UNL     1      24.062 -13.800  23.926  1.00  0.00     0.005 NA
HETATM    5  N14 UNL     1      23.397 -15.841  23.649  1.00  0.00    -0.264 N 
HETATM    6  N6  UNL     1      24.946 -14.587  24.523  1.00  0.00    -0.268 N 
HETATM    7  C8  UNL     1      24.522 -15.846  24.344  1.00  0.00     0.138 A 
ATOM      8  H6  UNL     1      25.786 -14.291  25.022  1.00  0.00     0.185 HD
ATOM      9  H14 UNL     1      22.849 -16.654  23.365  1.00  0.00     0.190 HD
HETATM   10  O1  UNL     1      21.140 -14.836  22.190  1.00  0.00    -0.267 OA
BRANCH   7  11
HETATM   11  C7  UNL     1      25.310 -17.023  24.908  1.00  0.00     0.222 C 
BRANCH  11  12
HETATM   12  C6  UNL     1      25.315 -16.836  26.375  1.00  0.00     0.082 A 
HETATM   13  C3  UNL     1      26.181 -17.422  27.255  1.00  0.00     0.127 A 
HETATM   14  N2  UNL     1      26.038 -17.074  28.583  1.00  0.00    -0.349 N 
HETATM   15  C4  UNL     1      25.117 -16.221  29.023  1.00  0.00     0.106 A 
ATOM     16  H2  UNL     1      26.672 -17.494  29.263  1.00  0.00     0.167 HD
HETATM   17  C5  UNL     1      24.244 -15.636  28.134  1.00  0.00     0.105 A 
HETATM   18  N3  UNL     1      24.369 -15.959  26.846  1.00  0.00    -0.363 N 
ATOM     19  H3  UNL     1      23.729 -15.532  26.176  1.00  0.00     0.165 HD
BRANCH  13  20
HETATM   20  N1  UNL     1      27.161 -18.372  26.903  1.00  0.00    -0.374 N 
HETATM   21  C1  UNL     1      27.018 -19.689  27.567  1.00  0.00     0.150 C 
HETATM   22  C2  UNL     1      28.238 -18.284  25.977  1.00  0.00     0.150 C 
ENDBRANCH  13  20
ENDBRANCH  11  12
BRANCH  11  23
HETATM   23  N4  UNL     1      24.461 -18.180  24.610  1.00  0.00    -0.129 NA
BRANCH  23  24
HETATM   24  N5  UNL     1      25.201 -19.208  24.012  1.00  0.00    -0.347 N 
ATOM     25  H52 UNL     1      25.606 -19.143  23.079  1.00  0.00     0.172 HD
ATOM     26  H51 UNL     1      25.274 -20.015  24.631  1.00  0.00     0.172 HD
ENDBRANCH  23  24
ENDBRANCH  11  23
ENDBRANCH   7  11
ENDBRANCH   1   2
BRANCH   1  27
HETATM   27  O2  UNL     1      23.032 -11.935  22.337  1.00  0.00    -0.383 OA
ATOM     28  H2  UNL     1      23.497 -12.234  21.564  1.00  0.00     0.210 HD
ENDBRANCH   1  27
BRANCH   1  29
HETATM   29  C11 UNL     1      21.103 -11.952  23.643  1.00  0.00     0.193 C 
HETATM   30  O3  UNL     1      21.873 -10.976  24.245  1.00  0.00    -0.348 OA
HETATM   31  C12 UNL     1      20.952 -10.300  25.043  1.00  0.00     0.282 C 
HETATM   32  C13 UNL     1      19.759 -10.029  24.154  1.00  0.00     0.171 C 
HETATM   33  C18 UNL     1      19.888 -11.169  23.151  1.00  0.00     0.177 C 
BRANCH  31  34
HETATM   34  O4  UNL     1      20.545 -11.110  26.113  1.00  0.00    -0.369 OA
ATOM     35  H4  UNL     1      20.105 -10.589  26.774  1.00  0.00     0.212 HD
ENDBRANCH  31  34
BRANCH  32  36
HETATM   36  N9  UNL     1      18.498 -10.155  24.888  1.00  0.00    -0.344 N 
HETATM   37  C14 UNL     1      17.862  -9.035  25.471  1.00  0.00     0.272 C 
HETATM   38  O5  UNL     1      18.408  -7.892  25.349  1.00  0.00    -0.266 OA
ATOM     39  H9  UNL     1      18.067 -11.075  24.981  1.00  0.00     0.163 HD
BRANCH  37  40
HETATM   40  C15 UNL     1      16.615  -9.212  26.189  1.00  0.00     0.158 A 
HETATM   41  N10 UNL     1      16.460  -9.883  27.337  1.00  0.00    -0.183 N 
HETATM   42  C16 UNL     1      15.147  -9.830  27.696  1.00  0.00     0.677 A 
ATOM     43  H10 UNL     1      17.200 -10.355  27.856  1.00  0.00     0.184 HD
HETATM   44  N11 UNL     1      14.611 -10.352  28.733  1.00  0.00    -0.234 N 
HETATM   45  N12 UNL     1      14.508  -9.120  26.755  1.00  0.00    -0.177 N 
ATOM     46 2H11 UNL     1      15.098 -10.892  29.449  1.00  0.00     0.174 HD
ATOM     47 1H11 UNL     1      13.628 -10.312  29.002  1.00  0.00     0.174 HD
HETATM   48  C17 UNL     1      15.376  -8.724  25.812  1.00  0.00     0.164 A 
ATOM     49  H12 UNL     1      13.509  -8.911  26.756  1.00  0.00     0.185 HD
HETATM   50  N13 UNL     1      15.094  -7.959  24.658  1.00  0.00    -0.080 NA
ENDBRANCH  37  40
ENDBRANCH  32  36
BRANCH  33  51
HETATM   51  O6  UNL     1      18.762 -11.990  23.151  1.00  0.00    -0.391 OA
ATOM     52  H6  UNL     1      18.176 -11.735  22.448  1.00  0.00     0.210 HD
ENDBRANCH  33  51
ENDBRANCH   1  29
TORSDOF 12
ENDMDL
MODEL 2
REMARK VINA RESULT: -8.791930935      2.013      3.706
REMARK  12 active torsions:
REMARK  status: ('A' for Active; 'I' for Inactive)
REMARK    1  A    between atoms: N1_2  and  C3_4 
REMARK    2  A    between atoms: C6_11  and  C7_12 
REMARK    3  A    between atoms: C7_12  and  N4_13 
REMARK    4  A    between atoms: C7_12  and  C8_17 
REMARK    5  A    between atoms: N4_13  and  N5_14 
REMARK       I    between atoms: N8_21  and  C9_22 
REMARK    6  A    between atoms: C9_22  and  C10_24 
REMARK    7  A    between atoms: C10_24  and  O2_25 
REMARK    8  A    between atoms: C10_24  and  C11_27 
REMARK    9  A    between atoms: C12_29  and  O4_30 
REMARK   10  A    between atoms: C13_32  and  N9_33 
REMARK       I    between atoms: N9_33  and  C14_35 
REMARK   11  A    between atoms: C14_35  and  C15_37 
REMARK   12  A    between atoms: C18_48  and  O6_49 
ROOT
HETATM    1  C10 UNL     1      22.629 -10.035  25.595  1.00  0.00     0.244 C 
ENDROOT
BRANCH   1   2
HETATM    2  C9  UNL     1      23.126 -11.413  25.830  1.00  0.00     0.287 C 
HETATM    3  N8  UNL     1      23.847 -12.138  24.843  1.00  0.00    -0.141 N 
HETATM    4  N7  UNL     1      24.133 -11.658  23.646  1.00  0.00     0.005 NA
HETATM    5  N14 UNL     1      24.341 -13.378  24.945  1.00  0.00    -0.264 N 
HETATM    6  N6  UNL     1      24.809 -12.580  22.974  1.00  0.00    -0.268 N 
HETATM    7  C8  UNL     1      24.930 -13.637  23.790  1.00  0.00     0.138 A 
ATOM      8  H6  UNL     1      25.167 -12.500  22.022  1.00  0.00     0.185 HD
ATOM      9  H14 UNL     1      24.277 -13.997  25.752  1.00  0.00     0.190 HD
HETATM   10  O1  UNL     1      22.888 -11.945  26.962  1.00  0.00    -0.267 OA
BRANCH   7  11
HETATM   11  C7  UNL     1      25.663 -14.894  23.334  1.00  0.00     0.222 C 
BRANCH  11  12
HETATM   12  C6  UNL     1      24.631 -15.950  23.247  1.00  0.00     0.082 A 
HETATM   13  C3  UNL     1      24.437 -16.958  24.150  1.00  0.00     0.127 A 
HETATM   14  N2  UNL     1      23.384 -17.814  23.899  1.00  0.00    -0.349 N 
HETATM   15  C4  UNL     1      22.580 -17.700  22.845  1.00  0.00     0.106 A 
ATOM     16  H2  UNL     1      23.213 -18.575  24.557  1.00  0.00     0.167 HD
HETATM   17  C5  UNL     1      22.781 -16.686  21.936  1.00  0.00     0.105 A 
HETATM   18  N3  UNL     1      23.793 -15.847  22.163  1.00  0.00    -0.363 N 
ATOM     19  H3  UNL     1      23.953 -15.091  21.498  1.00  0.00     0.165 HD
BRANCH  13  20
HETATM   20  N1  UNL     1      25.256 -17.197  25.272  1.00  0.00    -0.374 N 
HETATM   21  C1  UNL     1      24.729 -16.665  26.551  1.00  0.00     0.150 C 
HETATM   22  C2  UNL     1      26.484 -17.907  25.381  1.00  0.00     0.150 C 
ENDBRANCH  13  20
ENDBRANCH  11  12
BRANCH  11  23
HETATM   23  N4  UNL     1      26.083 -14.571  21.967  1.00  0.00    -0.129 NA
BRANCH  23  24
HETATM   24  N5  UNL     1      27.204 -15.323  21.593  1.00  0.00    -0.347 N 
ATOM     25  H52 UNL     1      27.148 -16.222  21.114  1.00  0.00     0.172 HD
ATOM     26  H51 UNL     1      28.068 -14.853  21.862  1.00  0.00     0.172 HD
ENDBRANCH  23  24
ENDBRANCH  11  23
ENDBRANCH   7  11
ENDBRANCH   1   2
BRANCH   1  27
HETATM   27  O2  UNL     1      22.502  -9.345  26.796  1.00  0.00    -0.383 OA
ATOM     28  H2  UNL     1      21.719  -9.618  27.259  1.00  0.00     0.210 HD
ENDBRANCH   1  27
BRANCH   1  29
HETATM   29  C11 UNL     1      21.248 -10.055  24.964  1.00  0.00     0.193 C 
HETATM   30  O3  UNL     1      20.968 -11.268  24.367  1.00  0.00    -0.348 OA
HETATM   31  C12 UNL     1      19.589 -11.209  24.173  1.00  0.00     0.282 C 
HETATM   32  C13 UNL     1      19.009 -10.743  25.489  1.00  0.00     0.171 C 
HETATM   33  C18 UNL     1      20.187  -9.962  26.059  1.00  0.00     0.177 C 
BRANCH  31  34
HETATM   34  O4  UNL     1      19.275 -10.269  23.181  1.00  0.00    -0.369 OA
ATOM     35  H4  UNL     1      18.549  -9.724  23.459  1.00  0.00     0.212 HD
ENDBRANCH  31  34
BRANCH  32  36
HETATM   36  N9  UNL     1      17.869  -9.843  25.289  1.00  0.00    -0.344 N 
HETATM   37  C14 UNL     1      16.677  -9.975  26.038  1.00  0.00     0.272 C 
HETATM   38  O5  UNL     1      16.603 -10.902  26.906  1.00  0.00    -0.266 OA
ATOM     39  H9  UNL     1      17.938  -9.102  24.591  1.00  0.00     0.163 HD
BRANCH  37  40
HETATM   40  C15 UNL     1      15.578  -9.060  25.801  1.00  0.00     0.158 A 
HETATM   41  N10 UNL     1      15.688  -7.794  25.380  1.00  0.00    -0.183 N 
HETATM   42  C16 UNL     1      14.439  -7.261  25.279  1.00  0.00     0.677 A 
ATOM     43  H10 UNL     1      16.561  -7.310  25.170  1.00  0.00     0.184 HD
HETATM   44  N11 UNL     1      14.137  -6.075  24.906  1.00  0.00    -0.234 N 
HETATM   45  N12 UNL     1      13.571  -8.215  25.642  1.00  0.00    -0.177 N 
ATOM     46 2H11 UNL     1      14.798  -5.349  24.630  1.00  0.00     0.174 HD
ATOM     47 1H11 UNL     1      13.201  -5.675  24.831  1.00  0.00     0.174 HD
HETATM   48  C17 UNL     1      14.232  -9.335  25.971  1.00  0.00     0.164 A 
ATOM     49  H12 UNL     1      12.557  -8.106  25.665  1.00  0.00     0.185 HD
HETATM   50  N13 UNL     1      13.676 -10.559  26.405  1.00  0.00    -0.080 NA
ENDBRANCH  37  40
ENDBRANCH  32  36
BRANCH  33  51
HETATM   51  O6  UNL     1      19.862  -8.628  26.294  1.00  0.00    -0.391 OA
ATOM     52  H6  UNL     1      19.372  -8.280  25.559  1.00  0.00     0.210 HD
ENDBRANCH  33  51
ENDBRANCH   1  29
TORSDOF 12
ENDMDL
MODEL 3
REMARK VINA RESULT: -8.667767446      2.399      3.947
REMARK  12 active torsions:
REMARK  status: ('A' for Active; 'I' for Inactive)
REMARK    1  A    between atoms: N1_2  and  C3_4 
REMARK    2  A    between atoms: C6_11  and  C7_12 
REMARK    3  A    between atoms: C7_12  and  N4_13 
REMARK    4  A    between atoms: C7_12  and  C8_17 
REMARK    5  A    between atoms: N4_13  and  N5_14 
REMARK       I    between atoms: N8_21  and  C9_22 
REMARK    6  A    between atoms: C9_22  and  C10_24 
REMARK    7  A    between atoms: C10_24  and  O2_25 
REMARK    8  A    between atoms: C10_24  and  C11_27 
REMARK    9  A    between atoms: C12_29  and  O4_30 
REMARK   10  A    between atoms: C13_32  and  N9_33 
REMARK       I    between atoms: N9_33  and  C14_35 
REMARK   11  A    between atoms: C14_35  and  C15_37 
REMARK   12  A    between atoms: C18_48  and  O6_49 
ROOT
HETATM    1  C10 UNL     1      19.567 -10.222  23.524  1.00  0.00     0.244 C 
ENDROOT
BRANCH   1   2
HETATM    2  C9  UNL     1      20.364 -11.458  23.325  1.00  0.00     0.287 C 
HETATM    3  N8  UNL     1      21.712 -11.569  23.762  1.00  0.00    -0.141 N 
HETATM    4  N7  UNL     1      22.366 -10.597  24.372  1.00  0.00     0.005 NA
HETATM    5  N14 UNL     1      22.520 -12.628  23.638  1.00  0.00    -0.264 N 
HETATM    6  N6  UNL     1      23.592 -11.022  24.643  1.00  0.00    -0.268 N 
HETATM    7  C8  UNL     1      23.673 -12.279  24.184  1.00  0.00     0.138 A 
ATOM      8  H6  UNL     1      24.330 -10.495  25.111  1.00  0.00     0.185 HD
ATOM      9  H14 UNL     1      22.293 -13.525  23.209  1.00  0.00     0.190 HD
HETATM   10  O1  UNL     1      19.801 -12.439  22.742  1.00  0.00    -0.267 OA
BRANCH   7  11
HETATM   11  C7  UNL     1      24.961 -13.082  24.331  1.00  0.00     0.222 C 
BRANCH  11  12
HETATM   12  C6  UNL     1      24.659 -14.149  25.309  1.00  0.00     0.082 A 
HETATM   13  C3  UNL     1      24.758 -14.044  26.668  1.00  0.00     0.127 A 
HETATM   14  N2  UNL     1      24.383 -15.151  27.401  1.00  0.00    -0.349 N 
HETATM   15  C4  UNL     1      23.945 -16.280  26.851  1.00  0.00     0.106 A 
ATOM     16  H2  UNL     1      24.445 -15.101  28.417  1.00  0.00     0.167 HD
HETATM   17  C5  UNL     1      23.849 -16.385  25.482  1.00  0.00     0.105 A 
HETATM   18  N3  UNL     1      24.206 -15.323  24.758  1.00  0.00    -0.363 N 
ATOM     19  H3  UNL     1      24.139 -15.386  23.742  1.00  0.00     0.165 HD
BRANCH  13  20
HETATM   20  N1  UNL     1      25.253 -12.913  27.349  1.00  0.00    -0.374 N 
HETATM   21  C1  UNL     1      24.252 -11.848  27.598  1.00  0.00     0.150 C 
HETATM   22  C2  UNL     1      26.548 -12.650  27.877  1.00  0.00     0.150 C 
ENDBRANCH  13  20
ENDBRANCH  11  12
BRANCH  11  23
HETATM   23  N4  UNL     1      25.123 -13.715  23.019  1.00  0.00    -0.129 NA
BRANCH  23  24
HETATM   24  N5  UNL     1      26.401 -14.273  22.882  1.00  0.00    -0.347 N 
ATOM     25  H52 UNL     1      27.209 -13.755  22.538  1.00  0.00     0.172 HD
ATOM     26  H51 UNL     1      26.407 -15.251  23.170  1.00  0.00     0.172 HD
ENDBRANCH  23  24
ENDBRANCH  11  23
ENDBRANCH   7  11
ENDBRANCH   1   2
BRANCH   1  27
HETATM   27  O2  UNL     1      20.324  -9.093  23.229  1.00  0.00    -0.383 OA
ATOM     28  H2  UNL     1      20.682  -8.712  24.022  1.00  0.00     0.210 HD
ENDBRANCH   1  27
BRANCH   1  29
HETATM   29  C11 UNL     1      19.132 -10.080  24.971  1.00  0.00     0.193 C 
HETATM   30  O3  UNL     1      19.383  -8.816  25.467  1.00  0.00    -0.348 OA
HETATM   31  C12 UNL     1      18.621  -8.783  26.634  1.00  0.00     0.282 C 
HETATM   32  C13 UNL     1      17.255  -9.300  26.247  1.00  0.00     0.171 C 
HETATM   33  C18 UNL     1      17.611 -10.183  25.058  1.00  0.00     0.177 C 
BRANCH  31  34
HETATM   34  O4  UNL     1      19.173  -9.635  27.601  1.00  0.00    -0.369 OA
ATOM     35  H4  UNL     1      19.268  -9.179  28.429  1.00  0.00     0.212 HD
ENDBRANCH  31  34
BRANCH  32  36
HETATM   36  N9  UNL     1      16.665 -10.117  27.312  1.00  0.00    -0.344 N 
HETATM   37  C14 UNL     1      15.316 -10.536  27.267  1.00  0.00     0.272 C 
HETATM   38  O5  UNL     1      14.604 -10.190  26.272  1.00  0.00    -0.266 OA
ATOM     39  H9  UNL     1      17.244 -10.390  28.106  1.00  0.00     0.163 HD
BRANCH  37  40
HETATM   40  C15 UNL     1      14.781 -11.342  28.346  1.00  0.00     0.158 A 
HETATM   41  N10 UNL     1      15.401 -11.621  29.499  1.00  0.00    -0.183 N 
HETATM   42  C16 UNL     1      14.581 -12.404  30.254  1.00  0.00     0.677 A 
ATOM     43  H10 UNL     1      16.331 -11.302  29.767  1.00  0.00     0.184 HD
HETATM   44  N11 UNL     1      14.824 -12.873  31.419  1.00  0.00    -0.234 N 
HETATM   45  N12 UNL     1      13.458 -12.597  29.548  1.00  0.00    -0.177 N 
ATOM     46 2H11 UNL     1      15.679 -12.726  31.956  1.00  0.00     0.174 HD
ATOM     47 1H11 UNL     1      14.211 -13.460  31.985  1.00  0.00     0.174 HD
HETATM   48  C17 UNL     1      13.542 -11.961  28.370  1.00  0.00     0.164 A 
ATOM     49  H12 UNL     1      12.657 -13.146  29.861  1.00  0.00     0.185 HD
HETATM   50  N13 UNL     1      12.568 -11.922  27.348  1.00  0.00    -0.080 NA
ENDBRANCH  37  40
ENDBRANCH  32  36
BRANCH  33  51
HETATM   51  O6  UNL     1      17.235 -11.509  25.264  1.00  0.00    -0.391 OA
ATOM     52  H6  UNL     1      17.051 -11.654  26.185  1.00  0.00     0.210 HD
ENDBRANCH  33  51
ENDBRANCH   1  29
TORSDOF 12
ENDMDL
MODEL 4
REMARK VINA RESULT: -8.662524022      3.251      5.807
REMARK  12 active torsions:
REMARK  status: ('A' for Active; 'I' for Inactive)
REMARK    1  A    between atoms: N1_2  and  C3_4 
REMARK    2  A    between atoms: C6_11  and  C7_12 
REMARK    3  A    between atoms: C7_12  and  N4_13 
REMARK    4  A    between atoms: C7_12  and  C8_17 
REMARK    5  A    between atoms: N4_13  and  N5_14 
REMARK       I    between atoms: N8_21  and  C9_22 
REMARK    6  A    between atoms: C9_22  and  C10_24 
REMARK    7  A    between atoms: C10_24  and  O2_25 
REMARK    8  A    between atoms: C10_24  and  C11_27 
REMARK    9  A    between atoms: C12_29  and  O4_30 
REMARK   10  A    between atoms: C13_32  and  N9_33 
REMARK       I    between atoms: N9_33  and  C14_35 
REMARK   11  A    between atoms: C14_35  and  C15_37 
REMARK   12  A    between atoms: C18_48  and  O6_49 
ROOT
HETATM    1  C10 UNL     1      18.523  -8.940  24.975  1.00  0.00     0.244 C 
ENDROOT
BRANCH   1   2
HETATM    2  C9  UNL     1      19.234 -10.236  24.847  1.00  0.00     0.287 C 
HETATM    3  N8  UNL     1      20.494 -10.474  25.459  1.00  0.00    -0.141 N 
HETATM    4  N7  UNL     1      21.136  -9.577  26.184  1.00  0.00     0.005 NA
HETATM    5  N14 UNL     1      21.220 -11.598  25.412  1.00  0.00    -0.264 N 
HETATM    6  N6  UNL     1      22.272 -10.113  26.607  1.00  0.00    -0.268 N 
HETATM    7  C8  UNL     1      22.311 -11.362  26.122  1.00  0.00     0.138 A 
ATOM      8  H6  UNL     1      22.980  -9.663  27.188  1.00  0.00     0.185 HD
ATOM      9  H14 UNL     1      20.980 -12.462  24.927  1.00  0.00     0.190 HD
HETATM   10  O1  UNL     1      18.677 -11.152  24.160  1.00  0.00    -0.267 OA
BRANCH   7  11
HETATM   11  C7  UNL     1      23.494 -12.278  26.416  1.00  0.00     0.222 C 
BRANCH  11  12
HETATM   12  C6  UNL     1      24.084 -12.606  25.100  1.00  0.00     0.082 A 
HETATM   13  C3  UNL     1      24.387 -13.860  24.647  1.00  0.00     0.127 A 
HETATM   14  N2  UNL     1      24.892 -13.946  23.366  1.00  0.00    -0.349 N 
HETATM   15  C4  UNL     1      25.090 -12.889  22.583  1.00  0.00     0.106 A 
ATOM     16  H2  UNL     1      25.125 -14.869  23.000  1.00  0.00     0.167 HD
HETATM   17  C5  UNL     1      24.786 -11.628  23.043  1.00  0.00     0.105 A 
HETATM   18  N3  UNL     1      24.296 -11.526  24.279  1.00  0.00    -0.363 N 
ATOM     19  H3  UNL     1      24.066 -10.597  24.633  1.00  0.00     0.165 HD
BRANCH  13  20
HETATM   20  N1  UNL     1      24.261 -15.039  25.410  1.00  0.00    -0.374 N 
HETATM   21  C1  UNL     1      23.553 -16.149  24.727  1.00  0.00     0.150 C 
HETATM   22  C2  UNL     1      24.744 -15.351  26.711  1.00  0.00     0.150 C 
ENDBRANCH  13  20
ENDBRANCH  11  12
BRANCH  11  23
HETATM   23  N4  UNL     1      24.438 -11.405  27.120  1.00  0.00    -0.129 NA
BRANCH  23  24
HETATM   24  N5  UNL     1      25.596 -12.104  27.485  1.00  0.00    -0.347 N 
ATOM     25  H52 UNL     1      25.602 -12.879  28.148  1.00  0.00     0.172 HD
ATOM     26  H51 UNL     1      26.415 -11.735  27.003  1.00  0.00     0.172 HD
ENDBRANCH  23  24
ENDBRANCH  11  23
ENDBRANCH   7  11
ENDBRANCH   1   2
BRANCH   1  27
HETATM   27  O2  UNL     1      18.929  -8.267  26.123  1.00  0.00    -0.383 OA
ATOM     28  H2  UNL     1      18.194  -8.132  26.710  1.00  0.00     0.210 HD
ENDBRANCH   1  27
BRANCH   1  29
HETATM   29  C11 UNL     1      17.026  -9.150  25.108  1.00  0.00     0.193 C 
HETATM   30  O3  UNL     1      16.701  -9.866  26.243  1.00  0.00    -0.348 OA
HETATM   31  C12 UNL     1      15.330  -9.651  26.365  1.00  0.00     0.282 C 
HETATM   32  C13 UNL     1      15.132  -8.161  26.201  1.00  0.00     0.171 C 
HETATM   33  C18 UNL     1      16.343  -7.806  25.348  1.00  0.00     0.177 C 
BRANCH  31  34
HETATM   34  O4  UNL     1      14.638 -10.316  25.343  1.00  0.00    -0.369 OA
ATOM     35  H4  UNL     1      14.015 -10.931  25.711  1.00  0.00     0.212 HD
ENDBRANCH  31  34
BRANCH  32  36
HETATM   36  N9  UNL     1      13.901  -7.857  25.466  1.00  0.00    -0.344 N 
HETATM   37  C14 UNL     1      13.485  -6.527  25.231  1.00  0.00     0.272 C 
HETATM   38  O5  UNL     1      14.205  -5.576  25.672  1.00  0.00    -0.266 OA
ATOM     39  H9  UNL     1      13.329  -8.626  25.115  1.00  0.00     0.163 HD
BRANCH  37  40
HETATM   40  C15 UNL     1      12.258  -6.280  24.499  1.00  0.00     0.158 A 
HETATM   41  N10 UNL     1      11.535  -7.199  23.847  1.00  0.00    -0.183 N 
HETATM   42  C16 UNL     1      10.458  -6.584  23.285  1.00  0.00     0.677 A 
ATOM     43  H10 UNL     1      11.753  -8.193  23.783  1.00  0.00     0.184 HD
HETATM   44  N11 UNL     1       9.537  -7.131  22.585  1.00  0.00    -0.234 N 
HETATM   45  N12 UNL     1      10.534  -5.283  23.602  1.00  0.00    -0.177 N 
ATOM     46 2H11 UNL     1       9.479  -8.121  22.344  1.00  0.00     0.174 HD
ATOM     47 1H11 UNL     1       8.731  -6.671  22.163  1.00  0.00     0.174 HD
HETATM   48  C17 UNL     1      11.627  -5.057  24.346  1.00  0.00     0.164 A 
ATOM     49  H12 UNL     1       9.861  -4.571  23.319  1.00  0.00     0.185 HD
HETATM   50  N13 UNL     1      12.059  -3.821  24.876  1.00  0.00    -0.080 NA
ENDBRANCH  37  40
ENDBRANCH  32  36
BRANCH  33  51
HETATM   51  O6  UNL     1      15.972  -7.237  24.131  1.00  0.00    -0.391 OA
ATOM     52  H6  UNL     1      15.032  -7.098  24.112  1.00  0.00     0.210 HD
ENDBRANCH  33  51
ENDBRANCH   1  29
TORSDOF 12
ENDMDL
MODEL 5
REMARK VINA RESULT: -8.633682562      2.247      3.603
REMARK  12 active torsions:
REMARK  status: ('A' for Active; 'I' for Inactive)
REMARK    1  A    between atoms: N1_2  and  C3_4 
REMARK    2  A    between atoms: C6_11  and  C7_12 
REMARK    3  A    between atoms: C7_12  and  N4_13 
REMARK    4  A    between atoms: C7_12  and  C8_17 
REMARK    5  A    between atoms: N4_13  and  N5_14 
REMARK       I    between atoms: N8_21  and  C9_22 
REMARK    6  A    between atoms: C9_22  and  C10_24 
REMARK    7  A    between atoms: C10_24  and  O2_25 
REMARK    8  A    between atoms: C10_24  and  C11_27 
REMARK    9  A    between atoms: C12_29  and  O4_30 
REMARK   10  A    between atoms: C13_32  and  N9_33 
REMARK       I    between atoms: N9_33  and  C14_35 
REMARK   11  A    between atoms: C14_35  and  C15_37 
REMARK   12  A    between atoms: C18_48  and  O6_49 
ROOT
HETATM    1  C10 UNL     1      22.429 -10.220  25.410  1.00  0.00     0.244 C 
ENDROOT
BRANCH   1   2
HETATM    2  C9  UNL     1      22.927 -11.601  25.622  1.00  0.00     0.287 C 
HETATM    3  N8  UNL     1      23.684 -12.294  24.640  1.00  0.00    -0.141 N 
HETATM    4  N7  UNL     1      24.007 -11.779  23.467  1.00  0.00     0.005 NA
HETATM    5  N14 UNL     1      24.182 -13.534  24.724  1.00  0.00    -0.264 N 
HETATM    6  N6  UNL     1      24.710 -12.678  22.793  1.00  0.00    -0.268 N 
HETATM    7  C8  UNL     1      24.811 -13.758  23.582  1.00  0.00     0.138 A 
ATOM      8  H6  UNL     1      25.099 -12.570  21.856  1.00  0.00     0.185 HD
ATOM      9  H14 UNL     1      24.095 -14.177  25.511  1.00  0.00     0.190 HD
HETATM   10  O1  UNL     1      22.654 -12.166  26.730  1.00  0.00    -0.267 OA
BRANCH   7  11
HETATM   11  C7  UNL     1      25.565 -14.998  23.116  1.00  0.00     0.222 C 
BRANCH  11  12
HETATM   12  C6  UNL     1      24.558 -16.079  23.051  1.00  0.00     0.082 A 
HETATM   13  C3  UNL     1      24.387 -17.073  23.973  1.00  0.00     0.127 A 
HETATM   14  N2  UNL     1      23.354 -17.958  23.741  1.00  0.00    -0.349 N 
HETATM   15  C4  UNL     1      22.548 -17.883  22.685  1.00  0.00     0.106 A 
ATOM     16  H2  UNL     1      23.202 -18.709  24.413  1.00  0.00     0.167 HD
HETATM   17  C5  UNL     1      22.725 -16.883  21.756  1.00  0.00     0.105 A 
HETATM   18  N3  UNL     1      23.718 -16.017  21.966  1.00  0.00    -0.363 N 
ATOM     19  H3  UNL     1      23.859 -15.271  21.286  1.00  0.00     0.165 HD
BRANCH  13  20
HETATM   20  N1  UNL     1      25.212 -17.271  25.100  1.00  0.00    -0.374 N 
HETATM   21  C1  UNL     1      24.659 -16.755  26.374  1.00  0.00     0.150 C 
HETATM   22  C2  UNL     1      26.469 -17.927  25.216  1.00  0.00     0.150 C 
ENDBRANCH  13  20
ENDBRANCH  11  12
BRANCH  11  23
HETATM   23  N4  UNL     1      25.952 -14.669  21.741  1.00  0.00    -0.129 NA
BRANCH  23  24
HETATM   24  N5  UNL     1      27.142 -15.315  21.383  1.00  0.00    -0.347 N 
ATOM     25  H52 UNL     1      27.182 -16.273  21.036  1.00  0.00     0.172 HD
ATOM     26  H51 UNL     1      27.946 -14.703  21.516  1.00  0.00     0.172 HD
ENDBRANCH  23  24
ENDBRANCH  11  23
ENDBRANCH   7  11
ENDBRANCH   1   2
BRANCH   1  27
HETATM   27  O2  UNL     1      23.262  -9.294  26.030  1.00  0.00    -0.383 OA
ATOM     28  H2  UNL     1      23.587  -8.660  25.402  1.00  0.00     0.210 HD
ENDBRANCH   1  27
BRANCH   1  29
HETATM   29  C11 UNL     1      21.053 -10.036  26.023  1.00  0.00     0.193 C 
HETATM   30  O3  UNL     1      20.851  -8.744  26.467  1.00  0.00    -0.348 OA
HETATM   31  C12 UNL     1      19.471  -8.692  26.656  1.00  0.00     0.282 C 
HETATM   32  C13 UNL     1      18.862  -9.276  25.401  1.00  0.00     0.171 C 
HETATM   33  C18 UNL     1      19.988 -10.193  24.939  1.00  0.00     0.177 C 
BRANCH  31  34
HETATM   34  O4  UNL     1      19.098  -9.483  27.752  1.00  0.00    -0.369 OA
ATOM     35  H4  UNL     1      18.992 -10.388  27.485  1.00  0.00     0.212 HD
ENDBRANCH  31  34
BRANCH  32  36
HETATM   36  N9  UNL     1      17.667 -10.071  25.700  1.00  0.00    -0.344 N 
HETATM   37  C14 UNL     1      16.366  -9.583  25.440  1.00  0.00     0.272 C 
HETATM   38  O5  UNL     1      16.240  -8.423  24.934  1.00  0.00    -0.266 OA
ATOM     39  H9  UNL     1      17.778 -11.000  26.106  1.00  0.00     0.163 HD
BRANCH  37  40
HETATM   40  C15 UNL     1      15.217 -10.408  25.755  1.00  0.00     0.158 A 
HETATM   41  N10 UNL     1      14.116 -10.005  26.402  1.00  0.00    -0.183 N 
HETATM   42  C16 UNL     1      13.264 -11.062  26.508  1.00  0.00     0.677 A 
ATOM     43  H10 UNL     1      13.943  -9.064  26.756  1.00  0.00     0.184 HD
HETATM   44  N11 UNL     1      12.110 -11.069  27.061  1.00  0.00    -0.234 N 
HETATM   45  N12 UNL     1      13.858 -12.110  25.920  1.00  0.00    -0.177 N 
ATOM     46 2H11 UNL     1      11.658 -10.271  27.508  1.00  0.00     0.174 HD
ATOM     47 1H11 UNL     1      11.472 -11.861  27.140  1.00  0.00     0.174 HD
HETATM   48  C17 UNL     1      15.060 -11.748  25.446  1.00  0.00     0.164 A 
ATOM     49  H12 UNL     1      13.457 -13.045  25.843  1.00  0.00     0.185 HD
HETATM   50  N13 UNL     1      15.991 -12.563  24.763  1.00  0.00    -0.080 NA
ENDBRANCH  37  40
ENDBRANCH  32  36
BRANCH  33  51
HETATM   51  O6  UNL     1      19.578 -11.523  24.865  1.00  0.00    -0.391 OA
ATOM     52  H6  UNL     1      20.198 -12.024  24.349  1.00  0.00     0.210 HD
ENDBRANCH  33  51
ENDBRANCH   1  29
TORSDOF 12
ENDMDL
