MODEL 1
REMARK VINA RESULT: -7.270441858      0.000      0.000
REMARK  8 active torsions:
REMARK  status: ('A' for Active; 'I' for Inactive)
REMARK    1  A    between atoms: N1_1  and  S1_4 
REMARK    2  A    between atoms: S1_4  and  C1_7 
REMARK    3  A    between atoms: C4_10  and  N2_11 
REMARK       I    between atoms: N2_11  and  C5_13 
REMARK    4  A    between atoms: C5_13  and  C6_15 
REMARK    5  A    between atoms: C6_15  and  O4_16 
REMARK    6  A    between atoms: O4_16  and  C7_17 
REMARK    7  A    between atoms: C7_17  and  C8_19 
REMARK    8  A    between atoms: C11_22  and  N3_23 
ROOT
HETATM    1  N2  UNL     1      22.663 -22.776  -6.246  1.00  0.00    -0.325 N 
ATOM      2  H2  UNL     1      22.171 -23.340  -6.940  1.00  0.00     0.169 HD
HETATM    3  C5  UNL     1      22.213 -22.896  -4.922  1.00  0.00     0.246 C 
HETATM    4  O3  UNL     1      22.740 -22.250  -3.989  1.00  0.00    -0.271 OA
ENDROOT
BRANCH   3   5
HETATM    5  C6  UNL     1      21.093 -23.781  -4.533  1.00  0.00     0.282 C 
BRANCH   5   6
HETATM    6  O4  UNL     1      20.601 -23.633  -3.249  1.00  0.00    -0.308 OA
BRANCH   6   7
HETATM    7  C7  UNL     1      19.384 -23.117  -2.893  1.00  0.00     0.293 C 
HETATM    8  O5  UNL     1      18.358 -23.801  -2.995  1.00  0.00    -0.259 OA
BRANCH   7   9
HETATM    9  C8  UNL     1      19.307 -21.755  -2.393  1.00  0.00     0.039 A 
HETATM   10  C9  UNL     1      20.362 -21.154  -1.738  1.00  0.00     0.020 A 
HETATM   11  C10 UNL     1      20.334 -19.873  -1.250  1.00  0.00     0.031 A 
HETATM   12  C11 UNL     1      19.161 -19.136  -1.430  1.00  0.00     0.038 A 
HETATM   13  C16 UNL     1      18.089 -19.703  -2.080  1.00  0.00     0.031 A 
HETATM   14  C17 UNL     1      18.164 -20.994  -2.553  1.00  0.00     0.020 A 
BRANCH  12  15
HETATM   15  N3  UNL     1      19.065 -17.811  -0.952  1.00  0.00    -0.333 N 
HETATM   16  C12 UNL     1      19.985 -16.819  -1.070  1.00  0.00     0.096 A 
HETATM   17  C13 UNL     1      19.502 -15.676  -0.465  1.00  0.00     0.019 A 
HETATM   18  C14 UNL     1      18.258 -16.019   0.021  1.00  0.00     0.019 A 
HETATM   19  C15 UNL     1      18.013 -17.328  -0.289  1.00  0.00     0.096 A 
ENDBRANCH  12  15
ENDBRANCH   7   9
ENDBRANCH   6   7
ENDBRANCH   5   6
ENDBRANCH   3   5
BRANCH   1  20
HETATM   20  C4  UNL     1      23.718 -21.969  -6.736  1.00  0.00     0.034 A 
HETATM   21  C3  UNL     1      24.944 -22.437  -7.152  1.00  0.00     0.031 A 
HETATM   22  C2  UNL     1      25.936 -21.582  -7.650  1.00  0.00     0.027 A 
HETATM   23  C1  UNL     1      25.731 -20.228  -7.744  1.00  0.00     0.079 A 
HETATM   24  C19 UNL     1      24.513 -19.741  -7.333  1.00  0.00     0.027 A 
HETATM   25  C18 UNL     1      23.542 -20.579  -6.848  1.00  0.00     0.031 A 
BRANCH  23  26
HETATM   26  S1  UNL     1      26.984 -19.160  -8.372  1.00  0.00     0.256 S 
HETATM   27  O1  UNL     1      27.800 -19.845  -9.432  1.00  0.00    -0.201 OA
HETATM   28  O2  UNL     1      27.926 -18.737  -7.274  1.00  0.00    -0.201 OA
BRANCH  26  29
HETATM   29  N1  UNL     1      26.290 -17.746  -9.078  1.00  0.00    -0.324 N 
ATOM     30  H12 UNL     1      26.351 -17.487 -10.062  1.00  0.00     0.169 HD
ATOM     31  H11 UNL     1      25.817 -17.231  -8.336  1.00  0.00     0.169 HD
ENDBRANCH  26  29
ENDBRANCH  23  26
ENDBRANCH   1  20
TORSDOF 8
ENDMDL
MODEL 2
REMARK VINA RESULT: -7.230002763      8.381     12.319
REMARK  8 active torsions:
REMARK  status: ('A' for Active; 'I' for Inactive)
REMARK    1  A    between atoms: N1_1  and  S1_4 
REMARK    2  A    between atoms: S1_4  and  C1_7 
REMARK    3  A    between atoms: C4_10  and  N2_11 
REMARK       I    between atoms: N2_11  and  C5_13 
REMARK    4  A    between atoms: C5_13  and  C6_15 
REMARK    5  A    between atoms: C6_15  and  O4_16 
REMARK    6  A    between atoms: O4_16  and  C7_17 
REMARK    7  A    between atoms: C7_17  and  C8_19 
REMARK    8  A    between atoms: C11_22  and  N3_23 
ROOT
HETATM    1  N2  UNL     1      21.418 -12.138  -2.211  1.00  0.00    -0.325 N 
ATOM      2  H2  UNL     1      20.826 -11.318  -2.074  1.00  0.00     0.169 HD
HETATM    3  C5  UNL     1      22.678 -11.902  -2.782  1.00  0.00     0.246 C 
HETATM    4  O3  UNL     1      23.485 -12.834  -2.999  1.00  0.00    -0.271 OA
ENDROOT
BRANCH   3   5
HETATM    5  C6  UNL     1      23.142 -10.552  -3.170  1.00  0.00     0.282 C 
BRANCH   5   6
HETATM    6  O4  UNL     1      23.493  -9.696  -2.142  1.00  0.00    -0.308 OA
BRANCH   6   7
HETATM    7  C7  UNL     1      24.669  -9.699  -1.441  1.00  0.00     0.293 C 
HETATM    8  O5  UNL     1      25.682 -10.228  -1.917  1.00  0.00    -0.259 OA
BRANCH   7   9
HETATM    9  C8  UNL     1      24.719  -9.072  -0.131  1.00  0.00     0.039 A 
HETATM   10  C9  UNL     1      25.744  -9.314   0.759  1.00  0.00     0.020 A 
HETATM   11  C10 UNL     1      25.832  -8.745   2.003  1.00  0.00     0.031 A 
HETATM   12  C11 UNL     1      24.816  -7.867   2.388  1.00  0.00     0.038 A 
HETATM   13  C16 UNL     1      23.776  -7.602   1.526  1.00  0.00     0.031 A 
HETATM   14  C17 UNL     1      23.732  -8.197   0.285  1.00  0.00     0.020 A 
BRANCH  12  15
HETATM   15  N3  UNL     1      24.844  -7.247   3.657  1.00  0.00    -0.333 N 
HETATM   16  C12 UNL     1      25.864  -6.544   4.212  1.00  0.00     0.096 A 
HETATM   17  C13 UNL     1      25.486  -6.105   5.465  1.00  0.00     0.019 A 
HETATM   18  C14 UNL     1      24.201  -6.572   5.642  1.00  0.00     0.019 A 
HETATM   19  C15 UNL     1      23.830  -7.267   4.523  1.00  0.00     0.096 A 
ENDBRANCH  12  15
ENDBRANCH   7   9
ENDBRANCH   6   7
ENDBRANCH   5   6
ENDBRANCH   3   5
BRANCH   1  20
HETATM   20  C4  UNL     1      20.867 -13.377  -1.802  1.00  0.00     0.034 A 
HETATM   21  C3  UNL     1      20.416 -13.661  -0.532  1.00  0.00     0.031 A 
HETATM   22  C2  UNL     1      19.859 -14.903  -0.202  1.00  0.00     0.027 A 
HETATM   23  C1  UNL     1      19.737 -15.902  -1.135  1.00  0.00     0.079 A 
HETATM   24  C19 UNL     1      20.181 -15.638  -2.409  1.00  0.00     0.027 A 
HETATM   25  C18 UNL     1      20.725 -14.422  -2.731  1.00  0.00     0.031 A 
BRANCH  23  26
HETATM   26  S1  UNL     1      19.034 -17.462  -0.710  1.00  0.00     0.256 S 
HETATM   27  O1  UNL     1      17.860 -17.294   0.213  1.00  0.00    -0.201 OA
HETATM   28  O2  UNL     1      20.045 -18.331  -0.009  1.00  0.00    -0.201 OA
BRANCH  26  29
HETATM   29  N1  UNL     1      18.477 -18.289  -2.119  1.00  0.00    -0.324 N 
ATOM     30  H12 UNL     1      17.670 -18.910  -2.159  1.00  0.00     0.169 HD
ATOM     31  H11 UNL     1      19.100 -18.041  -2.888  1.00  0.00     0.169 HD
ENDBRANCH  26  29
ENDBRANCH  23  26
ENDBRANCH   1  20
TORSDOF 8
ENDMDL
MODEL 3
REMARK VINA RESULT: -7.228664003      8.382     12.327
REMARK  8 active torsions:
REMARK  status: ('A' for Active; 'I' for Inactive)
REMARK    1  A    between atoms: N1_1  and  S1_4 
REMARK    2  A    between atoms: S1_4  and  C1_7 
REMARK    3  A    between atoms: C4_10  and  N2_11 
REMARK       I    between atoms: N2_11  and  C5_13 
REMARK    4  A    between atoms: C5_13  and  C6_15 
REMARK    5  A    between atoms: C6_15  and  O4_16 
REMARK    6  A    between atoms: O4_16  and  C7_17 
REMARK    7  A    between atoms: C7_17  and  C8_19 
REMARK    8  A    between atoms: C11_22  and  N3_23 
ROOT
HETATM    1  N2  UNL     1      21.626 -11.986  -2.325  1.00  0.00    -0.325 N 
ATOM      2  H2  UNL     1      21.801 -11.368  -1.532  1.00  0.00     0.169 HD
HETATM    3  C5  UNL     1      22.010 -11.498  -3.583  1.00  0.00     0.246 C 
HETATM    4  O3  UNL     1      21.840 -12.168  -4.627  1.00  0.00    -0.271 OA
ENDROOT
BRANCH   3   5
HETATM    5  C6  UNL     1      22.632 -10.169  -3.773  1.00  0.00     0.282 C 
BRANCH   5   6
HETATM    6  O4  UNL     1      22.024  -9.102  -3.138  1.00  0.00    -0.308 OA
BRANCH   6   7
HETATM    7  C7  UNL     1      22.629  -7.948  -2.717  1.00  0.00     0.293 C 
HETATM    8  O5  UNL     1      22.914  -7.058  -3.527  1.00  0.00    -0.259 OA
BRANCH   7   9
HETATM    9  C8  UNL     1      22.932  -7.777  -1.306  1.00  0.00     0.039 A 
HETATM   10  C9  UNL     1      23.946  -8.476  -0.684  1.00  0.00     0.020 A 
HETATM   11  C10 UNL     1      24.267  -8.346   0.642  1.00  0.00     0.031 A 
HETATM   12  C11 UNL     1      23.517  -7.449   1.406  1.00  0.00     0.038 A 
HETATM   13  C16 UNL     1      22.498  -6.734   0.820  1.00  0.00     0.031 A 
HETATM   14  C17 UNL     1      22.212  -6.898  -0.517  1.00  0.00     0.020 A 
BRANCH  12  15
HETATM   15  N3  UNL     1      23.795  -7.267   2.779  1.00  0.00    -0.333 N 
HETATM   16  C12 UNL     1      24.927  -7.607   3.446  1.00  0.00     0.096 A 
HETATM   17  C13 UNL     1      24.795  -7.259   4.775  1.00  0.00     0.019 A 
HETATM   18  C14 UNL     1      23.540  -6.698   4.881  1.00  0.00     0.019 A 
HETATM   19  C15 UNL     1      22.948  -6.714   3.648  1.00  0.00     0.096 A 
ENDBRANCH  12  15
ENDBRANCH   7   9
ENDBRANCH   6   7
ENDBRANCH   5   6
ENDBRANCH   3   5
BRANCH   1  20
HETATM   20  C4  UNL     1      21.026 -13.232  -2.021  1.00  0.00     0.034 A 
HETATM   21  C3  UNL     1      21.022 -14.330  -2.852  1.00  0.00     0.031 A 
HETATM   22  C2  UNL     1      20.428 -15.543  -2.477  1.00  0.00     0.027 A 
HETATM   23  C1  UNL     1      19.818 -15.693  -1.257  1.00  0.00     0.079 A 
HETATM   24  C19 UNL     1      19.812 -14.608  -0.413  1.00  0.00     0.027 A 
HETATM   25  C18 UNL     1      20.394 -13.422  -0.780  1.00  0.00     0.031 A 
BRANCH  23  26
HETATM   26  S1  UNL     1      19.074 -17.222  -0.793  1.00  0.00     0.256 S 
HETATM   27  O1  UNL     1      17.910 -17.000   0.131  1.00  0.00    -0.201 OA
HETATM   28  O2  UNL     1      20.065 -18.103  -0.077  1.00  0.00    -0.201 OA
BRANCH  26  29
HETATM   29  N1  UNL     1      18.488 -18.065  -2.180  1.00  0.00    -0.324 N 
ATOM     30  H12 UNL     1      18.143 -17.630  -3.035  1.00  0.00     0.169 HD
ATOM     31  H11 UNL     1      18.550 -19.064  -1.983  1.00  0.00     0.169 HD
ENDBRANCH  26  29
ENDBRANCH  23  26
ENDBRANCH   1  20
TORSDOF 8
ENDMDL
MODEL 4
REMARK VINA RESULT: -7.183398749      5.071      7.672
REMARK  8 active torsions:
REMARK  status: ('A' for Active; 'I' for Inactive)
REMARK    1  A    between atoms: N1_1  and  S1_4 
REMARK    2  A    between atoms: S1_4  and  C1_7 
REMARK    3  A    between atoms: C4_10  and  N2_11 
REMARK       I    between atoms: N2_11  and  C5_13 
REMARK    4  A    between atoms: C5_13  and  C6_15 
REMARK    5  A    between atoms: C6_15  and  O4_16 
REMARK    6  A    between atoms: O4_16  and  C7_17 
REMARK    7  A    between atoms: C7_17  and  C8_19 
REMARK    8  A    between atoms: C11_22  and  N3_23 
ROOT
HETATM    1  N2  UNL     1      19.498 -16.033  -2.464  1.00  0.00    -0.325 N 
ATOM      2  H2  UNL     1      18.736 -16.188  -3.125  1.00  0.00     0.169 HD
HETATM    3  C5  UNL     1      19.576 -16.934  -1.391  1.00  0.00     0.246 C 
HETATM    4  O3  UNL     1      20.467 -16.838  -0.518  1.00  0.00    -0.271 OA
ENDROOT
BRANCH   3   5
HETATM    5  C6  UNL     1      18.622 -18.050  -1.209  1.00  0.00     0.282 C 
BRANCH   5   6
HETATM    6  O4  UNL     1      18.499 -18.940  -2.260  1.00  0.00    -0.308 OA
BRANCH   6   7
HETATM    7  C7  UNL     1      18.558 -20.306  -2.186  1.00  0.00     0.293 C 
HETATM    8  O5  UNL     1      17.549 -20.990  -2.404  1.00  0.00    -0.259 OA
BRANCH   7   9
HETATM    9  C8  UNL     1      19.817 -20.948  -1.848  1.00  0.00     0.039 A 
HETATM   10  C9  UNL     1      20.477 -20.690  -0.665  1.00  0.00     0.020 A 
HETATM   11  C10 UNL     1      21.666 -21.271  -0.306  1.00  0.00     0.031 A 
HETATM   12  C11 UNL     1      22.238 -22.181  -1.199  1.00  0.00     0.038 A 
HETATM   13  C16 UNL     1      21.608 -22.463  -2.389  1.00  0.00     0.031 A 
HETATM   14  C17 UNL     1      20.414 -21.853  -2.706  1.00  0.00     0.020 A 
BRANCH  12  15
HETATM   15  N3  UNL     1      23.462 -22.816  -0.891  1.00  0.00    -0.333 N 
HETATM   16  C12 UNL     1      23.958 -23.104   0.339  1.00  0.00     0.096 A 
HETATM   17  C13 UNL     1      25.183 -23.727   0.202  1.00  0.00     0.019 A 
HETATM   18  C14 UNL     1      25.402 -23.801  -1.157  1.00  0.00     0.019 A 
HETATM   19  C15 UNL     1      24.337 -23.238  -1.804  1.00  0.00     0.096 A 
ENDBRANCH  12  15
ENDBRANCH   7   9
ENDBRANCH   6   7
ENDBRANCH   5   6
ENDBRANCH   3   5
BRANCH   1  20
HETATM   20  C4  UNL     1      20.347 -14.935  -2.741  1.00  0.00     0.034 A 
HETATM   21  C3  UNL     1      21.125 -14.802  -3.870  1.00  0.00     0.031 A 
HETATM   22  C2  UNL     1      21.927 -13.674  -4.092  1.00  0.00     0.027 A 
HETATM   23  C1  UNL     1      21.975 -12.643  -3.187  1.00  0.00     0.079 A 
HETATM   24  C19 UNL     1      21.206 -12.757  -2.054  1.00  0.00     0.027 A 
HETATM   25  C18 UNL     1      20.421 -13.860  -1.838  1.00  0.00     0.031 A 
BRANCH  23  26
HETATM   26  S1  UNL     1      22.986 -11.228  -3.475  1.00  0.00     0.256 S 
HETATM   27  O1  UNL     1      24.273 -11.316  -2.704  1.00  0.00    -0.201 OA
HETATM   28  O2  UNL     1      22.279  -9.970  -3.042  1.00  0.00    -0.201 OA
BRANCH  26  29
HETATM   29  N1  UNL     1      23.386 -11.089  -5.148  1.00  0.00    -0.324 N 
ATOM     30  H12 UNL     1      22.740 -11.228  -5.924  1.00  0.00     0.169 HD
ATOM     31  H11 UNL     1      24.375 -10.845  -5.209  1.00  0.00     0.169 HD
ENDBRANCH  26  29
ENDBRANCH  23  26
ENDBRANCH   1  20
TORSDOF 8
ENDMDL
MODEL 5
REMARK VINA RESULT: -7.176256134      8.315     12.326
REMARK  8 active torsions:
REMARK  status: ('A' for Active; 'I' for Inactive)
REMARK    1  A    between atoms: N1_1  and  S1_4 
REMARK    2  A    between atoms: S1_4  and  C1_7 
REMARK    3  A    between atoms: C4_10  and  N2_11 
REMARK       I    between atoms: N2_11  and  C5_13 
REMARK    4  A    between atoms: C5_13  and  C6_15 
REMARK    5  A    between atoms: C6_15  and  O4_16 
REMARK    6  A    between atoms: O4_16  and  C7_17 
REMARK    7  A    between atoms: C7_17  and  C8_19 
REMARK    8  A    between atoms: C11_22  and  N3_23 
ROOT
HETATM    1  N2  UNL     1      21.520 -12.129  -2.393  1.00  0.00    -0.325 N 
ATOM      2  H2  UNL     1      20.935 -11.300  -2.284  1.00  0.00     0.169 HD
HETATM    3  C5  UNL     1      22.786 -11.920  -2.961  1.00  0.00     0.246 C 
HETATM    4  O3  UNL     1      23.587 -12.864  -3.145  1.00  0.00    -0.271 OA
ENDROOT
BRANCH   3   5
HETATM    5  C6  UNL     1      23.265 -10.586  -3.386  1.00  0.00     0.282 C 
BRANCH   5   6
HETATM    6  O4  UNL     1      22.391  -9.528  -3.212  1.00  0.00    -0.308 OA
BRANCH   6   7
HETATM    7  C7  UNL     1      22.723  -8.233  -2.915  1.00  0.00     0.293 C 
HETATM    8  O5  UNL     1      22.974  -7.427  -3.820  1.00  0.00    -0.259 OA
BRANCH   7   9
HETATM    9  C8  UNL     1      22.776  -7.812  -1.526  1.00  0.00     0.039 A 
HETATM   10  C9  UNL     1      21.879  -6.907  -0.999  1.00  0.00     0.020 A 
HETATM   11  C10 UNL     1      21.891  -6.482   0.304  1.00  0.00     0.031 A 
HETATM   12  C11 UNL     1      22.877  -7.003   1.146  1.00  0.00     0.038 A 
HETATM   13  C16 UNL     1      23.789  -7.909   0.656  1.00  0.00     0.031 A 
HETATM   14  C17 UNL     1      23.736  -8.306  -0.662  1.00  0.00     0.020 A 
BRANCH  12  15
HETATM   15  N3  UNL     1      22.948  -6.608   2.501  1.00  0.00    -0.333 N 
HETATM   16  C12 UNL     1      22.368  -5.524   3.077  1.00  0.00     0.096 A 
HETATM   17  C13 UNL     1      22.683  -5.500   4.421  1.00  0.00     0.019 A 
HETATM   18  C14 UNL     1      23.475  -6.609   4.629  1.00  0.00     0.019 A 
HETATM   19  C15 UNL     1      23.622  -7.271   3.441  1.00  0.00     0.096 A 
ENDBRANCH  12  15
ENDBRANCH   7   9
ENDBRANCH   6   7
ENDBRANCH   5   6
ENDBRANCH   3   5
BRANCH   1  20
HETATM   20  C4  UNL     1      20.956 -13.350  -1.951  1.00  0.00     0.034 A 
HETATM   21  C3  UNL     1      20.528 -13.604  -0.667  1.00  0.00     0.031 A 
HETATM   22  C2  UNL     1      19.956 -14.831  -0.304  1.00  0.00     0.027 A 
HETATM   23  C1  UNL     1      19.796 -15.843  -1.217  1.00  0.00     0.079 A 
HETATM   24  C19 UNL     1      20.218 -15.608  -2.504  1.00  0.00     0.027 A 
HETATM   25  C18 UNL     1      20.777 -14.408  -2.859  1.00  0.00     0.031 A 
BRANCH  23  26
HETATM   26  S1  UNL     1      19.075 -17.382  -0.751  1.00  0.00     0.256 S 
HETATM   27  O1  UNL     1      17.913 -17.177   0.179  1.00  0.00    -0.201 OA
HETATM   28  O2  UNL     1      20.080 -18.250  -0.040  1.00  0.00    -0.201 OA
BRANCH  26  29
HETATM   29  N1  UNL     1      18.493 -18.232  -2.136  1.00  0.00    -0.324 N 
ATOM     30  H12 UNL     1      17.879 -17.845  -2.852  1.00  0.00     0.169 HD
ATOM     31  H11 UNL     1      18.874 -19.177  -2.101  1.00  0.00     0.169 HD
ENDBRANCH  26  29
ENDBRANCH  23  26
ENDBRANCH   1  20
TORSDOF 8
ENDMDL
