MODEL 1
REMARK VINA RESULT: -6.679152148      0.000      0.000
REMARK  8 active torsions:
REMARK  status: ('A' for Active; 'I' for Inactive)
REMARK    1  A    between atoms: N1_1  and  N2_4 
REMARK       I    between atoms: N2_4  and  C1_5 
REMARK    2  A    between atoms: C1_5  and  C2_7 
REMARK    3  A    between atoms: C2_7  and  C16_30 
REMARK    4  A    between atoms: C3_8  and  C4_9 
REMARK    5  A    between atoms: C3_8  and  N5_24 
REMARK       I    between atoms: C4_9  and  N3_11 
REMARK    6  A    between atoms: N3_11  and  N4_13 
REMARK       I    between atoms: N4_13  and  C5_15 
REMARK    7  A    between atoms: C5_15  and  C6_17 
REMARK    8  A    between atoms: C6_17  and  C7_18 
ROOT
HETATM    1  C2  UNL     1      26.354 -14.845  -7.101  1.00  0.00     0.091 C 
HETATM    2  C3  UNL     1      26.614 -14.110  -6.057  1.00  0.00     0.127 C 
ENDROOT
BRANCH   2   3
HETATM    3  C4  UNL     1      25.742 -13.898  -4.905  1.00  0.00     0.288 C 
HETATM    4  O2  UNL     1      25.770 -14.581  -3.869  1.00  0.00    -0.264 OA
HETATM    5  N3  UNL     1      24.760 -12.846  -4.903  1.00  0.00    -0.262 N 
ATOM      6  H3  UNL     1      24.679 -12.244  -5.722  1.00  0.00     0.190 HD
BRANCH   5   7
HETATM    7  N4  UNL     1      23.917 -12.623  -3.818  1.00  0.00    -0.267 N 
HETATM    8  C5  UNL     1      22.549 -12.314  -3.972  1.00  0.00     0.240 C 
HETATM    9  O3  UNL     1      22.062 -12.233  -5.118  1.00  0.00    -0.272 OA
ATOM     10  H4  UNL     1      24.303 -12.687  -2.876  1.00  0.00     0.190 HD
BRANCH   8  11
HETATM   11  C6  UNL     1      21.692 -12.086  -2.807  1.00  0.00     0.143 C 
BRANCH  11  12
HETATM   12  C7  UNL     1      21.132 -13.303  -2.225  1.00  0.00    -0.049 A 
HETATM   13  C8  UNL     1      20.746 -13.346  -0.894  1.00  0.00     0.007 A 
HETATM   14  C9  UNL     1      20.212 -14.473  -0.303  1.00  0.00     0.001 A 
HETATM   15  C10 UNL     1      20.059 -15.604  -1.073  1.00  0.00     0.000 A 
HETATM   16  C11 UNL     1      20.436 -15.586  -2.399  1.00  0.00     0.001 A 
HETATM   17  C12 UNL     1      20.965 -14.457  -2.972  1.00  0.00     0.007 A 
ENDBRANCH  11  12
ENDBRANCH   8  11
ENDBRANCH   5   7
ENDBRANCH   2   3
BRANCH   2  18
HETATM   18  N5  UNL     1      27.858 -13.422  -5.975  1.00  0.00    -0.311 N 
HETATM   19  C13 UNL     1      28.902 -13.890  -5.277  1.00  0.00     0.115 A 
HETATM   20  C14 UNL     1      29.933 -12.995  -5.342  1.00  0.00     0.106 A 
HETATM   21  N6  UNL     1      29.488 -11.971  -6.097  1.00  0.00    -0.360 N 
HETATM   22  C15 UNL     1      28.222 -12.235  -6.482  1.00  0.00     0.188 A 
ATOM     23  H6  UNL     1      30.020 -11.134  -6.337  1.00  0.00     0.166 HD
ENDBRANCH   2  18
BRANCH   1  24
HETATM   24  C1  UNL     1      27.276 -14.998  -8.218  1.00  0.00     0.348 C 
HETATM   25  N2  UNL     1      27.101 -14.207  -9.350  1.00  0.00    -0.288 NA
HETATM   26  O1  UNL     1      28.214 -15.784  -8.244  1.00  0.00    -0.249 OA
BRANCH  25  27
HETATM   27  N1  UNL     1      26.950 -13.581 -10.278  1.00  0.00    -0.276 N 
ATOM     28  H12 UNL     1      26.904 -14.568 -10.021  1.00  0.00     0.191 HD
ATOM     29  H11 UNL     1      26.818 -13.001 -11.106  1.00  0.00     0.191 HD
ENDBRANCH  25  27
ENDBRANCH   1  24
BRANCH   1  30
HETATM   30  C16 UNL     1      25.137 -15.671  -7.225  1.00  0.00    -0.017 A 
HETATM   31  C17 UNL     1      23.983 -15.161  -7.752  1.00  0.00     0.012 A 
HETATM   32  C18 UNL     1      22.855 -15.970  -7.945  1.00  0.00     0.001 A 
HETATM   33  C19 UNL     1      22.893 -17.298  -7.604  1.00  0.00     0.000 A 
HETATM   34  C20 UNL     1      24.053 -17.819  -7.074  1.00  0.00     0.001 A 
HETATM   35  C21 UNL     1      25.164 -16.991  -6.891  1.00  0.00     0.012 A 
ENDBRANCH   1  30
TORSDOF 8
ENDMDL
MODEL 2
REMARK VINA RESULT: -6.615140890      2.566      4.971
REMARK  8 active torsions:
REMARK  status: ('A' for Active; 'I' for Inactive)
REMARK    1  A    between atoms: N1_1  and  N2_4 
REMARK       I    between atoms: N2_4  and  C1_5 
REMARK    2  A    between atoms: C1_5  and  C2_7 
REMARK    3  A    between atoms: C2_7  and  C16_30 
REMARK    4  A    between atoms: C3_8  and  C4_9 
REMARK    5  A    between atoms: C3_8  and  N5_24 
REMARK       I    between atoms: C4_9  and  N3_11 
REMARK    6  A    between atoms: N3_11  and  N4_13 
REMARK       I    between atoms: N4_13  and  C5_15 
REMARK    7  A    between atoms: C5_15  and  C6_17 
REMARK    8  A    between atoms: C6_17  and  C7_18 
ROOT
HETATM    1  C2  UNL     1      24.451 -14.086  -5.660  1.00  0.00     0.091 C 
HETATM    2  C3  UNL     1      23.375 -14.808  -5.800  1.00  0.00     0.127 C 
ENDROOT
BRANCH   2   3
HETATM    3  C4  UNL     1      22.099 -14.607  -5.118  1.00  0.00     0.288 C 
HETATM    4  O2  UNL     1      21.161 -13.931  -5.569  1.00  0.00    -0.264 OA
HETATM    5  N3  UNL     1      21.844 -15.202  -3.832  1.00  0.00    -0.262 N 
ATOM      6  H3  UNL     1      22.571 -15.771  -3.399  1.00  0.00     0.190 HD
BRANCH   5   7
HETATM    7  N4  UNL     1      20.638 -15.026  -3.162  1.00  0.00    -0.267 N 
HETATM    8  C5  UNL     1      20.559 -14.427  -1.887  1.00  0.00     0.240 C 
HETATM    9  O3  UNL     1      21.603 -14.037  -1.326  1.00  0.00    -0.272 OA
ATOM     10  H4  UNL     1      19.777 -15.341  -3.611  1.00  0.00     0.190 HD
BRANCH   8  11
HETATM   11  C6  UNL     1      19.271 -14.258  -1.212  1.00  0.00     0.143 C 
BRANCH  11  12
HETATM   12  C7  UNL     1      18.683 -15.501  -0.716  1.00  0.00    -0.049 A 
HETATM   13  C8  UNL     1      19.358 -16.706  -0.832  1.00  0.00     0.007 A 
HETATM   14  C9  UNL     1      18.841 -17.902  -0.379  1.00  0.00     0.001 A 
HETATM   15  C10 UNL     1      17.599 -17.894   0.214  1.00  0.00     0.000 A 
HETATM   16  C11 UNL     1      16.908 -16.708   0.340  1.00  0.00     0.001 A 
HETATM   17  C12 UNL     1      17.435 -15.526  -0.116  1.00  0.00     0.007 A 
ENDBRANCH  11  12
ENDBRANCH   8  11
ENDBRANCH   5   7
ENDBRANCH   2   3
BRANCH   2  18
HETATM   18  N5  UNL     1      23.384 -15.915  -6.694  1.00  0.00    -0.311 N 
HETATM   19  C13 UNL     1      22.895 -15.847  -7.940  1.00  0.00     0.115 A 
HETATM   20  C14 UNL     1      22.996 -17.072  -8.538  1.00  0.00     0.106 A 
HETATM   21  N6  UNL     1      23.559 -17.887  -7.623  1.00  0.00    -0.360 N 
HETATM   22  C15 UNL     1      23.795 -17.177  -6.500  1.00  0.00     0.188 A 
ATOM     23  H6  UNL     1      23.771 -18.875  -7.757  1.00  0.00     0.166 HD
ENDBRANCH   2  18
BRANCH   1  24
HETATM   24  C1  UNL     1      25.691 -14.357  -6.372  1.00  0.00     0.348 C 
HETATM   25  N2  UNL     1      25.773 -14.046  -7.726  1.00  0.00    -0.288 NA
HETATM   26  O1  UNL     1      26.692 -14.848  -5.865  1.00  0.00    -0.249 OA
BRANCH  25  27
HETATM   27  N1  UNL     1      25.837 -13.813  -8.829  1.00  0.00    -0.276 N 
ATOM     28  H12 UNL     1      25.472 -14.561  -8.239  1.00  0.00     0.191 HD
ATOM     29  H11 UNL     1      25.903 -13.587  -9.822  1.00  0.00     0.191 HD
ENDBRANCH  25  27
ENDBRANCH   1  24
BRANCH   1  30
HETATM   30  C16 UNL     1      24.501 -12.863  -4.835  1.00  0.00    -0.017 A 
HETATM   31  C17 UNL     1      23.850 -11.722  -5.216  1.00  0.00     0.012 A 
HETATM   32  C18 UNL     1      23.829 -10.589  -4.391  1.00  0.00     0.001 A 
HETATM   33  C19 UNL     1      24.470 -10.609  -3.179  1.00  0.00     0.000 A 
HETATM   34  C20 UNL     1      25.127 -11.754  -2.788  1.00  0.00     0.001 A 
HETATM   35  C21 UNL     1      25.132 -12.871  -3.629  1.00  0.00     0.012 A 
ENDBRANCH   1  30
TORSDOF 8
ENDMDL
MODEL 3
REMARK VINA RESULT: -6.562295802      6.004      9.677
REMARK  8 active torsions:
REMARK  status: ('A' for Active; 'I' for Inactive)
REMARK    1  A    between atoms: N1_1  and  N2_4 
REMARK       I    between atoms: N2_4  and  C1_5 
REMARK    2  A    between atoms: C1_5  and  C2_7 
REMARK    3  A    between atoms: C2_7  and  C16_30 
REMARK    4  A    between atoms: C3_8  and  C4_9 
REMARK    5  A    between atoms: C3_8  and  N5_24 
REMARK       I    between atoms: C4_9  and  N3_11 
REMARK    6  A    between atoms: N3_11  and  N4_13 
REMARK       I    between atoms: N4_13  and  C5_15 
REMARK    7  A    between atoms: C5_15  and  C6_17 
REMARK    8  A    between atoms: C6_17  and  C7_18 
ROOT
HETATM    1  C2  UNL     1      23.387  -6.158  -0.063  1.00  0.00     0.091 C 
HETATM    2  C3  UNL     1      23.557  -6.908  -1.114  1.00  0.00     0.127 C 
ENDROOT
BRANCH   2   3
HETATM    3  C4  UNL     1      23.732  -8.358  -1.128  1.00  0.00     0.288 C 
HETATM    4  O2  UNL     1      24.598  -8.967  -0.479  1.00  0.00    -0.264 OA
HETATM    5  N3  UNL     1      22.880  -9.199  -1.927  1.00  0.00    -0.262 N 
ATOM      6  H3  UNL     1      22.146  -8.768  -2.488  1.00  0.00     0.190 HD
BRANCH   5   7
HETATM    7  N4  UNL     1      23.026 -10.583  -1.958  1.00  0.00    -0.267 N 
HETATM    8  C5  UNL     1      22.317 -11.401  -2.864  1.00  0.00     0.240 C 
HETATM    9  O3  UNL     1      21.525 -10.877  -3.673  1.00  0.00    -0.272 OA
ATOM     10  H4  UNL     1      23.671 -11.022  -1.301  1.00  0.00     0.190 HD
BRANCH   8  11
HETATM   11  C6  UNL     1      22.497 -12.853  -2.867  1.00  0.00     0.143 C 
BRANCH  11  12
HETATM   12  C7  UNL     1      21.380 -13.600  -2.291  1.00  0.00    -0.049 A 
HETATM   13  C8  UNL     1      20.798 -13.205  -1.097  1.00  0.00     0.007 A 
HETATM   14  C9  UNL     1      19.743 -13.879  -0.517  1.00  0.00     0.001 A 
HETATM   15  C10 UNL     1      19.250 -14.995  -1.156  1.00  0.00     0.000 A 
HETATM   16  C11 UNL     1      19.813 -15.407  -2.345  1.00  0.00     0.001 A 
HETATM   17  C12 UNL     1      20.862 -14.726  -2.909  1.00  0.00     0.007 A 
ENDBRANCH  11  12
ENDBRANCH   8  11
ENDBRANCH   5   7
ENDBRANCH   2   3
BRANCH   2  18
HETATM   18  N5  UNL     1      23.582  -6.311  -2.406  1.00  0.00    -0.311 N 
HETATM   19  C13 UNL     1      22.473  -5.919  -3.047  1.00  0.00     0.115 A 
HETATM   20  C14 UNL     1      22.805  -5.431  -4.280  1.00  0.00     0.106 A 
HETATM   21  N6  UNL     1      24.146  -5.537  -4.371  1.00  0.00    -0.360 N 
HETATM   22  C15 UNL     1      24.617  -6.074  -3.227  1.00  0.00     0.188 A 
ATOM     23  H6  UNL     1      24.711  -5.259  -5.173  1.00  0.00     0.166 HD
ENDBRANCH   2  18
BRANCH   1  24
HETATM   24  C1  UNL     1      23.229  -4.713  -0.132  1.00  0.00     0.348 C 
HETATM   25  N2  UNL     1      21.945  -4.175  -0.153  1.00  0.00    -0.288 NA
HETATM   26  O1  UNL     1      24.154  -3.911  -0.173  1.00  0.00    -0.249 OA
BRANCH  25  27
HETATM   27  N1  UNL     1      20.905  -3.737  -0.191  1.00  0.00    -0.276 N 
ATOM     28  H12 UNL     1      21.833  -3.500  -0.541  1.00  0.00     0.191 HD
ATOM     29  H11 UNL     1      19.959  -3.356  -0.215  1.00  0.00     0.191 HD
ENDBRANCH  25  27
ENDBRANCH   1  24
BRANCH   1  30
HETATM   30  C16 UNL     1      23.247  -6.701   1.303  1.00  0.00    -0.017 A 
HETATM   31  C17 UNL     1      24.319  -6.784   2.147  1.00  0.00     0.012 A 
HETATM   32  C18 UNL     1      24.168  -7.221   3.471  1.00  0.00     0.001 A 
HETATM   33  C19 UNL     1      22.930  -7.576   3.941  1.00  0.00     0.000 A 
HETATM   34  C20 UNL     1      21.845  -7.494   3.096  1.00  0.00     0.001 A 
HETATM   35  C21 UNL     1      22.022  -7.055   1.782  1.00  0.00     0.012 A 
ENDBRANCH   1  30
TORSDOF 8
ENDMDL
MODEL 4
REMARK VINA RESULT: -6.459147003      3.073      5.405
REMARK  8 active torsions:
REMARK  status: ('A' for Active; 'I' for Inactive)
REMARK    1  A    between atoms: N1_1  and  N2_4 
REMARK       I    between atoms: N2_4  and  C1_5 
REMARK    2  A    between atoms: C1_5  and  C2_7 
REMARK    3  A    between atoms: C2_7  and  C16_30 
REMARK    4  A    between atoms: C3_8  and  C4_9 
REMARK    5  A    between atoms: C3_8  and  N5_24 
REMARK       I    between atoms: C4_9  and  N3_11 
REMARK    6  A    between atoms: N3_11  and  N4_13 
REMARK       I    between atoms: N4_13  and  C5_15 
REMARK    7  A    between atoms: C5_15  and  C6_17 
REMARK    8  A    between atoms: C6_17  and  C7_18 
ROOT
HETATM    1  C2  UNL     1      22.931 -13.775  -5.514  1.00  0.00     0.091 C 
HETATM    2  C3  UNL     1      22.074 -13.584  -4.552  1.00  0.00     0.127 C 
ENDROOT
BRANCH   2   3
HETATM    3  C4  UNL     1      21.010 -14.496  -4.141  1.00  0.00     0.288 C 
HETATM    4  O2  UNL     1      19.978 -14.712  -4.797  1.00  0.00    -0.264 OA
HETATM    5  N3  UNL     1      21.097 -15.227  -2.904  1.00  0.00    -0.262 N 
ATOM      6  H3  UNL     1      21.917 -15.099  -2.312  1.00  0.00     0.190 HD
BRANCH   5   7
HETATM    7  N4  UNL     1      20.097 -16.102  -2.490  1.00  0.00    -0.267 N 
HETATM    8  C5  UNL     1      19.850 -16.383  -1.129  1.00  0.00     0.240 C 
HETATM    9  O3  UNL     1      20.547 -15.832  -0.252  1.00  0.00    -0.272 OA
ATOM     10  H4  UNL     1      19.521 -16.558  -3.198  1.00  0.00     0.190 HD
BRANCH   8  11
HETATM   11  C6  UNL     1      18.789 -17.309  -0.732  1.00  0.00     0.143 C 
BRANCH  11  12
HETATM   12  C7  UNL     1      19.018 -18.695  -1.131  1.00  0.00    -0.049 A 
HETATM   13  C8  UNL     1      18.033 -19.424  -1.780  1.00  0.00     0.007 A 
HETATM   14  C9  UNL     1      18.206 -20.734  -2.175  1.00  0.00     0.001 A 
HETATM   15  C10 UNL     1      19.413 -21.343  -1.911  1.00  0.00     0.000 A 
HETATM   16  C11 UNL     1      20.408 -20.639  -1.266  1.00  0.00     0.001 A 
HETATM   17  C12 UNL     1      20.220 -19.336  -0.880  1.00  0.00     0.007 A 
ENDBRANCH  11  12
ENDBRANCH   8  11
ENDBRANCH   5   7
ENDBRANCH   2   3
BRANCH   2  18
HETATM   18  N5  UNL     1      22.132 -12.384  -3.788  1.00  0.00    -0.311 N 
HETATM   19  C13 UNL     1      21.475 -11.270  -4.134  1.00  0.00     0.115 A 
HETATM   20  C14 UNL     1      21.761 -10.274  -3.241  1.00  0.00     0.106 A 
HETATM   21  N6  UNL     1      22.611 -10.814  -2.345  1.00  0.00    -0.360 N 
HETATM   22  C15 UNL     1      22.835 -12.101  -2.681  1.00  0.00     0.188 A 
ATOM     23  H6  UNL     1      23.017 -10.328  -1.545  1.00  0.00     0.166 HD
ENDBRANCH   2  18
BRANCH   1  24
HETATM   24  C1  UNL     1      23.960 -12.809  -5.869  1.00  0.00     0.348 C 
HETATM   25  N2  UNL     1      25.298 -13.173  -5.745  1.00  0.00    -0.288 NA
HETATM   26  O1  UNL     1      23.741 -11.676  -6.279  1.00  0.00    -0.249 OA
BRANCH  25  27
HETATM   27  N1  UNL     1      26.384 -13.458  -5.627  1.00  0.00    -0.276 N 
ATOM     28  H12 UNL     1      25.825 -12.605  -5.613  1.00  0.00     0.191 HD
ATOM     29  H11 UNL     1      27.361 -13.733  -5.522  1.00  0.00     0.191 HD
ENDBRANCH  25  27
ENDBRANCH   1  24
BRANCH   1  30
HETATM   30  C16 UNL     1      23.008 -15.029  -6.289  1.00  0.00    -0.017 A 
HETATM   31  C17 UNL     1      22.658 -15.070  -7.610  1.00  0.00     0.012 A 
HETATM   32  C18 UNL     1      22.812 -16.241  -8.366  1.00  0.00     0.001 A 
HETATM   33  C19 UNL     1      23.320 -17.374  -7.783  1.00  0.00     0.000 A 
HETATM   34  C20 UNL     1      23.676 -17.340  -6.453  1.00  0.00     0.001 A 
HETATM   35  C21 UNL     1      23.514 -16.160  -5.723  1.00  0.00     0.012 A 
ENDBRANCH   1  30
TORSDOF 8
ENDMDL
MODEL 5
REMARK VINA RESULT: -6.408193346      1.247      1.560
REMARK  8 active torsions:
REMARK  status: ('A' for Active; 'I' for Inactive)
REMARK    1  A    between atoms: N1_1  and  N2_4 
REMARK       I    between atoms: N2_4  and  C1_5 
REMARK    2  A    between atoms: C1_5  and  C2_7 
REMARK    3  A    between atoms: C2_7  and  C16_30 
REMARK    4  A    between atoms: C3_8  and  C4_9 
REMARK    5  A    between atoms: C3_8  and  N5_24 
REMARK       I    between atoms: C4_9  and  N3_11 
REMARK    6  A    between atoms: N3_11  and  N4_13 
REMARK       I    between atoms: N4_13  and  C5_15 
REMARK    7  A    between atoms: C5_15  and  C6_17 
REMARK    8  A    between atoms: C6_17  and  C7_18 
ROOT
HETATM    1  C2  UNL     1      26.464 -14.067  -6.303  1.00  0.00     0.091 C 
HETATM    2  C3  UNL     1      26.542 -13.192  -5.341  1.00  0.00     0.127 C 
ENDROOT
BRANCH   2   3
HETATM    3  C4  UNL     1      25.448 -12.742  -4.484  1.00  0.00     0.288 C 
HETATM    4  O2  UNL     1      25.080 -11.561  -4.378  1.00  0.00    -0.264 OA
HETATM    5  N3  UNL     1      24.704 -13.676  -3.680  1.00  0.00    -0.262 N 
ATOM      6  H3  UNL     1      24.951 -14.664  -3.716  1.00  0.00     0.190 HD
BRANCH   5   7
HETATM    7  N4  UNL     1      23.658 -13.272  -2.857  1.00  0.00    -0.267 N 
HETATM    8  C5  UNL     1      22.331 -13.146  -3.321  1.00  0.00     0.240 C 
HETATM    9  O3  UNL     1      22.072 -13.404  -4.515  1.00  0.00    -0.272 OA
ATOM     10  H4  UNL     1      23.858 -13.059  -1.879  1.00  0.00     0.190 HD
BRANCH   8  11
HETATM   11  C6  UNL     1      21.256 -12.719  -2.425  1.00  0.00     0.143 C 
BRANCH  11  12
HETATM   12  C7  UNL     1      20.554 -13.815  -1.761  1.00  0.00    -0.049 A 
HETATM   13  C8  UNL     1      20.334 -15.019  -2.410  1.00  0.00     0.007 A 
HETATM   14  C9  UNL     1      19.677 -16.080  -1.823  1.00  0.00     0.001 A 
HETATM   15  C10 UNL     1      19.218 -15.931  -0.533  1.00  0.00     0.000 A 
HETATM   16  C11 UNL     1      19.424 -14.742   0.134  1.00  0.00     0.001 A 
HETATM   17  C12 UNL     1      20.080 -13.696  -0.465  1.00  0.00     0.007 A 
ENDBRANCH  11  12
ENDBRANCH   8  11
ENDBRANCH   5   7
ENDBRANCH   2   3
BRANCH   2  18
HETATM   18  N5  UNL     1      27.794 -12.582  -5.047  1.00  0.00    -0.311 N 
HETATM   19  C13 UNL     1      28.591 -13.000  -4.055  1.00  0.00     0.115 A 
HETATM   20  C14 UNL     1      29.694 -12.195  -3.984  1.00  0.00     0.106 A 
HETATM   21  N6  UNL     1      29.545 -11.276  -4.959  1.00  0.00    -0.360 N 
HETATM   22  C15 UNL     1      28.386 -11.516  -5.606  1.00  0.00     0.188 A 
ATOM     23  H6  UNL     1      30.200 -10.524  -5.172  1.00  0.00     0.166 HD
ENDBRANCH   2  18
BRANCH   1  24
HETATM   24  C1  UNL     1      27.603 -14.458  -7.120  1.00  0.00     0.348 C 
HETATM   25  N2  UNL     1      27.786 -13.845  -8.357  1.00  0.00    -0.288 NA
HETATM   26  O1  UNL     1      28.433 -15.300  -6.803  1.00  0.00    -0.249 OA
BRANCH  25  27
HETATM   27  N1  UNL     1      27.927 -13.365  -9.369  1.00  0.00    -0.276 N 
ATOM     28  H12 UNL     1      27.212 -13.389  -8.642  1.00  0.00     0.191 HD
ATOM     29  H11 UNL     1      28.071 -12.939 -10.285  1.00  0.00     0.191 HD
ENDBRANCH  25  27
ENDBRANCH   1  24
BRANCH   1  30
HETATM   30  C16 UNL     1      25.233 -14.823  -6.609  1.00  0.00    -0.017 A 
HETATM   31  C17 UNL     1      24.267 -14.304  -7.427  1.00  0.00     0.012 A 
HETATM   32  C18 UNL     1      23.139 -15.056  -7.784  1.00  0.00     0.001 A 
HETATM   33  C19 UNL     1      22.987 -16.335  -7.312  1.00  0.00     0.000 A 
HETATM   34  C20 UNL     1      23.956 -16.864  -6.489  1.00  0.00     0.001 A 
HETATM   35  C21 UNL     1      25.071 -16.094  -6.148  1.00  0.00     0.012 A 
ENDBRANCH   1  30
TORSDOF 8
ENDMDL
