MODEL 1
REMARK VINA RESULT: -8.565392177      0.000      0.000
REMARK  7 active torsions:
REMARK  status: ('A' for Active; 'I' for Inactive)
REMARK    1  A    between atoms: C1_2  and  C2_3 
REMARK       I    between atoms: C1_2  and  N3_18 
REMARK    2  A    between atoms: C2_3  and  C3_4 
REMARK       I    between atoms: C3_4  and  N1_6 
REMARK    3  A    between atoms: N1_6  and  C4_8 
REMARK    4  A    between atoms: C4_8  and  C5_9 
REMARK    5  A    between atoms: C10_14  and  N2_15 
REMARK    6  A    between atoms: N3_18  and  C11_20 
REMARK    7  A    between atoms: C12_25  and  C13_26 
ROOT
HETATM    1  O1  UNL     1      15.143 -18.187   0.581  1.00  0.00    -0.273 OA
HETATM    2  C1  UNL     1      16.177 -18.686   0.058  1.00  0.00     0.232 C 
HETATM    3  N3  UNL     1      17.476 -18.304   0.494  1.00  0.00    -0.306 N 
ATOM      4  H3  UNL     1      17.970 -18.826   1.218  1.00  0.00     0.171 HD
ENDROOT
BRANCH   2   5
HETATM    5  C2  UNL     1      15.995 -19.681  -1.024  1.00  0.00     0.205 C 
BRANCH   5   6
HETATM    6  C3  UNL     1      16.787 -20.916  -0.823  1.00  0.00     0.226 C 
HETATM    7  O2  UNL     1      16.325 -21.949  -0.243  1.00  0.00    -0.273 OA
HETATM    8  N1  UNL     1      18.134 -20.994  -1.287  1.00  0.00    -0.356 N 
ATOM      9  H1  UNL     1      18.544 -20.191  -1.763  1.00  0.00     0.162 HD
BRANCH   8  10
HETATM   10  C4  UNL     1      18.926 -22.180  -1.099  1.00  0.00     0.163 C 
BRANCH  10  11
HETATM   11  C5  UNL     1      20.007 -22.323  -2.078  1.00  0.00    -0.007 A 
HETATM   12  C6  UNL     1      19.767 -22.861  -3.346  1.00  0.00     0.011 A 
HETATM   13  C7  UNL     1      20.836 -23.012  -4.202  1.00  0.00     0.001 A 
HETATM   14  C8  UNL     1      22.107 -22.645  -3.829  1.00  0.00     0.002 A 
HETATM   15  C9  UNL     1      22.372 -22.115  -2.589  1.00  0.00     0.037 A 
HETATM   16  C10 UNL     1      21.284 -21.958  -1.710  1.00  0.00     0.110 A 
BRANCH  16  17
HETATM   17  N2  UNL     1      21.554 -21.385  -0.433  1.00  0.00    -0.115 N 
HETATM   18  O3  UNL     1      22.282 -21.925   0.398  1.00  0.00    -0.532 OA
HETATM   19  O4  UNL     1      20.996 -20.159  -0.080  1.00  0.00    -0.532 OA
ENDBRANCH  16  17
ENDBRANCH  10  11
ENDBRANCH   8  10
ENDBRANCH   5   6
ENDBRANCH   2   5
BRANCH   3  20
HETATM   20  C11 UNL     1      18.012 -17.248  -0.077  1.00  0.00     0.168 A 
HETATM   21  N4  UNL     1      17.494 -16.018  -0.154  1.00  0.00    -0.279 N 
HETATM   22  N5  UNL     1      18.154 -15.113  -0.746  1.00  0.00    -0.291 N 
ATOM     23  H4  UNL     1      16.584 -15.811   0.258  1.00  0.00     0.189 HD
HETATM   24  C12 UNL     1      19.339 -15.386  -1.281  1.00  0.00     0.102 A 
ATOM     25  H5  UNL     1      17.773 -14.169  -0.813  1.00  0.00     0.187 HD
HETATM   26  S1  UNL     1      19.501 -17.044  -0.901  1.00  0.00    -0.033 SA
BRANCH  24  27
HETATM   27  C13 UNL     1      20.257 -14.488  -2.003  1.00  0.00    -0.001 A 
HETATM   28  C14 UNL     1      20.660 -13.275  -1.567  1.00  0.00     0.014 A 
HETATM   29  C15 UNL     1      21.523 -12.491  -2.301  1.00  0.00     0.001 A 
HETATM   30  C16 UNL     1      21.987 -12.963  -3.519  1.00  0.00     0.000 A 
HETATM   31  C17 UNL     1      21.595 -14.187  -3.986  1.00  0.00     0.001 A 
HETATM   32  C18 UNL     1      20.734 -14.951  -3.236  1.00  0.00     0.014 A 
ENDBRANCH  24  27
ENDBRANCH   3  20
TORSDOF 7
ENDMDL
MODEL 2
REMARK VINA RESULT: -7.988678656      4.125      7.980
REMARK  7 active torsions:
REMARK  status: ('A' for Active; 'I' for Inactive)
REMARK    1  A    between atoms: C1_2  and  C2_3 
REMARK       I    between atoms: C1_2  and  N3_18 
REMARK    2  A    between atoms: C2_3  and  C3_4 
REMARK       I    between atoms: C3_4  and  N1_6 
REMARK    3  A    between atoms: N1_6  and  C4_8 
REMARK    4  A    between atoms: C4_8  and  C5_9 
REMARK    5  A    between atoms: C10_14  and  N2_15 
REMARK    6  A    between atoms: N3_18  and  C11_20 
REMARK    7  A    between atoms: C12_25  and  C13_26 
ROOT
HETATM    1  O1  UNL     1      20.964 -14.545   0.214  1.00  0.00    -0.273 OA
HETATM    2  C1  UNL     1      19.859 -14.501  -0.394  1.00  0.00     0.232 C 
HETATM    3  N3  UNL     1      18.725 -15.207   0.094  1.00  0.00    -0.306 N 
ATOM      4  H3  UNL     1      18.047 -14.763   0.714  1.00  0.00     0.171 HD
ENDROOT
BRANCH   2   5
HETATM    5  C2  UNL     1      19.781 -13.691  -1.632  1.00  0.00     0.205 C 
BRANCH   5   6
HETATM    6  C3  UNL     1      21.107 -13.394  -2.222  1.00  0.00     0.226 C 
HETATM    7  O2  UNL     1      21.688 -12.270  -2.089  1.00  0.00    -0.273 OA
HETATM    8  N1  UNL     1      21.800 -14.385  -2.978  1.00  0.00    -0.356 N 
ATOM      9  H1  UNL     1      21.374 -15.303  -3.105  1.00  0.00     0.162 HD
BRANCH   8  10
HETATM   10  C4  UNL     1      23.086 -14.119  -3.567  1.00  0.00     0.163 C 
BRANCH  10  11
HETATM   11  C5  UNL     1      23.131 -14.367  -5.010  1.00  0.00    -0.007 A 
HETATM   12  C6  UNL     1      23.359 -15.650  -5.517  1.00  0.00     0.011 A 
HETATM   13  C7  UNL     1      23.436 -15.806  -6.883  1.00  0.00     0.001 A 
HETATM   14  C8  UNL     1      23.294 -14.736  -7.734  1.00  0.00     0.002 A 
HETATM   15  C9  UNL     1      23.070 -13.464  -7.263  1.00  0.00     0.037 A 
HETATM   16  C10 UNL     1      22.989 -13.298  -5.868  1.00  0.00     0.110 A 
BRANCH  16  17
HETATM   17  N2  UNL     1      22.733 -11.984  -5.381  1.00  0.00    -0.115 N 
HETATM   18  O3  UNL     1      21.598 -11.569  -5.149  1.00  0.00    -0.532 OA
HETATM   19  O4  UNL     1      23.787 -11.106  -5.136  1.00  0.00    -0.532 OA
ENDBRANCH  16  17
ENDBRANCH  10  11
ENDBRANCH   8  10
ENDBRANCH   5   6
ENDBRANCH   2   5
BRANCH   3  20
HETATM   20  C11 UNL     1      18.591 -16.458  -0.286  1.00  0.00     0.168 A 
HETATM   21  N4  UNL     1      17.545 -17.263  -0.072  1.00  0.00    -0.279 N 
HETATM   22  N5  UNL     1      17.586 -18.450  -0.514  1.00  0.00    -0.291 N 
ATOM     23  H4  UNL     1      16.728 -16.926   0.437  1.00  0.00     0.189 HD
HETATM   24  C12 UNL     1      18.651 -18.883  -1.177  1.00  0.00     0.102 A 
ATOM     25  H5  UNL     1      16.795 -19.075  -0.359  1.00  0.00     0.187 HD
HETATM   26  S1  UNL     1      19.644 -17.492  -1.157  1.00  0.00    -0.033 SA
BRANCH  24  27
HETATM   27  C13 UNL     1      18.896 -20.211  -1.767  1.00  0.00    -0.001 A 
HETATM   28  C14 UNL     1      17.954 -20.992  -2.339  1.00  0.00     0.014 A 
HETATM   29  C15 UNL     1      18.261 -22.225  -2.871  1.00  0.00     0.001 A 
HETATM   30  C16 UNL     1      19.572 -22.673  -2.816  1.00  0.00     0.000 A 
HETATM   31  C17 UNL     1      20.546 -21.903  -2.242  1.00  0.00     0.001 A 
HETATM   32  C18 UNL     1      20.216 -20.677  -1.719  1.00  0.00     0.014 A 
ENDBRANCH  24  27
ENDBRANCH   3  20
TORSDOF 7
ENDMDL
MODEL 3
REMARK VINA RESULT: -7.944120610      5.942      8.368
REMARK  7 active torsions:
REMARK  status: ('A' for Active; 'I' for Inactive)
REMARK    1  A    between atoms: C1_2  and  C2_3 
REMARK       I    between atoms: C1_2  and  N3_18 
REMARK    2  A    between atoms: C2_3  and  C3_4 
REMARK       I    between atoms: C3_4  and  N1_6 
REMARK    3  A    between atoms: N1_6  and  C4_8 
REMARK    4  A    between atoms: C4_8  and  C5_9 
REMARK    5  A    between atoms: C10_14  and  N2_15 
REMARK    6  A    between atoms: N3_18  and  C11_20 
REMARK    7  A    between atoms: C12_25  and  C13_26 
ROOT
HETATM    1  O1  UNL     1      26.225 -12.394  -4.683  1.00  0.00    -0.273 OA
HETATM    2  C1  UNL     1      25.777 -13.338  -5.391  1.00  0.00     0.232 C 
HETATM    3  N3  UNL     1      24.473 -13.276  -5.954  1.00  0.00    -0.306 N 
ATOM      4  H3  UNL     1      24.315 -12.912  -6.894  1.00  0.00     0.171 HD
ENDROOT
BRANCH   2   5
HETATM    5  C2  UNL     1      26.653 -14.510  -5.615  1.00  0.00     0.205 C 
BRANCH   5   6
HETATM    6  C3  UNL     1      26.318 -15.264  -6.845  1.00  0.00     0.226 C 
HETATM    7  O2  UNL     1      25.899 -14.705  -7.908  1.00  0.00    -0.273 OA
HETATM    8  N1  UNL     1      26.460 -16.683  -6.884  1.00  0.00    -0.356 N 
ATOM      9  H1  UNL     1      26.798 -17.173  -6.056  1.00  0.00     0.162 HD
BRANCH   8  10
HETATM   10  C4  UNL     1      26.135 -17.439  -8.065  1.00  0.00     0.163 C 
BRANCH  10  11
HETATM   11  C5  UNL     1      25.537 -18.745  -7.777  1.00  0.00    -0.007 A 
HETATM   12  C6  UNL     1      26.199 -19.932  -8.106  1.00  0.00     0.011 A 
HETATM   13  C7  UNL     1      25.561 -21.126  -7.850  1.00  0.00     0.001 A 
HETATM   14  C8  UNL     1      24.307 -21.159  -7.288  1.00  0.00     0.002 A 
HETATM   15  C9  UNL     1      23.633 -20.009  -6.955  1.00  0.00     0.037 A 
HETATM   16  C10 UNL     1      24.280 -18.785  -7.213  1.00  0.00     0.110 A 
BRANCH  16  17
HETATM   17  N2  UNL     1      23.592 -17.593  -6.846  1.00  0.00    -0.115 N 
HETATM   18  O3  UNL     1      23.691 -17.084  -5.731  1.00  0.00    -0.532 OA
HETATM   19  O4  UNL     1      22.772 -16.944  -7.765  1.00  0.00    -0.532 OA
ENDBRANCH  16  17
ENDBRANCH  10  11
ENDBRANCH   8  10
ENDBRANCH   5   6
ENDBRANCH   2   5
BRANCH   3  20
HETATM   20  C11 UNL     1      23.479 -13.707  -5.210  1.00  0.00     0.168 A 
HETATM   21  N4  UNL     1      22.505 -14.549  -5.568  1.00  0.00    -0.279 N 
HETATM   22  N5  UNL     1      21.620 -14.860  -4.716  1.00  0.00    -0.291 N 
ATOM     23  H4  UNL     1      22.474 -14.936  -6.512  1.00  0.00     0.189 HD
HETATM   24  C12 UNL     1      21.664 -14.354  -3.488  1.00  0.00     0.102 A 
ATOM     25  H5  UNL     1      20.871 -15.501  -4.974  1.00  0.00     0.187 HD
HETATM   26  S1  UNL     1      23.064 -13.378  -3.580  1.00  0.00    -0.033 SA
BRANCH  24  27
HETATM   27  C13 UNL     1      20.745 -14.585  -2.360  1.00  0.00    -0.001 A 
HETATM   28  C14 UNL     1      19.914 -15.643  -2.239  1.00  0.00     0.014 A 
HETATM   29  C15 UNL     1      19.082 -15.788  -1.151  1.00  0.00     0.001 A 
HETATM   30  C16 UNL     1      19.099 -14.822  -0.156  1.00  0.00     0.000 A 
HETATM   31  C17 UNL     1      19.930 -13.740  -0.254  1.00  0.00     0.001 A 
HETATM   32  C18 UNL     1      20.751 -13.617  -1.348  1.00  0.00     0.014 A 
ENDBRANCH  24  27
ENDBRANCH   3  20
TORSDOF 7
ENDMDL
MODEL 4
REMARK VINA RESULT: -7.876616675      3.859      7.900
REMARK  7 active torsions:
REMARK  status: ('A' for Active; 'I' for Inactive)
REMARK    1  A    between atoms: C1_2  and  C2_3 
REMARK       I    between atoms: C1_2  and  N3_18 
REMARK    2  A    between atoms: C2_3  and  C3_4 
REMARK       I    between atoms: C3_4  and  N1_6 
REMARK    3  A    between atoms: N1_6  and  C4_8 
REMARK    4  A    between atoms: C4_8  and  C5_9 
REMARK    5  A    between atoms: C10_14  and  N2_15 
REMARK    6  A    between atoms: N3_18  and  C11_20 
REMARK    7  A    between atoms: C12_25  and  C13_26 
ROOT
HETATM    1  O1  UNL     1      21.053 -14.596   0.489  1.00  0.00    -0.273 OA
HETATM    2  C1  UNL     1      20.087 -14.445  -0.309  1.00  0.00     0.232 C 
HETATM    3  N3  UNL     1      18.898 -15.213  -0.173  1.00  0.00    -0.306 N 
ATOM      4  H3  UNL     1      18.101 -14.872   0.365  1.00  0.00     0.171 HD
ENDROOT
BRANCH   2   5
HETATM    5  C2  UNL     1      20.231 -13.443  -1.389  1.00  0.00     0.205 C 
BRANCH   5   6
HETATM    6  C3  UNL     1      20.996 -13.944  -2.555  1.00  0.00     0.226 C 
HETATM    7  O2  UNL     1      20.957 -15.156  -2.939  1.00  0.00    -0.273 OA
HETATM    8  N1  UNL     1      21.825 -13.062  -3.308  1.00  0.00    -0.356 N 
ATOM      9  H1  UNL     1      21.882 -12.080  -3.039  1.00  0.00     0.162 HD
BRANCH   8  10
HETATM   10  C4  UNL     1      22.583 -13.526  -4.440  1.00  0.00     0.163 C 
BRANCH  10  11
HETATM   11  C5  UNL     1      24.001 -13.746  -4.144  1.00  0.00    -0.007 A 
HETATM   12  C6  UNL     1      24.638 -13.061  -3.106  1.00  0.00     0.011 A 
HETATM   13  C7  UNL     1      25.984 -13.280  -2.911  1.00  0.00     0.001 A 
HETATM   14  C8  UNL     1      26.690 -14.147  -3.710  1.00  0.00     0.002 A 
HETATM   15  C9  UNL     1      26.090 -14.833  -4.738  1.00  0.00     0.037 A 
HETATM   16  C10 UNL     1      24.714 -14.615  -4.943  1.00  0.00     0.110 A 
BRANCH  16  17
HETATM   17  N2  UNL     1      24.087 -15.344  -5.993  1.00  0.00    -0.115 N 
HETATM   18  O3  UNL     1      24.017 -14.924  -7.146  1.00  0.00    -0.532 OA
HETATM   19  O4  UNL     1      23.526 -16.595  -5.743  1.00  0.00    -0.532 OA
ENDBRANCH  16  17
ENDBRANCH  10  11
ENDBRANCH   8  10
ENDBRANCH   5   6
ENDBRANCH   2   5
BRANCH   3  20
HETATM   20  C11 UNL     1      18.871 -16.384  -0.770  1.00  0.00     0.168 A 
HETATM   21  N4  UNL     1      18.602 -16.632  -2.056  1.00  0.00    -0.279 N 
HETATM   22  N5  UNL     1      18.620 -17.831  -2.464  1.00  0.00    -0.291 N 
ATOM     23  H4  UNL     1      18.387 -15.868  -2.697  1.00  0.00     0.189 HD
HETATM   24  C12 UNL     1      18.902 -18.822  -1.627  1.00  0.00     0.102 A 
ATOM     25  H5  UNL     1      18.417 -18.036  -3.443  1.00  0.00     0.187 HD
HETATM   26  S1  UNL     1      19.153 -17.964  -0.170  1.00  0.00    -0.033 SA
BRANCH  24  27
HETATM   27  C13 UNL     1      18.975 -20.268  -1.896  1.00  0.00    -0.001 A 
HETATM   28  C14 UNL     1      17.966 -21.019  -2.390  1.00  0.00     0.014 A 
HETATM   29  C15 UNL     1      18.112 -22.370  -2.616  1.00  0.00     0.001 A 
HETATM   30  C16 UNL     1      19.327 -22.972  -2.326  1.00  0.00     0.000 A 
HETATM   31  C17 UNL     1      20.365 -22.237  -1.824  1.00  0.00     0.001 A 
HETATM   32  C18 UNL     1      20.196 -20.891  -1.608  1.00  0.00     0.014 A 
ENDBRANCH  24  27
ENDBRANCH   3  20
TORSDOF 7
ENDMDL
MODEL 5
REMARK VINA RESULT: -7.843800829      4.090      8.830
REMARK  7 active torsions:
REMARK  status: ('A' for Active; 'I' for Inactive)
REMARK    1  A    between atoms: C1_2  and  C2_3 
REMARK       I    between atoms: C1_2  and  N3_18 
REMARK    2  A    between atoms: C2_3  and  C3_4 
REMARK       I    between atoms: C3_4  and  N1_6 
REMARK    3  A    between atoms: N1_6  and  C4_8 
REMARK    4  A    between atoms: C4_8  and  C5_9 
REMARK    5  A    between atoms: C10_14  and  N2_15 
REMARK    6  A    between atoms: N3_18  and  C11_20 
REMARK    7  A    between atoms: C12_25  and  C13_26 
ROOT
HETATM    1  O1  UNL     1      20.891 -14.374   0.265  1.00  0.00    -0.273 OA
HETATM    2  C1  UNL     1      19.851 -14.349  -0.450  1.00  0.00     0.232 C 
HETATM    3  N3  UNL     1      18.660 -15.005  -0.035  1.00  0.00    -0.306 N 
ATOM      4  H3  UNL     1      17.934 -14.513   0.487  1.00  0.00     0.171 HD
ENDROOT
BRANCH   2   5
HETATM    5  C2  UNL     1      19.913 -13.615  -1.735  1.00  0.00     0.205 C 
BRANCH   5   6
HETATM    6  C3  UNL     1      21.154 -13.875  -2.500  1.00  0.00     0.226 C 
HETATM    7  O2  UNL     1      21.232 -14.753  -3.417  1.00  0.00    -0.273 OA
HETATM    8  N1  UNL     1      22.339 -13.129  -2.229  1.00  0.00    -0.356 N 
ATOM      9  H1  UNL     1      22.321 -12.410  -1.505  1.00  0.00     0.162 HD
BRANCH   8  10
HETATM   10  C4  UNL     1      23.560 -13.367  -2.953  1.00  0.00     0.163 C 
BRANCH  10  11
HETATM   11  C5  UNL     1      24.298 -12.143  -3.273  1.00  0.00    -0.007 A 
HETATM   12  C6  UNL     1      25.391 -11.735  -2.503  1.00  0.00     0.011 A 
HETATM   13  C7  UNL     1      26.012 -10.549  -2.830  1.00  0.00     0.001 A 
HETATM   14  C8  UNL     1      25.576  -9.782  -3.883  1.00  0.00     0.002 A 
HETATM   15  C9  UNL     1      24.504 -10.158  -4.657  1.00  0.00     0.037 A 
HETATM   16  C10 UNL     1      23.866 -11.369  -4.329  1.00  0.00     0.110 A 
BRANCH  16  17
HETATM   17  N2  UNL     1      22.770 -11.770  -5.145  1.00  0.00    -0.115 N 
HETATM   18  O3  UNL     1      21.603 -11.485  -4.881  1.00  0.00    -0.532 OA
HETATM   19  O4  UNL     1      22.991 -12.510  -6.305  1.00  0.00    -0.532 OA
ENDBRANCH  16  17
ENDBRANCH  10  11
ENDBRANCH   8  10
ENDBRANCH   5   6
ENDBRANCH   2   5
BRANCH   3  20
HETATM   20  C11 UNL     1      18.534 -16.274  -0.353  1.00  0.00     0.168 A 
HETATM   21  N4  UNL     1      17.539 -17.100  -0.016  1.00  0.00    -0.279 N 
HETATM   22  N5  UNL     1      17.581 -18.302  -0.412  1.00  0.00    -0.291 N 
ATOM     23  H4  UNL     1      16.758 -16.767   0.551  1.00  0.00     0.189 HD
HETATM   24  C12 UNL     1      18.598 -18.732  -1.150  1.00  0.00     0.102 A 
ATOM     25  H5  UNL     1      16.828 -18.944  -0.163  1.00  0.00     0.187 HD
HETATM   26  S1  UNL     1      19.542 -17.312  -1.272  1.00  0.00    -0.033 SA
BRANCH  24  27
HETATM   27  C13 UNL     1      18.835 -20.075  -1.707  1.00  0.00    -0.001 A 
HETATM   28  C14 UNL     1      17.897 -20.848  -2.297  1.00  0.00     0.014 A 
HETATM   29  C15 UNL     1      18.196 -22.096  -2.795  1.00  0.00     0.001 A 
HETATM   30  C16 UNL     1      19.495 -22.570  -2.686  1.00  0.00     0.000 A 
HETATM   31  C17 UNL     1      20.464 -21.809  -2.093  1.00  0.00     0.001 A 
HETATM   32  C18 UNL     1      20.142 -20.567  -1.604  1.00  0.00     0.014 A 
ENDBRANCH  24  27
ENDBRANCH   3  20
TORSDOF 7
ENDMDL
