MODEL 1
REMARK VINA RESULT: -6.864870615      0.000      0.000
REMARK  12 active torsions:
REMARK  status: ('A' for Active; 'I' for Inactive)
REMARK    1  A    between atoms: N1_1  and  C1_5 
REMARK    2  A    between atoms: C1_5  and  C2_6 
REMARK    3  A    between atoms: C3_7  and  N2_8 
REMARK       I    between atoms: N3_14  and  C6_16 
REMARK    4  A    between atoms: C6_16  and  C7_18 
REMARK    5  A    between atoms: C7_18  and  C8_19 
REMARK    6  A    between atoms: C8_19  and  C9_20 
REMARK    7  A    between atoms: C9_20  and  N4_21 
REMARK       I    between atoms: N4_21  and  C10_24 
REMARK       I    between atoms: C10_24  and  N5_25 
REMARK       I    between atoms: C10_24  and  N6_29 
REMARK    8  A    between atoms: C11_33  and  N7_34 
REMARK    9  A    between atoms: C12_38  and  N8_39 
REMARK   10  A    between atoms: C14_44  and  N11_45 
REMARK   11  A    between atoms: C14_44  and  C15_50 
REMARK   12  A    between atoms: N11_45  and  N12_47 
ROOT
HETATM    1  C2  UNL     1      24.904 -31.901 283.398  1.00  0.00     0.088 C 
HETATM    2  C3  UNL     1      26.059 -32.781 283.707  1.00  0.00     0.198 C 
HETATM    3  C4  UNL     1      27.324 -32.047 283.875  1.00  0.00     0.088 C 
HETATM    4  C5  UNL     1      27.807 -31.537 282.583  1.00  0.00     0.027 C 
HETATM    5  N3  UNL     1      29.035 -31.140 282.646  1.00  0.00    -0.332 N 
ATOM      6  H3  UNL     1      29.436 -30.772 281.783  1.00  0.00     0.168 HD
HETATM    7  C6  UNL     1      29.872 -31.156 283.759  1.00  0.00     0.221 C 
HETATM    8  O1  UNL     1      30.467 -32.202 284.080  1.00  0.00    -0.273 OA
HETATM    9  C11 UNL     1      27.252 -31.362 281.251  1.00  0.00     0.277 C 
HETATM   10  C12 UNL     1      25.839 -31.717 281.032  1.00  0.00     0.066 C 
HETATM   11  C14 UNL     1      24.828 -31.316 282.067  1.00  0.00     0.180 C 
ENDROOT
BRANCH   9  12
HETATM   12  N7  UNL     1      28.068 -32.163 280.350  1.00  0.00    -0.065 N 
ATOM     13  H73 UNL     1      29.007 -32.341 280.708  1.00  0.00     0.275 HD
ATOM     14  H72 UNL     1      27.768 -33.136 280.291  1.00  0.00     0.275 HD
ATOM     15  H71 UNL     1      28.064 -31.685 279.449  1.00  0.00     0.275 HD
ENDBRANCH   9  12
BRANCH   2  16
HETATM   16  N2  UNL     1      25.769 -33.442 284.995  1.00  0.00    -0.074 N 
ATOM     17  H23 UNL     1      24.901 -33.120 285.423  1.00  0.00     0.274 HD
ATOM     18  H22 UNL     1      25.508 -34.423 284.891  1.00  0.00     0.274 HD
ATOM     19  H21 UNL     1      26.584 -33.306 285.592  1.00  0.00     0.274 HD
ENDBRANCH   2  16
BRANCH   7  20
HETATM   20  C7  UNL     1      30.056 -29.934 284.558  1.00  0.00     0.105 C 
BRANCH  20  21
HETATM   21  C8  UNL     1      31.223 -29.915 285.472  1.00  0.00     0.037 C 
BRANCH  21  22
HETATM   22  C9  UNL     1      32.539 -30.275 284.862  1.00  0.00     0.237 C 
BRANCH  22  23
HETATM   23  N4  UNL     1      33.188 -31.374 285.547  1.00  0.00    -0.022 N 
HETATM   24  C10 UNL     1      34.618 -31.309 285.545  1.00  0.00     0.575 C 
HETATM   25  N5  UNL     1      35.179 -30.148 286.167  1.00  0.00    -0.026 N 
HETATM   26  N6  UNL     1      35.091 -32.507 286.249  1.00  0.00    -0.026 N 
ATOM     27  H53 UNL     1      34.789 -29.304 285.749  1.00  0.00     0.278 HD
ATOM     28  H52 UNL     1      34.826 -30.056 287.120  1.00  0.00     0.278 HD
ATOM     29  H51 UNL     1      36.198 -30.101 286.166  1.00  0.00     0.278 HD
ATOM     30  H63 UNL     1      34.694 -32.612 287.182  1.00  0.00     0.278 HD
ATOM     31  H62 UNL     1      34.726 -33.376 285.858  1.00  0.00     0.278 HD
ATOM     32  H61 UNL     1      36.110 -32.461 286.248  1.00  0.00     0.278 HD
ATOM     33  H42 UNL     1      32.838 -31.456 286.501  1.00  0.00     0.281 HD
ATOM     34  H41 UNL     1      32.872 -32.266 285.168  1.00  0.00     0.281 HD
ENDBRANCH  22  23
ENDBRANCH  21  22
ENDBRANCH  20  21
ENDBRANCH   7  20
BRANCH  10  35
HETATM   35  N8  UNL     1      25.698 -33.074 280.550  1.00  0.00    -0.335 N 
HETATM   36  C13 UNL     1      25.172 -33.454 279.464  1.00  0.00     0.201 C 
HETATM   37  N9  UNL     1      25.131 -34.837 279.175  1.00  0.00    -0.067 NA
HETATM   38  N10 UNL     1      24.611 -32.564 278.513  1.00  0.00    -0.067 NA
ATOM     39  H8  UNL     1      26.065 -33.809 281.156  1.00  0.00     0.168 HD
ENDBRANCH  10  35
BRANCH   1  40
HETATM   40  C1  UNL     1      24.680 -30.965 284.566  1.00  0.00     0.239 C 
BRANCH  40  41
HETATM   41  N1  UNL     1      23.315 -30.956 285.002  1.00  0.00    -0.079 N 
ATOM     42  H13 UNL     1      22.992 -30.006 285.183  1.00  0.00     0.274 HD
ATOM     43  H12 UNL     1      22.683 -31.200 284.240  1.00  0.00     0.274 HD
ATOM     44  H11 UNL     1      23.164 -31.557 285.813  1.00  0.00     0.274 HD
ENDBRANCH  40  41
ENDBRANCH   1  40
BRANCH  11  45
HETATM   45  N11 UNL     1      23.544 -31.553 281.408  1.00  0.00    -0.316 N 
ATOM     46  H11 UNL     1      23.016 -32.412 281.563  1.00  0.00     0.181 HD
BRANCH  45  47
HETATM   47  N12 UNL     1      23.089 -30.583 280.586  1.00  0.00    -0.348 N 
ATOM     48 2H12 UNL     1      23.684 -30.207 279.847  1.00  0.00     0.176 HD
ATOM     49 1H12 UNL     1      22.136 -30.254 280.742  1.00  0.00     0.176 HD
ENDBRANCH  45  47
ENDBRANCH  11  45
BRANCH  11  50
HETATM   50  C15 UNL     1      24.921 -29.815 282.141  1.00  0.00     0.210 C 
HETATM   51  O2  UNL     1      25.961 -29.180 281.747  1.00  0.00    -0.646 OA
HETATM   52  O3  UNL     1      23.916 -29.005 282.632  1.00  0.00    -0.646 OA
ENDBRANCH  11  50
TORSDOF 12
ENDMDL
MODEL 2
REMARK VINA RESULT: -6.311691458      3.931      6.452
REMARK  12 active torsions:
REMARK  status: ('A' for Active; 'I' for Inactive)
REMARK    1  A    between atoms: N1_1  and  C1_5 
REMARK    2  A    between atoms: C1_5  and  C2_6 
REMARK    3  A    between atoms: C3_7  and  N2_8 
REMARK       I    between atoms: N3_14  and  C6_16 
REMARK    4  A    between atoms: C6_16  and  C7_18 
REMARK    5  A    between atoms: C7_18  and  C8_19 
REMARK    6  A    between atoms: C8_19  and  C9_20 
REMARK    7  A    between atoms: C9_20  and  N4_21 
REMARK       I    between atoms: N4_21  and  C10_24 
REMARK       I    between atoms: C10_24  and  N5_25 
REMARK       I    between atoms: C10_24  and  N6_29 
REMARK    8  A    between atoms: C11_33  and  N7_34 
REMARK    9  A    between atoms: C12_38  and  N8_39 
REMARK   10  A    between atoms: C14_44  and  N11_45 
REMARK   11  A    between atoms: C14_44  and  C15_50 
REMARK   12  A    between atoms: N11_45  and  N12_47 
ROOT
HETATM    1  C2  UNL     1      26.315 -31.096 283.132  1.00  0.00     0.088 C 
HETATM    2  C3  UNL     1      26.919 -32.238 282.401  1.00  0.00     0.198 C 
HETATM    3  C4  UNL     1      26.155 -32.637 281.208  1.00  0.00     0.088 C 
HETATM    4  C5  UNL     1      24.896 -33.294 281.588  1.00  0.00     0.027 C 
HETATM    5  N3  UNL     1      24.342 -33.900 280.591  1.00  0.00    -0.332 N 
ATOM      6  H3  UNL     1      23.462 -34.378 280.784  1.00  0.00     0.168 HD
HETATM    7  C6  UNL     1      24.812 -33.974 279.282  1.00  0.00     0.221 C 
HETATM    8  O1  UNL     1      25.681 -34.813 278.974  1.00  0.00    -0.273 OA
HETATM    9  C11 UNL     1      24.110 -33.429 282.804  1.00  0.00     0.277 C 
HETATM   10  C12 UNL     1      24.581 -32.744 284.019  1.00  0.00     0.066 C 
HETATM   11  C14 UNL     1      25.100 -31.340 283.898  1.00  0.00     0.180 C 
ENDROOT
BRANCH   9  12
HETATM   12  N7  UNL     1      24.026 -34.856 283.089  1.00  0.00    -0.065 N 
ATOM     13  H73 UNL     1      24.934 -35.285 283.266  1.00  0.00     0.275 HD
ATOM     14  H72 UNL     1      23.608 -35.062 283.996  1.00  0.00     0.275 HD
ATOM     15  H71 UNL     1      23.525 -35.279 282.308  1.00  0.00     0.275 HD
ENDBRANCH   9  12
BRANCH   2  16
HETATM   16  N2  UNL     1      28.250 -31.801 281.936  1.00  0.00    -0.074 N 
ATOM     17  H23 UNL     1      28.454 -32.090 280.979  1.00  0.00     0.274 HD
ATOM     18  H22 UNL     1      28.310 -30.794 281.785  1.00  0.00     0.274 HD
ATOM     19  H21 UNL     1      28.932 -32.145 282.612  1.00  0.00     0.274 HD
ENDBRANCH   2  16
BRANCH   7  20
HETATM   20  C7  UNL     1      24.281 -33.061 278.258  1.00  0.00     0.105 C 
BRANCH  20  21
HETATM   21  C8  UNL     1      24.631 -31.628 278.408  1.00  0.00     0.037 C 
BRANCH  21  22
HETATM   22  C9  UNL     1      25.956 -31.339 279.034  1.00  0.00     0.237 C 
BRANCH  22  23
HETATM   23  N4  UNL     1      26.943 -30.897 278.070  1.00  0.00    -0.022 N 
HETATM   24  C10 UNL     1      28.124 -31.704 278.023  1.00  0.00     0.575 C 
HETATM   25  N5  UNL     1      27.913 -33.079 277.681  1.00  0.00    -0.026 N 
HETATM   26  N6  UNL     1      29.009 -31.092 277.023  1.00  0.00    -0.026 N 
ATOM     27  H53 UNL     1      27.229 -33.495 278.312  1.00  0.00     0.278 HD
ATOM     28  H52 UNL     1      27.407 -33.147 276.798  1.00  0.00     0.278 HD
ATOM     29  H51 UNL     1      28.755 -33.654 277.647  1.00  0.00     0.278 HD
ATOM     30  H63 UNL     1      28.566 -30.969 276.112  1.00  0.00     0.278 HD
ATOM     31  H62 UNL     1      29.200 -30.106 277.204  1.00  0.00     0.278 HD
ATOM     32  H61 UNL     1      29.850 -31.667 276.989  1.00  0.00     0.278 HD
ATOM     33  H42 UNL     1      26.526 -30.822 277.142  1.00  0.00     0.281 HD
ATOM     34  H41 UNL     1      27.186 -29.920 278.231  1.00  0.00     0.281 HD
ENDBRANCH  22  23
ENDBRANCH  21  22
ENDBRANCH  20  21
ENDBRANCH   7  20
BRANCH  10  35
HETATM   35  N8  UNL     1      25.393 -33.614 284.843  1.00  0.00    -0.335 N 
HETATM   36  C13 UNL     1      25.020 -34.300 285.839  1.00  0.00     0.201 C 
HETATM   37  N9  UNL     1      25.974 -35.092 286.516  1.00  0.00    -0.067 NA
HETATM   38  N10 UNL     1      23.686 -34.314 286.323  1.00  0.00    -0.067 NA
ATOM     39  H8  UNL     1      26.380 -33.683 284.591  1.00  0.00     0.168 HD
ENDBRANCH  10  35
BRANCH   1  40
HETATM   40  C1  UNL     1      26.314 -29.885 282.224  1.00  0.00     0.239 C 
BRANCH  40  41
HETATM   41  N1  UNL     1      27.625 -29.329 282.058  1.00  0.00    -0.079 N 
ATOM     42  H13 UNL     1      27.648 -28.349 282.340  1.00  0.00     0.274 HD
ATOM     43  H12 UNL     1      28.277 -29.710 282.744  1.00  0.00     0.274 HD
ATOM     44  H11 UNL     1      27.977 -29.447 281.108  1.00  0.00     0.274 HD
ENDBRANCH  40  41
ENDBRANCH   1  40
BRANCH  11  45
HETATM   45  N11 UNL     1      25.195 -30.883 285.284  1.00  0.00    -0.316 N 
ATOM     46  H11 UNL     1      25.933 -30.248 285.587  1.00  0.00     0.181 HD
BRANCH  45  47
HETATM   47  N12 UNL     1      24.260 -31.341 286.145  1.00  0.00    -0.348 N 
ATOM     48 2H12 UNL     1      23.325 -30.931 286.163  1.00  0.00     0.176 HD
ATOM     49 1H12 UNL     1      24.535 -32.104 286.762  1.00  0.00     0.176 HD
ENDBRANCH  45  47
ENDBRANCH  11  45
BRANCH  11  50
HETATM   50  C15 UNL     1      23.951 -30.547 283.336  1.00  0.00     0.210 C 
HETATM   51  O2  UNL     1      23.259 -29.750 284.062  1.00  0.00    -0.646 OA
HETATM   52  O3  UNL     1      23.546 -30.606 282.017  1.00  0.00    -0.646 OA
ENDBRANCH  11  50
TORSDOF 12
ENDMDL
MODEL 3
REMARK VINA RESULT: -6.001996371      3.644      6.393
REMARK  12 active torsions:
REMARK  status: ('A' for Active; 'I' for Inactive)
REMARK    1  A    between atoms: N1_1  and  C1_5 
REMARK    2  A    between atoms: C1_5  and  C2_6 
REMARK    3  A    between atoms: C3_7  and  N2_8 
REMARK       I    between atoms: N3_14  and  C6_16 
REMARK    4  A    between atoms: C6_16  and  C7_18 
REMARK    5  A    between atoms: C7_18  and  C8_19 
REMARK    6  A    between atoms: C8_19  and  C9_20 
REMARK    7  A    between atoms: C9_20  and  N4_21 
REMARK       I    between atoms: N4_21  and  C10_24 
REMARK       I    between atoms: C10_24  and  N5_25 
REMARK       I    between atoms: C10_24  and  N6_29 
REMARK    8  A    between atoms: C11_33  and  N7_34 
REMARK    9  A    between atoms: C12_38  and  N8_39 
REMARK   10  A    between atoms: C14_44  and  N11_45 
REMARK   11  A    between atoms: C14_44  and  C15_50 
REMARK   12  A    between atoms: N11_45  and  N12_47 
ROOT
HETATM    1  C2  UNL     1      25.463 -32.159 283.731  1.00  0.00     0.088 C 
HETATM    2  C3  UNL     1      24.434 -33.132 283.286  1.00  0.00     0.198 C 
HETATM    3  C4  UNL     1      24.745 -33.761 281.993  1.00  0.00     0.088 C 
HETATM    4  C5  UNL     1      24.590 -32.797 280.893  1.00  0.00     0.027 C 
HETATM    5  N3  UNL     1      24.580 -33.375 279.737  1.00  0.00    -0.332 N 
ATOM      6  H3  UNL     1      24.476 -32.764 278.927  1.00  0.00     0.168 HD
HETATM    7  C6  UNL     1      24.695 -34.738 279.474  1.00  0.00     0.221 C 
HETATM    8  O1  UNL     1      23.698 -35.480 279.565  1.00  0.00    -0.273 OA
HETATM    9  C11 UNL     1      24.452 -31.355 280.775  1.00  0.00     0.277 C 
HETATM   10  C12 UNL     1      24.503 -30.546 282.004  1.00  0.00     0.066 C 
HETATM   11  C14 UNL     1      25.536 -30.879 283.042  1.00  0.00     0.180 C 
ENDROOT
BRANCH   9  12
HETATM   12  N7  UNL     1      23.172 -31.111 280.122  1.00  0.00    -0.065 N 
ATOM     13  H73 UNL     1      22.912 -30.125 280.102  1.00  0.00     0.275 HD
ATOM     14  H72 UNL     1      23.200 -31.256 279.112  1.00  0.00     0.275 HD
ATOM     15  H71 UNL     1      22.487 -31.701 280.594  1.00  0.00     0.275 HD
ENDBRANCH   9  12
BRANCH   2  16
HETATM   16  N2  UNL     1      24.393 -34.212 284.293  1.00  0.00    -0.074 N 
ATOM     17  H23 UNL     1      24.287 -35.139 283.880  1.00  0.00     0.274 HD
ATOM     18  H22 UNL     1      25.294 -34.371 284.745  1.00  0.00     0.274 HD
ATOM     19  H21 UNL     1      23.650 -33.980 284.952  1.00  0.00     0.274 HD
ENDBRANCH   2  16
BRANCH   7  20
HETATM   20  C7  UNL     1      25.996 -35.305 279.086  1.00  0.00     0.105 C 
BRANCH  20  21
HETATM   21  C8  UNL     1      26.487 -34.959 277.730  1.00  0.00     0.037 C 
BRANCH  21  22
HETATM   22  C9  UNL     1      26.218 -33.562 277.272  1.00  0.00     0.237 C 
BRANCH  22  23
HETATM   23  N4  UNL     1      27.432 -32.838 276.952  1.00  0.00    -0.022 N 
HETATM   24  C10 UNL     1      27.740 -31.775 277.859  1.00  0.00     0.575 C 
HETATM   25  N5  UNL     1      27.935 -32.169 279.221  1.00  0.00    -0.026 N 
HETATM   26  N6  UNL     1      28.970 -31.146 277.361  1.00  0.00    -0.026 N 
ATOM     27  H53 UNL     1      27.123 -32.689 279.554  1.00  0.00     0.278 HD
ATOM     28  H52 UNL     1      28.649 -32.896 279.277  1.00  0.00     0.278 HD
ATOM     29  H51 UNL     1      28.155 -31.412 279.868  1.00  0.00     0.278 HD
ATOM     30  H63 UNL     1      29.739 -31.804 277.234  1.00  0.00     0.278 HD
ATOM     31  H62 UNL     1      28.903 -30.841 276.389  1.00  0.00     0.278 HD
ATOM     32  H61 UNL     1      29.190 -30.388 278.007  1.00  0.00     0.278 HD
ATOM     33  H42 UNL     1      28.220 -33.480 276.875  1.00  0.00     0.281 HD
ATOM     34  H41 UNL     1      27.396 -32.490 275.994  1.00  0.00     0.281 HD
ENDBRANCH  22  23
ENDBRANCH  21  22
ENDBRANCH  20  21
ENDBRANCH   7  20
BRANCH  10  35
HETATM   35  N8  UNL     1      23.180 -30.296 282.535  1.00  0.00    -0.335 N 
HETATM   36  C13 UNL     1      22.705 -29.192 282.930  1.00  0.00     0.201 C 
HETATM   37  N9  UNL     1      21.380 -29.156 283.418  1.00  0.00    -0.067 NA
HETATM   38  N10 UNL     1      23.437 -27.976 282.917  1.00  0.00    -0.067 NA
ATOM     39  H8  UNL     1      22.558 -31.103 282.596  1.00  0.00     0.168 HD
ENDBRANCH  10  35
BRANCH   1  40
HETATM   40  C1  UNL     1      26.769 -32.895 283.939  1.00  0.00     0.239 C 
BRANCH  40  41
HETATM   41  N1  UNL     1      27.293 -32.710 285.261  1.00  0.00    -0.079 N 
ATOM     42  H13 UNL     1      26.543 -32.578 285.939  1.00  0.00     0.274 HD
ATOM     43  H12 UNL     1      27.689 -33.577 285.625  1.00  0.00     0.274 HD
ATOM     44  H11 UNL     1      27.969 -31.948 285.305  1.00  0.00     0.274 HD
ENDBRANCH  40  41
ENDBRANCH   1  40
BRANCH  11  45
HETATM   45  N11 UNL     1      25.497 -29.734 283.951  1.00  0.00    -0.316 N 
ATOM     46  H11 UNL     1      25.967 -28.858 283.727  1.00  0.00     0.181 HD
BRANCH  45  47
HETATM   47  N12 UNL     1      24.808 -29.891 285.103  1.00  0.00    -0.348 N 
ATOM     48 2H12 UNL     1      24.612 -30.824 285.468  1.00  0.00     0.176 HD
ATOM     49 1H12 UNL     1      24.501 -29.042 285.578  1.00  0.00     0.176 HD
ENDBRANCH  45  47
ENDBRANCH  11  45
BRANCH  11  50
HETATM   50  C15 UNL     1      26.857 -30.731 282.337  1.00  0.00     0.210 C 
HETATM   51  O2  UNL     1      27.248 -29.610 281.856  1.00  0.00    -0.646 OA
HETATM   52  O3  UNL     1      27.749 -31.769 282.147  1.00  0.00    -0.646 OA
ENDBRANCH  11  50
TORSDOF 12
ENDMDL
MODEL 4
REMARK VINA RESULT: -5.822750793      3.990      6.588
REMARK  12 active torsions:
REMARK  status: ('A' for Active; 'I' for Inactive)
REMARK    1  A    between atoms: N1_1  and  C1_5 
REMARK    2  A    between atoms: C1_5  and  C2_6 
REMARK    3  A    between atoms: C3_7  and  N2_8 
REMARK       I    between atoms: N3_14  and  C6_16 
REMARK    4  A    between atoms: C6_16  and  C7_18 
REMARK    5  A    between atoms: C7_18  and  C8_19 
REMARK    6  A    between atoms: C8_19  and  C9_20 
REMARK    7  A    between atoms: C9_20  and  N4_21 
REMARK       I    between atoms: N4_21  and  C10_24 
REMARK       I    between atoms: C10_24  and  N5_25 
REMARK       I    between atoms: C10_24  and  N6_29 
REMARK    8  A    between atoms: C11_33  and  N7_34 
REMARK    9  A    between atoms: C12_38  and  N8_39 
REMARK   10  A    between atoms: C14_44  and  N11_45 
REMARK   11  A    between atoms: C14_44  and  C15_50 
REMARK   12  A    between atoms: N11_45  and  N12_47 
ROOT
HETATM    1  C2  UNL     1      26.165 -30.927 283.028  1.00  0.00     0.088 C 
HETATM    2  C3  UNL     1      26.781 -32.205 282.593  1.00  0.00     0.198 C 
HETATM    3  C4  UNL     1      26.054 -32.861 281.495  1.00  0.00     0.088 C 
HETATM    4  C5  UNL     1      24.776 -33.413 281.970  1.00  0.00     0.027 C 
HETATM    5  N3  UNL     1      24.250 -34.227 281.116  1.00  0.00    -0.332 N 
ATOM      6  H3  UNL     1      23.359 -34.648 281.382  1.00  0.00     0.168 HD
HETATM    7  C6  UNL     1      24.761 -34.594 279.874  1.00  0.00     0.221 C 
HETATM    8  O1  UNL     1      25.632 -35.482 279.792  1.00  0.00    -0.273 OA
HETATM    9  C11 UNL     1      23.950 -33.270 283.158  1.00  0.00     0.277 C 
HETATM   10  C12 UNL     1      24.388 -32.330 284.203  1.00  0.00     0.066 C 
HETATM   11  C14 UNL     1      24.924 -30.990 283.787  1.00  0.00     0.180 C 
ENDROOT
BRANCH   9  12
HETATM   12  N7  UNL     1      23.843 -34.596 283.753  1.00  0.00    -0.065 N 
ATOM     13  H73 UNL     1      24.601 -34.808 284.402  1.00  0.00     0.275 HD
ATOM     14  H72 UNL     1      23.077 -34.678 284.421  1.00  0.00     0.275 HD
ATOM     15  H71 UNL     1      23.777 -35.257 282.979  1.00  0.00     0.275 HD
ENDBRANCH   9  12
BRANCH   2  16
HETATM   16  N2  UNL     1      28.131 -31.886 282.088  1.00  0.00    -0.074 N 
ATOM     17  H23 UNL     1      28.423 -30.932 282.300  1.00  0.00     0.274 HD
ATOM     18  H22 UNL     1      28.873 -32.367 282.597  1.00  0.00     0.274 HD
ATOM     19  H21 UNL     1      28.134 -32.092 281.089  1.00  0.00     0.274 HD
ENDBRANCH   2  16
BRANCH   7  20
HETATM   20  C7  UNL     1      24.273 -33.934 278.653  1.00  0.00     0.105 C 
BRANCH  20  21
HETATM   21  C8  UNL     1      25.227 -33.032 277.965  1.00  0.00     0.037 C 
BRANCH  21  22
HETATM   22  C9  UNL     1      26.457 -33.678 277.412  1.00  0.00     0.237 C 
BRANCH  22  23
HETATM   23  N4  UNL     1      27.376 -32.720 276.832  1.00  0.00    -0.022 N 
HETATM   24  C10 UNL     1      27.786 -31.681 277.726  1.00  0.00     0.575 C 
HETATM   25  N5  UNL     1      28.463 -32.121 278.909  1.00  0.00    -0.026 N 
HETATM   26  N6  UNL     1      28.679 -30.801 276.961  1.00  0.00    -0.026 N 
ATOM     27  H53 UNL     1      27.891 -32.804 279.405  1.00  0.00     0.278 HD
ATOM     28  H52 UNL     1      29.262 -32.703 278.659  1.00  0.00     0.278 HD
ATOM     29  H51 UNL     1      28.755 -31.380 279.546  1.00  0.00     0.278 HD
ATOM     30  H63 UNL     1      29.461 -31.294 276.530  1.00  0.00     0.278 HD
ATOM     31  H62 UNL     1      28.260 -30.450 276.099  1.00  0.00     0.278 HD
ATOM     32  H61 UNL     1      28.972 -30.060 277.598  1.00  0.00     0.278 HD
ATOM     33  H42 UNL     1      28.190 -33.197 276.445  1.00  0.00     0.281 HD
ATOM     34  H41 UNL     1      26.984 -32.322 275.979  1.00  0.00     0.281 HD
ENDBRANCH  22  23
ENDBRANCH  21  22
ENDBRANCH  20  21
ENDBRANCH   7  20
BRANCH  10  35
HETATM   35  N8  UNL     1      25.164 -32.994 285.228  1.00  0.00    -0.335 N 
HETATM   36  C13 UNL     1      24.777 -33.344 286.381  1.00  0.00     0.201 C 
HETATM   37  N9  UNL     1      25.696 -33.986 287.242  1.00  0.00    -0.067 NA
HETATM   38  N10 UNL     1      23.462 -33.123 286.866  1.00  0.00    -0.067 NA
ATOM     39  H8  UNL     1      26.135 -33.204 284.995  1.00  0.00     0.168 HD
ENDBRANCH  10  35
BRANCH   1  40
HETATM   40  C1  UNL     1      26.205 -29.951 281.872  1.00  0.00     0.239 C 
BRANCH  40  41
HETATM   41  N1  UNL     1      27.409 -29.173 281.858  1.00  0.00    -0.079 N 
ATOM     42  H13 UNL     1      27.818 -29.111 282.790  1.00  0.00     0.274 HD
ATOM     43  H12 UNL     1      28.163 -29.670 281.383  1.00  0.00     0.274 HD
ATOM     44  H11 UNL     1      27.267 -28.247 281.456  1.00  0.00     0.274 HD
ENDBRANCH  40  41
ENDBRANCH   1  40
BRANCH  11  45
HETATM   45  N11 UNL     1      24.977 -30.234 285.038  1.00  0.00    -0.316 N 
ATOM     46  H11 UNL     1      25.165 -30.690 285.930  1.00  0.00     0.181 HD
BRANCH  45  47
HETATM   47  N12 UNL     1      24.768 -28.901 284.956  1.00  0.00    -0.348 N 
ATOM     48 2H12 UNL     1      23.904 -28.535 284.554  1.00  0.00     0.176 HD
ATOM     49 1H12 UNL     1      25.505 -28.295 285.313  1.00  0.00     0.176 HD
ENDBRANCH  45  47
ENDBRANCH  11  45
BRANCH  11  50
HETATM   50  C15 UNL     1      23.801 -30.342 283.023  1.00  0.00     0.210 C 
HETATM   51  O2  UNL     1      22.877 -29.677 283.611  1.00  0.00    -0.646 OA
HETATM   52  O3  UNL     1      23.667 -30.403 281.650  1.00  0.00    -0.646 OA
ENDBRANCH  11  50
TORSDOF 12
ENDMDL
MODEL 5
REMARK VINA RESULT: -5.540370919      6.280      9.825
REMARK  12 active torsions:
REMARK  status: ('A' for Active; 'I' for Inactive)
REMARK    1  A    between atoms: N1_1  and  C1_5 
REMARK    2  A    between atoms: C1_5  and  C2_6 
REMARK    3  A    between atoms: C3_7  and  N2_8 
REMARK       I    between atoms: N3_14  and  C6_16 
REMARK    4  A    between atoms: C6_16  and  C7_18 
REMARK    5  A    between atoms: C7_18  and  C8_19 
REMARK    6  A    between atoms: C8_19  and  C9_20 
REMARK    7  A    between atoms: C9_20  and  N4_21 
REMARK       I    between atoms: N4_21  and  C10_24 
REMARK       I    between atoms: C10_24  and  N5_25 
REMARK       I    between atoms: C10_24  and  N6_29 
REMARK    8  A    between atoms: C11_33  and  N7_34 
REMARK    9  A    between atoms: C12_38  and  N8_39 
REMARK   10  A    between atoms: C14_44  and  N11_45 
REMARK   11  A    between atoms: C14_44  and  C15_50 
REMARK   12  A    between atoms: N11_45  and  N12_47 
ROOT
HETATM    1  C2  UNL     1      26.302 -37.502 289.584  1.00  0.00     0.088 C 
HETATM    2  C3  UNL     1      25.588 -37.611 288.287  1.00  0.00     0.198 C 
HETATM    3  C4  UNL     1      25.662 -36.385 287.476  1.00  0.00     0.088 C 
HETATM    4  C5  UNL     1      24.836 -35.319 288.063  1.00  0.00     0.027 C 
HETATM    5  N3  UNL     1      24.653 -34.337 287.244  1.00  0.00    -0.332 N 
ATOM      6  H3  UNL     1      24.088 -33.561 287.587  1.00  0.00     0.168 HD
HETATM    7  C6  UNL     1      25.141 -34.220 285.945  1.00  0.00     0.221 C 
HETATM    8  O1  UNL     1      24.550 -34.778 285.000  1.00  0.00    -0.273 OA
HETATM    9  C11 UNL     1      24.176 -35.087 289.338  1.00  0.00     0.277 C 
HETATM   10  C12 UNL     1      24.339 -36.093 290.401  1.00  0.00     0.066 C 
HETATM   11  C14 UNL     1      25.699 -36.685 290.629  1.00  0.00     0.180 C 
ENDROOT
BRANCH   9  12
HETATM   12  N7  UNL     1      22.754 -34.951 289.052  1.00  0.00    -0.065 N 
ATOM     13  H73 UNL     1      22.433 -35.567 288.304  1.00  0.00     0.275 HD
ATOM     14  H72 UNL     1      22.157 -35.325 289.790  1.00  0.00     0.275 HD
ATOM     15  H71 UNL     1      22.588 -33.963 288.861  1.00  0.00     0.275 HD
ENDBRANCH   9  12
BRANCH   2  16
HETATM   16  N2  UNL     1      26.252 -38.680 287.515  1.00  0.00    -0.074 N 
ATOM     17  H23 UNL     1      27.133 -38.985 287.930  1.00  0.00     0.274 HD
ATOM     18  H22 UNL     1      25.764 -39.575 287.569  1.00  0.00     0.274 HD
ATOM     19  H21 UNL     1      26.357 -38.339 286.559  1.00  0.00     0.274 HD
ENDBRANCH   2  16
BRANCH   7  20
HETATM   20  C7  UNL     1      26.358 -33.435 285.684  1.00  0.00     0.105 C 
BRANCH  20  21
HETATM   21  C8  UNL     1      26.281 -32.449 284.580  1.00  0.00     0.037 C 
BRANCH  21  22
HETATM   22  C9  UNL     1      25.019 -31.652 284.498  1.00  0.00     0.237 C 
BRANCH  22  23
HETATM   23  N4  UNL     1      24.361 -31.782 283.214  1.00  0.00    -0.022 N 
HETATM   24  C10 UNL     1      24.152 -30.543 282.531  1.00  0.00     0.575 C 
HETATM   25  N5  UNL     1      25.339 -29.803 282.225  1.00  0.00    -0.026 N 
HETATM   26  N6  UNL     1      23.454 -30.869 281.280  1.00  0.00    -0.026 N 
ATOM     27  H53 UNL     1      25.882 -29.647 283.074  1.00  0.00     0.278 HD
ATOM     28  H52 UNL     1      25.990 -30.386 281.700  1.00  0.00     0.278 HD
ATOM     29  H51 UNL     1      25.189 -28.919 281.738  1.00  0.00     0.278 HD
ATOM     30  H63 UNL     1      23.941 -31.564 280.715  1.00  0.00     0.278 HD
ATOM     31  H62 UNL     1      22.595 -31.401 281.423  1.00  0.00     0.278 HD
ATOM     32  H61 UNL     1      23.305 -29.985 280.793  1.00  0.00     0.278 HD
ATOM     33  H42 UNL     1      24.869 -32.435 282.618  1.00  0.00     0.281 HD
ATOM     34  H41 UNL     1      23.481 -32.287 283.315  1.00  0.00     0.281 HD
ENDBRANCH  22  23
ENDBRANCH  21  22
ENDBRANCH  20  21
ENDBRANCH   7  20
BRANCH  10  35
HETATM   35  N8  UNL     1      23.259 -37.056 290.395  1.00  0.00    -0.335 N 
HETATM   36  C13 UNL     1      22.178 -37.004 291.052  1.00  0.00     0.201 C 
HETATM   37  N9  UNL     1      21.243 -38.053 290.906  1.00  0.00    -0.067 NA
HETATM   38  N10 UNL     1      21.851 -35.946 291.938  1.00  0.00    -0.067 NA
ATOM     39  H8  UNL     1      23.382 -37.870 289.792  1.00  0.00     0.168 HD
ENDBRANCH  10  35
BRANCH   1  40
HETATM   40  C1  UNL     1      27.774 -37.281 289.312  1.00  0.00     0.239 C 
BRANCH  40  41
HETATM   41  N1  UNL     1      28.606 -38.183 290.052  1.00  0.00    -0.079 N 
ATOM     42  H13 UNL     1      28.052 -38.914 290.499  1.00  0.00     0.274 HD
ATOM     43  H12 UNL     1      29.167 -38.764 289.429  1.00  0.00     0.274 HD
ATOM     44  H11 UNL     1      29.192 -37.699 290.732  1.00  0.00     0.274 HD
ENDBRANCH  40  41
ENDBRANCH   1  40
BRANCH  11  45
HETATM   45  N11 UNL     1      25.563 -37.392 291.902  1.00  0.00    -0.316 N 
ATOM     46  H11 UNL     1      25.428 -36.890 292.779  1.00  0.00     0.181 HD
BRANCH  45  47
HETATM   47  N12 UNL     1      25.623 -38.741 291.863  1.00  0.00    -0.348 N 
ATOM     48 2H12 UNL     1      25.595 -39.288 292.724  1.00  0.00     0.176 HD
ATOM     49 1H12 UNL     1      25.696 -39.174 290.942  1.00  0.00     0.176 HD
ENDBRANCH  45  47
ENDBRANCH  11  45
BRANCH  11  50
HETATM   50  C15 UNL     1      26.584 -35.514 290.961  1.00  0.00     0.210 C 
HETATM   51  O2  UNL     1      26.476 -34.390 290.356  1.00  0.00    -0.646 OA
HETATM   52  O3  UNL     1      27.571 -35.544 291.927  1.00  0.00    -0.646 OA
ENDBRANCH  11  50
TORSDOF 12
ENDMDL
