MODEL 1
REMARK VINA RESULT: -7.569811335      0.000      0.000
REMARK  14 active torsions:
REMARK  status: ('A' for Active; 'I' for Inactive)
REMARK    1  A    between atoms: N1_1  and  C1_5 
REMARK    2  A    between atoms: C1_5  and  C2_6 
REMARK       I    between atoms: C2_6  and  N2_8 
REMARK    3  A    between atoms: N2_8  and  C3_10 
REMARK    4  A    between atoms: C4_13  and  N4_14 
REMARK    5  A    between atoms: N5_19  and  C6_20 
REMARK    6  A    between atoms: C6_20  and  C7_21 
REMARK    7  A    between atoms: C12_29  and  O3_30 
REMARK    8  A    between atoms: C13_32  and  N7_33 
REMARK    9  A    between atoms: N7_33  and  C14_36 
REMARK   10  A    between atoms: C14_36  and  O4_37 
REMARK   11  A    between atoms: C14_36  and  C15_39 
REMARK   12  A    between atoms: C15_39  and  N8_40 
REMARK   13  A    between atoms: C15_39  and  C16_44 
REMARK       I    between atoms: C16_44  and  N9_46 
REMARK   14  A    between atoms: N9_46  and  N10_48 
ROOT
HETATM    1  C3  UNL     1      26.849 -31.931 281.563  1.00  0.00     0.216 C 
HETATM    2  N3  UNL     1      25.966 -33.002 281.280  1.00  0.00    -0.372 N 
ATOM      3  H3  UNL     1      26.274 -33.751 280.661  1.00  0.00     0.157 HD
HETATM    4  C4  UNL     1      24.688 -33.054 281.829  1.00  0.00     0.296 C 
HETATM    5  C5  UNL     1      24.807 -33.420 283.296  1.00  0.00     0.173 C 
HETATM    6  N5  UNL     1      24.858 -32.201 284.016  1.00  0.00    -0.378 N 
HETATM    7  C12 UNL     1      25.884 -31.298 283.858  1.00  0.00     0.251 C 
HETATM    8  C13 UNL     1      26.511 -30.948 282.587  1.00  0.00     0.278 C 
ENDROOT
BRANCH   8   9
HETATM    9  N7  UNL     1      27.804 -30.285 282.932  1.00  0.00    -0.034 N 
ATOM     10  H72 UNL     1      28.109 -29.676 282.173  1.00  0.00     0.281 HD
ATOM     11  H71 UNL     1      27.666 -29.589 283.665  1.00  0.00     0.281 HD
BRANCH   9  12
HETATM   12  C14 UNL     1      28.828 -31.184 283.288  1.00  0.00     0.359 C 
BRANCH  12  13
HETATM   13  O4  UNL     1      30.008 -31.053 282.498  1.00  0.00    -0.368 OA
ATOM     14  H4  UNL     1      30.754 -30.710 282.977  1.00  0.00     0.212 HD
ENDBRANCH  12  13
BRANCH  12  15
HETATM   15  C15 UNL     1      29.376 -30.792 284.686  1.00  0.00     0.332 C 
BRANCH  15  16
HETATM   16  N8  UNL     1      30.511 -29.922 284.477  1.00  0.00    -0.062 N 
ATOM     17  H83 UNL     1      30.279 -28.934 284.574  1.00  0.00     0.275 HD
ATOM     18  H82 UNL     1      31.197 -29.972 285.231  1.00  0.00     0.275 HD
ATOM     19  H81 UNL     1      30.905 -30.151 283.564  1.00  0.00     0.275 HD
ENDBRANCH  15  16
BRANCH  15  20
HETATM   20  C16 UNL     1      29.929 -32.093 285.222  1.00  0.00     0.270 C 
HETATM   21  O5  UNL     1      29.152 -32.966 285.746  1.00  0.00    -0.269 OA
HETATM   22  N9  UNL     1      31.308 -32.407 285.162  1.00  0.00    -0.275 N 
ATOM     23  H9  UNL     1      31.946 -31.723 284.755  1.00  0.00     0.189 HD
BRANCH  22  24
HETATM   24  N10 UNL     1      31.836 -33.611 285.634  1.00  0.00    -0.343 N 
ATOM     25 2H10 UNL     1      32.184 -34.275 284.943  1.00  0.00     0.176 HD
ATOM     26 1H10 UNL     1      31.886 -33.846 286.625  1.00  0.00     0.176 HD
ENDBRANCH  22  24
ENDBRANCH  15  20
ENDBRANCH  12  15
ENDBRANCH   9  12
ENDBRANCH   8   9
BRANCH   1  27
HETATM   27  N2  UNL     1      26.934 -31.221 280.258  1.00  0.00    -0.337 N 
HETATM   28  C2  UNL     1      28.071 -31.412 279.425  1.00  0.00     0.244 C 
HETATM   29  O1  UNL     1      28.965 -32.202 279.859  1.00  0.00    -0.272 OA
ATOM     30  H2  UNL     1      26.181 -30.600 279.962  1.00  0.00     0.164 HD
BRANCH  28  31
HETATM   31  C1  UNL     1      28.284 -30.783 278.123  1.00  0.00     0.332 C 
BRANCH  31  32
HETATM   32  N1  UNL     1      27.997 -31.736 277.047  1.00  0.00    -0.071 N 
ATOM     33  H13 UNL     1      28.753 -32.410 276.923  1.00  0.00     0.274 HD
ATOM     34  H12 UNL     1      27.256 -32.388 277.303  1.00  0.00     0.274 HD
ATOM     35  H11 UNL     1      27.785 -31.238 276.183  1.00  0.00     0.274 HD
ENDBRANCH  31  32
ENDBRANCH  28  31
ENDBRANCH   1  27
BRANCH   7  36
HETATM   36  O3  UNL     1      25.384 -30.067 284.400  1.00  0.00    -0.375 OA
ATOM     37  H3  UNL     1      24.801 -29.723 283.734  1.00  0.00     0.212 HD
ENDBRANCH   7  36
BRANCH   6  38
HETATM   38  C6  UNL     1      23.706 -31.895 284.773  1.00  0.00     0.155 C 
BRANCH  38  39
HETATM   39  C7  UNL     1      23.550 -32.639 286.045  1.00  0.00    -0.048 C 
HETATM   40  C8  UNL     1      22.397 -33.112 286.456  1.00  0.00    -0.011 C 
HETATM   41  C9  UNL     1      22.332 -33.858 287.777  1.00  0.00     0.130 C 
HETATM   42  C10 UNL     1      23.506 -34.739 287.869  1.00  0.00     0.221 C 
HETATM   43  O2  UNL     1      23.383 -35.842 288.418  1.00  0.00    -0.273 OA
HETATM   44  N6  UNL     1      24.744 -34.250 287.306  1.00  0.00    -0.357 N 
HETATM   45  C11 UNL     1      24.783 -32.849 286.911  1.00  0.00     0.158 C 
ATOM     46  H6  UNL     1      25.554 -34.859 287.190  1.00  0.00     0.162 HD
ENDBRANCH  38  39
ENDBRANCH   6  38
BRANCH   4  47
HETATM   47  N4  UNL     1      23.991 -31.828 281.600  1.00  0.00    -0.057 N 
ATOM     48  H43 UNL     1      23.232 -31.695 282.267  1.00  0.00     0.276 HD
ATOM     49  H42 UNL     1      24.558 -31.019 281.850  1.00  0.00     0.276 HD
ATOM     50  H41 UNL     1      23.662 -31.777 280.636  1.00  0.00     0.276 HD
ENDBRANCH   4  47
TORSDOF 14
ENDMDL
MODEL 2
REMARK VINA RESULT: -7.558752583      3.188      5.203
REMARK  14 active torsions:
REMARK  status: ('A' for Active; 'I' for Inactive)
REMARK    1  A    between atoms: N1_1  and  C1_5 
REMARK    2  A    between atoms: C1_5  and  C2_6 
REMARK       I    between atoms: C2_6  and  N2_8 
REMARK    3  A    between atoms: N2_8  and  C3_10 
REMARK    4  A    between atoms: C4_13  and  N4_14 
REMARK    5  A    between atoms: N5_19  and  C6_20 
REMARK    6  A    between atoms: C6_20  and  C7_21 
REMARK    7  A    between atoms: C12_29  and  O3_30 
REMARK    8  A    between atoms: C13_32  and  N7_33 
REMARK    9  A    between atoms: N7_33  and  C14_36 
REMARK   10  A    between atoms: C14_36  and  O4_37 
REMARK   11  A    between atoms: C14_36  and  C15_39 
REMARK   12  A    between atoms: C15_39  and  N8_40 
REMARK   13  A    between atoms: C15_39  and  C16_44 
REMARK       I    between atoms: C16_44  and  N9_46 
REMARK   14  A    between atoms: N9_46  and  N10_48 
ROOT
HETATM    1  C3  UNL     1      25.606 -31.902 281.337  1.00  0.00     0.216 C 
HETATM    2  N3  UNL     1      26.049 -30.756 282.041  1.00  0.00    -0.372 N 
ATOM      3  H3  UNL     1      26.103 -29.862 281.553  1.00  0.00     0.157 HD
HETATM    4  C4  UNL     1      26.412 -30.823 283.383  1.00  0.00     0.296 C 
HETATM    5  C5  UNL     1      25.154 -30.961 284.218  1.00  0.00     0.173 C 
HETATM    6  N5  UNL     1      24.939 -32.348 284.405  1.00  0.00    -0.378 N 
HETATM    7  C12 UNL     1      24.686 -33.200 283.354  1.00  0.00     0.251 C 
HETATM    8  C13 UNL     1      25.339 -33.148 282.050  1.00  0.00     0.278 C 
ENDROOT
BRANCH   8   9
HETATM    9  N7  UNL     1      24.482 -33.950 281.126  1.00  0.00    -0.034 N 
ATOM     10  H72 UNL     1      23.566 -33.514 281.017  1.00  0.00     0.281 HD
ATOM     11  H71 UNL     1      24.822 -33.876 280.167  1.00  0.00     0.281 HD
BRANCH   9  12
HETATM   12  C14 UNL     1      24.346 -35.300 281.501  1.00  0.00     0.359 C 
BRANCH  12  13
HETATM   13  O4  UNL     1      23.001 -35.770 281.480  1.00  0.00    -0.368 OA
ATOM     14  H4  UNL     1      22.900 -36.658 281.804  1.00  0.00     0.212 HD
ENDBRANCH  12  13
BRANCH  12  15
HETATM   15  C15 UNL     1      24.978 -36.192 280.400  1.00  0.00     0.332 C 
BRANCH  15  16
HETATM   16  N8  UNL     1      24.947 -35.440 279.166  1.00  0.00    -0.062 N 
ATOM     17  H83 UNL     1      25.107 -34.443 279.302  1.00  0.00     0.275 HD
ATOM     18  H82 UNL     1      25.753 -35.623 278.567  1.00  0.00     0.275 HD
ATOM     19  H81 UNL     1      24.058 -35.642 278.709  1.00  0.00     0.275 HD
ENDBRANCH  15  16
BRANCH  15  20
HETATM   20  C16 UNL     1      23.977 -37.313 280.241  1.00  0.00     0.270 C 
HETATM   21  O5  UNL     1      23.154 -37.319 279.260  1.00  0.00    -0.269 OA
HETATM   22  N9  UNL     1      23.911 -38.399 281.147  1.00  0.00    -0.275 N 
ATOM     23  H9  UNL     1      24.553 -38.412 281.940  1.00  0.00     0.189 HD
BRANCH  22  24
HETATM   24  N10 UNL     1      23.006 -39.454 281.007  1.00  0.00    -0.343 N 
ATOM     25 2H10 UNL     1      22.013 -39.223 280.989  1.00  0.00     0.176 HD
ATOM     26 1H10 UNL     1      23.296 -40.428 280.923  1.00  0.00     0.176 HD
ENDBRANCH  22  24
ENDBRANCH  15  20
ENDBRANCH  12  15
ENDBRANCH   9  12
ENDBRANCH   8   9
BRANCH   1  27
HETATM   27  N2  UNL     1      26.719 -32.153 280.381  1.00  0.00    -0.337 N 
HETATM   28  C2  UNL     1      26.435 -32.304 278.996  1.00  0.00     0.244 C 
HETATM   29  O1  UNL     1      25.217 -32.211 278.652  1.00  0.00    -0.272 OA
ATOM     30  H2  UNL     1      27.679 -32.215 280.718  1.00  0.00     0.164 HD
BRANCH  28  31
HETATM   31  C1  UNL     1      27.427 -32.551 277.949  1.00  0.00     0.332 C 
BRANCH  31  32
HETATM   32  N1  UNL     1      27.908 -31.281 277.399  1.00  0.00    -0.071 N 
ATOM     33  H13 UNL     1      28.887 -31.333 277.118  1.00  0.00     0.274 HD
ATOM     34  H12 UNL     1      27.500 -31.082 276.486  1.00  0.00     0.274 HD
ATOM     35  H11 UNL     1      27.743 -30.525 278.064  1.00  0.00     0.274 HD
ENDBRANCH  31  32
ENDBRANCH  28  31
ENDBRANCH   1  27
BRANCH   7  36
HETATM   36  O3  UNL     1      24.944 -34.514 283.869  1.00  0.00    -0.375 OA
ATOM     37  H3  UNL     1      24.100 -34.949 283.871  1.00  0.00     0.212 HD
ENDBRANCH   7  36
BRANCH   6  38
HETATM   38  C6  UNL     1      25.175 -32.827 285.712  1.00  0.00     0.155 C 
BRANCH  38  39
HETATM   39  C7  UNL     1      23.980 -32.956 286.579  1.00  0.00    -0.048 C 
HETATM   40  C8  UNL     1      22.754 -32.920 286.111  1.00  0.00    -0.011 C 
HETATM   41  C9  UNL     1      21.590 -33.056 287.078  1.00  0.00     0.130 C 
HETATM   42  C10 UNL     1      21.920 -34.102 288.057  1.00  0.00     0.221 C 
HETATM   43  O2  UNL     1      21.015 -34.837 288.473  1.00  0.00    -0.273 OA
HETATM   44  N6  UNL     1      23.300 -34.204 288.474  1.00  0.00    -0.357 N 
HETATM   45  C11 UNL     1      24.192 -33.124 288.076  1.00  0.00     0.158 C 
ATOM     46  H6  UNL     1      23.634 -34.996 289.023  1.00  0.00     0.162 HD
ENDBRANCH  38  39
ENDBRANCH   6  38
BRANCH   4  47
HETATM   47  N4  UNL     1      27.358 -31.871 283.597  1.00  0.00    -0.057 N 
ATOM     48  H43 UNL     1      27.601 -32.345 282.727  1.00  0.00     0.276 HD
ATOM     49  H42 UNL     1      28.280 -31.506 283.834  1.00  0.00     0.276 HD
ATOM     50  H41 UNL     1      27.016 -32.525 284.302  1.00  0.00     0.276 HD
ENDBRANCH   4  47
TORSDOF 14
ENDMDL
MODEL 3
REMARK VINA RESULT: -7.538831466      3.190      5.184
REMARK  14 active torsions:
REMARK  status: ('A' for Active; 'I' for Inactive)
REMARK    1  A    between atoms: N1_1  and  C1_5 
REMARK    2  A    between atoms: C1_5  and  C2_6 
REMARK       I    between atoms: C2_6  and  N2_8 
REMARK    3  A    between atoms: N2_8  and  C3_10 
REMARK    4  A    between atoms: C4_13  and  N4_14 
REMARK    5  A    between atoms: N5_19  and  C6_20 
REMARK    6  A    between atoms: C6_20  and  C7_21 
REMARK    7  A    between atoms: C12_29  and  O3_30 
REMARK    8  A    between atoms: C13_32  and  N7_33 
REMARK    9  A    between atoms: N7_33  and  C14_36 
REMARK   10  A    between atoms: C14_36  and  O4_37 
REMARK   11  A    between atoms: C14_36  and  C15_39 
REMARK   12  A    between atoms: C15_39  and  N8_40 
REMARK   13  A    between atoms: C15_39  and  C16_44 
REMARK       I    between atoms: C16_44  and  N9_46 
REMARK   14  A    between atoms: N9_46  and  N10_48 
ROOT
HETATM    1  C3  UNL     1      25.152 -32.297 280.905  1.00  0.00     0.216 C 
HETATM    2  N3  UNL     1      25.666 -31.080 281.414  1.00  0.00    -0.372 N 
ATOM      3  H3  UNL     1      25.654 -30.249 280.824  1.00  0.00     0.157 HD
HETATM    4  C4  UNL     1      26.189 -30.993 282.701  1.00  0.00     0.296 C 
HETATM    5  C5  UNL     1      25.041 -31.027 283.692  1.00  0.00     0.173 C 
HETATM    6  N5  UNL     1      24.863 -32.382 284.062  1.00  0.00    -0.378 N 
HETATM    7  C12 UNL     1      24.492 -33.349 283.155  1.00  0.00     0.251 C 
HETATM    8  C13 UNL     1      24.983 -33.451 281.785  1.00  0.00     0.278 C 
ENDROOT
BRANCH   8   9
HETATM    9  N7  UNL     1      24.028 -34.349 281.069  1.00  0.00    -0.034 N 
ATOM     10  H72 UNL     1      23.084 -34.238 281.439  1.00  0.00     0.281 HD
ATOM     11  H71 UNL     1      23.877 -34.023 280.114  1.00  0.00     0.281 HD
BRANCH   9  12
HETATM   12  C14 UNL     1      24.406 -35.706 281.076  1.00  0.00     0.359 C 
BRANCH  12  13
HETATM   13  O4  UNL     1      23.530 -36.543 281.825  1.00  0.00    -0.368 OA
ATOM     14  H4  UNL     1      23.747 -37.467 281.775  1.00  0.00     0.212 HD
ENDBRANCH  12  13
BRANCH  12  15
HETATM   15  C15 UNL     1      24.210 -36.288 279.650  1.00  0.00     0.332 C 
BRANCH  15  16
HETATM   16  N8  UNL     1      23.024 -37.114 279.682  1.00  0.00    -0.062 N 
ATOM     17  H83 UNL     1      22.503 -37.031 280.555  1.00  0.00     0.275 HD
ATOM     18  H82 UNL     1      22.289 -36.780 279.058  1.00  0.00     0.275 HD
ATOM     19  H81 UNL     1      23.314 -38.070 279.479  1.00  0.00     0.275 HD
ENDBRANCH  15  16
BRANCH  15  20
HETATM   20  C16 UNL     1      25.381 -37.230 279.493  1.00  0.00     0.270 C 
HETATM   21  O5  UNL     1      26.286 -37.006 278.615  1.00  0.00    -0.269 OA
HETATM   22  N9  UNL     1      25.536 -38.382 280.303  1.00  0.00    -0.275 N 
ATOM     23  H9  UNL     1      24.824 -38.584 281.004  1.00  0.00     0.189 HD
BRANCH  22  24
HETATM   24  N10 UNL     1      26.621 -39.254 280.186  1.00  0.00    -0.343 N 
ATOM     25 2H10 UNL     1      27.412 -38.948 279.620  1.00  0.00     0.176 HD
ATOM     26 1H10 UNL     1      26.651 -40.168 280.638  1.00  0.00     0.176 HD
ENDBRANCH  22  24
ENDBRANCH  15  20
ENDBRANCH  12  15
ENDBRANCH   9  12
ENDBRANCH   8   9
BRANCH   1  27
HETATM   27  N2  UNL     1      26.144 -32.663 279.858  1.00  0.00    -0.337 N 
HETATM   28  C2  UNL     1      25.693 -33.041 278.563  1.00  0.00     0.244 C 
HETATM   29  O1  UNL     1      24.437 -33.040 278.377  1.00  0.00    -0.272 OA
ATOM     30  H2  UNL     1      27.142 -32.642 280.067  1.00  0.00     0.164 HD
BRANCH  28  31
HETATM   31  C1  UNL     1      26.553 -33.421 277.443  1.00  0.00     0.332 C 
BRANCH  31  32
HETATM   32  N1  UNL     1      27.612 -32.424 277.258  1.00  0.00    -0.071 N 
ATOM     33  H13 UNL     1      27.424 -31.811 276.465  1.00  0.00     0.274 HD
ATOM     34  H12 UNL     1      27.605 -31.720 277.996  1.00  0.00     0.274 HD
ATOM     35  H11 UNL     1      28.518 -32.885 277.178  1.00  0.00     0.274 HD
ENDBRANCH  31  32
ENDBRANCH  28  31
ENDBRANCH   1  27
BRANCH   7  36
HETATM   36  O3  UNL     1      24.822 -34.595 283.783  1.00  0.00    -0.375 OA
ATOM     37  H3  UNL     1      24.782 -35.241 283.087  1.00  0.00     0.212 HD
ENDBRANCH   7  36
BRANCH   6  38
HETATM   38  C6  UNL     1      25.257 -32.708 285.378  1.00  0.00     0.155 C 
BRANCH  38  39
HETATM   39  C7  UNL     1      24.159 -32.908 286.353  1.00  0.00    -0.048 C 
HETATM   40  C8  UNL     1      22.893 -32.767 286.037  1.00  0.00    -0.011 C 
HETATM   41  C9  UNL     1      21.835 -32.986 287.105  1.00  0.00     0.130 C 
HETATM   42  C10 UNL     1      22.217 -34.164 287.899  1.00  0.00     0.221 C 
HETATM   43  O2  UNL     1      21.327 -34.914 288.320  1.00  0.00    -0.273 OA
HETATM   44  N6  UNL     1      23.627 -34.370 288.139  1.00  0.00    -0.357 N 
HETATM   45  C11 UNL     1      24.524 -33.279 287.781  1.00  0.00     0.158 C 
ATOM     46  H6  UNL     1      23.978 -35.239 288.541  1.00  0.00     0.162 HD
ENDBRANCH  38  39
ENDBRANCH   6  38
BRANCH   4  47
HETATM   47  N4  UNL     1      27.162 -32.015 282.919  1.00  0.00    -0.057 N 
ATOM     48  H43 UNL     1      27.989 -31.880 282.338  1.00  0.00     0.276 HD
ATOM     49  H42 UNL     1      27.603 -31.928 283.835  1.00  0.00     0.276 HD
ATOM     50  H41 UNL     1      26.750 -32.939 282.784  1.00  0.00     0.276 HD
ENDBRANCH   4  47
TORSDOF 14
ENDMDL
MODEL 4
REMARK VINA RESULT: -7.334311471      2.136      5.896
REMARK  14 active torsions:
REMARK  status: ('A' for Active; 'I' for Inactive)
REMARK    1  A    between atoms: N1_1  and  C1_5 
REMARK    2  A    between atoms: C1_5  and  C2_6 
REMARK       I    between atoms: C2_6  and  N2_8 
REMARK    3  A    between atoms: N2_8  and  C3_10 
REMARK    4  A    between atoms: C4_13  and  N4_14 
REMARK    5  A    between atoms: N5_19  and  C6_20 
REMARK    6  A    between atoms: C6_20  and  C7_21 
REMARK    7  A    between atoms: C12_29  and  O3_30 
REMARK    8  A    between atoms: C13_32  and  N7_33 
REMARK    9  A    between atoms: N7_33  and  C14_36 
REMARK   10  A    between atoms: C14_36  and  O4_37 
REMARK   11  A    between atoms: C14_36  and  C15_39 
REMARK   12  A    between atoms: C15_39  and  N8_40 
REMARK   13  A    between atoms: C15_39  and  C16_44 
REMARK       I    between atoms: C16_44  and  N9_46 
REMARK   14  A    between atoms: N9_46  and  N10_48 
ROOT
HETATM    1  C3  UNL     1      26.186 -31.510 283.718  1.00  0.00     0.216 C 
HETATM    2  N3  UNL     1      24.928 -31.807 283.141  1.00  0.00    -0.372 N 
ATOM      3  H3  UNL     1      24.100 -31.827 283.736  1.00  0.00     0.157 HD
HETATM    4  C4  UNL     1      24.795 -32.070 281.781  1.00  0.00     0.296 C 
HETATM    5  C5  UNL     1      24.939 -30.767 281.020  1.00  0.00     0.173 C 
HETATM    6  N5  UNL     1      26.306 -30.648 280.668  1.00  0.00    -0.378 N 
HETATM    7  C12 UNL     1      27.300 -30.544 281.614  1.00  0.00     0.251 C 
HETATM    8  C13 UNL     1      27.353 -31.288 282.868  1.00  0.00     0.278 C 
ENDROOT
BRANCH   8   9
HETATM    9  N7  UNL     1      28.335 -30.570 283.734  1.00  0.00    -0.034 N 
ATOM     10  H72 UNL     1      28.573 -29.664 283.332  1.00  0.00     0.281 HD
ATOM     11  H71 UNL     1      27.891 -30.261 284.599  1.00  0.00     0.281 HD
BRANCH   9  12
HETATM   12  C14 UNL     1      29.500 -31.311 284.012  1.00  0.00     0.359 C 
BRANCH  12  13
HETATM   13  O4  UNL     1      30.502 -31.206 283.004  1.00  0.00    -0.368 OA
ATOM     14  H4  UNL     1      31.183 -31.866 283.070  1.00  0.00     0.212 HD
ENDBRANCH  12  13
BRANCH  12  15
HETATM   15  C15 UNL     1      30.233 -30.659 285.214  1.00  0.00     0.332 C 
BRANCH  15  16
HETATM   16  N8  UNL     1      30.610 -29.321 284.816  1.00  0.00    -0.062 N 
ATOM     17  H83 UNL     1      30.621 -28.662 285.594  1.00  0.00     0.275 HD
ATOM     18  H82 UNL     1      31.594 -29.243 284.562  1.00  0.00     0.275 HD
ATOM     19  H81 UNL     1      29.980 -29.040 284.065  1.00  0.00     0.275 HD
ENDBRANCH  15  16
BRANCH  15  20
HETATM   20  C16 UNL     1      31.517 -31.451 285.312  1.00  0.00     0.270 C 
HETATM   21  O5  UNL     1      32.652 -30.859 285.296  1.00  0.00    -0.269 OA
HETATM   22  N9  UNL     1      31.525 -32.862 285.434  1.00  0.00    -0.275 N 
ATOM     23  H9  UNL     1      30.632 -33.355 285.441  1.00  0.00     0.189 HD
BRANCH  22  24
HETATM   24  N10 UNL     1      32.699 -33.610 285.544  1.00  0.00    -0.343 N 
ATOM     25 2H10 UNL     1      32.629 -34.618 285.407  1.00  0.00     0.176 HD
ATOM     26 1H10 UNL     1      33.606 -33.194 285.753  1.00  0.00     0.176 HD
ENDBRANCH  22  24
ENDBRANCH  15  20
ENDBRANCH  12  15
ENDBRANCH   9  12
ENDBRANCH   8   9
BRANCH   1  27
HETATM   27  N2  UNL     1      26.455 -32.709 284.558  1.00  0.00    -0.337 N 
HETATM   28  C2  UNL     1      25.628 -32.979 285.683  1.00  0.00     0.244 C 
HETATM   29  O1  UNL     1      24.684 -32.159 285.903  1.00  0.00    -0.272 OA
ATOM     30  H2  UNL     1      27.228 -33.333 284.328  1.00  0.00     0.164 HD
BRANCH  28  31
HETATM   31  C1  UNL     1      25.775 -34.117 286.590  1.00  0.00     0.332 C 
BRANCH  31  32
HETATM   32  N1  UNL     1      25.003 -33.889 287.815  1.00  0.00    -0.071 N 
ATOM     33  H13 UNL     1      24.956 -34.725 288.397  1.00  0.00     0.274 HD
ATOM     34  H12 UNL     1      25.495 -33.281 288.468  1.00  0.00     0.274 HD
ATOM     35  H11 UNL     1      24.076 -33.532 287.585  1.00  0.00     0.274 HD
ENDBRANCH  31  32
ENDBRANCH  28  31
ENDBRANCH   1  27
BRANCH   7  36
HETATM   36  O3  UNL     1      28.512 -30.864 280.917  1.00  0.00    -0.375 OA
ATOM     37  H3  UNL     1      28.447 -31.792 280.721  1.00  0.00     0.212 HD
ENDBRANCH   7  36
BRANCH   6  38
HETATM   38  C6  UNL     1      26.596 -30.820 279.298  1.00  0.00     0.155 C 
BRANCH  38  39
HETATM   39  C7  UNL     1      26.294 -32.157 278.734  1.00  0.00    -0.048 C 
HETATM   40  C8  UNL     1      27.190 -33.112 278.646  1.00  0.00    -0.011 C 
HETATM   41  C9  UNL     1      26.789 -34.449 278.049  1.00  0.00     0.130 C 
HETATM   42  C10 UNL     1      25.457 -34.804 278.560  1.00  0.00     0.221 C 
HETATM   43  O2  UNL     1      25.204 -35.995 278.790  1.00  0.00    -0.273 OA
HETATM   44  N6  UNL     1      24.518 -33.725 278.763  1.00  0.00    -0.357 N 
HETATM   45  C11 UNL     1      24.885 -32.421 278.227  1.00  0.00     0.158 C 
ATOM     46  H6  UNL     1      23.638 -33.869 279.259  1.00  0.00     0.162 HD
ENDBRANCH  38  39
ENDBRANCH   6  38
BRANCH   4  47
HETATM   47  N4  UNL     1      25.722 -33.076 281.371  1.00  0.00    -0.057 N 
ATOM     48  H43 UNL     1      25.875 -33.771 282.102  1.00  0.00     0.276 HD
ATOM     49  H42 UNL     1      25.325 -33.689 280.659  1.00  0.00     0.276 HD
ATOM     50  H41 UNL     1      26.598 -32.654 281.060  1.00  0.00     0.276 HD
ENDBRANCH   4  47
TORSDOF 14
ENDMDL
MODEL 5
REMARK VINA RESULT: -7.071995904      2.828      5.068
REMARK  14 active torsions:
REMARK  status: ('A' for Active; 'I' for Inactive)
REMARK    1  A    between atoms: N1_1  and  C1_5 
REMARK    2  A    between atoms: C1_5  and  C2_6 
REMARK       I    between atoms: C2_6  and  N2_8 
REMARK    3  A    between atoms: N2_8  and  C3_10 
REMARK    4  A    between atoms: C4_13  and  N4_14 
REMARK    5  A    between atoms: N5_19  and  C6_20 
REMARK    6  A    between atoms: C6_20  and  C7_21 
REMARK    7  A    between atoms: C12_29  and  O3_30 
REMARK    8  A    between atoms: C13_32  and  N7_33 
REMARK    9  A    between atoms: N7_33  and  C14_36 
REMARK   10  A    between atoms: C14_36  and  O4_37 
REMARK   11  A    between atoms: C14_36  and  C15_39 
REMARK   12  A    between atoms: C15_39  and  N8_40 
REMARK   13  A    between atoms: C15_39  and  C16_44 
REMARK       I    between atoms: C16_44  and  N9_46 
REMARK   14  A    between atoms: N9_46  and  N10_48 
ROOT
HETATM    1  C3  UNL     1      25.409 -32.316 281.107  1.00  0.00     0.216 C 
HETATM    2  N3  UNL     1      25.923 -31.114 281.651  1.00  0.00    -0.372 N 
ATOM      3  H3  UNL     1      25.968 -30.281 281.065  1.00  0.00     0.157 HD
HETATM    4  C4  UNL     1      26.368 -31.044 282.968  1.00  0.00     0.296 C 
HETATM    5  C5  UNL     1      25.162 -31.051 283.887  1.00  0.00     0.173 C 
HETATM    6  N5  UNL     1      24.926 -32.402 284.240  1.00  0.00    -0.378 N 
HETATM    7  C12 UNL     1      24.587 -33.356 283.307  1.00  0.00     0.251 C 
HETATM    8  C13 UNL     1      25.157 -33.467 281.969  1.00  0.00     0.278 C 
ENDROOT
BRANCH   8   9
HETATM    9  N7  UNL     1      24.225 -34.338 281.193  1.00  0.00    -0.034 N 
ATOM     10  H72 UNL     1      23.316 -33.887 281.088  1.00  0.00     0.281 HD
ATOM     11  H71 UNL     1      24.508 -34.383 280.214  1.00  0.00     0.281 HD
BRANCH   9  12
HETATM   12  C14 UNL     1      24.076 -35.633 281.726  1.00  0.00     0.359 C 
BRANCH  12  13
HETATM   13  O4  UNL     1      22.951 -35.774 282.590  1.00  0.00    -0.368 OA
ATOM     14  H4  UNL     1      22.578 -34.946 282.871  1.00  0.00     0.212 HD
ENDBRANCH  12  13
BRANCH  12  15
HETATM   15  C15 UNL     1      23.681 -36.604 280.582  1.00  0.00     0.332 C 
BRANCH  15  16
HETATM   16  N8  UNL     1      23.561 -37.924 281.158  1.00  0.00    -0.062 N 
ATOM     17  H83 UNL     1      23.470 -38.659 280.457  1.00  0.00     0.275 HD
ATOM     18  H82 UNL     1      24.427 -38.254 281.584  1.00  0.00     0.275 HD
ATOM     19  H81 UNL     1      22.779 -37.900 281.813  1.00  0.00     0.275 HD
ENDBRANCH  15  16
BRANCH  15  20
HETATM   20  C16 UNL     1      24.914 -36.632 279.707  1.00  0.00     0.270 C 
HETATM   21  O5  UNL     1      25.761 -37.587 279.804  1.00  0.00    -0.269 OA
HETATM   22  N9  UNL     1      25.180 -35.626 278.746  1.00  0.00    -0.275 N 
ATOM     23  H9  UNL     1      24.522 -34.853 278.656  1.00  0.00     0.189 HD
BRANCH  22  24
HETATM   24  N10 UNL     1      26.302 -35.645 277.915  1.00  0.00    -0.343 N 
ATOM     25 2H10 UNL     1      27.103 -36.198 278.219  1.00  0.00     0.176 HD
ATOM     26 1H10 UNL     1      26.349 -35.136 277.032  1.00  0.00     0.176 HD
ENDBRANCH  22  24
ENDBRANCH  15  20
ENDBRANCH  12  15
ENDBRANCH   9  12
ENDBRANCH   8   9
BRANCH   1  27
HETATM   27  N2  UNL     1      26.453 -32.704 280.120  1.00  0.00    -0.337 N 
HETATM   28  C2  UNL     1      26.474 -32.087 278.839  1.00  0.00     0.244 C 
HETATM   29  O1  UNL     1      25.578 -31.218 278.613  1.00  0.00    -0.272 OA
ATOM     30  H2  UNL     1      27.150 -33.409 280.361  1.00  0.00     0.164 HD
BRANCH  28  31
HETATM   31  C1  UNL     1      27.439 -32.369 277.777  1.00  0.00     0.332 C 
BRANCH  31  32
HETATM   32  N1  UNL     1      28.119 -31.136 277.371  1.00  0.00    -0.071 N 
ATOM     33  H13 UNL     1      28.386 -31.154 276.387  1.00  0.00     0.274 HD
ATOM     34  H12 UNL     1      27.480 -30.342 277.338  1.00  0.00     0.274 HD
ATOM     35  H11 UNL     1      28.918 -30.957 277.979  1.00  0.00     0.274 HD
ENDBRANCH  31  32
ENDBRANCH  28  31
ENDBRANCH   1  27
BRANCH   7  36
HETATM   36  O3  UNL     1      24.845 -34.613 283.949  1.00  0.00    -0.375 OA
ATOM     37  H3  UNL     1      24.011 -35.068 283.945  1.00  0.00     0.212 HD
ENDBRANCH   7  36
BRANCH   6  38
HETATM   38  C6  UNL     1      25.232 -32.742 285.576  1.00  0.00     0.155 C 
BRANCH  38  39
HETATM   39  C7  UNL     1      24.071 -32.912 286.482  1.00  0.00    -0.048 C 
HETATM   40  C8  UNL     1      22.829 -32.791 286.077  1.00  0.00    -0.011 C 
HETATM   41  C9  UNL     1      21.703 -32.978 287.080  1.00  0.00     0.130 C 
HETATM   42  C10 UNL     1      22.035 -34.123 287.940  1.00  0.00     0.221 C 
HETATM   43  O2  UNL     1      21.121 -34.863 288.328  1.00  0.00    -0.273 OA
HETATM   44  N6  UNL     1      23.427 -34.311 288.281  1.00  0.00    -0.357 N 
HETATM   45  C11 UNL     1      24.342 -33.229 287.944  1.00  0.00     0.158 C 
ATOM     46  H6  UNL     1      23.754 -35.163 288.738  1.00  0.00     0.162 HD
ENDBRANCH  38  39
ENDBRANCH   6  38
BRANCH   4  47
HETATM   47  N4  UNL     1      27.300 -32.092 283.241  1.00  0.00    -0.057 N 
ATOM     48  H43 UNL     1      27.825 -31.918 284.097  1.00  0.00     0.276 HD
ATOM     49  H42 UNL     1      26.830 -32.952 283.522  1.00  0.00     0.276 HD
ATOM     50  H41 UNL     1      27.917 -32.242 282.442  1.00  0.00     0.276 HD
ENDBRANCH   4  47
TORSDOF 14
ENDMDL
