MODEL 1
REMARK VINA RESULT: -7.591060793      0.000      0.000
REMARK  9 active torsions:
REMARK  status: ('A' for Active; 'I' for Inactive)
REMARK    1  A    between atoms: C2_2  and  O1_3 
REMARK    2  A    between atoms: O1_3  and  C3_4 
REMARK    3  A    between atoms: C3_4  and  C4_6 
REMARK    4  A    between atoms: C9_11  and  O3_12 
REMARK    5  A    between atoms: C9_11  and  C10_14 
REMARK    6  A    between atoms: C11_16  and  C12_17 
REMARK    7  A    between atoms: C12_17  and  O5_19 
REMARK    8  A    between atoms: O5_19  and  C13_20 
REMARK    9  A    between atoms: C13_20  and  C14_21 
ROOT
HETATM    1  C4  UNL     1       2.617 -38.104   4.517  1.00  0.00     0.065 C 
HETATM    2  C5  UNL     1       3.864 -37.720   4.224  1.00  0.00    -0.059 C 
HETATM    3  C6  UNL     1       4.983 -38.444   4.907  1.00  0.00     0.045 C 
HETATM    4  C7  UNL     1       4.167 -36.649   3.278  1.00  0.00     0.049 C 
HETATM    5  C8  UNL     1       5.156 -37.186   2.256  1.00  0.00     0.018 C 
HETATM    6  C9  UNL     1       2.988 -36.101   2.514  1.00  0.00     0.109 C 
HETATM    7  C11 UNL     1       1.784 -36.003   3.443  1.00  0.00     0.173 C 
HETATM    8  C20 UNL     1       1.516 -37.410   3.852  1.00  0.00     0.036 C 
HETATM    9  N1  UNL     1       0.424 -38.050   3.663  1.00  0.00    -0.401 N 
ATOM     10  H11 UNL     1      -0.344 -37.565   3.199  1.00  0.00     0.156 HD
ATOM     11  H12 UNL     1       0.241 -39.013   3.943  1.00  0.00     0.156 HD
ENDROOT
BRANCH   7  12
HETATM   12  C12 UNL     1       0.663 -35.316   2.822  1.00  0.00     0.272 C 
HETATM   13  O4  UNL     1       0.057 -35.923   1.870  1.00  0.00    -0.264 OA
BRANCH  12  14
HETATM   14  O5  UNL     1       0.190 -34.072   3.164  1.00  0.00    -0.317 OA
BRANCH  14  15
HETATM   15  C13 UNL     1       0.589 -33.399   4.287  1.00  0.00     0.212 C 
BRANCH  15  16
HETATM   16  C14 UNL     1       1.257 -32.093   4.149  1.00  0.00    -0.060 C 
HETATM   17  C15 UNL     1       1.740 -31.390   5.160  1.00  0.00    -0.022 C 
HETATM   18  C16 UNL     1       2.405 -30.059   4.863  1.00  0.00     0.027 C 
HETATM   19  C17 UNL     1       1.426 -29.341   3.956  1.00  0.00     0.004 C 
HETATM   20  C18 UNL     1       1.333 -30.075   2.660  1.00  0.00     0.005 C 
HETATM   21  C19 UNL     1       1.379 -31.561   2.750  1.00  0.00     0.036 C 
ENDBRANCH  15  16
ENDBRANCH  14  15
ENDBRANCH  12  14
ENDBRANCH   7  12
BRANCH   6  22
HETATM   22  O3  UNL     1       2.671 -36.885   1.409  1.00  0.00    -0.385 OA
ATOM     23  H3  UNL     1       3.294 -36.770   0.700  1.00  0.00     0.210 HD
ENDBRANCH   6  22
BRANCH   6  24
HETATM   24  C10 UNL     1       3.389 -34.718   2.056  1.00  0.00     0.262 C 
HETATM   25  F1  UNL     1       3.824 -33.944   3.080  1.00  0.00    -0.252 F 
ENDBRANCH   6  24
BRANCH   1  26
HETATM   26  C3  UNL     1       2.337 -39.180   5.460  1.00  0.00     0.295 C 
HETATM   27  O2  UNL     1       2.179 -40.373   5.195  1.00  0.00    -0.259 OA
BRANCH  26  28
HETATM   28  O1  UNL     1       2.233 -38.841   6.822  1.00  0.00    -0.318 OA
BRANCH  28  29
HETATM   29  C2  UNL     1       0.998 -38.930   7.504  1.00  0.00     0.174 C 
HETATM   30  C1  UNL     1       0.165 -37.684   7.334  1.00  0.00     0.034 C 
ENDBRANCH  28  29
ENDBRANCH  26  28
ENDBRANCH   1  26
TORSDOF 9
ENDMDL
MODEL 2
REMARK VINA RESULT: -7.579663385      3.485      5.738
REMARK  9 active torsions:
REMARK  status: ('A' for Active; 'I' for Inactive)
REMARK    1  A    between atoms: C2_2  and  O1_3 
REMARK    2  A    between atoms: O1_3  and  C3_4 
REMARK    3  A    between atoms: C3_4  and  C4_6 
REMARK    4  A    between atoms: C9_11  and  O3_12 
REMARK    5  A    between atoms: C9_11  and  C10_14 
REMARK    6  A    between atoms: C11_16  and  C12_17 
REMARK    7  A    between atoms: C12_17  and  O5_19 
REMARK    8  A    between atoms: O5_19  and  C13_20 
REMARK    9  A    between atoms: C13_20  and  C14_21 
ROOT
HETATM    1  C4  UNL     1      -3.157 -35.003   4.291  1.00  0.00     0.065 C 
HETATM    2  C5  UNL     1      -3.116 -36.053   5.119  1.00  0.00    -0.059 C 
HETATM    3  C6  UNL     1      -4.288 -36.255   6.030  1.00  0.00     0.045 C 
HETATM    4  C7  UNL     1      -1.998 -36.991   5.162  1.00  0.00     0.049 C 
HETATM    5  C8  UNL     1      -2.554 -38.398   5.009  1.00  0.00     0.018 C 
HETATM    6  C9  UNL     1      -0.950 -36.807   4.092  1.00  0.00     0.109 C 
HETATM    7  C11 UNL     1      -0.711 -35.318   3.870  1.00  0.00     0.173 C 
HETATM    8  C20 UNL     1      -2.023 -34.799   3.392  1.00  0.00     0.036 C 
HETATM    9  N1  UNL     1      -2.234 -34.209   2.277  1.00  0.00    -0.401 N 
ATOM     10  H11 UNL     1      -1.442 -34.066   1.650  1.00  0.00     0.156 HD
ATOM     11  H12 UNL     1      -3.132 -33.854   1.950  1.00  0.00     0.156 HD
ENDROOT
BRANCH   7  12
HETATM   12  C12 UNL     1       0.413 -35.067   2.981  1.00  0.00     0.272 C 
HETATM   13  O4  UNL     1       0.352 -35.566   1.802  1.00  0.00    -0.264 OA
BRANCH  12  14
HETATM   14  O5  UNL     1       1.538 -34.341   3.289  1.00  0.00    -0.317 OA
BRANCH  14  15
HETATM   15  C13 UNL     1       1.646 -33.562   4.410  1.00  0.00     0.212 C 
BRANCH  15  16
HETATM   16  C14 UNL     1       1.893 -32.117   4.266  1.00  0.00    -0.060 C 
HETATM   17  C15 UNL     1       2.004 -31.274   5.278  1.00  0.00    -0.022 C 
HETATM   18  C16 UNL     1       2.260 -29.809   4.975  1.00  0.00     0.027 C 
HETATM   19  C17 UNL     1       1.232 -29.456   3.919  1.00  0.00     0.004 C 
HETATM   20  C18 UNL     1       1.535 -30.215   2.669  1.00  0.00     0.005 C 
HETATM   21  C19 UNL     1       2.024 -31.609   2.858  1.00  0.00     0.036 C 
ENDBRANCH  15  16
ENDBRANCH  14  15
ENDBRANCH  12  14
ENDBRANCH   7  12
BRANCH   6  22
HETATM   22  O3  UNL     1      -1.315 -37.412   2.894  1.00  0.00    -0.385 OA
ATOM     23  H3  UNL     1      -1.694 -36.792   2.282  1.00  0.00     0.210 HD
ENDBRANCH   6  22
BRANCH   6  24
HETATM   24  C10 UNL     1       0.310 -37.449   4.621  1.00  0.00     0.262 C 
HETATM   25  F1  UNL     1       0.749 -36.859   5.760  1.00  0.00    -0.252 F 
ENDBRANCH   6  24
BRANCH   1  26
HETATM   26  C3  UNL     1      -4.287 -34.082   4.261  1.00  0.00     0.295 C 
HETATM   27  O2  UNL     1      -4.484 -33.129   5.017  1.00  0.00    -0.259 OA
BRANCH  26  28
HETATM   28  O1  UNL     1      -5.268 -34.287   3.272  1.00  0.00    -0.318 OA
BRANCH  28  29
HETATM   29  C2  UNL     1      -5.776 -33.208   2.512  1.00  0.00     0.174 C 
HETATM   30  C1  UNL     1      -5.443 -33.339   1.047  1.00  0.00     0.034 C 
ENDBRANCH  28  29
ENDBRANCH  26  28
ENDBRANCH   1  26
TORSDOF 9
ENDMDL
MODEL 3
REMARK VINA RESULT: -7.548802518      3.670      5.555
REMARK  9 active torsions:
REMARK  status: ('A' for Active; 'I' for Inactive)
REMARK    1  A    between atoms: C2_2  and  O1_3 
REMARK    2  A    between atoms: O1_3  and  C3_4 
REMARK    3  A    between atoms: C3_4  and  C4_6 
REMARK    4  A    between atoms: C9_11  and  O3_12 
REMARK    5  A    between atoms: C9_11  and  C10_14 
REMARK    6  A    between atoms: C11_16  and  C12_17 
REMARK    7  A    between atoms: C12_17  and  O5_19 
REMARK    8  A    between atoms: O5_19  and  C13_20 
REMARK    9  A    between atoms: C13_20  and  C14_21 
ROOT
HETATM    1  C4  UNL     1      -3.390 -35.182   4.493  1.00  0.00     0.065 C 
HETATM    2  C5  UNL     1      -4.050 -34.374   3.656  1.00  0.00    -0.059 C 
HETATM    3  C6  UNL     1      -5.539 -34.306   3.799  1.00  0.00     0.045 C 
HETATM    4  C7  UNL     1      -3.384 -33.569   2.635  1.00  0.00     0.049 C 
HETATM    5  C8  UNL     1      -3.837 -32.128   2.799  1.00  0.00     0.018 C 
HETATM    6  C9  UNL     1      -1.877 -33.571   2.682  1.00  0.00     0.109 C 
HETATM    7  C11 UNL     1      -1.383 -34.975   3.013  1.00  0.00     0.173 C 
HETATM    8  C20 UNL     1      -1.935 -35.253   4.368  1.00  0.00     0.036 C 
HETATM    9  N1  UNL     1      -1.252 -35.532   5.413  1.00  0.00    -0.401 N 
ATOM     10  H11 UNL     1      -0.237 -35.582   5.326  1.00  0.00     0.156 HD
ATOM     11  H12 UNL     1      -1.630 -35.722   6.341  1.00  0.00     0.156 HD
ENDROOT
BRANCH   7  12
HETATM   12  C12 UNL     1       0.062 -35.092   2.899  1.00  0.00     0.272 C 
HETATM   13  O4  UNL     1       0.517 -35.911   2.025  1.00  0.00    -0.264 OA
BRANCH  12  14
HETATM   14  O5  UNL     1       0.989 -34.404   3.645  1.00  0.00    -0.317 OA
BRANCH  14  15
HETATM   15  C13 UNL     1       1.925 -33.570   3.095  1.00  0.00     0.212 C 
BRANCH  15  16
HETATM   16  C14 UNL     1       2.044 -32.188   3.590  1.00  0.00    -0.060 C 
HETATM   17  C15 UNL     1       1.868 -31.828   4.850  1.00  0.00    -0.022 C 
HETATM   18  C16 UNL     1       2.026 -30.362   5.212  1.00  0.00     0.027 C 
HETATM   19  C17 UNL     1       1.192 -29.626   4.183  1.00  0.00     0.004 C 
HETATM   20  C18 UNL     1       1.810 -29.806   2.835  1.00  0.00     0.005 C 
HETATM   21  C19 UNL     1       2.394 -31.149   2.563  1.00  0.00     0.036 C 
ENDBRANCH  15  16
ENDBRANCH  14  15
ENDBRANCH  12  14
ENDBRANCH   7  12
BRANCH   6  22
HETATM   22  O3  UNL     1      -1.382 -32.663   3.614  1.00  0.00    -0.385 OA
ATOM     23  H3  UNL     1      -0.455 -32.792   3.780  1.00  0.00     0.210 HD
ENDBRANCH   6  22
BRANCH   6  24
HETATM   24  C10 UNL     1      -1.411 -33.183   1.299  1.00  0.00     0.262 C 
HETATM   25  F1  UNL     1      -2.378 -33.352   0.365  1.00  0.00    -0.252 F 
ENDBRANCH   6  24
BRANCH   1  26
HETATM   26  C3  UNL     1      -4.074 -35.973   5.510  1.00  0.00     0.295 C 
HETATM   27  O2  UNL     1      -4.293 -35.645   6.678  1.00  0.00    -0.259 OA
BRANCH  26  28
HETATM   28  O1  UNL     1      -4.542 -37.247   5.137  1.00  0.00    -0.318 OA
BRANCH  28  29
HETATM   29  C2  UNL     1      -3.691 -38.376   5.175  1.00  0.00     0.174 C 
HETATM   30  C1  UNL     1      -3.184 -38.751   3.805  1.00  0.00     0.034 C 
ENDBRANCH  28  29
ENDBRANCH  26  28
ENDBRANCH   1  26
TORSDOF 9
ENDMDL
MODEL 4
REMARK VINA RESULT: -7.507994340      3.518      5.311
REMARK  9 active torsions:
REMARK  status: ('A' for Active; 'I' for Inactive)
REMARK    1  A    between atoms: C2_2  and  O1_3 
REMARK    2  A    between atoms: O1_3  and  C3_4 
REMARK    3  A    between atoms: C3_4  and  C4_6 
REMARK    4  A    between atoms: C9_11  and  O3_12 
REMARK    5  A    between atoms: C9_11  and  C10_14 
REMARK    6  A    between atoms: C11_16  and  C12_17 
REMARK    7  A    between atoms: C12_17  and  O5_19 
REMARK    8  A    between atoms: O5_19  and  C13_20 
REMARK    9  A    between atoms: C13_20  and  C14_21 
ROOT
HETATM    1  C4  UNL     1      -3.151 -35.680   4.378  1.00  0.00     0.065 C 
HETATM    2  C5  UNL     1      -3.832 -34.734   3.722  1.00  0.00    -0.059 C 
HETATM    3  C6  UNL     1      -5.320 -34.718   3.890  1.00  0.00     0.045 C 
HETATM    4  C7  UNL     1      -3.190 -33.735   2.871  1.00  0.00     0.049 C 
HETATM    5  C8  UNL     1      -3.659 -32.360   3.319  1.00  0.00     0.018 C 
HETATM    6  C9  UNL     1      -1.682 -33.724   2.903  1.00  0.00     0.109 C 
HETATM    7  C11 UNL     1      -1.166 -35.157   2.948  1.00  0.00     0.173 C 
HETATM    8  C20 UNL     1      -1.698 -35.703   4.228  1.00  0.00     0.036 C 
HETATM    9  N1  UNL     1      -0.998 -36.171   5.191  1.00  0.00    -0.401 N 
ATOM     10  H11 UNL     1       0.016 -36.188   5.086  1.00  0.00     0.156 HD
ATOM     11  H12 UNL     1      -1.362 -36.544   6.067  1.00  0.00     0.156 HD
ENDROOT
BRANCH   7  12
HETATM   12  C12 UNL     1       0.279 -35.228   2.800  1.00  0.00     0.272 C 
HETATM   13  O4  UNL     1       0.737 -35.993   1.879  1.00  0.00    -0.264 OA
BRANCH  12  14
HETATM   14  O5  UNL     1       1.202 -34.549   3.557  1.00  0.00    -0.317 OA
BRANCH  14  15
HETATM   15  C13 UNL     1       2.086 -33.646   3.031  1.00  0.00     0.212 C 
BRANCH  15  16
HETATM   16  C14 UNL     1       2.123 -32.273   3.565  1.00  0.00    -0.060 C 
HETATM   17  C15 UNL     1       1.900 -31.957   4.829  1.00  0.00    -0.022 C 
HETATM   18  C16 UNL     1       1.974 -30.496   5.233  1.00  0.00     0.027 C 
HETATM   19  C17 UNL     1       1.128 -29.775   4.203  1.00  0.00     0.004 C 
HETATM   20  C18 UNL     1       1.784 -29.887   2.867  1.00  0.00     0.005 C 
HETATM   21  C19 UNL     1       2.442 -31.190   2.573  1.00  0.00     0.036 C 
ENDBRANCH  15  16
ENDBRANCH  14  15
ENDBRANCH  12  14
ENDBRANCH   7  12
BRANCH   6  22
HETATM   22  O3  UNL     1      -1.188 -33.008   3.989  1.00  0.00    -0.385 OA
ATOM     23  H3  UNL     1      -0.973 -33.574   4.721  1.00  0.00     0.210 HD
ENDBRANCH   6  22
BRANCH   6  24
HETATM   24  C10 UNL     1      -1.238 -33.066   1.618  1.00  0.00     0.262 C 
HETATM   25  F1  UNL     1      -0.742 -31.821   1.824  1.00  0.00    -0.252 F 
ENDBRANCH   6  24
BRANCH   1  26
HETATM   26  C3  UNL     1      -3.813 -36.664   5.227  1.00  0.00     0.295 C 
HETATM   27  O2  UNL     1      -4.304 -37.737   4.871  1.00  0.00    -0.259 OA
BRANCH  26  28
HETATM   28  O1  UNL     1      -3.911 -36.377   6.602  1.00  0.00    -0.318 OA
BRANCH  28  29
HETATM   29  C2  UNL     1      -3.682 -35.070   7.092  1.00  0.00     0.174 C 
HETATM   30  C1  UNL     1      -4.968 -34.344   7.395  1.00  0.00     0.034 C 
ENDBRANCH  28  29
ENDBRANCH  26  28
ENDBRANCH   1  26
TORSDOF 9
ENDMDL
MODEL 5
REMARK VINA RESULT: -7.427293919      3.646      6.496
REMARK  9 active torsions:
REMARK  status: ('A' for Active; 'I' for Inactive)
REMARK    1  A    between atoms: C2_2  and  O1_3 
REMARK    2  A    between atoms: O1_3  and  C3_4 
REMARK    3  A    between atoms: C3_4  and  C4_6 
REMARK    4  A    between atoms: C9_11  and  O3_12 
REMARK    5  A    between atoms: C9_11  and  C10_14 
REMARK    6  A    between atoms: C11_16  and  C12_17 
REMARK    7  A    between atoms: C12_17  and  O5_19 
REMARK    8  A    between atoms: O5_19  and  C13_20 
REMARK    9  A    between atoms: C13_20  and  C14_21 
ROOT
HETATM    1  C4  UNL     1      -2.711 -33.571   3.301  1.00  0.00     0.065 C 
HETATM    2  C5  UNL     1      -3.429 -34.128   4.283  1.00  0.00    -0.059 C 
HETATM    3  C6  UNL     1      -4.776 -33.540   4.568  1.00  0.00     0.045 C 
HETATM    4  C7  UNL     1      -2.959 -35.269   5.064  1.00  0.00     0.049 C 
HETATM    5  C8  UNL     1      -4.030 -36.347   5.021  1.00  0.00     0.018 C 
HETATM    6  C9  UNL     1      -1.673 -35.899   4.591  1.00  0.00     0.109 C 
HETATM    7  C11 UNL     1      -0.707 -34.806   4.148  1.00  0.00     0.173 C 
HETATM    8  C20 UNL     1      -1.397 -34.140   3.009  1.00  0.00     0.036 C 
HETATM    9  N1  UNL     1      -0.947 -34.038   1.816  1.00  0.00    -0.401 N 
ATOM     10  H11 UNL     1      -0.029 -34.435   1.612  1.00  0.00     0.156 HD
ATOM     11  H12 UNL     1      -1.419 -33.582   1.036  1.00  0.00     0.156 HD
ENDROOT
BRANCH   7  12
HETATM   12  C12 UNL     1       0.617 -35.328   3.848  1.00  0.00     0.272 C 
HETATM   13  O4  UNL     1       0.696 -36.255   2.967  1.00  0.00    -0.264 OA
BRANCH  12  14
HETATM   14  O5  UNL     1       1.795 -34.918   4.424  1.00  0.00    -0.317 OA
BRANCH  14  15
HETATM   15  C13 UNL     1       2.574 -33.916   3.910  1.00  0.00     0.212 C 
BRANCH  15  16
HETATM   16  C14 UNL     1       2.019 -32.557   3.791  1.00  0.00    -0.060 C 
HETATM   17  C15 UNL     1       1.663 -31.991   2.650  1.00  0.00    -0.022 C 
HETATM   18  C16 UNL     1       1.104 -30.581   2.685  1.00  0.00     0.027 C 
HETATM   19  C17 UNL     1       2.088 -29.805   3.538  1.00  0.00     0.004 C 
HETATM   20  C18 UNL     1       2.037 -30.324   4.937  1.00  0.00     0.005 C 
HETATM   21  C19 UNL     1       1.862 -31.796   5.078  1.00  0.00     0.036 C 
ENDBRANCH  15  16
ENDBRANCH  14  15
ENDBRANCH  12  14
ENDBRANCH   7  12
BRANCH   6  22
HETATM   22  O3  UNL     1      -1.883 -36.796   3.548  1.00  0.00    -0.385 OA
ATOM     23  H3  UNL     1      -1.124 -36.867   2.980  1.00  0.00     0.210 HD
ENDBRANCH   6  22
BRANCH   6  24
HETATM   24  C10 UNL     1      -1.098 -36.631   5.781  1.00  0.00     0.262 C 
HETATM   25  F1  UNL     1      -1.334 -35.980   6.947  1.00  0.00    -0.252 F 
ENDBRANCH   6  24
BRANCH   1  26
HETATM   26  C3  UNL     1      -3.203 -32.435   2.529  1.00  0.00     0.295 C 
HETATM   27  O2  UNL     1      -2.734 -31.296   2.509  1.00  0.00    -0.259 OA
BRANCH  26  28
HETATM   28  O1  UNL     1      -4.333 -32.643   1.715  1.00  0.00    -0.318 OA
BRANCH  28  29
HETATM   29  C2  UNL     1      -4.205 -33.167   0.408  1.00  0.00     0.174 C 
HETATM   30  C1  UNL     1      -5.388 -32.821  -0.460  1.00  0.00     0.034 C 
ENDBRANCH  28  29
ENDBRANCH  26  28
ENDBRANCH   1  26
TORSDOF 9
ENDMDL
