MODEL 1
REMARK VINA RESULT: -9.252515653      0.000      0.000
REMARK  6 active torsions:
REMARK  status: ('A' for Active; 'I' for Inactive)
REMARK    1  A    between atoms: N4_13  and  C7_14 
REMARK    2  A    between atoms: C7_14  and  C8_15 
REMARK    3  A    between atoms: C8_15  and  S1_16 
REMARK    4  A    between atoms: C8_15  and  C14_22 
REMARK    5  A    between atoms: S1_16  and  C9_17 
REMARK       I    between atoms: C14_22  and  N5_24 
REMARK    6  A    between atoms: N5_24  and  C15_26 
ROOT
HETATM    1  C8  UNL     1      -1.512 -34.743   3.389  1.00  0.00     0.180 C 
ENDROOT
BRANCH   1   2
HETATM    2  C7  UNL     1      -1.622 -36.149   3.720  1.00  0.00     0.116 C 
BRANCH   2   3
HETATM    3  N4  UNL     1      -2.690 -36.659   4.508  1.00  0.00    -0.253 N 
HETATM    4  C3  UNL     1      -2.758 -36.645   5.848  1.00  0.00     0.087 A 
HETATM    5  C2  UNL     1      -1.972 -36.140   6.882  1.00  0.00     0.063 A 
HETATM    6  C4  UNL     1      -3.926 -37.275   6.231  1.00  0.00     0.081 A 
HETATM    7  C1  UNL     1      -2.282 -36.232   8.205  1.00  0.00     0.087 A 
HETATM    8  N1  UNL     1      -1.485 -35.717   9.258  1.00  0.00    -0.099 NA
HETATM    9  C6  UNL     1      -3.472 -36.877   8.554  1.00  0.00     0.142 A 
HETATM   10  C5  UNL     1      -4.272 -37.387   7.564  1.00  0.00     0.077 A 
HETATM   11  F1  UNL     1      -3.828 -36.997   9.849  1.00  0.00    -0.204 F 
HETATM   12  N2  UNL     1      -4.549 -37.661   5.100  1.00  0.00    -0.284 N 
HETATM   13  N3  UNL     1      -3.798 -37.283   4.119  1.00  0.00    -0.236 N 
ATOM     14  H2  UNL     1      -5.439 -38.155   5.033  1.00  0.00     0.188 HD
ATOM     15  H3  UNL     1      -4.033 -37.448   3.140  1.00  0.00     0.209 HD
ENDBRANCH   2   3
ENDBRANCH   1   2
BRANCH   1  16
HETATM   16  S1  UNL     1      -3.113 -33.899   3.676  1.00  0.00    -0.144 SA
BRANCH  16  17
HETATM   17  C9  UNL     1      -3.614 -32.836   2.338  1.00  0.00     0.048 C 
HETATM   18  C10 UNL     1      -2.999 -33.175   1.018  1.00  0.00     0.015 C 
HETATM   19  C11 UNL     1      -4.118 -32.989   0.023  1.00  0.00     0.001 C 
HETATM   20  C12 UNL     1      -5.327 -33.491   0.755  1.00  0.00     0.001 C 
HETATM   21  C13 UNL     1      -5.124 -32.961   2.149  1.00  0.00     0.015 C 
ENDBRANCH  16  17
ENDBRANCH   1  16
BRANCH   1  22
HETATM   22  C14 UNL     1      -0.483 -33.868   3.919  1.00  0.00     0.236 C 
HETATM   23  O1  UNL     1       0.117 -34.129   4.981  1.00  0.00    -0.272 OA
HETATM   24  N5  UNL     1      -0.162 -32.673   3.181  1.00  0.00    -0.355 N 
ATOM     25  H5  UNL     1      -0.671 -32.491   2.316  1.00  0.00     0.162 HD
BRANCH  24  26
HETATM   26  C15 UNL     1       0.821 -31.736   3.589  1.00  0.00     0.084 C 
HETATM   27  C16 UNL     1       1.974 -31.575   2.606  1.00  0.00     0.025 C 
HETATM   28  C17 UNL     1       2.634 -30.314   3.076  1.00  0.00     0.002 C 
HETATM   29  C18 UNL     1       1.628 -29.566   3.926  1.00  0.00     0.002 C 
HETATM   30  C19 UNL     1       0.330 -30.321   3.702  1.00  0.00     0.025 C 
ENDBRANCH  24  26
ENDBRANCH   1  22
TORSDOF 6
ENDMDL
MODEL 2
REMARK VINA RESULT: -9.117065967      3.192      5.052
REMARK  6 active torsions:
REMARK  status: ('A' for Active; 'I' for Inactive)
REMARK    1  A    between atoms: N4_13  and  C7_14 
REMARK    2  A    between atoms: C7_14  and  C8_15 
REMARK    3  A    between atoms: C8_15  and  S1_16 
REMARK    4  A    between atoms: C8_15  and  C14_22 
REMARK    5  A    between atoms: S1_16  and  C9_17 
REMARK       I    between atoms: C14_22  and  N5_24 
REMARK    6  A    between atoms: N5_24  and  C15_26 
ROOT
HETATM    1  C8  UNL     1       0.206 -35.452   3.939  1.00  0.00     0.180 C 
ENDROOT
BRANCH   1   2
HETATM    2  C7  UNL     1      -0.947 -36.232   4.338  1.00  0.00     0.116 C 
BRANCH   2   3
HETATM    3  N4  UNL     1      -1.932 -35.723   5.229  1.00  0.00    -0.253 N 
HETATM    4  C3  UNL     1      -3.081 -35.126   4.878  1.00  0.00     0.087 A 
HETATM    5  C2  UNL     1      -3.739 -34.856   3.680  1.00  0.00     0.063 A 
HETATM    6  C4  UNL     1      -3.737 -34.734   6.029  1.00  0.00     0.081 A 
HETATM    7  C1  UNL     1      -4.953 -34.244   3.586  1.00  0.00     0.087 A 
HETATM    8  N1  UNL     1      -5.625 -33.969   2.368  1.00  0.00    -0.099 NA
HETATM    9  C6  UNL     1      -5.586 -33.860   4.771  1.00  0.00     0.142 A 
HETATM   10  C5  UNL     1      -4.968 -34.110   5.970  1.00  0.00     0.077 A 
HETATM   11  F1  UNL     1      -6.787 -33.250   4.736  1.00  0.00    -0.204 F 
HETATM   12  N2  UNL     1      -2.961 -35.105   7.066  1.00  0.00    -0.284 N 
HETATM   13  N3  UNL     1      -1.919 -35.679   6.559  1.00  0.00    -0.236 N 
ATOM     14  H2  UNL     1      -3.157 -34.962   8.056  1.00  0.00     0.188 HD
ATOM     15  H3  UNL     1      -1.161 -36.061   7.124  1.00  0.00     0.209 HD
ENDBRANCH   2   3
ENDBRANCH   1   2
BRANCH   1  16
HETATM   16  S1  UNL     1       1.192 -36.370   2.697  1.00  0.00    -0.144 SA
BRANCH  16  17
HETATM   17  C9  UNL     1       2.638 -35.494   2.137  1.00  0.00     0.048 C 
HETATM   18  C10 UNL     1       3.571 -35.084   3.231  1.00  0.00     0.015 C 
HETATM   19  C11 UNL     1       4.947 -35.332   2.663  1.00  0.00     0.001 C 
HETATM   20  C12 UNL     1       4.779 -36.595   1.873  1.00  0.00     0.001 C 
HETATM   21  C13 UNL     1       3.440 -36.408   1.213  1.00  0.00     0.015 C 
ENDBRANCH  16  17
ENDBRANCH   1  16
BRANCH   1  22
HETATM   22  C14 UNL     1       0.129 -34.080   3.472  1.00  0.00     0.236 C 
HETATM   23  O1  UNL     1      -0.557 -33.762   2.480  1.00  0.00    -0.272 OA
HETATM   24  N5  UNL     1       0.871 -33.076   4.191  1.00  0.00    -0.355 N 
ATOM     25  H5  UNL     1       1.420 -33.370   4.998  1.00  0.00     0.162 HD
BRANCH  24  26
HETATM   26  C15 UNL     1       0.882 -31.703   3.840  1.00  0.00     0.084 C 
HETATM   27  C16 UNL     1       1.413 -30.784   4.934  1.00  0.00     0.025 C 
HETATM   28  C17 UNL     1       1.658 -29.501   4.197  1.00  0.00     0.002 C 
HETATM   29  C18 UNL     1       1.745 -29.837   2.722  1.00  0.00     0.002 C 
HETATM   30  C19 UNL     1       1.791 -31.353   2.696  1.00  0.00     0.025 C 
ENDBRANCH  24  26
ENDBRANCH   1  22
TORSDOF 6
ENDMDL
MODEL 3
REMARK VINA RESULT: -8.942810096      4.254      6.488
REMARK  6 active torsions:
REMARK  status: ('A' for Active; 'I' for Inactive)
REMARK    1  A    between atoms: N4_13  and  C7_14 
REMARK    2  A    between atoms: C7_14  and  C8_15 
REMARK    3  A    between atoms: C8_15  and  S1_16 
REMARK    4  A    between atoms: C8_15  and  C14_22 
REMARK    5  A    between atoms: S1_16  and  C9_17 
REMARK       I    between atoms: C14_22  and  N5_24 
REMARK    6  A    between atoms: N5_24  and  C15_26 
ROOT
HETATM    1  C8  UNL     1       0.966 -35.073   2.848  1.00  0.00     0.180 C 
ENDROOT
BRANCH   1   2
HETATM    2  C7  UNL     1       1.652 -36.119   2.118  1.00  0.00     0.116 C 
BRANCH   2   3
HETATM    3  N4  UNL     1       2.827 -36.745   2.619  1.00  0.00    -0.253 N 
HETATM    4  C3  UNL     1       2.992 -37.238   3.856  1.00  0.00     0.087 A 
HETATM    5  C2  UNL     1       2.187 -37.393   4.983  1.00  0.00     0.063 A 
HETATM    6  C4  UNL     1       4.283 -37.717   3.965  1.00  0.00     0.081 A 
HETATM    7  C1  UNL     1       2.592 -37.972   6.148  1.00  0.00     0.087 A 
HETATM    8  N1  UNL     1       1.776 -38.132   7.296  1.00  0.00    -0.099 NA
HETATM    9  C6  UNL     1       3.906 -38.443   6.222  1.00  0.00     0.142 A 
HETATM   10  C5  UNL     1       4.728 -38.308   5.132  1.00  0.00     0.077 A 
HETATM   11  F1  UNL     1       4.360 -39.023   7.351  1.00  0.00    -0.204 F 
HETATM   12  N2  UNL     1       4.880 -37.500   2.777  1.00  0.00    -0.284 N 
HETATM   13  N3  UNL     1       3.999 -36.934   2.020  1.00  0.00    -0.236 N 
ATOM     14  H2  UNL     1       5.840 -37.738   2.525  1.00  0.00     0.188 HD
ATOM     15  H3  UNL     1       4.186 -36.658   1.055  1.00  0.00     0.209 HD
ENDBRANCH   2   3
ENDBRANCH   1   2
BRANCH   1  16
HETATM   16  S1  UNL     1       1.976 -33.545   2.863  1.00  0.00    -0.144 SA
BRANCH  16  17
HETATM   17  C9  UNL     1       1.160 -32.152   3.616  1.00  0.00     0.048 C 
HETATM   18  C10 UNL     1       1.945 -31.493   4.705  1.00  0.00     0.015 C 
HETATM   19  C11 UNL     1       1.710 -30.017   4.496  1.00  0.00     0.001 C 
HETATM   20  C12 UNL     1       1.696 -29.870   3.004  1.00  0.00     0.001 C 
HETATM   21  C13 UNL     1       0.928 -31.083   2.551  1.00  0.00     0.015 C 
ENDBRANCH  16  17
ENDBRANCH   1  16
BRANCH   1  22
HETATM   22  C14 UNL     1      -0.399 -34.663   2.576  1.00  0.00     0.236 C 
HETATM   23  O1  UNL     1      -0.704 -34.048   1.534  1.00  0.00    -0.272 OA
HETATM   24  N5  UNL     1      -1.412 -34.988   3.548  1.00  0.00    -0.355 N 
ATOM     25  H5  UNL     1      -1.128 -35.493   4.387  1.00  0.00     0.162 HD
BRANCH  24  26
HETATM   26  C15 UNL     1      -2.780 -34.645   3.405  1.00  0.00     0.084 C 
HETATM   27  C16 UNL     1      -3.732 -35.547   4.180  1.00  0.00     0.025 C 
HETATM   28  C17 UNL     1      -5.014 -34.769   4.158  1.00  0.00     0.002 C 
HETATM   29  C18 UNL     1      -4.663 -33.329   3.845  1.00  0.00     0.002 C 
HETATM   30  C19 UNL     1      -3.149 -33.293   3.944  1.00  0.00     0.025 C 
ENDBRANCH  24  26
ENDBRANCH   1  22
TORSDOF 6
ENDMDL
MODEL 4
REMARK VINA RESULT: -8.942752722      3.769      6.174
REMARK  6 active torsions:
REMARK  status: ('A' for Active; 'I' for Inactive)
REMARK    1  A    between atoms: N4_13  and  C7_14 
REMARK    2  A    between atoms: C7_14  and  C8_15 
REMARK    3  A    between atoms: C8_15  and  S1_16 
REMARK    4  A    between atoms: C8_15  and  C14_22 
REMARK    5  A    between atoms: S1_16  and  C9_17 
REMARK       I    between atoms: C14_22  and  N5_24 
REMARK    6  A    between atoms: N5_24  and  C15_26 
ROOT
HETATM    1  C8  UNL     1      -0.121 -34.788   3.615  1.00  0.00     0.180 C 
ENDROOT
BRANCH   1   2
HETATM    2  C7  UNL     1      -0.914 -34.293   4.720  1.00  0.00     0.116 C 
BRANCH   2   3
HETATM    3  N4  UNL     1      -2.334 -34.238   4.666  1.00  0.00    -0.253 N 
HETATM    4  C3  UNL     1      -3.071 -33.877   3.605  1.00  0.00     0.087 A 
HETATM    5  C2  UNL     1      -2.808 -33.524   2.282  1.00  0.00     0.063 A 
HETATM    6  C4  UNL     1      -4.403 -33.908   3.969  1.00  0.00     0.081 A 
HETATM    7  C1  UNL     1      -3.763 -33.218   1.360  1.00  0.00     0.087 A 
HETATM    8  N1  UNL     1      -3.499 -32.861   0.014  1.00  0.00    -0.099 NA
HETATM    9  C6  UNL     1      -5.101 -33.259   1.765  1.00  0.00     0.142 A 
HETATM   10  C5  UNL     1      -5.397 -33.602   3.060  1.00  0.00     0.077 A 
HETATM   11  F1  UNL     1      -6.086 -32.965   0.894  1.00  0.00    -0.204 F 
HETATM   12  N2  UNL     1      -4.446 -34.293   5.259  1.00  0.00    -0.284 N 
HETATM   13  N3  UNL     1      -3.221 -34.477   5.629  1.00  0.00    -0.236 N 
ATOM     14  H2  UNL     1      -5.281 -34.416   5.831  1.00  0.00     0.188 HD
ATOM     15  H3  UNL     1      -2.960 -34.776   6.569  1.00  0.00     0.209 HD
ENDBRANCH   2   3
ENDBRANCH   1   2
BRANCH   1  16
HETATM   16  S1  UNL     1       1.063 -33.504   3.060  1.00  0.00    -0.144 SA
BRANCH  16  17
HETATM   17  C9  UNL     1       0.739 -31.889   3.736  1.00  0.00     0.048 C 
HETATM   18  C10 UNL     1       1.815 -31.370   4.636  1.00  0.00     0.015 C 
HETATM   19  C11 UNL     1       1.926 -29.907   4.283  1.00  0.00     0.001 C 
HETATM   20  C12 UNL     1       1.728 -29.886   2.798  1.00  0.00     0.001 C 
HETATM   21  C13 UNL     1       0.625 -30.888   2.588  1.00  0.00     0.015 C 
ENDBRANCH  16  17
ENDBRANCH   1  16
BRANCH   1  22
HETATM   22  C14 UNL     1       0.613 -36.040   3.646  1.00  0.00     0.236 C 
HETATM   23  O1  UNL     1       0.211 -37.051   3.036  1.00  0.00    -0.272 OA
HETATM   24  N5  UNL     1       1.835 -36.092   4.407  1.00  0.00    -0.355 N 
ATOM     25  H5  UNL     1       2.135 -35.246   4.892  1.00  0.00     0.162 HD
BRANCH  24  26
HETATM   26  C15 UNL     1       2.644 -37.250   4.520  1.00  0.00     0.084 C 
HETATM   27  C16 UNL     1       3.943 -37.183   3.727  1.00  0.00     0.025 C 
HETATM   28  C17 UNL     1       4.738 -38.317   4.300  1.00  0.00     0.002 C 
HETATM   29  C18 UNL     1       4.135 -38.658   5.647  1.00  0.00     0.002 C 
HETATM   30  C19 UNL     1       3.157 -37.525   5.904  1.00  0.00     0.025 C 
ENDBRANCH  24  26
ENDBRANCH   1  22
TORSDOF 6
ENDMDL
MODEL 5
REMARK VINA RESULT: -8.919730831      2.797      6.090
REMARK  6 active torsions:
REMARK  status: ('A' for Active; 'I' for Inactive)
REMARK    1  A    between atoms: N4_13  and  C7_14 
REMARK    2  A    between atoms: C7_14  and  C8_15 
REMARK    3  A    between atoms: C8_15  and  S1_16 
REMARK    4  A    between atoms: C8_15  and  C14_22 
REMARK    5  A    between atoms: S1_16  and  C9_17 
REMARK       I    between atoms: C14_22  and  N5_24 
REMARK    6  A    between atoms: N5_24  and  C15_26 
ROOT
HETATM    1  C8  UNL     1       0.120 -33.742   2.637  1.00  0.00     0.180 C 
ENDROOT
BRANCH   1   2
HETATM    2  C7  UNL     1      -0.767 -32.673   2.229  1.00  0.00     0.116 C 
BRANCH   2   3
HETATM    3  N4  UNL     1      -2.119 -32.912   1.858  1.00  0.00    -0.253 N 
HETATM    4  C3  UNL     1      -3.143 -33.120   2.700  1.00  0.00     0.087 A 
HETATM    5  C2  UNL     1      -3.313 -33.118   4.083  1.00  0.00     0.063 A 
HETATM    6  C4  UNL     1      -4.279 -33.360   1.952  1.00  0.00     0.081 A 
HETATM    7  C1  UNL     1      -4.500 -33.334   4.715  1.00  0.00     0.087 A 
HETATM    8  N1  UNL     1      -4.677 -33.331   6.122  1.00  0.00    -0.099 NA
HETATM    9  C6  UNL     1      -5.628 -33.576   3.926  1.00  0.00     0.142 A 
HETATM   10  C5  UNL     1      -5.499 -33.585   2.560  1.00  0.00     0.077 A 
HETATM   11  F1  UNL     1      -6.828 -33.797   4.499  1.00  0.00    -0.204 F 
HETATM   12  N2  UNL     1      -3.914 -33.293   0.656  1.00  0.00    -0.284 N 
HETATM   13  N3  UNL     1      -2.649 -33.029   0.644  1.00  0.00    -0.236 N 
ATOM     14  H2  UNL     1      -4.518 -33.424  -0.155  1.00  0.00     0.188 HD
ATOM     15  H3  UNL     1      -2.109 -32.920  -0.215  1.00  0.00     0.209 HD
ENDBRANCH   2   3
ENDBRANCH   1   2
BRANCH   1  16
HETATM   16  S1  UNL     1       0.891 -33.344   4.251  1.00  0.00    -0.144 SA
BRANCH  16  17
HETATM   17  C9  UNL     1       2.035 -31.980   4.183  1.00  0.00     0.048 C 
HETATM   18  C10 UNL     1       2.445 -31.588   2.799  1.00  0.00     0.015 C 
HETATM   19  C11 UNL     1       2.475 -30.080   2.830  1.00  0.00     0.001 C 
HETATM   20  C12 UNL     1       1.307 -29.721   3.698  1.00  0.00     0.001 C 
HETATM   21  C13 UNL     1       1.371 -30.749   4.795  1.00  0.00     0.015 C 
ENDBRANCH  16  17
ENDBRANCH   1  16
BRANCH   1  22
HETATM   22  C14 UNL     1      -0.275 -35.137   2.701  1.00  0.00     0.236 C 
HETATM   23  O1  UNL     1       0.103 -35.966   1.849  1.00  0.00    -0.272 OA
HETATM   24  N5  UNL     1      -1.125 -35.552   3.788  1.00  0.00    -0.355 N 
ATOM     25  H5  UNL     1      -1.414 -34.849   4.467  1.00  0.00     0.162 HD
BRANCH  24  26
HETATM   26  C15 UNL     1      -1.583 -36.882   3.966  1.00  0.00     0.084 C 
HETATM   27  C16 UNL     1      -1.210 -37.495   5.310  1.00  0.00     0.025 C 
HETATM   28  C17 UNL     1      -2.098 -38.700   5.381  1.00  0.00     0.002 C 
HETATM   29  C18 UNL     1      -3.231 -38.486   4.399  1.00  0.00     0.002 C 
HETATM   30  C19 UNL     1      -3.077 -37.036   3.977  1.00  0.00     0.025 C 
ENDBRANCH  24  26
ENDBRANCH   1  22
TORSDOF 6
ENDMDL
