MODEL 1
REMARK VINA RESULT: -7.731397732      0.000      0.000
REMARK  8 active torsions:
REMARK  status: ('A' for Active; 'I' for Inactive)
REMARK    1  A    between atoms: C2_2  and  C3_3 
REMARK    2  A    between atoms: C7_12  and  C8_13 
REMARK    3  A    between atoms: C8_13  and  O3_15 
REMARK    4  A    between atoms: O3_15  and  C9_16 
REMARK    5  A    between atoms: C9_16  and  C11_18 
REMARK    6  A    between atoms: C11_18  and  C13_22 
REMARK    7  A    between atoms: C13_22  and  O4_23 
REMARK    8  A    between atoms: C13_22  and  C14_25 
ROOT
HETATM    1  C11 UNL     1       0.892 -33.479   3.084  1.00  0.00     0.246 C 
HETATM    2  F1  UNL     1       1.942 -33.124   2.209  1.00  0.00    -0.221 F 
HETATM    3  C12 UNL     1       1.328 -32.977   4.388  1.00  0.00     0.109 C 
HETATM    4  N3  UNL     1       1.686 -32.547   5.427  1.00  0.00    -0.193 NA
ENDROOT
BRANCH   1   5
HETATM    5  C9  UNL     1      -0.304 -32.724   2.563  1.00  0.00     0.185 C 
HETATM    6  C10 UNL     1      -0.162 -31.250   2.621  1.00  0.00     0.045 C 
BRANCH   5   7
HETATM    7  O3  UNL     1      -1.492 -33.205   3.180  1.00  0.00    -0.311 OA
BRANCH   7   8
HETATM    8  C8  UNL     1      -2.511 -33.842   2.513  1.00  0.00     0.271 C 
HETATM    9  O2  UNL     1      -2.473 -33.706   1.258  1.00  0.00    -0.264 OA
BRANCH   8  10
HETATM   10  C7  UNL     1      -3.558 -34.618   3.221  1.00  0.00     0.153 C 
HETATM   11  C3  UNL     1      -3.068 -35.231   4.494  1.00  0.00     0.104 C 
HETATM   12  N1  UNL     1      -3.261 -34.369   5.639  1.00  0.00    -0.337 N 
HETATM   13  C4  UNL     1      -4.458 -33.585   5.694  1.00  0.00     0.320 C 
ATOM     14  H1  UNL     1      -2.567 -34.322   6.385  1.00  0.00     0.164 HD
HETATM   15  O1  UNL     1      -4.842 -33.129   6.811  1.00  0.00    -0.247 OA
HETATM   16  N2  UNL     1      -5.143 -33.366   4.480  1.00  0.00    -0.316 N 
HETATM   17  C5  UNL     1      -4.777 -33.816   3.336  1.00  0.00     0.003 C 
ATOM     18  H2  UNL     1      -5.997 -32.808   4.516  1.00  0.00     0.170 HD
HETATM   19  C6  UNL     1      -5.606 -33.508   2.103  1.00  0.00     0.064 C 
BRANCH  11  20
HETATM   20  C2  UNL     1      -3.823 -36.530   4.808  1.00  0.00     0.022 C 
HETATM   21  C1  UNL     1      -3.217 -37.695   4.092  1.00  0.00     0.007 C 
ENDBRANCH  11  20
ENDBRANCH   8  10
ENDBRANCH   7   8
ENDBRANCH   5   7
ENDBRANCH   1   5
BRANCH   1  22
HETATM   22  C13 UNL     1       0.839 -34.937   3.079  1.00  0.00     0.208 C 
BRANCH  22  23
HETATM   23  O4  UNL     1       0.087 -35.363   1.983  1.00  0.00    -0.386 OA
ATOM     24  H4  UNL     1      -0.832 -35.183   2.146  1.00  0.00     0.210 HD
ENDBRANCH  22  23
BRANCH  22  25
HETATM   25  C14 UNL     1       2.170 -35.650   2.979  1.00  0.00    -0.018 A 
HETATM   26  C15 UNL     1       2.869 -35.730   1.826  1.00  0.00     0.017 A 
HETATM   27  C16 UNL     1       4.060 -36.398   1.857  1.00  0.00     0.050 A 
HETATM   28  S1  UNL     1       4.180 -36.896   3.482  1.00  0.00    -0.113 SA
HETATM   29  C17 UNL     1       2.720 -36.245   4.078  1.00  0.00     0.059 A 
ENDBRANCH  22  25
ENDBRANCH   1  22
TORSDOF 8
ENDMDL
MODEL 2
REMARK VINA RESULT: -7.597430843      3.221      6.588
REMARK  8 active torsions:
REMARK  status: ('A' for Active; 'I' for Inactive)
REMARK    1  A    between atoms: C2_2  and  C3_3 
REMARK    2  A    between atoms: C7_12  and  C8_13 
REMARK    3  A    between atoms: C8_13  and  O3_15 
REMARK    4  A    between atoms: O3_15  and  C9_16 
REMARK    5  A    between atoms: C9_16  and  C11_18 
REMARK    6  A    between atoms: C11_18  and  C13_22 
REMARK    7  A    between atoms: C13_22  and  O4_23 
REMARK    8  A    between atoms: C13_22  and  C14_25 
ROOT
HETATM    1  C11 UNL     1      -4.133 -34.468   4.541  1.00  0.00     0.246 C 
HETATM    2  F1  UNL     1      -5.253 -35.108   3.966  1.00  0.00    -0.221 F 
HETATM    3  C12 UNL     1      -4.485 -34.332   5.955  1.00  0.00     0.109 C 
HETATM    4  N3  UNL     1      -4.777 -34.250   7.096  1.00  0.00    -0.193 NA
ENDROOT
BRANCH   1   5
HETATM    5  C9  UNL     1      -2.998 -35.439   4.335  1.00  0.00     0.185 C 
HETATM    6  C10 UNL     1      -3.421 -36.858   4.266  1.00  0.00     0.045 C 
BRANCH   5   7
HETATM    7  O3  UNL     1      -1.970 -35.198   5.287  1.00  0.00    -0.311 OA
BRANCH   7   8
HETATM    8  C8  UNL     1      -0.625 -35.239   5.006  1.00  0.00     0.271 C 
HETATM    9  O2  UNL     1       0.086 -35.690   5.946  1.00  0.00    -0.264 OA
BRANCH   8  10
HETATM   10  C7  UNL     1      -0.073 -34.787   3.705  1.00  0.00     0.153 C 
HETATM   11  C3  UNL     1       0.598 -33.453   3.790  1.00  0.00     0.104 C 
HETATM   12  N1  UNL     1       2.010 -33.557   4.088  1.00  0.00    -0.337 N 
HETATM   13  C4  UNL     1       2.742 -34.637   3.499  1.00  0.00     0.320 C 
ATOM     14  H1  UNL     1       2.469 -32.881   4.699  1.00  0.00     0.164 HD
HETATM   15  O1  UNL     1       4.003 -34.551   3.418  1.00  0.00    -0.247 OA
HETATM   16  N2  UNL     1       2.001 -35.745   3.038  1.00  0.00    -0.316 N 
HETATM   17  C5  UNL     1       0.725 -35.858   3.106  1.00  0.00     0.003 C 
ATOM     18  H2  UNL     1       2.520 -36.515   2.617  1.00  0.00     0.170 HD
HETATM   19  C6  UNL     1       0.046 -37.106   2.572  1.00  0.00     0.064 C 
BRANCH  11  20
HETATM   20  C2  UNL     1       0.500 -32.700   2.456  1.00  0.00     0.022 C 
HETATM   21  C1  UNL     1       0.133 -31.266   2.669  1.00  0.00     0.007 C 
ENDBRANCH  11  20
ENDBRANCH   8  10
ENDBRANCH   7   8
ENDBRANCH   5   7
ENDBRANCH   1   5
BRANCH   1  22
HETATM   22  C13 UNL     1      -4.042 -33.161   3.899  1.00  0.00     0.208 C 
BRANCH  22  23
HETATM   23  O4  UNL     1      -2.793 -32.602   4.174  1.00  0.00    -0.386 OA
ATOM     24  H4  UNL     1      -2.622 -31.901   3.555  1.00  0.00     0.210 HD
ENDBRANCH  22  23
BRANCH  22  25
HETATM   25  C14 UNL     1      -4.186 -33.148   2.393  1.00  0.00    -0.018 A 
HETATM   26  C15 UNL     1      -3.122 -33.138   1.559  1.00  0.00     0.017 A 
HETATM   27  C16 UNL     1      -3.375 -33.129   0.217  1.00  0.00     0.050 A 
HETATM   28  S1  UNL     1      -5.077 -33.136   0.146  1.00  0.00    -0.113 SA
HETATM   29  C17 UNL     1      -5.423 -33.150   1.816  1.00  0.00     0.059 A 
ENDBRANCH  22  25
ENDBRANCH   1  22
TORSDOF 8
ENDMDL
MODEL 3
REMARK VINA RESULT: -7.572524928      2.829      4.509
REMARK  8 active torsions:
REMARK  status: ('A' for Active; 'I' for Inactive)
REMARK    1  A    between atoms: C2_2  and  C3_3 
REMARK    2  A    between atoms: C7_12  and  C8_13 
REMARK    3  A    between atoms: C8_13  and  O3_15 
REMARK    4  A    between atoms: O3_15  and  C9_16 
REMARK    5  A    between atoms: C9_16  and  C11_18 
REMARK    6  A    between atoms: C11_18  and  C13_22 
REMARK    7  A    between atoms: C13_22  and  O4_23 
REMARK    8  A    between atoms: C13_22  and  C14_25 
ROOT
HETATM    1  C11 UNL     1       0.282 -34.058   2.887  1.00  0.00     0.246 C 
HETATM    2  F1  UNL     1       1.406 -33.517   2.223  1.00  0.00    -0.221 F 
HETATM    3  C12 UNL     1      -0.832 -33.794   1.976  1.00  0.00     0.109 C 
HETATM    4  N3  UNL     1      -1.716 -33.590   1.220  1.00  0.00    -0.193 NA
ENDROOT
BRANCH   1   5
HETATM    5  C9  UNL     1       0.582 -35.531   2.995  1.00  0.00     0.185 C 
HETATM    6  C10 UNL     1       1.813 -35.952   2.284  1.00  0.00     0.045 C 
BRANCH   5   7
HETATM    7  O3  UNL     1      -0.566 -36.291   2.641  1.00  0.00    -0.311 OA
BRANCH   7   8
HETATM    8  C8  UNL     1      -1.301 -37.046   3.524  1.00  0.00     0.271 C 
HETATM    9  O2  UNL     1      -1.245 -38.289   3.313  1.00  0.00    -0.264 OA
BRANCH   8  10
HETATM   10  C7  UNL     1      -2.087 -36.437   4.625  1.00  0.00     0.153 C 
HETATM   11  C3  UNL     1      -3.535 -36.279   4.288  1.00  0.00     0.104 C 
HETATM   12  N1  UNL     1      -4.326 -37.427   4.672  1.00  0.00    -0.337 N 
HETATM   13  C4  UNL     1      -3.994 -38.091   5.896  1.00  0.00     0.320 C 
ATOM     14  H1  UNL     1      -5.097 -37.754   4.089  1.00  0.00     0.164 HD
HETATM   15  O1  UNL     1      -4.862 -38.830   6.448  1.00  0.00    -0.247 OA
HETATM   16  N2  UNL     1      -2.702 -37.876   6.418  1.00  0.00    -0.316 N 
HETATM   17  C5  UNL     1      -1.804 -37.134   5.881  1.00  0.00     0.003 C 
ATOM     18  H2  UNL     1      -2.463 -38.348   7.291  1.00  0.00     0.170 HD
HETATM   19  C6  UNL     1      -0.448 -36.986   6.546  1.00  0.00     0.064 C 
BRANCH  11  20
HETATM   20  C2  UNL     1      -4.146 -35.078   5.024  1.00  0.00     0.022 C 
HETATM   21  C1  UNL     1      -3.580 -33.788   4.521  1.00  0.00     0.007 C 
ENDBRANCH  11  20
ENDBRANCH   8  10
ENDBRANCH   7   8
ENDBRANCH   5   7
ENDBRANCH   1   5
BRANCH   1  22
HETATM   22  C13 UNL     1       0.137 -33.295   4.122  1.00  0.00     0.208 C 
BRANCH  22  23
HETATM   23  O4  UNL     1       0.685 -34.025   5.178  1.00  0.00    -0.386 OA
ATOM     24  H4  UNL     1       0.209 -34.842   5.272  1.00  0.00     0.210 HD
ENDBRANCH  22  23
BRANCH  22  25
HETATM   25  C14 UNL     1       0.815 -31.942   4.150  1.00  0.00    -0.018 A 
HETATM   26  C15 UNL     1       0.400 -30.902   3.392  1.00  0.00     0.017 A 
HETATM   27  C16 UNL     1       1.088 -29.728   3.503  1.00  0.00     0.050 A 
HETATM   28  S1  UNL     1       2.289 -30.093   4.654  1.00  0.00    -0.113 SA
HETATM   29  C17 UNL     1       1.888 -31.722   4.964  1.00  0.00     0.059 A 
ENDBRANCH  22  25
ENDBRANCH   1  22
TORSDOF 8
ENDMDL
MODEL 4
REMARK VINA RESULT: -7.555163633      1.486      1.624
REMARK  8 active torsions:
REMARK  status: ('A' for Active; 'I' for Inactive)
REMARK    1  A    between atoms: C2_2  and  C3_3 
REMARK    2  A    between atoms: C7_12  and  C8_13 
REMARK    3  A    between atoms: C8_13  and  O3_15 
REMARK    4  A    between atoms: O3_15  and  C9_16 
REMARK    5  A    between atoms: C9_16  and  C11_18 
REMARK    6  A    between atoms: C11_18  and  C13_22 
REMARK    7  A    between atoms: C13_22  and  O4_23 
REMARK    8  A    between atoms: C13_22  and  C14_25 
ROOT
HETATM    1  C11 UNL     1       0.603 -33.889   3.129  1.00  0.00     0.246 C 
HETATM    2  F1  UNL     1       0.163 -33.945   4.470  1.00  0.00    -0.221 F 
HETATM    3  C12 UNL     1       0.304 -35.220   2.599  1.00  0.00     0.109 C 
HETATM    4  N3  UNL     1       0.037 -36.291   2.181  1.00  0.00    -0.193 NA
ENDROOT
BRANCH   1   5
HETATM    5  C9  UNL     1      -0.255 -32.825   2.495  1.00  0.00     0.185 C 
HETATM    6  C10 UNL     1       0.292 -31.453   2.618  1.00  0.00     0.045 C 
BRANCH   5   7
HETATM    7  O3  UNL     1      -1.597 -32.944   2.950  1.00  0.00    -0.311 OA
BRANCH   7   8
HETATM    8  C8  UNL     1      -2.579 -33.650   2.298  1.00  0.00     0.271 C 
HETATM    9  O2  UNL     1      -2.566 -33.515   1.042  1.00  0.00    -0.264 OA
BRANCH   8  10
HETATM   10  C7  UNL     1      -3.562 -34.494   3.020  1.00  0.00     0.153 C 
HETATM   11  C3  UNL     1      -3.003 -35.101   4.267  1.00  0.00     0.104 C 
HETATM   12  N1  UNL     1      -3.208 -34.271   5.433  1.00  0.00    -0.337 N 
HETATM   13  C4  UNL     1      -4.443 -33.554   5.536  1.00  0.00     0.320 C 
ATOM     14  H1  UNL     1      -2.496 -34.199   6.160  1.00  0.00     0.164 HD
HETATM   15  O1  UNL     1      -4.818 -33.138   6.673  1.00  0.00    -0.247 OA
HETATM   16  N2  UNL     1      -5.175 -33.352   4.347  1.00  0.00    -0.316 N 
HETATM   17  C5  UNL     1      -4.818 -33.761   3.185  1.00  0.00     0.003 C 
ATOM     18  H2  UNL     1      -6.055 -32.841   4.418  1.00  0.00     0.170 HD
HETATM   19  C6  UNL     1      -5.699 -33.478   1.981  1.00  0.00     0.064 C 
BRANCH  11  20
HETATM   20  C2  UNL     1      -3.677 -36.444   4.578  1.00  0.00     0.022 C 
HETATM   21  C1  UNL     1      -2.923 -37.583   3.968  1.00  0.00     0.007 C 
ENDBRANCH  11  20
ENDBRANCH   8  10
ENDBRANCH   7   8
ENDBRANCH   5   7
ENDBRANCH   1   5
BRANCH   1  22
HETATM   22  C13 UNL     1       2.044 -33.664   3.188  1.00  0.00     0.208 C 
BRANCH  22  23
HETATM   23  O4  UNL     1       2.370 -33.112   4.427  1.00  0.00    -0.386 OA
ATOM     24  H4  UNL     1       2.828 -33.762   4.947  1.00  0.00     0.210 HD
ENDBRANCH  22  23
BRANCH  22  25
HETATM   25  C14 UNL     1       2.915 -34.891   3.031  1.00  0.00    -0.018 A 
HETATM   26  C15 UNL     1       3.588 -35.167   1.891  1.00  0.00     0.017 A 
HETATM   27  C16 UNL     1       4.345 -36.303   1.868  1.00  0.00     0.050 A 
HETATM   28  S1  UNL     1       4.108 -36.957   3.422  1.00  0.00    -0.113 SA
HETATM   29  C17 UNL     1       3.056 -35.775   4.061  1.00  0.00     0.059 A 
ENDBRANCH  22  25
ENDBRANCH   1  22
TORSDOF 8
ENDMDL
MODEL 5
REMARK VINA RESULT: -7.511581614      3.044      6.420
REMARK  8 active torsions:
REMARK  status: ('A' for Active; 'I' for Inactive)
REMARK    1  A    between atoms: C2_2  and  C3_3 
REMARK    2  A    between atoms: C7_12  and  C8_13 
REMARK    3  A    between atoms: C8_13  and  O3_15 
REMARK    4  A    between atoms: O3_15  and  C9_16 
REMARK    5  A    between atoms: C9_16  and  C11_18 
REMARK    6  A    between atoms: C11_18  and  C13_22 
REMARK    7  A    between atoms: C13_22  and  O4_23 
REMARK    8  A    between atoms: C13_22  and  C14_25 
ROOT
HETATM    1  C11 UNL     1      -2.379 -32.796   2.940  1.00  0.00     0.246 C 
HETATM    2  F1  UNL     1      -2.230 -31.391   2.972  1.00  0.00    -0.221 F 
HETATM    3  C12 UNL     1      -2.552 -33.105   1.520  1.00  0.00     0.109 C 
HETATM    4  N3  UNL     1      -2.670 -33.338   0.369  1.00  0.00    -0.193 NA
ENDROOT
BRANCH   1   5
HETATM    5  C9  UNL     1      -1.074 -33.325   3.476  1.00  0.00     0.185 C 
HETATM    6  C10 UNL     1       0.004 -32.311   3.553  1.00  0.00     0.045 C 
BRANCH   5   7
HETATM    7  O3  UNL     1      -0.697 -34.501   2.770  1.00  0.00    -0.311 OA
BRANCH   7   8
HETATM    8  C8  UNL     1       0.164 -35.456   3.256  1.00  0.00     0.271 C 
HETATM    9  O2  UNL     1      -0.330 -36.185   4.162  1.00  0.00    -0.264 OA
BRANCH   8  10
HETATM   10  C7  UNL     1       1.550 -35.605   2.749  1.00  0.00     0.153 C 
HETATM   11  C3  UNL     1       2.578 -35.102   3.711  1.00  0.00     0.104 C 
HETATM   12  N1  UNL     1       3.047 -36.128   4.616  1.00  0.00    -0.337 N 
HETATM   13  C4  UNL     1       3.208 -37.454   4.099  1.00  0.00     0.320 C 
ATOM     14  H1  UNL     1       3.257 -35.915   5.590  1.00  0.00     0.164 HD
HETATM   15  O1  UNL     1       3.954 -38.268   4.721  1.00  0.00    -0.247 OA
HETATM   16  N2  UNL     1       2.516 -37.774   2.912  1.00  0.00    -0.316 N 
HETATM   17  C5  UNL     1       1.756 -36.971   2.263  1.00  0.00     0.003 C 
ATOM     18  H2  UNL     1       2.629 -38.718   2.542  1.00  0.00     0.170 HD
HETATM   19  C6  UNL     1       1.066 -37.440   0.996  1.00  0.00     0.064 C 
BRANCH  11  20
HETATM   20  C2  UNL     1       3.822 -34.588   2.971  1.00  0.00     0.022 C 
HETATM   21  C1  UNL     1       3.517 -33.345   2.196  1.00  0.00     0.007 C 
ENDBRANCH  11  20
ENDBRANCH   8  10
ENDBRANCH   7   8
ENDBRANCH   5   7
ENDBRANCH   1   5
BRANCH   1  22
HETATM   22  C13 UNL     1      -3.597 -33.089   3.689  1.00  0.00     0.208 C 
BRANCH  22  23
HETATM   23  O4  UNL     1      -4.664 -33.212   2.797  1.00  0.00    -0.386 OA
ATOM     24  H4  UNL     1      -4.828 -34.133   2.633  1.00  0.00     0.210 HD
ENDBRANCH  22  23
BRANCH  22  25
HETATM   25  C14 UNL     1      -3.584 -34.361   4.507  1.00  0.00    -0.018 A 
HETATM   26  C15 UNL     1      -3.823 -35.578   3.968  1.00  0.00     0.017 A 
HETATM   27  C16 UNL     1      -3.782 -36.656   4.805  1.00  0.00     0.050 A 
HETATM   28  S1  UNL     1      -3.414 -35.958   6.314  1.00  0.00    -0.113 SA
HETATM   29  C17 UNL     1      -3.321 -34.320   5.846  1.00  0.00     0.059 A 
ENDBRANCH  22  25
ENDBRANCH   1  22
TORSDOF 8
ENDMDL
