MODEL 1
REMARK VINA RESULT: -7.438123323      0.000      0.000
REMARK  8 active torsions:
REMARK  status: ('A' for Active; 'I' for Inactive)
REMARK    1  A    between atoms: C2_2  and  O1_3 
REMARK    2  A    between atoms: O1_3  and  C3_4 
REMARK    3  A    between atoms: C3_4  and  C4_6 
REMARK    4  A    between atoms: C5_8  and  C6_9 
REMARK       I    between atoms: C6_9  and  N1_11 
REMARK    5  A    between atoms: N1_11  and  N2_13 
REMARK    6  A    between atoms: C12_22  and  C13_23 
REMARK    7  A    between atoms: C13_23  and  O5_25 
REMARK    8  A    between atoms: O5_25  and  C14_26 
ROOT
HETATM    1  C4  UNL     1      -3.631 -33.993   3.281  1.00  0.00     0.088 A 
HETATM    2  S1  UNL     1      -2.859 -35.390   3.856  1.00  0.00    -0.077 SA
HETATM    3  C5  UNL     1      -1.200 -34.835   3.791  1.00  0.00     0.092 A 
HETATM    4  C12 UNL     1      -1.344 -33.574   3.318  1.00  0.00     0.069 A 
HETATM    5  C16 UNL     1      -2.607 -33.126   3.049  1.00  0.00    -0.021 A 
HETATM    6  C17 UNL     1      -2.900 -31.717   2.510  1.00  0.00     0.051 C 
ENDROOT
BRANCH   3   7
HETATM    7  C6  UNL     1      -0.064 -35.658   4.187  1.00  0.00     0.278 C 
HETATM    8  O3  UNL     1      -0.251 -36.939   4.203  1.00  0.00    -0.265 OA
HETATM    9  N1  UNL     1       1.202 -35.206   4.550  1.00  0.00    -0.264 N 
ATOM     10  H1  UNL     1       1.409 -34.207   4.558  1.00  0.00     0.190 HD
BRANCH   9  11
HETATM   11  N2  UNL     1       2.218 -36.163   4.917  1.00  0.00    -0.286 N 
HETATM   12  C7  UNL     1       3.126 -36.415   4.045  1.00  0.00     0.091 C 
HETATM   13  C8  UNL     1       3.090 -35.729   2.735  1.00  0.00     0.077 C 
HETATM   14  N3  UNL     1       4.136 -37.356   4.388  1.00  0.00    -0.379 N 
HETATM   15  C9  UNL     1       4.015 -36.306   1.719  1.00  0.00     0.009 C 
HETATM   16  C10 UNL     1       5.214 -36.997   2.289  1.00  0.00     0.020 C 
HETATM   17  C11 UNL     1       4.879 -37.998   3.346  1.00  0.00     0.121 C 
ATOM     18  H3  UNL     1       4.328 -37.570   5.367  1.00  0.00     0.160 HD
ATOM     19  H2  UNL     1       2.215 -36.620   5.829  1.00  0.00     0.188 HD
ENDBRANCH   9  11
ENDBRANCH   3   7
BRANCH   4  20
HETATM   20  C13 UNL     1      -0.150 -32.675   3.080  1.00  0.00     0.295 C 
HETATM   21  O4  UNL     1       0.739 -33.000   2.263  1.00  0.00    -0.259 OA
BRANCH  20  22
HETATM   22  O5  UNL     1      -0.026 -31.477   3.763  1.00  0.00    -0.318 OA
BRANCH  22  23
HETATM   23  C14 UNL     1       1.179 -30.868   4.095  1.00  0.00     0.174 C 
HETATM   24  C15 UNL     1       1.519 -29.830   3.055  1.00  0.00     0.034 C 
ENDBRANCH  22  23
ENDBRANCH  20  22
ENDBRANCH   4  20
BRANCH   1  25
HETATM   25  C3  UNL     1      -5.087 -33.767   3.077  1.00  0.00     0.300 C 
HETATM   26  O2  UNL     1      -5.750 -33.382   4.055  1.00  0.00    -0.259 OA
BRANCH  25  27
HETATM   27  O1  UNL     1      -5.679 -33.974   1.866  1.00  0.00    -0.317 OA
BRANCH  27  28
HETATM   28  C2  UNL     1      -5.703 -32.918   0.927  1.00  0.00     0.174 C 
HETATM   29  C1  UNL     1      -4.777 -33.147  -0.237  1.00  0.00     0.034 C 
ENDBRANCH  27  28
ENDBRANCH  25  27
ENDBRANCH   1  25
TORSDOF 8
ENDMDL
MODEL 2
REMARK VINA RESULT: -7.325313685      2.711      7.423
REMARK  8 active torsions:
REMARK  status: ('A' for Active; 'I' for Inactive)
REMARK    1  A    between atoms: C2_2  and  O1_3 
REMARK    2  A    between atoms: O1_3  and  C3_4 
REMARK    3  A    between atoms: C3_4  and  C4_6 
REMARK    4  A    between atoms: C5_8  and  C6_9 
REMARK       I    between atoms: C6_9  and  N1_11 
REMARK    5  A    between atoms: N1_11  and  N2_13 
REMARK    6  A    between atoms: C12_22  and  C13_23 
REMARK    7  A    between atoms: C13_23  and  O5_25 
REMARK    8  A    between atoms: O5_25  and  C14_26 
ROOT
HETATM    1  C4  UNL     1       3.172 -36.282   2.916  1.00  0.00     0.088 A 
HETATM    2  S1  UNL     1       1.674 -37.063   3.077  1.00  0.00    -0.077 SA
HETATM    3  C5  UNL     1       0.665 -35.666   3.381  1.00  0.00     0.092 A 
HETATM    4  C12 UNL     1       1.566 -34.654   3.340  1.00  0.00     0.069 A 
HETATM    5  C16 UNL     1       2.875 -34.966   3.099  1.00  0.00    -0.021 A 
HETATM    6  C17 UNL     1       3.988 -33.909   3.028  1.00  0.00     0.051 C 
ENDROOT
BRANCH   3   7
HETATM    7  C6  UNL     1      -0.773 -35.749   3.603  1.00  0.00     0.278 C 
HETATM    8  O3  UNL     1      -1.376 -36.792   3.127  1.00  0.00    -0.265 OA
HETATM    9  N1  UNL     1      -1.565 -34.820   4.273  1.00  0.00    -0.264 N 
ATOM     10  H1  UNL     1      -1.147 -33.978   4.669  1.00  0.00     0.190 HD
BRANCH   9  11
HETATM   11  N2  UNL     1      -2.982 -35.060   4.403  1.00  0.00    -0.286 N 
HETATM   12  C7  UNL     1      -3.754 -34.480   3.557  1.00  0.00     0.091 C 
HETATM   13  C8  UNL     1      -3.169 -33.612   2.512  1.00  0.00     0.077 C 
HETATM   14  N3  UNL     1      -5.153 -34.705   3.670  1.00  0.00    -0.379 N 
HETATM   15  C9  UNL     1      -4.167 -32.783   1.779  1.00  0.00     0.009 C 
HETATM   16  C10 UNL     1      -5.547 -33.361   1.737  1.00  0.00     0.020 C 
HETATM   17  C11 UNL     1      -6.064 -33.771   3.077  1.00  0.00     0.121 C 
ATOM     18  H3  UNL     1      -5.505 -35.523   4.168  1.00  0.00     0.160 HD
ATOM     19  H2  UNL     1      -3.355 -35.664   5.136  1.00  0.00     0.188 HD
ENDBRANCH   9  11
ENDBRANCH   3   7
BRANCH   4  20
HETATM   20  C13 UNL     1       1.152 -33.215   3.561  1.00  0.00     0.295 C 
HETATM   21  O4  UNL     1       0.872 -32.802   4.707  1.00  0.00    -0.259 OA
BRANCH  20  22
HETATM   22  O5  UNL     1       1.083 -32.334   2.496  1.00  0.00    -0.318 OA
BRANCH  22  23
HETATM   23  C14 UNL     1       0.716 -30.996   2.590  1.00  0.00     0.174 C 
HETATM   24  C15 UNL     1       1.950 -30.150   2.777  1.00  0.00     0.034 C 
ENDBRANCH  22  23
ENDBRANCH  20  22
ENDBRANCH   4  20
BRANCH   1  25
HETATM   25  C3  UNL     1       4.501 -36.892   2.642  1.00  0.00     0.300 C 
HETATM   26  O2  UNL     1       4.923 -36.844   1.475  1.00  0.00    -0.259 OA
BRANCH  25  27
HETATM   27  O1  UNL     1       5.232 -37.484   3.629  1.00  0.00    -0.317 OA
BRANCH  27  28
HETATM   28  C2  UNL     1       4.701 -38.615   4.290  1.00  0.00     0.174 C 
HETATM   29  C1  UNL     1       4.378 -38.350   5.736  1.00  0.00     0.034 C 
ENDBRANCH  27  28
ENDBRANCH  25  27
ENDBRANCH   1  25
TORSDOF 8
ENDMDL
MODEL 3
REMARK VINA RESULT: -7.296378671      1.858      2.494
REMARK  8 active torsions:
REMARK  status: ('A' for Active; 'I' for Inactive)
REMARK    1  A    between atoms: C2_2  and  O1_3 
REMARK    2  A    between atoms: O1_3  and  C3_4 
REMARK    3  A    between atoms: C3_4  and  C4_6 
REMARK    4  A    between atoms: C5_8  and  C6_9 
REMARK       I    between atoms: C6_9  and  N1_11 
REMARK    5  A    between atoms: N1_11  and  N2_13 
REMARK    6  A    between atoms: C12_22  and  C13_23 
REMARK    7  A    between atoms: C13_23  and  O5_25 
REMARK    8  A    between atoms: O5_25  and  C14_26 
ROOT
HETATM    1  C4  UNL     1      -2.350 -33.240   2.032  1.00  0.00     0.088 A 
HETATM    2  S1  UNL     1      -1.559 -34.512   2.829  1.00  0.00    -0.077 SA
HETATM    3  C5  UNL     1      -0.100 -33.673   3.309  1.00  0.00     0.092 A 
HETATM    4  C12 UNL     1      -0.315 -32.430   2.813  1.00  0.00     0.069 A 
HETATM    5  C16 UNL     1      -1.485 -32.195   2.146  1.00  0.00    -0.021 A 
HETATM    6  C17 UNL     1      -1.844 -30.830   1.539  1.00  0.00     0.051 C 
ENDROOT
BRANCH   3   7
HETATM    7  C6  UNL     1       0.980 -34.306   4.054  1.00  0.00     0.278 C 
HETATM    8  O3  UNL     1       1.049 -34.039   5.319  1.00  0.00    -0.265 OA
HETATM    9  N1  UNL     1       1.946 -35.170   3.543  1.00  0.00    -0.264 N 
ATOM     10  H1  UNL     1       1.943 -35.417   2.553  1.00  0.00     0.190 HD
BRANCH   9  11
HETATM   11  N2  UNL     1       2.950 -35.712   4.427  1.00  0.00    -0.286 N 
HETATM   12  C7  UNL     1       2.957 -36.984   4.595  1.00  0.00     0.091 C 
HETATM   13  C8  UNL     1       1.957 -37.818   3.892  1.00  0.00     0.077 C 
HETATM   14  N3  UNL     1       3.940 -37.536   5.462  1.00  0.00    -0.379 N 
HETATM   15  C9  UNL     1       1.884 -39.224   4.380  1.00  0.00     0.009 C 
HETATM   16  C10 UNL     1       3.152 -39.739   4.988  1.00  0.00     0.020 C 
HETATM   17  C11 UNL     1       3.726 -38.834   6.029  1.00  0.00     0.121 C 
ATOM     18  H3  UNL     1       4.788 -37.013   5.677  1.00  0.00     0.160 HD
ATOM     19  H2  UNL     1       3.626 -35.109   4.898  1.00  0.00     0.188 HD
ENDBRANCH   9  11
ENDBRANCH   3   7
BRANCH   4  20
HETATM   20  C13 UNL     1       0.705 -31.324   2.977  1.00  0.00     0.295 C 
HETATM   21  O4  UNL     1       1.742 -31.306   2.280  1.00  0.00    -0.259 OA
BRANCH  20  22
HETATM   22  O5  UNL     1       0.501 -30.313   3.900  1.00  0.00    -0.318 OA
BRANCH  22  23
HETATM   23  C14 UNL     1       1.497 -29.495   4.422  1.00  0.00     0.174 C 
HETATM   24  C15 UNL     1       2.308 -30.272   5.428  1.00  0.00     0.034 C 
ENDBRANCH  22  23
ENDBRANCH  20  22
ENDBRANCH   4  20
BRANCH   1  25
HETATM   25  C3  UNL     1      -3.679 -33.260   1.363  1.00  0.00     0.300 C 
HETATM   26  O2  UNL     1      -3.709 -33.566   0.159  1.00  0.00    -0.259 OA
BRANCH  25  27
HETATM   27  O1  UNL     1      -4.824 -32.955   2.038  1.00  0.00    -0.317 OA
BRANCH  27  28
HETATM   28  C2  UNL     1      -5.430 -33.948   2.842  1.00  0.00     0.174 C 
HETATM   29  C1  UNL     1      -5.251 -33.699   4.315  1.00  0.00     0.034 C 
ENDBRANCH  27  28
ENDBRANCH  25  27
ENDBRANCH   1  25
TORSDOF 8
ENDMDL
MODEL 4
REMARK VINA RESULT: -7.259281617      2.531      3.337
REMARK  8 active torsions:
REMARK  status: ('A' for Active; 'I' for Inactive)
REMARK    1  A    between atoms: C2_2  and  O1_3 
REMARK    2  A    between atoms: O1_3  and  C3_4 
REMARK    3  A    between atoms: C3_4  and  C4_6 
REMARK    4  A    between atoms: C5_8  and  C6_9 
REMARK       I    between atoms: C6_9  and  N1_11 
REMARK    5  A    between atoms: N1_11  and  N2_13 
REMARK    6  A    between atoms: C12_22  and  C13_23 
REMARK    7  A    between atoms: C13_23  and  O5_25 
REMARK    8  A    between atoms: O5_25  and  C14_26 
ROOT
HETATM    1  C4  UNL     1      -1.309 -33.514   2.258  1.00  0.00     0.088 A 
HETATM    2  S1  UNL     1      -0.564 -34.962   2.733  1.00  0.00    -0.077 SA
HETATM    3  C5  UNL     1       0.962 -34.315   3.298  1.00  0.00     0.092 A 
HETATM    4  C12 UNL     1       0.801 -32.987   3.080  1.00  0.00     0.069 A 
HETATM    5  C16 UNL     1      -0.379 -32.560   2.539  1.00  0.00    -0.021 A 
HETATM    6  C17 UNL     1      -0.682 -31.082   2.246  1.00  0.00     0.051 C 
ENDROOT
BRANCH   3   7
HETATM    7  C6  UNL     1       2.032 -35.143   3.839  1.00  0.00     0.278 C 
HETATM    8  O3  UNL     1       3.217 -34.951   3.355  1.00  0.00    -0.265 OA
HETATM    9  N1  UNL     1       1.908 -36.120   4.823  1.00  0.00    -0.264 N 
ATOM     10  H1  UNL     1       0.998 -36.318   5.241  1.00  0.00     0.190 HD
BRANCH   9  11
HETATM   11  N2  UNL     1       3.077 -36.853   5.246  1.00  0.00    -0.286 N 
HETATM   12  C7  UNL     1       2.919 -37.722   6.178  1.00  0.00     0.091 C 
HETATM   13  C8  UNL     1       1.575 -37.927   6.762  1.00  0.00     0.077 C 
HETATM   14  N3  UNL     1       4.060 -38.452   6.607  1.00  0.00    -0.379 N 
HETATM   15  C9  UNL     1       1.572 -38.742   8.009  1.00  0.00     0.009 C 
HETATM   16  C10 UNL     1       2.712 -39.704   8.128  1.00  0.00     0.020 C 
HETATM   17  C11 UNL     1       4.049 -39.078   7.896  1.00  0.00     0.121 C 
ATOM     18  H3  UNL     1       4.878 -38.531   6.003  1.00  0.00     0.160 HD
ATOM     19  H2  UNL     1       3.991 -36.687   4.823  1.00  0.00     0.188 HD
ENDBRANCH   9  11
ENDBRANCH   3   7
BRANCH   4  20
HETATM   20  C13 UNL     1       1.891 -31.991   3.415  1.00  0.00     0.295 C 
HETATM   21  O4  UNL     1       2.761 -31.692   2.570  1.00  0.00    -0.259 OA
BRANCH  20  22
HETATM   22  O5  UNL     1       1.936 -31.395   4.664  1.00  0.00    -0.318 OA
BRANCH  22  23
HETATM   23  C14 UNL     1       2.274 -30.067   4.902  1.00  0.00     0.174 C 
HETATM   24  C15 UNL     1       1.165 -29.172   4.410  1.00  0.00     0.034 C 
ENDBRANCH  22  23
ENDBRANCH  20  22
ENDBRANCH   4  20
BRANCH   1  25
HETATM   25  C3  UNL     1      -2.664 -33.328   1.670  1.00  0.00     0.300 C 
HETATM   26  O2  UNL     1      -2.794 -33.544   0.453  1.00  0.00    -0.259 OA
BRANCH  25  27
HETATM   27  O1  UNL     1      -3.725 -32.935   2.430  1.00  0.00    -0.317 OA
BRANCH  27  28
HETATM   28  C2  UNL     1      -4.977 -33.561   2.233  1.00  0.00     0.174 C 
HETATM   29  C1  UNL     1      -5.638 -33.970   3.522  1.00  0.00     0.034 C 
ENDBRANCH  27  28
ENDBRANCH  25  27
ENDBRANCH   1  25
TORSDOF 8
ENDMDL
MODEL 5
REMARK VINA RESULT: -7.230376791      3.173      5.667
REMARK  8 active torsions:
REMARK  status: ('A' for Active; 'I' for Inactive)
REMARK    1  A    between atoms: C2_2  and  O1_3 
REMARK    2  A    between atoms: O1_3  and  C3_4 
REMARK    3  A    between atoms: C3_4  and  C4_6 
REMARK    4  A    between atoms: C5_8  and  C6_9 
REMARK       I    between atoms: C6_9  and  N1_11 
REMARK    5  A    between atoms: N1_11  and  N2_13 
REMARK    6  A    between atoms: C12_22  and  C13_23 
REMARK    7  A    between atoms: C13_23  and  O5_25 
REMARK    8  A    between atoms: O5_25  and  C14_26 
ROOT
HETATM    1  C4  UNL     1       1.174 -31.630   2.941  1.00  0.00     0.088 A 
HETATM    2  S1  UNL     1       2.207 -32.975   2.901  1.00  0.00    -0.077 SA
HETATM    3  C5  UNL     1       1.034 -34.213   2.509  1.00  0.00     0.092 A 
HETATM    4  C12 UNL     1      -0.114 -33.497   2.430  1.00  0.00     0.069 A 
HETATM    5  C16 UNL     1      -0.051 -32.150   2.654  1.00  0.00    -0.021 A 
HETATM    6  C17 UNL     1      -1.281 -31.232   2.593  1.00  0.00     0.051 C 
ENDROOT
BRANCH   3   7
HETATM    7  C6  UNL     1       1.379 -35.619   2.344  1.00  0.00     0.278 C 
HETATM    8  O3  UNL     1       2.553 -35.878   1.863  1.00  0.00    -0.265 OA
HETATM    9  N1  UNL     1       0.573 -36.713   2.649  1.00  0.00    -0.264 N 
ATOM     10  H1  UNL     1      -0.364 -36.572   3.029  1.00  0.00     0.190 HD
BRANCH   9  11
HETATM   11  N2  UNL     1       1.073 -38.048   2.422  1.00  0.00    -0.286 N 
HETATM   12  C7  UNL     1       0.288 -39.023   2.704  1.00  0.00     0.091 C 
HETATM   13  C8  UNL     1      -1.064 -38.740   3.237  1.00  0.00     0.077 C 
HETATM   14  N3  UNL     1       0.763 -40.345   2.487  1.00  0.00    -0.379 N 
HETATM   15  C9  UNL     1      -1.764 -39.936   3.785  1.00  0.00     0.009 C 
HETATM   16  C10 UNL     1      -1.337 -41.239   3.185  1.00  0.00     0.020 C 
HETATM   17  C11 UNL     1       0.144 -41.436   3.179  1.00  0.00     0.121 C 
ATOM     18  H3  UNL     1       1.538 -40.515   1.846  1.00  0.00     0.160 HD
ATOM     19  H2  UNL     1       2.011 -38.209   2.054  1.00  0.00     0.188 HD
ENDBRANCH   9  11
ENDBRANCH   3   7
BRANCH   4  20
HETATM   20  C13 UNL     1      -1.438 -34.156   2.112  1.00  0.00     0.295 C 
HETATM   21  O4  UNL     1      -2.084 -33.829   1.093  1.00  0.00    -0.259 OA
BRANCH  20  22
HETATM   22  O5  UNL     1      -1.953 -35.135   2.945  1.00  0.00    -0.318 OA
BRANCH  22  23
HETATM   23  C14 UNL     1      -2.202 -34.976   4.304  1.00  0.00     0.174 C 
HETATM   24  C15 UNL     1      -3.250 -33.909   4.500  1.00  0.00     0.034 C 
ENDBRANCH  22  23
ENDBRANCH  20  22
ENDBRANCH   4  20
BRANCH   1  25
HETATM   25  C3  UNL     1       1.523 -30.211   3.226  1.00  0.00     0.300 C 
HETATM   26  O2  UNL     1       1.865 -29.502   2.265  1.00  0.00    -0.259 OA
BRANCH  25  27
HETATM   27  O1  UNL     1       1.475 -29.703   4.490  1.00  0.00    -0.317 OA
BRANCH  27  28
HETATM   28  C2  UNL     1       2.528 -29.996   5.386  1.00  0.00     0.174 C 
HETATM   29  C1  UNL     1       2.251 -31.201   6.244  1.00  0.00     0.034 C 
ENDBRANCH  27  28
ENDBRANCH  25  27
ENDBRANCH   1  25
TORSDOF 8
ENDMDL
