MODEL 1
REMARK VINA RESULT: -6.175864758      0.000      0.000
REMARK  1 active torsions:
REMARK  status: ('A' for Active; 'I' for Inactive)
REMARK    1  A    between atoms: C2_3  and  C3_4 
ROOT
HETATM    1  N1  UNL     1      -1.301  71.185  19.715  1.00  0.00    -0.197 NA
HETATM    2  C1  UNL     1      -0.472  70.924  20.490  1.00  0.00     0.059 C 
HETATM    3  C2  UNL     1       0.576  70.575  21.451  1.00  0.00     0.128 C 
ENDROOT
BRANCH   3   4
HETATM    4  C3  UNL     1       0.542  71.521  22.662  1.00  0.00     0.000 C 
HETATM    5  C4  UNL     1       1.581  71.088  23.607  1.00  0.00     0.007 C 
HETATM    6  C5  UNL     1       1.351  71.315  25.044  1.00  0.00     0.028 C 
HETATM    7  C6  UNL     1       0.365  72.375  25.392  1.00  0.00     0.232 C 
HETATM    8  N2  UNL     1      -0.929  71.718  25.610  1.00  0.00    -0.075 N 
HETATM    9  C7  UNL     1      -1.138  70.882  24.418  1.00  0.00     0.232 C 
ATOM     10  H22 UNL     1      -0.989  71.205  26.490  1.00  0.00     0.277 HD
ATOM     11  H21 UNL     1      -1.694  72.366  25.799  1.00  0.00     0.277 HD
HETATM   12  C8  UNL     1      -0.843  71.636  23.172  1.00  0.00     0.033 C 
ENDBRANCH   3   4
TORSDOF 1
ENDMDL
MODEL 2
REMARK VINA RESULT: -5.803233287      0.933      1.855
REMARK  1 active torsions:
REMARK  status: ('A' for Active; 'I' for Inactive)
REMARK    1  A    between atoms: C2_3  and  C3_4 
ROOT
HETATM    1  N1  UNL     1      -1.175  70.863  19.716  1.00  0.00    -0.197 NA
HETATM    2  C1  UNL     1      -0.335  70.824  20.521  1.00  0.00     0.059 C 
HETATM    3  C2  UNL     1       0.740  70.774  21.514  1.00  0.00     0.128 C 
ENDROOT
BRANCH   3   4
HETATM    4  C3  UNL     1       0.163  70.734  22.939  1.00  0.00     0.000 C 
HETATM    5  C4  UNL     1      -0.952  71.687  23.005  1.00  0.00     0.007 C 
HETATM    6  C5  UNL     1      -1.224  72.351  24.292  1.00  0.00     0.028 C 
HETATM    7  C6  UNL     1      -0.703  71.665  25.507  1.00  0.00     0.232 C 
HETATM    8  N2  UNL     1       0.595  72.267  25.829  1.00  0.00    -0.075 N 
HETATM    9  C7  UNL     1       1.361  72.220  24.573  1.00  0.00     0.232 C 
ATOM     10  H22 UNL     1       0.529  73.199  26.238  1.00  0.00     0.277 HD
ATOM     11  H21 UNL     1       1.070  71.827  26.618  1.00  0.00     0.277 HD
HETATM   12  C8  UNL     1       1.254  70.886  23.927  1.00  0.00     0.033 C 
ENDBRANCH   3   4
TORSDOF 1
ENDMDL
MODEL 3
REMARK VINA RESULT: -5.775014328      1.435      2.061
REMARK  1 active torsions:
REMARK  status: ('A' for Active; 'I' for Inactive)
REMARK    1  A    between atoms: C2_3  and  C3_4 
ROOT
HETATM    1  N1  UNL     1      -0.725  70.045  19.584  1.00  0.00    -0.197 NA
HETATM    2  C1  UNL     1      -0.576  70.860  20.401  1.00  0.00     0.059 C 
HETATM    3  C2  UNL     1      -0.387  71.903  21.411  1.00  0.00     0.128 C 
ENDROOT
BRANCH   3   4
HETATM    4  C3  UNL     1      -0.221  71.285  22.809  1.00  0.00     0.000 C 
HETATM    5  C4  UNL     1      -0.367  72.358  23.802  1.00  0.00     0.007 C 
HETATM    6  C5  UNL     1       0.380  72.242  25.066  1.00  0.00     0.028 C 
HETATM    7  C6  UNL     1       0.808  70.869  25.451  1.00  0.00     0.232 C 
HETATM    8  N2  UNL     1       2.189  70.692  24.984  1.00  0.00    -0.075 N 
HETATM    9  C7  UNL     1       2.166  71.085  23.567  1.00  0.00     0.232 C 
ATOM     10  H22 UNL     1       2.881  71.193  25.541  1.00  0.00     0.277 HD
ATOM     11  H21 UNL     1       2.563  69.757  25.148  1.00  0.00     0.277 HD
HETATM   12  C8  UNL     1       1.014  70.471  22.855  1.00  0.00     0.033 C 
ENDBRANCH   3   4
TORSDOF 1
ENDMDL
MODEL 4
REMARK VINA RESULT: -5.742457814      1.185      1.402
REMARK  1 active torsions:
REMARK  status: ('A' for Active; 'I' for Inactive)
REMARK    1  A    between atoms: C2_3  and  C3_4 
ROOT
HETATM    1  N1  UNL     1      -0.108  70.210  19.671  1.00  0.00    -0.197 NA
HETATM    2  C1  UNL     1      -0.498  70.758  20.621  1.00  0.00     0.059 C 
HETATM    3  C2  UNL     1      -1.013  71.446  21.806  1.00  0.00     0.128 C 
ENDROOT
BRANCH   3   4
HETATM    4  C3  UNL     1       0.131  71.800  22.771  1.00  0.00     0.000 C 
HETATM    5  C4  UNL     1       1.127  70.721  22.711  1.00  0.00     0.007 C 
HETATM    6  C5  UNL     1       1.911  70.430  23.923  1.00  0.00     0.028 C 
HETATM    7  C6  UNL     1       2.001  71.528  24.925  1.00  0.00     0.232 C 
HETATM    8  N2  UNL     1       0.954  71.297  25.927  1.00  0.00    -0.075 N 
HETATM    9  C7  UNL     1      -0.282  71.109  25.151  1.00  0.00     0.232 C 
ATOM     10  H22 UNL     1       1.159  70.531  26.570  1.00  0.00     0.277 HD
ATOM     11  H21 UNL     1       0.891  72.029  26.634  1.00  0.00     0.277 HD
HETATM   12  C8  UNL     1      -0.421  72.150  24.099  1.00  0.00     0.033 C 
ENDBRANCH   3   4
TORSDOF 1
ENDMDL
MODEL 5
REMARK VINA RESULT: -5.448007151      1.365      1.813
REMARK  1 active torsions:
REMARK  status: ('A' for Active; 'I' for Inactive)
REMARK    1  A    between atoms: C2_3  and  C3_4 
ROOT
HETATM    1  N1  UNL     1       0.421  70.862  20.520  1.00  0.00    -0.197 NA
HETATM    2  C1  UNL     1      -0.436  71.071  21.279  1.00  0.00     0.059 C 
HETATM    3  C2  UNL     1      -1.532  71.330  22.216  1.00  0.00     0.128 C 
ENDROOT
BRANCH   3   4
HETATM    4  C3  UNL     1      -0.986  71.735  23.595  1.00  0.00     0.000 C 
HETATM    5  C4  UNL     1       0.155  72.637  23.385  1.00  0.00     0.007 C 
HETATM    6  C5  UNL     1       1.240  72.629  24.382  1.00  0.00     0.028 C 
HETATM    7  C6  UNL     1       0.887  72.110  25.731  1.00  0.00     0.232 C 
HETATM    8  N2  UNL     1       1.265  70.693  25.771  1.00  0.00    -0.075 N 
HETATM    9  C7  UNL     1       0.653  70.100  24.572  1.00  0.00     0.232 C 
ATOM     10  H22 UNL     1       2.271  70.535  25.842  1.00  0.00     0.277 HD
ATOM     11  H21 UNL     1       1.012  70.221  26.640  1.00  0.00     0.277 HD
HETATM   12  C8  UNL     1      -0.762  70.528  24.422  1.00  0.00     0.033 C 
ENDBRANCH   3   4
TORSDOF 1
ENDMDL
