MODEL 1
REMARK VINA RESULT: -4.224600669      0.000      0.000
REMARK  1 active torsions:
REMARK  status: ('A' for Active; 'I' for Inactive)
REMARK    1  A    between atoms: C5_8  and  C6_9 
ROOT
HETATM    1  C1  UNL     1      -0.578  70.879  20.297  1.00  0.00     0.041 C 
HETATM    2  C2  UNL     1      -0.442  71.480  21.663  1.00  0.00     0.208 C 
HETATM    3  C3  UNL     1      -1.745  71.379  22.388  1.00  0.00     0.264 C 
HETATM    4  N1  UNL     1      -1.674  71.748  23.778  1.00  0.00    -0.071 N 
ATOM      5  H11 UNL     1      -2.535  71.505  24.267  1.00  0.00     0.277 HD
ATOM      6  H12 UNL     1      -1.702  72.761  23.890  1.00  0.00     0.277 HD
HETATM    7  C4  UNL     1      -0.509  71.177  24.447  1.00  0.00     0.265 C 
HETATM    8  C5  UNL     1       0.690  71.609  23.676  1.00  0.00     0.215 C 
HETATM    9  N2  UNL     1       0.664  70.893  22.414  1.00  0.00    -0.064 N 
ATOM     10  H21 UNL     1       1.554  70.906  21.914  1.00  0.00     0.278 HD
ATOM     11  H22 UNL     1       0.602  69.880  22.516  1.00  0.00     0.278 HD
ENDROOT
BRANCH   8  12
HETATM   12  C6  UNL     1       1.986  71.455  24.406  1.00  0.00     0.010 C 
HETATM   13  C7  UNL     1       1.887  70.586  25.622  1.00  0.00     0.011 C 
HETATM   14  C8  UNL     1       3.016  70.872  23.475  1.00  0.00     0.011 C 
ENDBRANCH   8  12
TORSDOF 1
ENDMDL
MODEL 2
REMARK VINA RESULT: -3.851557185      0.483      1.134
REMARK  1 active torsions:
REMARK  status: ('A' for Active; 'I' for Inactive)
REMARK    1  A    between atoms: C5_8  and  C6_9 
ROOT
HETATM    1  C1  UNL     1      -0.581  70.849  20.117  1.00  0.00     0.041 C 
HETATM    2  C2  UNL     1      -0.411  71.359  21.516  1.00  0.00     0.208 C 
HETATM    3  C3  UNL     1      -1.718  71.291  22.237  1.00  0.00     0.264 C 
HETATM    4  N1  UNL     1      -1.625  71.572  23.646  1.00  0.00    -0.071 N 
ATOM      5  H11 UNL     1      -2.500  71.351  24.123  1.00  0.00     0.277 HD
ATOM      6  H12 UNL     1      -1.596  72.577  23.819  1.00  0.00     0.277 HD
HETATM    7  C4  UNL     1      -0.496  70.896  24.277  1.00  0.00     0.265 C 
HETATM    8  C5  UNL     1       0.726  71.303  23.529  1.00  0.00     0.215 C 
HETATM    9  N2  UNL     1       0.659  70.666  22.227  1.00  0.00    -0.064 N 
ATOM     10  H21 UNL     1       1.548  70.657  21.726  1.00  0.00     0.278 HD
ATOM     11  H22 UNL     1       0.538  69.654  22.269  1.00  0.00     0.278 HD
ENDROOT
BRANCH   8  12
HETATM   12  C6  UNL     1       2.011  71.031  24.244  1.00  0.00     0.010 C 
HETATM   13  C7  UNL     1       2.956  72.192  24.239  1.00  0.00     0.011 C 
HETATM   14  C8  UNL     1       1.717  70.650  25.672  1.00  0.00     0.011 C 
ENDBRANCH   8  12
TORSDOF 1
ENDMDL
MODEL 3
REMARK VINA RESULT: -3.827080957      1.288      4.285
REMARK  1 active torsions:
REMARK  status: ('A' for Active; 'I' for Inactive)
REMARK    1  A    between atoms: C5_8  and  C6_9 
ROOT
HETATM    1  C1  UNL     1       1.521  70.532  26.285  1.00  0.00     0.041 C 
HETATM    2  C2  UNL     1       1.636  70.934  24.846  1.00  0.00     0.208 C 
HETATM    3  C3  UNL     1       2.676  70.098  24.173  1.00  0.00     0.264 C 
HETATM    4  N1  UNL     1       2.731  70.267  22.744  1.00  0.00    -0.071 N 
ATOM      5  H11 UNL     1       3.329  69.562  22.314  1.00  0.00     0.277 HD
ATOM      6  H12 UNL     1       3.257  71.104  22.494  1.00  0.00     0.277 HD
HETATM    7  C4  UNL     1       1.406  70.276  22.133  1.00  0.00     0.265 C 
HETATM    8  C5  UNL     1       0.624  71.349  22.808  1.00  0.00     0.215 C 
HETATM    9  N2  UNL     1       0.349  70.890  24.158  1.00  0.00    -0.064 N 
ATOM     10  H21 UNL     1      -0.388  71.414  24.630  1.00  0.00     0.278 HD
ATOM     11  H22 UNL     1      -0.108  69.980  24.198  1.00  0.00     0.278 HD
ENDROOT
BRANCH   8  12
HETATM   12  C6  UNL     1      -0.610  71.772  22.077  1.00  0.00     0.010 C 
HETATM   13  C7  UNL     1      -0.737  71.161  20.715  1.00  0.00     0.011 C 
HETATM   14  C8  UNL     1      -1.823  71.404  22.889  1.00  0.00     0.011 C 
ENDBRANCH   8  12
TORSDOF 1
ENDMDL
MODEL 4
REMARK VINA RESULT: -3.706709240      1.352      2.732
REMARK  1 active torsions:
REMARK  status: ('A' for Active; 'I' for Inactive)
REMARK    1  A    between atoms: C5_8  and  C6_9 
ROOT
HETATM    1  C1  UNL     1      -0.793  71.479  20.392  1.00  0.00     0.041 C 
HETATM    2  C2  UNL     1      -0.152  70.831  21.582  1.00  0.00     0.208 C 
HETATM    3  C3  UNL     1       1.256  70.453  21.250  1.00  0.00     0.264 C 
HETATM    4  N1  UNL     1       2.024  70.001  22.381  1.00  0.00    -0.071 N 
ATOM      5  H11 UNL     1       3.013  69.918  22.143  1.00  0.00     0.277 HD
ATOM      6  H12 UNL     1       1.824  69.024  22.594  1.00  0.00     0.277 HD
HETATM    7  C4  UNL     1       1.836  70.845  23.556  1.00  0.00     0.265 C 
HETATM    8  C5  UNL     1       0.373  70.882  23.834  1.00  0.00     0.215 C 
HETATM    9  N2  UNL     1      -0.242  71.665  22.777  1.00  0.00    -0.064 N 
ATOM     10  H21 UNL     1      -1.189  71.976  22.992  1.00  0.00     0.278 HD
ATOM     11  H22 UNL     1       0.164  72.593  22.663  1.00  0.00     0.278 HD
ENDROOT
BRANCH   8  12
HETATM   12  C6  UNL     1       0.013  71.368  25.202  1.00  0.00     0.010 C 
HETATM   13  C7  UNL     1       0.488  72.760  25.486  1.00  0.00     0.011 C 
HETATM   14  C8  UNL     1      -1.483  71.322  25.370  1.00  0.00     0.011 C 
ENDBRANCH   8  12
TORSDOF 1
ENDMDL
MODEL 5
REMARK VINA RESULT: -3.640919302      1.265      2.364
REMARK  1 active torsions:
REMARK  status: ('A' for Active; 'I' for Inactive)
REMARK    1  A    between atoms: C5_8  and  C6_9 
ROOT
HETATM    1  C1  UNL     1      -1.111  72.000  20.504  1.00  0.00     0.041 C 
HETATM    2  C2  UNL     1      -0.442  71.152  21.542  1.00  0.00     0.208 C 
HETATM    3  C3  UNL     1       0.814  70.568  20.980  1.00  0.00     0.264 C 
HETATM    4  N1  UNL     1       1.635  69.895  21.954  1.00  0.00    -0.071 N 
ATOM      5  H11 UNL     1       2.550  69.664  21.565  1.00  0.00     0.277 HD
ATOM      6  H12 UNL     1       1.292  68.953  22.135  1.00  0.00     0.277 HD
HETATM    7  C4  UNL     1       1.767  70.655  23.193  1.00  0.00     0.265 C 
HETATM    8  C5  UNL     1       0.387  70.918  23.689  1.00  0.00     0.215 C 
HETATM    9  N2  UNL     1      -0.213  71.883  22.785  1.00  0.00    -0.064 N 
ATOM     10  H21 UNL     1      -1.049  72.332  23.158  1.00  0.00     0.278 HD
ATOM     11  H22 UNL     1       0.336  72.734  22.668  1.00  0.00     0.278 HD
ENDROOT
BRANCH   8  12
HETATM   12  C6  UNL     1       0.313  71.340  25.122  1.00  0.00     0.010 C 
HETATM   13  C7  UNL     1       1.430  70.803  25.962  1.00  0.00     0.011 C 
HETATM   14  C8  UNL     1       0.326  72.844  25.200  1.00  0.00     0.011 C 
ENDBRANCH   8  12
TORSDOF 1
ENDMDL
