MODEL 1
REMARK VINA RESULT: -5.899384868      0.000      0.000
REMARK  0 active torsions:
REMARK  status: ('A' for Active; 'I' for Inactive)
ROOT
HETATM    1  C1  UNL     1      -0.512  70.985  21.135  1.00  0.00     0.032 C 
HETATM    2  C2  UNL     1       0.105  71.608  22.399  1.00  0.00     0.075 C 
HETATM    3  C3  UNL     1      -0.990  71.748  23.393  1.00  0.00     0.057 C 
HETATM    4  C4  UNL     1      -0.547  71.700  24.824  1.00  0.00     0.188 C 
HETATM    5  C5  UNL     1       0.482  72.739  25.164  1.00  0.00     0.035 C 
HETATM    6  C6  UNL     1       1.741  72.573  24.342  1.00  0.00     0.028 C 
HETATM    7  C7  UNL     1       1.862  71.126  23.977  1.00  0.00     0.102 C 
HETATM    8  C8  UNL     1       1.313  70.265  25.118  1.00  0.00     0.257 C 
HETATM    9  N1  UNL     1      -0.111  70.379  25.197  1.00  0.00    -0.069 N 
ATOM     10  H11 UNL     1      -0.576  69.659  24.643  1.00  0.00     0.277 HD
ATOM     11  H12 UNL     1      -0.458  70.115  26.119  1.00  0.00     0.277 HD
HETATM   12  N2  UNL     1       1.179  70.752  22.791  1.00  0.00    -0.412 N 
ATOM     13  H2  UNL     1       1.437  69.924  22.254  1.00  0.00     0.154 HD
ENDROOT
TORSDOF 0
ENDMDL
MODEL 2
REMARK VINA RESULT: -5.502938923      1.191      1.625
REMARK  0 active torsions:
REMARK  status: ('A' for Active; 'I' for Inactive)
ROOT
HETATM    1  C1  UNL     1      -1.570  71.281  22.563  1.00  0.00     0.032 C 
HETATM    2  C2  UNL     1      -0.082  71.355  22.944  1.00  0.00     0.075 C 
HETATM    3  C3  UNL     1       0.102  72.599  23.736  1.00  0.00     0.057 C 
HETATM    4  C4  UNL     1       1.230  72.554  24.721  1.00  0.00     0.188 C 
HETATM    5  C5  UNL     1       2.557  72.241  24.092  1.00  0.00     0.035 C 
HETATM    6  C6  UNL     1       2.553  70.887  23.415  1.00  0.00     0.028 C 
HETATM    7  C7  UNL     1       1.550  70.027  24.119  1.00  0.00     0.102 C 
HETATM    8  C8  UNL     1       1.532  70.380  25.609  1.00  0.00     0.257 C 
HETATM    9  N1  UNL     1       0.938  71.665  25.816  1.00  0.00    -0.069 N 
ATOM     10  H11 UNL     1      -0.065  71.592  25.984  1.00  0.00     0.277 HD
ATOM     11  H12 UNL     1       1.218  72.068  26.711  1.00  0.00     0.277 HD
HETATM   12  N2  UNL     1       0.221  70.143  23.635  1.00  0.00    -0.412 N 
ATOM     13  H2  UNL     1      -0.472  69.408  23.772  1.00  0.00     0.154 HD
ENDROOT
TORSDOF 0
ENDMDL
MODEL 3
REMARK VINA RESULT: -5.373951646      1.332      2.411
REMARK  0 active torsions:
REMARK  status: ('A' for Active; 'I' for Inactive)
ROOT
HETATM    1  C1  UNL     1      -0.342  71.257  20.880  1.00  0.00     0.032 C 
HETATM    2  C2  UNL     1      -0.216  70.949  22.382  1.00  0.00     0.075 C 
HETATM    3  C3  UNL     1       1.222  70.691  22.654  1.00  0.00     0.057 C 
HETATM    4  C4  UNL     1       1.665  71.014  24.048  1.00  0.00     0.188 C 
HETATM    5  C5  UNL     1       0.886  70.283  25.104  1.00  0.00     0.035 C 
HETATM    6  C6  UNL     1      -0.587  70.625  25.054  1.00  0.00     0.028 C 
HETATM    7  C7  UNL     1      -0.717  72.006  24.490  1.00  0.00     0.102 C 
HETATM    8  C8  UNL     1       0.474  72.855  24.942  1.00  0.00     0.257 C 
HETATM    9  N1  UNL     1       1.673  72.435  24.283  1.00  0.00    -0.069 N 
ATOM     10  H11 UNL     1       1.831  72.957  23.422  1.00  0.00     0.277 HD
ATOM     11  H12 UNL     1       2.506  72.726  24.797  1.00  0.00     0.277 HD
HETATM   12  N2  UNL     1      -0.774  72.067  23.074  1.00  0.00    -0.412 N 
ATOM     13  H2  UNL     1      -1.188  72.859  22.581  1.00  0.00     0.154 HD
ENDROOT
TORSDOF 0
ENDMDL
MODEL 4
REMARK VINA RESULT: -5.232748487      1.372      2.787
REMARK  0 active torsions:
REMARK  status: ('A' for Active; 'I' for Inactive)
ROOT
HETATM    1  C1  UNL     1      -1.977  70.008  25.737  1.00  0.00     0.032 C 
HETATM    2  C2  UNL     1      -0.806  70.142  24.749  1.00  0.00     0.075 C 
HETATM    3  C3  UNL     1      -1.289  70.970  23.614  1.00  0.00     0.057 C 
HETATM    4  C4  UNL     1      -0.222  71.751  22.909  1.00  0.00     0.188 C 
HETATM    5  C5  UNL     1       0.890  70.894  22.377  1.00  0.00     0.035 C 
HETATM    6  C6  UNL     1       1.598  70.142  23.483  1.00  0.00     0.028 C 
HETATM    7  C7  UNL     1       1.466  70.946  24.740  1.00  0.00     0.102 C 
HETATM    8  C8  UNL     1       1.489  72.438  24.395  1.00  0.00     0.257 C 
HETATM    9  N1  UNL     1       0.280  72.821  23.732  1.00  0.00    -0.069 N 
ATOM     10  H11 UNL     1      -0.424  73.147  24.395  1.00  0.00     0.277 HD
ATOM     11  H12 UNL     1       0.401  73.682  23.198  1.00  0.00     0.277 HD
HETATM   12  N2  UNL     1       0.285  70.696  25.485  1.00  0.00    -0.412 N 
ATOM     13  H2  UNL     1       0.220  70.899  26.483  1.00  0.00     0.154 HD
ENDROOT
TORSDOF 0
ENDMDL
MODEL 5
REMARK VINA RESULT: -4.851465509      1.478      2.693
REMARK  0 active torsions:
REMARK  status: ('A' for Active; 'I' for Inactive)
ROOT
HETATM    1  C1  UNL     1       2.906  70.579  22.921  1.00  0.00     0.032 C 
HETATM    2  C2  UNL     1       1.416  70.624  23.298  1.00  0.00     0.075 C 
HETATM    3  C3  UNL     1       1.318  70.233  24.728  1.00  0.00     0.057 C 
HETATM    4  C4  UNL     1       0.144  70.811  25.458  1.00  0.00     0.188 C 
HETATM    5  C5  UNL     1      -1.175  70.474  24.825  1.00  0.00     0.035 C 
HETATM    6  C6  UNL     1      -1.272  71.004  23.411  1.00  0.00     0.028 C 
HETATM    7  C7  UNL     1      -0.395  72.214  23.314  1.00  0.00     0.102 C 
HETATM    8  C8  UNL     1      -0.416  72.965  24.649  1.00  0.00     0.257 C 
HETATM    9  N1  UNL     1       0.292  72.231  25.653  1.00  0.00    -0.069 N 
ATOM     10  H11 UNL     1       1.273  72.504  25.696  1.00  0.00     0.277 HD
ATOM     11  H12 UNL     1       0.010  72.512  26.592  1.00  0.00     0.277 HD
HETATM   12  N2  UNL     1       0.960  71.943  22.996  1.00  0.00    -0.412 N 
ATOM     13  H2  UNL     1       1.570  72.646  22.577  1.00  0.00     0.154 HD
ENDROOT
TORSDOF 0
ENDMDL
