MODEL 1
REMARK VINA RESULT: -5.109014243      0.000      0.000
REMARK  2 active torsions:
REMARK  status: ('A' for Active; 'I' for Inactive)
REMARK    1  A    between atoms: C2_2  and  C3_3 
REMARK    2  A    between atoms: C7_9  and  N2_10 
ROOT
HETATM    1  C3  UNL     1       0.274  71.546  22.121  1.00  0.00     0.004 C 
HETATM    2  C4  UNL     1      -0.323  72.000  23.425  1.00  0.00     0.118 C 
HETATM    3  N1  UNL     1       0.748  72.340  24.291  1.00  0.00    -0.415 N 
ATOM      4  H1  UNL     1       0.785  73.242  24.766  1.00  0.00     0.153 HD
HETATM    5  C5  UNL     1       1.760  71.371  24.467  1.00  0.00     0.102 C 
HETATM    6  C6  UNL     1       1.557  70.741  25.855  1.00  0.00     0.034 C 
HETATM    7  C7  UNL     1       1.942  70.345  23.438  1.00  0.00     0.205 C 
HETATM    8  C8  UNL     1       0.893  70.221  22.395  1.00  0.00     0.041 C 
ENDROOT
BRANCH   7   9
HETATM    9  N2  UNL     1       3.227  70.504  22.734  1.00  0.00    -0.073 N 
ATOM     10  H23 UNL     1       3.246  71.362  22.183  1.00  0.00     0.274 HD
ATOM     11  H22 UNL     1       3.984  70.715  23.384  1.00  0.00     0.274 HD
ATOM     12  H21 UNL     1       3.445  69.689  22.161  1.00  0.00     0.274 HD
ENDBRANCH   7   9
BRANCH   1  13
HETATM   13  C2  UNL     1      -0.695  71.554  20.981  1.00  0.00     0.002 C 
HETATM   14  C1  UNL     1      -0.515  70.423  20.025  1.00  0.00     0.005 C 
ENDBRANCH   1  13
TORSDOF 2
ENDMDL
MODEL 2
REMARK VINA RESULT: -5.073526562      1.378      2.408
REMARK  2 active torsions:
REMARK  status: ('A' for Active; 'I' for Inactive)
REMARK    1  A    between atoms: C2_2  and  C3_3 
REMARK    2  A    between atoms: C7_9  and  N2_10 
ROOT
HETATM    1  C3  UNL     1      -0.224  71.007  22.363  1.00  0.00     0.004 C 
HETATM    2  C4  UNL     1       1.247  70.746  22.531  1.00  0.00     0.118 C 
HETATM    3  N1  UNL     1       1.410  69.923  23.675  1.00  0.00    -0.415 N 
ATOM      4  H1  UNL     1       1.944  69.055  23.636  1.00  0.00     0.153 HD
HETATM    5  C5  UNL     1       0.799  70.362  24.869  1.00  0.00     0.102 C 
HETATM    6  C6  UNL     1       1.910  70.910  25.780  1.00  0.00     0.034 C 
HETATM    7  C7  UNL     1      -0.329  71.293  24.785  1.00  0.00     0.205 C 
HETATM    8  C8  UNL     1      -0.604  71.925  23.471  1.00  0.00     0.041 C 
ENDROOT
BRANCH   7   9
HETATM    9  N2  UNL     1      -1.586  70.665  25.229  1.00  0.00    -0.073 N 
ATOM     10  H23 UNL     1      -2.388  71.268  25.044  1.00  0.00     0.274 HD
ATOM     11  H22 UNL     1      -1.840  69.877  24.633  1.00  0.00     0.274 HD
ATOM     12  H21 UNL     1      -1.544  70.391  26.211  1.00  0.00     0.274 HD
ENDBRANCH   7   9
BRANCH   1  13
HETATM   13  C2  UNL     1      -0.598  71.494  20.999  1.00  0.00     0.002 C 
HETATM   14  C1  UNL     1      -0.565  70.435  19.948  1.00  0.00     0.005 C 
ENDBRANCH   1  13
TORSDOF 2
ENDMDL
MODEL 3
REMARK VINA RESULT: -4.139421298      1.590      2.461
REMARK  2 active torsions:
REMARK  status: ('A' for Active; 'I' for Inactive)
REMARK    1  A    between atoms: C2_2  and  C3_3 
REMARK    2  A    between atoms: C7_9  and  N2_10 
ROOT
HETATM    1  C3  UNL     1      -0.498  71.137  22.403  1.00  0.00     0.004 C 
HETATM    2  C4  UNL     1       0.782  71.854  22.732  1.00  0.00     0.118 C 
HETATM    3  N1  UNL     1       1.274  71.318  23.949  1.00  0.00    -0.415 N 
ATOM      4  H1  UNL     1       2.231  70.974  24.033  1.00  0.00     0.153 HD
HETATM    5  C5  UNL     1       0.379  71.282  25.040  1.00  0.00     0.102 C 
HETATM    6  C6  UNL     1       0.785  72.408  26.005  1.00  0.00     0.034 C 
HETATM    7  C7  UNL     1      -1.062  71.304  24.772  1.00  0.00     0.205 C 
HETATM    8  C8  UNL     1      -1.501  71.619  23.391  1.00  0.00     0.041 C 
ENDROOT
BRANCH   7   9
HETATM    9  N2  UNL     1      -1.702  70.029  25.143  1.00  0.00    -0.073 N 
ATOM     10  H23 UNL     1      -2.686  70.161  25.375  1.00  0.00     0.274 HD
ATOM     11  H22 UNL     1      -1.810  69.418  24.333  1.00  0.00     0.274 HD
ATOM     12  H21 UNL     1      -1.200  69.562  25.898  1.00  0.00     0.274 HD
ENDBRANCH   7   9
BRANCH   1  13
HETATM   13  C2  UNL     1      -0.917  71.278  20.974  1.00  0.00     0.002 C 
HETATM   14  C1  UNL     1      -0.334  70.247  20.067  1.00  0.00     0.005 C 
ENDBRANCH   1  13
TORSDOF 2
ENDMDL
MODEL 4
REMARK VINA RESULT: -4.011452096      1.683      2.031
REMARK  2 active torsions:
REMARK  status: ('A' for Active; 'I' for Inactive)
REMARK    1  A    between atoms: C2_2  and  C3_3 
REMARK    2  A    between atoms: C7_9  and  N2_10 
ROOT
HETATM    1  C3  UNL     1       0.120  71.279  22.328  1.00  0.00     0.004 C 
HETATM    2  C4  UNL     1      -1.352  71.166  22.616  1.00  0.00     0.118 C 
HETATM    3  N1  UNL     1      -1.589  71.762  23.881  1.00  0.00    -0.415 N 
ATOM      4  H1  UNL     1      -2.303  72.480  24.008  1.00  0.00     0.153 HD
HETATM    5  C5  UNL     1      -0.791  71.315  24.957  1.00  0.00     0.102 C 
HETATM    6  C6  UNL     1      -1.668  70.404  25.832  1.00  0.00     0.034 C 
HETATM    7  C7  UNL     1       0.502  70.691  24.666  1.00  0.00     0.205 C 
HETATM    8  C8  UNL     1       0.790  70.329  23.257  1.00  0.00     0.041 C 
ENDROOT
BRANCH   7   9
HETATM    9  N2  UNL     1       1.624  71.526  25.131  1.00  0.00    -0.073 N 
ATOM     10  H23 UNL     1       1.410  72.519  25.045  1.00  0.00     0.274 HD
ATOM     11  H22 UNL     1       1.733  71.473  26.144  1.00  0.00     0.274 HD
ATOM     12  H21 UNL     1       2.493  71.289  24.650  1.00  0.00     0.274 HD
ENDBRANCH   7   9
BRANCH   1  13
HETATM   13  C2  UNL     1       0.467  71.086  20.885  1.00  0.00     0.002 C 
HETATM   14  C1  UNL     1      -0.674  70.619  20.045  1.00  0.00     0.005 C 
ENDBRANCH   1  13
TORSDOF 2
ENDMDL
MODEL 5
REMARK VINA RESULT: -3.767649163      1.545      2.863
REMARK  2 active torsions:
REMARK  status: ('A' for Active; 'I' for Inactive)
REMARK    1  A    between atoms: C2_2  and  C3_3 
REMARK    2  A    between atoms: C7_9  and  N2_10 
ROOT
HETATM    1  C3  UNL     1      -0.206  71.006  23.379  1.00  0.00     0.004 C 
HETATM    2  C4  UNL     1       0.525  70.975  22.064  1.00  0.00     0.118 C 
HETATM    3  N1  UNL     1       1.646  70.120  22.216  1.00  0.00    -0.415 N 
ATOM      4  H1  UNL     1       1.825  69.353  21.568  1.00  0.00     0.153 HD
HETATM    5  C5  UNL     1       2.505  70.379  23.306  1.00  0.00     0.102 C 
HETATM    6  C6  UNL     1       3.774  71.042  22.745  1.00  0.00     0.034 C 
HETATM    7  C7  UNL     1       1.981  71.121  24.457  1.00  0.00     0.205 C 
HETATM    8  C8  UNL     1       0.660  71.780  24.308  1.00  0.00     0.041 C 
ENDROOT
BRANCH   7   9
HETATM    9  N2  UNL     1       1.902  70.273  25.659  1.00  0.00    -0.073 N 
ATOM     10  H23 UNL     1       1.943  70.831  26.512  1.00  0.00     0.274 HD
ATOM     11  H22 UNL     1       0.970  69.875  25.774  1.00  0.00     0.274 HD
ATOM     12  H21 UNL     1       2.619  69.546  25.655  1.00  0.00     0.274 HD
ENDBRANCH   7   9
BRANCH   1  13
HETATM   13  C2  UNL     1      -1.611  71.509  23.275  1.00  0.00     0.002 C 
HETATM   14  C1  UNL     1      -1.925  72.625  24.213  1.00  0.00     0.005 C 
ENDBRANCH   1  13
TORSDOF 2
ENDMDL
