MODEL 1
REMARK VINA RESULT: -7.524228735      0.000      0.000
REMARK  9 active torsions:
REMARK  status: ('A' for Active; 'I' for Inactive)
REMARK    1  A    between atoms: C2_2  and  C24_32 
REMARK    2  A    between atoms: C3_3  and  C4_4 
REMARK    3  A    between atoms: C5_5  and  C6_7 
REMARK    4  A    between atoms: C6_7  and  C7_9 
REMARK    5  A    between atoms: C7_9  and  O2_10 
REMARK    6  A    between atoms: C7_9  and  C8_12 
REMARK    7  A    between atoms: C15_19  and  O3_20 
REMARK    8  A    between atoms: C15_19  and  C16_22 
REMARK    9  A    between atoms: C24_32  and  O5_33 
ROOT
HETATM    1  C8  UNL     1      -9.779  84.408  16.483  1.00  0.00     0.039 C 
HETATM    2  C9  UNL     1      -8.604  84.678  15.505  1.00  0.00     0.017 C 
HETATM    3  C10 UNL     1      -9.163  85.232  14.252  1.00  0.00     0.006 C 
HETATM    4  C11 UNL     1     -10.645  84.940  14.387  1.00  0.00    -0.003 C 
HETATM    5  C12 UNL     1     -10.822  83.506  14.003  1.00  0.00     0.047 C 
HETATM    6  C13 UNL     1     -10.381  82.494  14.965  1.00  0.00     0.106 C 
HETATM    7  C14 UNL     1     -11.373  81.297  14.910  1.00  0.00     0.110 C 
HETATM    8  C15 UNL     1     -10.414  80.733  13.848  1.00  0.00     0.168 C 
HETATM    9  O4  UNL     1      -9.483  81.568  14.424  1.00  0.00    -0.340 OA
HETATM   10  C19 UNL     1     -10.058  82.958  16.368  1.00  0.00     0.142 C 
HETATM   11  C20 UNL     1      -8.964  82.067  16.886  1.00  0.00     0.056 C 
HETATM   12  F1  UNL     1     -11.214  82.549  17.072  1.00  0.00    -0.239 F 
HETATM   13  C21 UNL     1     -10.835  85.242  15.857  1.00  0.00    -0.030 C 
HETATM   14  C22 UNL     1     -10.683  86.719  15.951  1.00  0.00     0.016 C 
HETATM   15  C23 UNL     1     -12.243  84.899  16.226  1.00  0.00     0.016 C 
ENDROOT
BRANCH   1  16
HETATM   16  C7  UNL     1      -9.227  84.871  17.778  1.00  0.00     0.206 C 
BRANCH  16  17
HETATM   17  C6  UNL     1     -10.036  85.517  18.780  1.00  0.00     0.196 C 
HETATM   18  O1  UNL     1      -9.645  86.698  19.147  1.00  0.00    -0.289 OA
BRANCH  17  19
HETATM   19  C5  UNL     1     -11.219  85.096  19.463  1.00  0.00     0.059 C 
HETATM   20  C4  UNL     1     -11.566  83.899  19.893  1.00  0.00     0.023 C 
HETATM   21 BR1  UNL     1     -12.553  86.466  19.822  1.00  0.00    -0.047 Br
BRANCH  20  22
HETATM   22  C3  UNL     1     -12.839  83.659  20.572  1.00  0.00     0.006 C 
HETATM   23  C2  UNL     1     -13.290  82.537  21.031  1.00  0.00    -0.060 C 
HETATM   24  C1  UNL     1     -14.638  82.450  21.716  1.00  0.00     0.045 C 
BRANCH  23  25
HETATM   25  C24 UNL     1     -12.563  81.261  20.939  1.00  0.00     0.198 C 
BRANCH  25  26
HETATM   26  O5  UNL     1     -13.447  80.198  20.723  1.00  0.00    -0.397 OA
ATOM     27  H5  UNL     1     -12.973  79.383  20.597  1.00  0.00     0.209 HD
ENDBRANCH  25  26
ENDBRANCH  23  25
ENDBRANCH  20  22
ENDBRANCH  17  19
ENDBRANCH  16  17
BRANCH  16  28
HETATM   28  O2  UNL     1      -8.095  85.702  17.555  1.00  0.00    -0.387 OA
ATOM     29  H2  UNL     1      -7.396  85.142  17.239  1.00  0.00     0.210 HD
ENDBRANCH  16  28
ENDBRANCH   1  16
BRANCH   8  30
HETATM   30  O3  UNL     1     -10.737  81.150  12.557  1.00  0.00    -0.365 OA
ATOM     31  H3  UNL     1     -10.553  80.488  11.902  1.00  0.00     0.213 HD
ENDBRANCH   8  30
BRANCH   8  32
HETATM   32  C16 UNL     1     -10.301  79.270  13.966  1.00  0.00     0.040 C 
HETATM   33  C17 UNL     1      -9.283  78.708  14.881  1.00  0.00     0.015 C 
HETATM   34  C18 UNL     1      -9.997  78.701  12.569  1.00  0.00     0.015 C 
ENDBRANCH   8  32
TORSDOF 9
ENDMDL
MODEL 2
REMARK VINA RESULT: -7.285109289      1.359      1.466
REMARK  9 active torsions:
REMARK  status: ('A' for Active; 'I' for Inactive)
REMARK    1  A    between atoms: C2_2  and  C24_32 
REMARK    2  A    between atoms: C3_3  and  C4_4 
REMARK    3  A    between atoms: C5_5  and  C6_7 
REMARK    4  A    between atoms: C6_7  and  C7_9 
REMARK    5  A    between atoms: C7_9  and  O2_10 
REMARK    6  A    between atoms: C7_9  and  C8_12 
REMARK    7  A    between atoms: C15_19  and  O3_20 
REMARK    8  A    between atoms: C15_19  and  C16_22 
REMARK    9  A    between atoms: C24_32  and  O5_33 
ROOT
HETATM    1  C8  UNL     1      -9.594  84.114  16.214  1.00  0.00     0.039 C 
HETATM    2  C9  UNL     1      -8.491  84.483  15.185  1.00  0.00     0.017 C 
HETATM    3  C10 UNL     1      -9.147  85.064  13.992  1.00  0.00     0.006 C 
HETATM    4  C11 UNL     1     -10.604  84.696  14.197  1.00  0.00    -0.003 C 
HETATM    5  C12 UNL     1     -10.739  83.273  13.757  1.00  0.00     0.047 C 
HETATM    6  C13 UNL     1     -10.197  82.243  14.644  1.00  0.00     0.106 C 
HETATM    7  C14 UNL     1     -11.135  81.003  14.589  1.00  0.00     0.110 C 
HETATM    8  C15 UNL     1     -10.216  80.533  13.449  1.00  0.00     0.168 C 
HETATM    9  O4  UNL     1      -9.291  81.385  14.010  1.00  0.00    -0.340 OA
HETATM   10  C19 UNL     1      -9.813  82.658  16.046  1.00  0.00     0.142 C 
HETATM   11  C20 UNL     1      -8.652  81.799  16.459  1.00  0.00     0.056 C 
HETATM   12  F1  UNL     1     -10.906  82.164  16.795  1.00  0.00    -0.239 F 
HETATM   13  C21 UNL     1     -10.720  84.923  15.688  1.00  0.00    -0.030 C 
HETATM   14  C22 UNL     1     -10.631  86.401  15.843  1.00  0.00     0.016 C 
HETATM   15  C23 UNL     1     -12.087  84.497  16.120  1.00  0.00     0.016 C 
ENDROOT
BRANCH   1  16
HETATM   16  C7  UNL     1      -8.988  84.544  17.495  1.00  0.00     0.206 C 
BRANCH  16  17
HETATM   17  C6  UNL     1      -9.759  84.709  18.701  1.00  0.00     0.196 C 
HETATM   18  O1  UNL     1      -9.716  85.887  19.244  1.00  0.00    -0.289 OA
BRANCH  17  19
HETATM   19  C5  UNL     1     -10.586  83.801  19.432  1.00  0.00     0.059 C 
HETATM   20  C4  UNL     1     -11.882  83.843  19.671  1.00  0.00     0.023 C 
HETATM   21 BR1  UNL     1      -9.700  82.259  20.222  1.00  0.00    -0.047 Br
BRANCH  20  22
HETATM   22  C3  UNL     1     -12.557  82.811  20.458  1.00  0.00     0.006 C 
HETATM   23  C2  UNL     1     -13.720  82.882  21.021  1.00  0.00    -0.060 C 
HETATM   24  C1  UNL     1     -14.287  81.719  21.808  1.00  0.00     0.045 C 
BRANCH  23  25
HETATM   25  C24 UNL     1     -14.590  84.066  20.959  1.00  0.00     0.198 C 
BRANCH  25  26
HETATM   26  O5  UNL     1     -15.916  83.699  20.704  1.00  0.00    -0.397 OA
ATOM     27  H5  UNL     1     -16.491  84.455  20.737  1.00  0.00     0.209 HD
ENDBRANCH  25  26
ENDBRANCH  23  25
ENDBRANCH  20  22
ENDBRANCH  17  19
ENDBRANCH  16  17
BRANCH  16  28
HETATM   28  O2  UNL     1      -8.248  85.744  17.305  1.00  0.00    -0.387 OA
ATOM     29  H2  UNL     1      -7.336  85.497  17.210  1.00  0.00     0.210 HD
ENDBRANCH  16  28
ENDBRANCH   1  16
BRANCH   8  30
HETATM   30  O3  UNL     1     -10.633  80.991  12.200  1.00  0.00    -0.365 OA
ATOM     31  H3  UNL     1     -10.790  80.284  11.585  1.00  0.00     0.213 HD
ENDBRANCH   8  30
BRANCH   8  32
HETATM   32  C16 UNL     1     -10.030  79.073  13.492  1.00  0.00     0.040 C 
HETATM   33  C17 UNL     1      -8.815  78.531  14.139  1.00  0.00     0.015 C 
HETATM   34  C18 UNL     1     -10.027  78.551  12.045  1.00  0.00     0.015 C 
ENDBRANCH   8  32
TORSDOF 9
ENDMDL
MODEL 3
REMARK VINA RESULT: -7.066553886      2.790      6.448
REMARK  9 active torsions:
REMARK  status: ('A' for Active; 'I' for Inactive)
REMARK    1  A    between atoms: C2_2  and  C24_32 
REMARK    2  A    between atoms: C3_3  and  C4_4 
REMARK    3  A    between atoms: C5_5  and  C6_7 
REMARK    4  A    between atoms: C6_7  and  C7_9 
REMARK    5  A    between atoms: C7_9  and  O2_10 
REMARK    6  A    between atoms: C7_9  and  C8_12 
REMARK    7  A    between atoms: C15_19  and  O3_20 
REMARK    8  A    between atoms: C15_19  and  C16_22 
REMARK    9  A    between atoms: C24_32  and  O5_33 
ROOT
HETATM    1  C8  UNL     1     -10.608  85.054  19.070  1.00  0.00     0.039 C 
HETATM    2  C9  UNL     1     -10.600  86.268  20.038  1.00  0.00     0.017 C 
HETATM    3  C10 UNL     1     -11.506  85.964  21.168  1.00  0.00     0.006 C 
HETATM    4  C11 UNL     1     -12.283  84.763  20.663  1.00  0.00    -0.003 C 
HETATM    5  C12 UNL     1     -13.348  85.305  19.765  1.00  0.00     0.047 C 
HETATM    6  C13 UNL     1     -12.934  85.784  18.445  1.00  0.00     0.106 C 
HETATM    7  C14 UNL     1     -14.048  85.427  17.420  1.00  0.00     0.110 C 
HETATM    8  C15 UNL     1     -14.616  86.814  17.766  1.00  0.00     0.168 C 
HETATM    9  O4  UNL     1     -13.334  87.099  18.180  1.00  0.00    -0.340 OA
HETATM   10  C19 UNL     1     -11.539  85.431  17.980  1.00  0.00     0.142 C 
HETATM   11  C20 UNL     1     -11.063  86.563  17.114  1.00  0.00     0.056 C 
HETATM   12  F1  UNL     1     -11.802  84.377  17.075  1.00  0.00    -0.239 F 
HETATM   13  C21 UNL     1     -11.171  84.012  19.963  1.00  0.00    -0.030 C 
HETATM   14  C22 UNL     1     -10.306  83.522  21.070  1.00  0.00     0.016 C 
HETATM   15  C23 UNL     1     -11.768  82.822  19.283  1.00  0.00     0.016 C 
ENDROOT
BRANCH   1  16
HETATM   16  C7  UNL     1      -9.179  84.934  18.701  1.00  0.00     0.206 C 
BRANCH  16  17
HETATM   17  C6  UNL     1      -8.608  83.709  18.200  1.00  0.00     0.196 C 
HETATM   18  O1  UNL     1      -7.628  83.217  18.894  1.00  0.00    -0.289 OA
BRANCH  17  19
HETATM   19  C5  UNL     1      -8.923  82.911  17.057  1.00  0.00     0.059 C 
HETATM   20  C4  UNL     1      -9.180  81.621  16.972  1.00  0.00     0.023 C 
HETATM   21 BR1  UNL     1      -8.983  83.829  15.342  1.00  0.00    -0.047 Br
BRANCH  20  22
HETATM   22  C3  UNL     1      -9.477  80.974  15.694  1.00  0.00     0.006 C 
HETATM   23  C2  UNL     1      -9.805  79.738  15.493  1.00  0.00    -0.060 C 
HETATM   24  C1  UNL     1     -10.085  79.214  14.099  1.00  0.00     0.045 C 
BRANCH  23  25
HETATM   25  C24 UNL     1      -9.937  78.739  16.564  1.00  0.00     0.198 C 
BRANCH  25  26
HETATM   26  O5  UNL     1      -9.909  77.441  16.042  1.00  0.00    -0.397 OA
ATOM     27  H5  UNL     1      -9.819  76.797  16.736  1.00  0.00     0.209 HD
ENDBRANCH  25  26
ENDBRANCH  23  25
ENDBRANCH  20  22
ENDBRANCH  17  19
ENDBRANCH  16  17
BRANCH  16  28
HETATM   28  O2  UNL     1      -8.360  85.366  19.780  1.00  0.00    -0.387 OA
ATOM     29  H2  UNL     1      -8.685  86.215  20.054  1.00  0.00     0.210 HD
ENDBRANCH  16  28
ENDBRANCH   1  16
BRANCH   8  30
HETATM   30  O3  UNL     1     -15.499  86.779  18.844  1.00  0.00    -0.365 OA
ATOM     31  H3  UNL     1     -15.779  87.645  19.117  1.00  0.00     0.213 HD
ENDBRANCH   8  30
BRANCH   8  32
HETATM   32  C16 UNL     1     -15.192  87.458  16.574  1.00  0.00     0.040 C 
HETATM   33  C17 UNL     1     -15.498  88.905  16.628  1.00  0.00     0.015 C 
HETATM   34  C18 UNL     1     -16.511  86.743  16.236  1.00  0.00     0.015 C 
ENDBRANCH   8  32
TORSDOF 9
ENDMDL
MODEL 4
REMARK VINA RESULT: -7.022792210      5.000      8.267
REMARK  9 active torsions:
REMARK  status: ('A' for Active; 'I' for Inactive)
REMARK    1  A    between atoms: C2_2  and  C24_32 
REMARK    2  A    between atoms: C3_3  and  C4_4 
REMARK    3  A    between atoms: C5_5  and  C6_7 
REMARK    4  A    between atoms: C6_7  and  C7_9 
REMARK    5  A    between atoms: C7_9  and  O2_10 
REMARK    6  A    between atoms: C7_9  and  C8_12 
REMARK    7  A    between atoms: C15_19  and  O3_20 
REMARK    8  A    between atoms: C15_19  and  C16_22 
REMARK    9  A    between atoms: C24_32  and  O5_33 
ROOT
HETATM    1  C8  UNL     1      -8.780  80.290  11.558  1.00  0.00     0.039 C 
HETATM    2  C9  UNL     1      -9.365  79.404  10.425  1.00  0.00     0.017 C 
HETATM    3  C10 UNL     1      -8.734  78.068  10.511  1.00  0.00     0.006 C 
HETATM    4  C11 UNL     1      -7.560  78.308  11.440  1.00  0.00    -0.003 C 
HETATM    5  C12 UNL     1      -6.485  78.921  10.600  1.00  0.00     0.047 C 
HETATM    6  C13 UNL     1      -6.657  80.321  10.208  1.00  0.00     0.106 C 
HETATM    7  C14 UNL     1      -5.262  81.009  10.216  1.00  0.00     0.110 C 
HETATM    8  C15 UNL     1      -5.198  80.583   8.740  1.00  0.00     0.168 C 
HETATM    9  O4  UNL     1      -6.571  80.525   8.826  1.00  0.00    -0.340 OA
HETATM   10  C19 UNL     1      -7.736  81.116  10.908  1.00  0.00     0.142 C 
HETATM   11  C20 UNL     1      -8.258  82.119   9.919  1.00  0.00     0.056 C 
HETATM   12  F1  UNL     1      -6.974  81.881  11.822  1.00  0.00    -0.239 F 
HETATM   13  C21 UNL     1      -8.209  79.241  12.439  1.00  0.00    -0.030 C 
HETATM   14  C22 UNL     1      -9.166  78.376  13.181  1.00  0.00     0.016 C 
HETATM   15  C23 UNL     1      -7.159  79.697  13.401  1.00  0.00     0.016 C 
ENDROOT
BRANCH   1  16
HETATM   16  C7  UNL     1      -9.978  81.009  12.048  1.00  0.00     0.206 C 
BRANCH  16  17
HETATM   17  C6  UNL     1      -9.978  81.774  13.269  1.00  0.00     0.196 C 
HETATM   18  O1  UNL     1     -10.817  81.386  14.180  1.00  0.00    -0.289 OA
BRANCH  17  19
HETATM   19  C5  UNL     1      -9.210  82.907  13.681  1.00  0.00     0.059 C 
HETATM   20  C4  UNL     1      -9.058  84.082  13.101  1.00  0.00     0.023 C 
HETATM   21 BR1  UNL     1      -8.210  82.725  15.340  1.00  0.00    -0.047 Br
BRANCH  20  22
HETATM   22  C3  UNL     1      -8.212  85.126  13.679  1.00  0.00     0.006 C 
HETATM   23  C2  UNL     1      -7.209  85.724  13.124  1.00  0.00    -0.060 C 
HETATM   24  C1  UNL     1      -6.425  86.794  13.857  1.00  0.00     0.045 C 
BRANCH  23  25
HETATM   25  C24 UNL     1      -6.734  85.440  11.762  1.00  0.00     0.198 C 
BRANCH  25  26
HETATM   26  O5  UNL     1      -5.732  86.341  11.383  1.00  0.00    -0.397 OA
ATOM     27  H5  UNL     1      -5.693  86.427  10.437  1.00  0.00     0.209 HD
ENDBRANCH  25  26
ENDBRANCH  23  25
ENDBRANCH  20  22
ENDBRANCH  17  19
ENDBRANCH  16  17
BRANCH  16  28
HETATM   28  O2  UNL     1     -11.087  80.121  12.111  1.00  0.00    -0.387 OA
ATOM     29  H2  UNL     1     -10.772  79.309  12.489  1.00  0.00     0.210 HD
ENDBRANCH  16  28
ENDBRANCH   1  16
BRANCH   8  30
HETATM   30  O3  UNL     1      -4.648  79.313   8.571  1.00  0.00    -0.365 OA
ATOM     31  H3  UNL     1      -3.748  79.341   8.270  1.00  0.00     0.213 HD
ENDBRANCH   8  30
BRANCH   8  32
HETATM   32  C16 UNL     1      -4.529  81.610   7.925  1.00  0.00     0.040 C 
HETATM   33  C17 UNL     1      -5.097  81.945   6.600  1.00  0.00     0.015 C 
HETATM   34  C18 UNL     1      -3.080  81.155   7.680  1.00  0.00     0.015 C 
ENDBRANCH   8  32
TORSDOF 9
ENDMDL
MODEL 5
REMARK VINA RESULT: -7.011687156      4.662      8.054
REMARK  9 active torsions:
REMARK  status: ('A' for Active; 'I' for Inactive)
REMARK    1  A    between atoms: C2_2  and  C24_32 
REMARK    2  A    between atoms: C3_3  and  C4_4 
REMARK    3  A    between atoms: C5_5  and  C6_7 
REMARK    4  A    between atoms: C6_7  and  C7_9 
REMARK    5  A    between atoms: C7_9  and  O2_10 
REMARK    6  A    between atoms: C7_9  and  C8_12 
REMARK    7  A    between atoms: C15_19  and  O3_20 
REMARK    8  A    between atoms: C15_19  and  C16_22 
REMARK    9  A    between atoms: C24_32  and  O5_33 
ROOT
HETATM    1  C8  UNL     1      -8.593  80.128  11.290  1.00  0.00     0.039 C 
HETATM    2  C9  UNL     1      -8.617  78.820  10.453  1.00  0.00     0.017 C 
HETATM    3  C10 UNL     1      -7.578  77.911  10.986  1.00  0.00     0.006 C 
HETATM    4  C11 UNL     1      -6.748  78.827  11.865  1.00  0.00    -0.003 C 
HETATM    5  C12 UNL     1      -5.833  79.568  10.943  1.00  0.00     0.047 C 
HETATM    6  C13 UNL     1      -6.420  80.632  10.128  1.00  0.00     0.106 C 
HETATM    7  C14 UNL     1      -5.385  81.788  10.007  1.00  0.00     0.110 C 
HETATM    8  C15 UNL     1      -4.917  81.050   8.742  1.00  0.00     0.168 C 
HETATM    9  O4  UNL     1      -6.172  80.483   8.758  1.00  0.00    -0.340 OA
HETATM   10  C19 UNL     1      -7.815  81.095  10.481  1.00  0.00     0.142 C 
HETATM   11  C20 UNL     1      -8.479  81.515   9.200  1.00  0.00     0.056 C 
HETATM   12  F1  UNL     1      -7.547  82.307  11.157  1.00  0.00    -0.239 F 
HETATM   13  C21 UNL     1      -7.850  79.658  12.485  1.00  0.00    -0.030 C 
HETATM   14  C22 UNL     1      -8.551  78.715  13.398  1.00  0.00     0.016 C 
HETATM   15  C23 UNL     1      -7.216  80.724  13.320  1.00  0.00     0.016 C 
ENDROOT
BRANCH   1  16
HETATM   16  C7  UNL     1     -10.035  80.422  11.459  1.00  0.00     0.206 C 
BRANCH  16  17
HETATM   17  C6  UNL     1     -10.614  80.756  12.736  1.00  0.00     0.196 C 
HETATM   18  O1  UNL     1     -11.223  79.790  13.351  1.00  0.00    -0.289 OA
BRANCH  17  19
HETATM   19  C5  UNL     1     -10.645  81.980  13.475  1.00  0.00     0.059 C 
HETATM   20  C4  UNL     1      -9.992  83.107  13.269  1.00  0.00     0.023 C 
HETATM   21 BR1  UNL     1     -11.806  82.028  15.034  1.00  0.00    -0.047 Br
BRANCH  20  22
HETATM   22  C3  UNL     1     -10.150  84.264  14.151  1.00  0.00     0.006 C 
HETATM   23  C2  UNL     1      -9.692  85.460  13.972  1.00  0.00    -0.060 C 
HETATM   24  C1  UNL     1      -9.942  86.560  14.984  1.00  0.00     0.045 C 
BRANCH  23  25
HETATM   25  C24 UNL     1      -8.901  85.871  12.802  1.00  0.00     0.198 C 
BRANCH  25  26
HETATM   26  O5  UNL     1      -9.154  87.206  12.471  1.00  0.00    -0.397 OA
ATOM     27  H5  UNL     1      -8.612  87.793  12.988  1.00  0.00     0.209 HD
ENDBRANCH  25  26
ENDBRANCH  23  25
ENDBRANCH  20  22
ENDBRANCH  17  19
ENDBRANCH  16  17
BRANCH  16  28
HETATM   28  O2  UNL     1     -10.815  79.367  10.911  1.00  0.00    -0.387 OA
ATOM     29  H2  UNL     1     -10.372  79.074  10.123  1.00  0.00     0.210 HD
ENDBRANCH  16  28
ENDBRANCH   1  16
BRANCH   8  30
HETATM   30  O3  UNL     1      -3.931  80.100   9.008  1.00  0.00    -0.365 OA
ATOM     31  H3  UNL     1      -3.929  79.819   9.915  1.00  0.00     0.213 HD
ENDBRANCH   8  30
BRANCH   8  32
HETATM   32  C16 UNL     1      -4.526  82.003   7.691  1.00  0.00     0.040 C 
HETATM   33  C17 UNL     1      -5.239  81.962   6.395  1.00  0.00     0.015 C 
HETATM   34  C18 UNL     1      -3.036  81.784   7.380  1.00  0.00     0.015 C 
ENDBRANCH   8  32
TORSDOF 9
ENDMDL
