MODEL 1
REMARK VINA RESULT: -8.247781956      0.000      0.000
REMARK  9 active torsions:
REMARK  status: ('A' for Active; 'I' for Inactive)
REMARK    1  A    between atoms: O1_2  and  C2_3 
REMARK    2  A    between atoms: C2_3  and  C3_4 
REMARK    3  A    between atoms: C5_6  and  C6_7 
REMARK    4  A    between atoms: C8_9  and  O2_10 
REMARK    5  A    between atoms: C10_12  and  N1_13 
REMARK    6  A    between atoms: N1_13  and  C11_14 
REMARK    7  A    between atoms: C12_17  and  N3_18 
REMARK    8  A    between atoms: N3_18  and  C13_19 
REMARK    9  A    between atoms: C20_31  and  O3_32 
ROOT
HETATM    1  C6  UNL     1     -10.177  80.200  13.202  1.00  0.00    -0.025 A 
HETATM    2  C7  UNL     1     -10.542  81.460  12.915  1.00  0.00     0.049 A 
HETATM    3  C8  UNL     1     -11.044  82.303  13.852  1.00  0.00     0.112 A 
HETATM    4  C10 UNL     1     -11.232  81.921  15.225  1.00  0.00     0.179 A 
HETATM    5  C20 UNL     1     -10.840  80.616  15.495  1.00  0.00     0.132 A 
HETATM    6  C21 UNL     1     -10.325  79.772  14.514  1.00  0.00     0.077 A 
HETATM    7 CL2  UNL     1      -9.875  78.139  14.934  1.00  0.00    -0.081 Cl
ENDROOT
BRANCH   4   8
HETATM    8  N1  UNL     1     -11.777  82.758  16.039  1.00  0.00    -0.365 NA
BRANCH   8   9
HETATM    9  C11 UNL     1     -12.538  83.634  16.480  1.00  0.00     0.263 A 
HETATM   10  N2  UNL     1     -12.436  84.259  17.654  1.00  0.00    -0.290 N 
HETATM   11  C12 UNL     1     -13.334  85.246  18.071  1.00  0.00     0.192 A 
ATOM     12  H2  UNL     1     -11.668  84.005  18.276  1.00  0.00     0.172 HD
HETATM   13  C16 UNL     1     -14.394  85.581  17.201  1.00  0.00     0.089 A 
HETATM   14  C17 UNL     1     -15.413  86.490  17.320  1.00  0.00     0.068 A 
HETATM   15  C19 UNL     1     -14.473  84.925  16.006  1.00  0.00     0.125 A 
HETATM   16 CL1  UNL     1     -15.825  87.615  18.589  1.00  0.00    -0.082 Cl
HETATM   17  C18 UNL     1     -16.140  86.356  16.110  1.00  0.00     0.114 A 
HETATM   18  N4  UNL     1     -15.569  85.431  15.359  1.00  0.00    -0.350 N 
ATOM     19  H4  UNL     1     -15.894  85.139  14.437  1.00  0.00     0.166 HD
HETATM   20  N5  UNL     1     -13.594  84.001  15.666  1.00  0.00    -0.301 N 
ATOM     21  H5  UNL     1     -13.697  83.539  14.764  1.00  0.00     0.171 HD
BRANCH  11  22
HETATM   22  N3  UNL     1     -13.177  85.832  19.090  1.00  0.00    -0.425 NA
BRANCH  22  23
HETATM   23  C13 UNL     1     -12.971  86.457  20.245  1.00  0.00     0.157 C 
HETATM   24  C14 UNL     1     -11.519  86.241  20.804  1.00  0.00     0.047 C 
HETATM   25  C15 UNL     1     -13.893  86.138  21.450  1.00  0.00     0.047 C 
ENDBRANCH  22  23
ENDBRANCH  11  22
ENDBRANCH   8   9
ENDBRANCH   4   8
BRANCH   3  26
HETATM   26  O2  UNL     1     -11.422  83.605  13.598  1.00  0.00    -0.352 OA
HETATM   27  C9  UNL     1     -10.415  84.624  13.557  1.00  0.00     0.210 C 
ENDBRANCH   3  26
BRANCH   5  28
HETATM   28  O3  UNL     1     -10.966  80.119  16.789  1.00  0.00    -0.356 OA
ATOM     29  H3  UNL     1     -10.957  80.723  17.523  1.00  0.00     0.218 HD
ENDBRANCH   5  28
BRANCH   1  30
HETATM   30  C5  UNL     1      -9.606  79.274  12.223  1.00  0.00     0.051 C 
HETATM   31  C4  UNL     1     -10.544  78.986  11.060  1.00  0.00     0.049 C 
HETATM   32  C3  UNL     1      -9.568  78.542   9.997  1.00  0.00     0.246 C 
HETATM   33  N6  UNL     1      -8.264  78.943  10.349  1.00  0.00     0.091 N 
HETATM   34  C22 UNL     1      -8.503  79.987  11.380  1.00  0.00     0.282 C 
HETATM   35  C23 UNL     1      -7.414  77.983  11.002  1.00  0.00     0.310 C 
BRANCH  32  36
HETATM   36  C2  UNL     1      -9.840  77.190   9.476  1.00  0.00     0.202 C 
BRANCH  36  37
HETATM   37  O1  UNL     1      -9.738  76.972   8.145  1.00  0.00    -0.394 OA
HETATM   38  C1  UNL     1     -10.669  76.307   7.451  1.00  0.00     0.201 C 
ENDBRANCH  36  37
ENDBRANCH  32  36
ENDBRANCH   1  30
TORSDOF 9
ENDMDL
MODEL 2
REMARK VINA RESULT: -8.216991580      0.874      2.641
REMARK  9 active torsions:
REMARK  status: ('A' for Active; 'I' for Inactive)
REMARK    1  A    between atoms: O1_2  and  C2_3 
REMARK    2  A    between atoms: C2_3  and  C3_4 
REMARK    3  A    between atoms: C5_6  and  C6_7 
REMARK    4  A    between atoms: C8_9  and  O2_10 
REMARK    5  A    between atoms: C10_12  and  N1_13 
REMARK    6  A    between atoms: N1_13  and  C11_14 
REMARK    7  A    between atoms: C12_17  and  N3_18 
REMARK    8  A    between atoms: N3_18  and  C13_19 
REMARK    9  A    between atoms: C20_31  and  O3_32 
ROOT
HETATM    1  C6  UNL     1     -10.091  80.261  13.519  1.00  0.00    -0.025 A 
HETATM    2  C7  UNL     1     -10.435  81.548  13.345  1.00  0.00     0.049 A 
HETATM    3  C8  UNL     1     -10.873  82.328  14.365  1.00  0.00     0.112 A 
HETATM    4  C10 UNL     1     -11.010  81.846  15.713  1.00  0.00     0.179 A 
HETATM    5  C20 UNL     1     -10.641  80.517  15.866  1.00  0.00     0.132 A 
HETATM    6  C21 UNL     1     -10.192  79.738  14.801  1.00  0.00     0.077 A 
HETATM    7 CL2  UNL     1      -9.767  78.068  15.076  1.00  0.00    -0.081 Cl
ENDROOT
BRANCH   4   8
HETATM    8  N1  UNL     1     -11.495  82.631  16.612  1.00  0.00    -0.365 NA
BRANCH   8   9
HETATM    9  C11 UNL     1     -12.053  83.611  17.131  1.00  0.00     0.263 A 
HETATM   10  N2  UNL     1     -13.163  84.214  16.701  1.00  0.00    -0.290 N 
HETATM   11  C12 UNL     1     -13.735  85.311  17.353  1.00  0.00     0.192 A 
ATOM     12  H2  UNL     1     -13.615  83.859  15.858  1.00  0.00     0.172 HD
HETATM   13  C16 UNL     1     -13.093  85.793  18.514  1.00  0.00     0.089 A 
HETATM   14  C17 UNL     1     -13.403  86.827  19.358  1.00  0.00     0.068 A 
HETATM   15  C19 UNL     1     -11.959  85.157  18.931  1.00  0.00     0.125 A 
HETATM   16 CL1  UNL     1     -14.718  87.975  19.358  1.00  0.00    -0.082 Cl
HETATM   17  C18 UNL     1     -12.378  86.794  20.337  1.00  0.00     0.114 A 
HETATM   18  N4  UNL     1     -11.544  85.806  20.062  1.00  0.00    -0.350 N 
ATOM     19  H4  UNL     1     -10.718  85.564  20.610  1.00  0.00     0.166 HD
HETATM   20  N5  UNL     1     -11.467  84.124  18.273  1.00  0.00    -0.301 N 
ATOM     21  H5  UNL     1     -10.617  83.684  18.623  1.00  0.00     0.171 HD
BRANCH  11  22
HETATM   22  N3  UNL     1     -14.759  85.782  16.985  1.00  0.00    -0.425 NA
BRANCH  22  23
HETATM   23  C13 UNL     1     -15.924  86.268  16.571  1.00  0.00     0.157 C 
HETATM   24  C14 UNL     1     -16.561  85.421  15.411  1.00  0.00     0.047 C 
HETATM   25  C15 UNL     1     -15.991  87.729  16.054  1.00  0.00     0.047 C 
ENDBRANCH  22  23
ENDBRANCH  11  22
ENDBRANCH   8   9
ENDBRANCH   4   8
BRANCH   3  26
HETATM   26  O2  UNL     1     -11.227  83.654  14.228  1.00  0.00    -0.352 OA
HETATM   27  C9  UNL     1     -10.230  84.599  13.819  1.00  0.00     0.210 C 
ENDBRANCH   3  26
BRANCH   5  28
HETATM   28  O3  UNL     1     -10.722  79.925  17.123  1.00  0.00    -0.356 OA
ATOM     29  H3  UNL     1     -10.974  79.011  17.193  1.00  0.00     0.218 HD
ENDBRANCH   5  28
BRANCH   1  30
HETATM   30  C5  UNL     1      -9.589  79.399  12.448  1.00  0.00     0.051 C 
HETATM   31  C4  UNL     1     -10.643  79.084  11.397  1.00  0.00     0.049 C 
HETATM   32  C3  UNL     1      -9.778  78.731  10.210  1.00  0.00     0.246 C 
HETATM   33  N6  UNL     1      -8.467  79.205  10.417  1.00  0.00     0.091 N 
HETATM   34  C22 UNL     1      -8.641  80.204  11.504  1.00  0.00     0.282 C 
HETATM   35  C23 UNL     1      -7.488  78.284  10.931  1.00  0.00     0.310 C 
BRANCH  32  36
HETATM   36  C2  UNL     1     -10.029  77.380   9.679  1.00  0.00     0.202 C 
BRANCH  36  37
HETATM   37  O1  UNL     1      -9.799  77.141   8.368  1.00  0.00    -0.394 OA
HETATM   38  C1  UNL     1     -10.613  76.387   7.619  1.00  0.00     0.201 C 
ENDBRANCH  36  37
ENDBRANCH  32  36
ENDBRANCH   1  30
TORSDOF 9
ENDMDL
MODEL 3
REMARK VINA RESULT: -7.926865270      1.639      2.054
REMARK  9 active torsions:
REMARK  status: ('A' for Active; 'I' for Inactive)
REMARK    1  A    between atoms: O1_2  and  C2_3 
REMARK    2  A    between atoms: C2_3  and  C3_4 
REMARK    3  A    between atoms: C5_6  and  C6_7 
REMARK    4  A    between atoms: C8_9  and  O2_10 
REMARK    5  A    between atoms: C10_12  and  N1_13 
REMARK    6  A    between atoms: N1_13  and  C11_14 
REMARK    7  A    between atoms: C12_17  and  N3_18 
REMARK    8  A    between atoms: N3_18  and  C13_19 
REMARK    9  A    between atoms: C20_31  and  O3_32 
ROOT
HETATM    1  C6  UNL     1      -9.910  80.704  13.127  1.00  0.00    -0.025 A 
HETATM    2  C7  UNL     1     -10.059  82.000  12.810  1.00  0.00     0.049 A 
HETATM    3  C8  UNL     1     -10.499  82.921  13.705  1.00  0.00     0.112 A 
HETATM    4  C10 UNL     1     -10.844  82.590  15.060  1.00  0.00     0.179 A 
HETATM    5  C20 UNL     1     -10.672  81.246  15.362  1.00  0.00     0.132 A 
HETATM    6  C21 UNL     1     -10.217  80.321  14.425  1.00  0.00     0.077 A 
HETATM    7 CL2  UNL     1     -10.050  78.645  14.882  1.00  0.00    -0.081 Cl
ENDROOT
BRANCH   4   8
HETATM    8  N1  UNL     1     -11.316  83.510  15.829  1.00  0.00    -0.365 NA
BRANCH   8   9
HETATM    9  C11 UNL     1     -11.835  84.057  16.814  1.00  0.00     0.263 A 
HETATM   10  N2  UNL     1     -12.230  83.460  17.940  1.00  0.00    -0.290 N 
HETATM   11  C12 UNL     1     -12.798  84.155  19.012  1.00  0.00     0.192 A 
ATOM     12  H2  UNL     1     -12.111  82.450  18.023  1.00  0.00     0.172 HD
HETATM   13  C16 UNL     1     -12.960  85.551  18.878  1.00  0.00     0.089 A 
HETATM   14  C17 UNL     1     -13.472  86.490  19.735  1.00  0.00     0.068 A 
HETATM   15  C19 UNL     1     -12.548  86.136  17.715  1.00  0.00     0.125 A 
HETATM   16 CL1  UNL     1     -14.131  86.360  21.346  1.00  0.00    -0.082 Cl
HETATM   17  C18 UNL     1     -13.352  87.711  19.022  1.00  0.00     0.114 A 
HETATM   18  N4  UNL     1     -12.808  87.474  17.841  1.00  0.00    -0.350 N 
ATOM     19  H4  UNL     1     -12.612  88.180  17.132  1.00  0.00     0.166 HD
HETATM   20  N5  UNL     1     -12.017  85.426  16.737  1.00  0.00    -0.301 N 
ATOM     21  H5  UNL     1     -11.726  85.909  15.888  1.00  0.00     0.171 HD
BRANCH  11  22
HETATM   22  N3  UNL     1     -13.075  83.606  20.026  1.00  0.00    -0.425 NA
BRANCH  22  23
HETATM   23  C13 UNL     1     -13.376  82.951  21.142  1.00  0.00     0.157 C 
HETATM   24  C14 UNL     1     -13.018  81.423  21.068  1.00  0.00     0.047 C 
HETATM   25  C15 UNL     1     -14.838  82.974  21.660  1.00  0.00     0.047 C 
ENDBRANCH  22  23
ENDBRANCH  11  22
ENDBRANCH   8   9
ENDBRANCH   4   8
BRANCH   3  26
HETATM   26  O2  UNL     1     -10.658  84.262  13.419  1.00  0.00    -0.352 OA
HETATM   27  C9  UNL     1      -9.496  85.096  13.342  1.00  0.00     0.210 C 
ENDBRANCH   3  26
BRANCH   5  28
HETATM   28  O3  UNL     1     -10.967  80.791  16.644  1.00  0.00    -0.356 OA
ATOM     29  H3  UNL     1     -10.859  79.868  16.848  1.00  0.00     0.218 HD
ENDBRANCH   5  28
BRANCH   1  30
HETATM   30  C5  UNL     1      -9.412  79.689  12.196  1.00  0.00     0.051 C 
HETATM   31  C4  UNL     1     -10.421  79.330  11.115  1.00  0.00     0.049 C 
HETATM   32  C3  UNL     1      -9.516  78.781  10.039  1.00  0.00     0.246 C 
HETATM   33  N6  UNL     1      -8.186  79.180  10.283  1.00  0.00     0.091 N 
HETATM   34  C22 UNL     1      -8.348  80.309  11.237  1.00  0.00     0.282 C 
HETATM   35  C23 UNL     1      -7.317  78.257  10.964  1.00  0.00     0.310 C 
BRANCH  32  36
HETATM   36  C2  UNL     1      -9.840  77.398   9.645  1.00  0.00     0.202 C 
BRANCH  36  37
HETATM   37  O1  UNL     1      -9.782  77.062   8.336  1.00  0.00    -0.394 OA
HETATM   38  C1  UNL     1     -10.765  76.393   7.720  1.00  0.00     0.201 C 
ENDBRANCH  36  37
ENDBRANCH  32  36
ENDBRANCH   1  30
TORSDOF 9
ENDMDL
MODEL 4
REMARK VINA RESULT: -7.811671002      2.647      3.295
REMARK  9 active torsions:
REMARK  status: ('A' for Active; 'I' for Inactive)
REMARK    1  A    between atoms: O1_2  and  C2_3 
REMARK    2  A    between atoms: C2_3  and  C3_4 
REMARK    3  A    between atoms: C5_6  and  C6_7 
REMARK    4  A    between atoms: C8_9  and  O2_10 
REMARK    5  A    between atoms: C10_12  and  N1_13 
REMARK    6  A    between atoms: N1_13  and  C11_14 
REMARK    7  A    between atoms: C12_17  and  N3_18 
REMARK    8  A    between atoms: N3_18  and  C13_19 
REMARK    9  A    between atoms: C20_31  and  O3_32 
ROOT
HETATM    1  C6  UNL     1      -9.267  82.205  12.462  1.00  0.00    -0.025 A 
HETATM    2  C7  UNL     1      -9.006  83.451  12.891  1.00  0.00     0.049 A 
HETATM    3  C8  UNL     1      -9.729  84.050  13.870  1.00  0.00     0.112 A 
HETATM    4  C10 UNL     1     -10.834  83.408  14.528  1.00  0.00     0.179 A 
HETATM    5  C20 UNL     1     -11.077  82.120  14.072  1.00  0.00     0.132 A 
HETATM    6  C21 UNL     1     -10.317  81.527  13.066  1.00  0.00     0.077 A 
HETATM    7 CL2  UNL     1     -10.703  79.909  12.537  1.00  0.00    -0.081 Cl
ENDROOT
BRANCH   4   8
HETATM    8  N1  UNL     1     -11.512  84.069  15.403  1.00  0.00    -0.365 NA
BRANCH   8   9
HETATM    9  C11 UNL     1     -11.959  84.438  16.500  1.00  0.00     0.263 A 
HETATM   10  N2  UNL     1     -12.098  83.688  17.595  1.00  0.00    -0.290 N 
HETATM   11  C12 UNL     1     -12.603  84.187  18.799  1.00  0.00     0.192 A 
ATOM     12  H2  UNL     1     -11.824  82.707  17.551  1.00  0.00     0.172 HD
HETATM   13  C16 UNL     1     -12.983  85.546  18.841  1.00  0.00     0.089 A 
HETATM   14  C17 UNL     1     -13.498  86.313  19.853  1.00  0.00     0.068 A 
HETATM   15  C19 UNL     1     -12.830  86.289  17.706  1.00  0.00     0.125 A 
HETATM   16 CL1  UNL     1     -13.895  85.939  21.511  1.00  0.00    -0.082 Cl
HETATM   17  C18 UNL     1     -13.659  87.595  19.268  1.00  0.00     0.114 A 
HETATM   18  N4  UNL     1     -13.260  87.553  18.009  1.00  0.00    -0.350 N 
ATOM     19  H4  UNL     1     -13.271  88.341  17.362  1.00  0.00     0.166 HD
HETATM   20  N5  UNL     1     -12.346  85.762  16.596  1.00  0.00    -0.301 N 
ATOM     21  H5  UNL     1     -12.252  86.358  15.774  1.00  0.00     0.171 HD
BRANCH  11  22
HETATM   22  N3  UNL     1     -12.650  83.513  19.774  1.00  0.00    -0.425 NA
BRANCH  22  23
HETATM   23  C13 UNL     1     -12.670  82.734  20.850  1.00  0.00     0.157 C 
HETATM   24  C14 UNL     1     -11.708  81.498  20.725  1.00  0.00     0.047 C 
HETATM   25  C15 UNL     1     -14.018  82.120  21.313  1.00  0.00     0.047 C 
ENDBRANCH  22  23
ENDBRANCH  11  22
ENDBRANCH   8   9
ENDBRANCH   4   8
BRANCH   3  26
HETATM   26  O2  UNL     1      -9.486  85.324  14.341  1.00  0.00    -0.352 OA
HETATM   27  C9  UNL     1      -9.354  86.397  13.401  1.00  0.00     0.210 C 
ENDBRANCH   3  26
BRANCH   5  28
HETATM   28  O3  UNL     1     -12.118  81.383  14.629  1.00  0.00    -0.356 OA
ATOM     29  H3  UNL     1     -11.946  80.823  15.377  1.00  0.00     0.218 HD
ENDBRANCH   5  28
BRANCH   1  30
HETATM   30  C5  UNL     1      -8.491  81.519  11.429  1.00  0.00     0.051 C 
HETATM   31  C4  UNL     1      -8.154  82.415  10.246  1.00  0.00     0.049 C 
HETATM   32  C3  UNL     1      -6.946  81.710   9.678  1.00  0.00     0.246 C 
HETATM   33  N6  UNL     1      -6.414  80.824  10.637  1.00  0.00     0.091 N 
HETATM   34  C22 UNL     1      -7.020  81.306  11.906  1.00  0.00     0.282 C 
HETATM   35  C23 UNL     1      -6.793  79.439  10.561  1.00  0.00     0.310 C 
BRANCH  32  36
HETATM   36  C2  UNL     1      -7.107  81.307   8.270  1.00  0.00     0.202 C 
BRANCH  36  37
HETATM   37  O1  UNL     1      -6.008  80.968   7.558  1.00  0.00    -0.394 OA
HETATM   38  C1  UNL     1      -5.503  81.751   6.597  1.00  0.00     0.201 C 
ENDBRANCH  36  37
ENDBRANCH  32  36
ENDBRANCH   1  30
TORSDOF 9
ENDMDL
MODEL 5
REMARK VINA RESULT: -7.671486134      2.477      2.866
REMARK  9 active torsions:
REMARK  status: ('A' for Active; 'I' for Inactive)
REMARK    1  A    between atoms: O1_2  and  C2_3 
REMARK    2  A    between atoms: C2_3  and  C3_4 
REMARK    3  A    between atoms: C5_6  and  C6_7 
REMARK    4  A    between atoms: C8_9  and  O2_10 
REMARK    5  A    between atoms: C10_12  and  N1_13 
REMARK    6  A    between atoms: N1_13  and  C11_14 
REMARK    7  A    between atoms: C12_17  and  N3_18 
REMARK    8  A    between atoms: N3_18  and  C13_19 
REMARK    9  A    between atoms: C20_31  and  O3_32 
ROOT
HETATM    1  C6  UNL     1      -9.058  81.739  12.001  1.00  0.00    -0.025 A 
HETATM    2  C7  UNL     1      -8.848  82.768  12.838  1.00  0.00     0.049 A 
HETATM    3  C8  UNL     1      -9.756  83.141  13.775  1.00  0.00     0.112 A 
HETATM    4  C10 UNL     1     -11.017  82.472  13.949  1.00  0.00     0.179 A 
HETATM    5  C20 UNL     1     -11.204  81.409  13.077  1.00  0.00     0.132 A 
HETATM    6  C21 UNL     1     -10.254  81.045  12.125  1.00  0.00     0.077 A 
HETATM    7 CL2  UNL     1     -10.578  79.707  11.054  1.00  0.00    -0.081 Cl
ENDROOT
BRANCH   4   8
HETATM    8  N1  UNL     1     -11.853  82.929  14.816  1.00  0.00    -0.365 NA
BRANCH   8   9
HETATM    9  C11 UNL     1     -12.605  83.715  15.414  1.00  0.00     0.263 A 
HETATM   10  N2  UNL     1     -12.354  84.333  16.569  1.00  0.00    -0.290 N 
HETATM   11  C12 UNL     1     -13.256  85.216  17.172  1.00  0.00     0.192 A 
ATOM     12  H2  UNL     1     -11.464  84.154  17.034  1.00  0.00     0.172 HD
HETATM   13  C16 UNL     1     -14.485  85.448  16.518  1.00  0.00     0.089 A 
HETATM   14  C17 UNL     1     -15.552  86.243  16.848  1.00  0.00     0.068 A 
HETATM   15  C19 UNL     1     -14.715  84.802  15.337  1.00  0.00     0.125 A 
HETATM   16 CL1  UNL     1     -15.837  87.303  18.204  1.00  0.00    -0.082 Cl
HETATM   17  C18 UNL     1     -16.471  86.048  15.785  1.00  0.00     0.114 A 
HETATM   18  N4  UNL     1     -15.956  85.197  14.914  1.00  0.00    -0.350 N 
ATOM     19  H4  UNL     1     -16.413  84.884  14.058  1.00  0.00     0.166 HD
HETATM   20  N5  UNL     1     -13.824  83.979  14.816  1.00  0.00    -0.301 N 
ATOM     21  H5  UNL     1     -14.043  83.519  13.933  1.00  0.00     0.171 HD
BRANCH  11  22
HETATM   22  N3  UNL     1     -12.976  85.802  18.164  1.00  0.00    -0.425 NA
BRANCH  22  23
HETATM   23  C13 UNL     1     -12.621  86.439  19.274  1.00  0.00     0.157 C 
HETATM   24  C14 UNL     1     -11.103  86.243  19.632  1.00  0.00     0.047 C 
HETATM   25  C15 UNL     1     -13.366  86.122  20.597  1.00  0.00     0.047 C 
ENDBRANCH  22  23
ENDBRANCH  11  22
ENDBRANCH   8   9
ENDBRANCH   4   8
BRANCH   3  26
HETATM   26  O2  UNL     1      -9.573  84.186  14.656  1.00  0.00    -0.352 OA
HETATM   27  C9  UNL     1      -9.486  85.520  14.140  1.00  0.00     0.210 C 
ENDBRANCH   3  26
BRANCH   5  28
HETATM   28  O3  UNL     1     -12.384  80.673  13.141  1.00  0.00    -0.356 OA
ATOM     29  H3  UNL     1     -13.208  81.093  12.923  1.00  0.00     0.218 HD
ENDBRANCH   5  28
BRANCH   1  30
HETATM   30  C5  UNL     1      -8.089  81.292  10.999  1.00  0.00     0.051 C 
HETATM   31  C4  UNL     1      -8.108  82.140   9.736  1.00  0.00     0.049 C 
HETATM   32  C3  UNL     1      -6.729  81.874   9.182  1.00  0.00     0.246 C 
HETATM   33  N6  UNL     1      -5.906  81.332  10.191  1.00  0.00     0.091 N 
HETATM   34  C22 UNL     1      -6.640  81.672  11.438  1.00  0.00     0.282 C 
HETATM   35  C23 UNL     1      -5.753  79.903  10.243  1.00  0.00     0.310 C 
BRANCH  32  36
HETATM   36  C2  UNL     1      -6.738  81.316   7.819  1.00  0.00     0.202 C 
BRANCH  36  37
HETATM   37  O1  UNL     1      -5.621  81.420   7.063  1.00  0.00    -0.394 OA
HETATM   38  C1  UNL     1      -5.599  82.075   5.897  1.00  0.00     0.201 C 
ENDBRANCH  36  37
ENDBRANCH  32  36
ENDBRANCH   1  30
TORSDOF 9
ENDMDL
