MODEL 1
REMARK VINA RESULT: -7.588409094      0.000      0.000
REMARK  7 active torsions:
REMARK  status: ('A' for Active; 'I' for Inactive)
REMARK    1  A    between atoms: C2_2  and  C4_4 
REMARK    2  A    between atoms: C4_4  and  N1_5 
REMARK    3  A    between atoms: N1_5  and  S1_7 
REMARK    4  A    between atoms: S1_7  and  C5_10 
REMARK    5  A    between atoms: C18_26  and  O5_27 
REMARK    6  A    between atoms: C19_29  and  O6_30 
REMARK    7  A    between atoms: C20_32  and  C22_34 
ROOT
HETATM    1  C5  UNL     1     125.394 104.925 287.238  1.00  0.00     0.116 A 
HETATM    2  C6  UNL     1     124.966 106.227 287.282  1.00  0.00     0.070 A 
HETATM    3  C7  UNL     1     125.768 107.253 286.801  1.00  0.00     0.118 A 
HETATM    4  F1  UNL     1     125.344 108.548 286.846  1.00  0.00    -0.206 F 
HETATM    5  C8  UNL     1     127.006 106.971 286.274  1.00  0.00     0.053 A 
HETATM    6  C9  UNL     1     127.467 105.672 286.215  1.00  0.00    -0.011 A 
HETATM    7  C10 UNL     1     126.666 104.654 286.694  1.00  0.00     0.099 A 
HETATM    8  O3  UNL     1     127.197 103.390 286.601  1.00  0.00    -0.348 OA
HETATM    9  C11 UNL     1     128.565 103.199 286.938  1.00  0.00     0.182 C 
HETATM   10  C12 UNL     1     129.487 104.193 286.270  1.00  0.00     0.035 C 
HETATM   11  C13 UNL     1     128.795 105.336 285.629  1.00  0.00    -0.005 C 
HETATM   12  C14 UNL     1     128.417 105.037 284.151  1.00  0.00     0.021 C 
HETATM   13  C15 UNL     1     129.586 106.605 285.537  1.00  0.00     0.049 C 
HETATM   14  C16 UNL     1     131.007 106.293 285.345  1.00  0.00     0.160 C 
HETATM   15  O4  UNL     1     131.340 105.380 284.380  1.00  0.00    -0.380 OA
HETATM   16  C17 UNL     1     132.733 105.245 284.603  1.00  0.00     0.203 C 
HETATM   17  C18 UNL     1     132.905 105.272 286.111  1.00  0.00     0.179 C 
HETATM   18  C19 UNL     1     131.542 105.601 286.604  1.00  0.00     0.120 C 
HETATM   19  C20 UNL     1     130.716 104.459 287.074  1.00  0.00     0.015 C 
HETATM   20  C21 UNL     1     131.581 103.182 286.884  1.00  0.00     0.020 C 
ENDROOT
BRANCH   1  21
HETATM   21  S1  UNL     1     124.471 103.546 287.762  1.00  0.00     0.261 S 
HETATM   22  O1  UNL     1     123.109 104.054 288.195  1.00  0.00    -0.200 OA
HETATM   23  O2  UNL     1     125.203 103.009 288.995  1.00  0.00    -0.200 OA
BRANCH  21  24
HETATM   24  N1  UNL     1     124.363 102.270 286.664  1.00  0.00    -0.315 N 
ATOM     25  H1  UNL     1     124.986 101.464 286.712  1.00  0.00     0.172 HD
BRANCH  24  26
HETATM   26  C4  UNL     1     123.356 102.382 285.674  1.00  0.00     0.136 C 
BRANCH  26  27
HETATM   27  C2  UNL     1     124.078 102.461 284.318  1.00  0.00    -0.004 C 
HETATM   28  C1  UNL     1     124.255 103.923 283.963  1.00  0.00     0.011 C 
HETATM   29  C3  UNL     1     123.149 101.825 283.309  1.00  0.00     0.011 C 
ENDBRANCH  26  27
ENDBRANCH  24  26
ENDBRANCH  21  24
ENDBRANCH   1  21
BRANCH  19  30
HETATM   30  C22 UNL     1     130.589 104.511 288.552  1.00  0.00     0.090 C 
HETATM   31  C23 UNL     1     130.347 103.314 289.346  1.00  0.00     0.027 C 
HETATM   32 CL1  UNL     1     129.205 105.626 288.912  1.00  0.00    -0.124 Cl
ENDBRANCH  19  30
BRANCH  18  33
HETATM   33  O6  UNL     1     131.625 106.640 287.553  1.00  0.00    -0.384 OA
ATOM     34  H6  UNL     1     131.768 106.188 288.376  1.00  0.00     0.210 HD
ENDBRANCH  18  33
BRANCH  17  35
HETATM   35  O5  UNL     1     133.758 106.364 286.390  1.00  0.00    -0.390 OA
ATOM     36  H5  UNL     1     134.084 106.226 287.271  1.00  0.00     0.210 HD
ENDBRANCH  17  35
TORSDOF 7
ENDMDL
MODEL 2
REMARK VINA RESULT: -7.490795145      3.642      6.687
REMARK  7 active torsions:
REMARK  status: ('A' for Active; 'I' for Inactive)
REMARK    1  A    between atoms: C2_2  and  C4_4 
REMARK    2  A    between atoms: C4_4  and  N1_5 
REMARK    3  A    between atoms: N1_5  and  S1_7 
REMARK    4  A    between atoms: S1_7  and  C5_10 
REMARK    5  A    between atoms: C18_26  and  O5_27 
REMARK    6  A    between atoms: C19_29  and  O6_30 
REMARK    7  A    between atoms: C20_32  and  C22_34 
ROOT
HETATM    1  C5  UNL     1     130.477 102.142 284.394  1.00  0.00     0.116 A 
HETATM    2  C6  UNL     1     130.925 101.336 285.409  1.00  0.00     0.070 A 
HETATM    3  C7  UNL     1     130.258 101.293 286.626  1.00  0.00     0.118 A 
HETATM    4  F1  UNL     1     130.704 100.493 287.636  1.00  0.00    -0.206 F 
HETATM    5  C8  UNL     1     129.136 102.062 286.826  1.00  0.00     0.053 A 
HETATM    6  C9  UNL     1     128.659 102.884 285.825  1.00  0.00    -0.011 A 
HETATM    7  C10 UNL     1     129.325 102.924 284.616  1.00  0.00     0.099 A 
HETATM    8  O3  UNL     1     128.788 103.768 283.674  1.00  0.00    -0.348 OA
HETATM    9  C11 UNL     1     128.345 105.055 284.084  1.00  0.00     0.182 C 
HETATM   10  C12 UNL     1     127.454 105.016 285.303  1.00  0.00     0.035 C 
HETATM   11  C13 UNL     1     127.434 103.712 286.007  1.00  0.00    -0.005 C 
HETATM   12  C14 UNL     1     126.333 102.765 285.453  1.00  0.00     0.021 C 
HETATM   13  C15 UNL     1     127.138 103.771 287.475  1.00  0.00     0.049 C 
HETATM   14  C16 UNL     1     126.203 104.867 287.751  1.00  0.00     0.160 C 
HETATM   15  O4  UNL     1     125.080 104.965 286.971  1.00  0.00    -0.380 OA
HETATM   16  C17 UNL     1     124.536 106.190 287.433  1.00  0.00     0.203 C 
HETATM   17  C18 UNL     1     125.728 107.102 287.658  1.00  0.00     0.179 C 
HETATM   18  C19 UNL     1     126.891 106.202 287.448  1.00  0.00     0.120 C 
HETATM   19  C20 UNL     1     127.544 106.267 286.115  1.00  0.00     0.015 C 
HETATM   20  C21 UNL     1     126.753 107.317 285.287  1.00  0.00     0.020 C 
ENDROOT
BRANCH   1  21
HETATM   21  S1  UNL     1     131.189 102.253 282.810  1.00  0.00     0.261 S 
HETATM   22  O1  UNL     1     130.535 101.191 281.947  1.00  0.00    -0.200 OA
HETATM   23  O2  UNL     1     132.663 101.884 282.999  1.00  0.00    -0.200 OA
BRANCH  21  24
HETATM   24  N1  UNL     1     131.156 103.778 282.090  1.00  0.00    -0.315 N 
ATOM     25  H1  UNL     1     130.415 104.053 281.445  1.00  0.00     0.172 HD
BRANCH  24  26
HETATM   26  C4  UNL     1     132.216 104.653 282.434  1.00  0.00     0.136 C 
BRANCH  26  27
HETATM   27  C2  UNL     1     132.188 105.802 281.411  1.00  0.00    -0.004 C 
HETATM   28  C1  UNL     1     131.509 106.992 282.059  1.00  0.00     0.011 C 
HETATM   29  C3  UNL     1     131.333 105.322 280.261  1.00  0.00     0.011 C 
ENDBRANCH  26  27
ENDBRANCH  24  26
ENDBRANCH  21  24
ENDBRANCH   1  21
BRANCH  19  30
HETATM   30  C22 UNL     1     128.867 106.927 286.239  1.00  0.00     0.090 C 
HETATM   31  C23 UNL     1     129.463 107.671 285.137  1.00  0.00     0.027 C 
HETATM   32 CL1  UNL     1     130.059 105.622 286.649  1.00  0.00    -0.124 Cl
ENDBRANCH  19  30
BRANCH  18  33
HETATM   33  O6  UNL     1     127.805 106.361 288.510  1.00  0.00    -0.384 OA
ATOM     34  H6  UNL     1     128.656 106.292 288.092  1.00  0.00     0.210 HD
ENDBRANCH  18  33
BRANCH  17  35
HETATM   35  O5  UNL     1     125.688 107.472 289.022  1.00  0.00    -0.390 OA
ATOM     36  H5  UNL     1     124.777 107.648 289.221  1.00  0.00     0.210 HD
ENDBRANCH  17  35
TORSDOF 7
ENDMDL
MODEL 3
REMARK VINA RESULT: -7.488512453      3.548      5.654
REMARK  7 active torsions:
REMARK  status: ('A' for Active; 'I' for Inactive)
REMARK    1  A    between atoms: C2_2  and  C4_4 
REMARK    2  A    between atoms: C4_4  and  N1_5 
REMARK    3  A    between atoms: N1_5  and  S1_7 
REMARK    4  A    between atoms: S1_7  and  C5_10 
REMARK    5  A    between atoms: C18_26  and  O5_27 
REMARK    6  A    between atoms: C19_29  and  O6_30 
REMARK    7  A    between atoms: C20_32  and  C22_34 
ROOT
HETATM    1  C5  UNL     1     129.259 106.067 287.408  1.00  0.00     0.116 A 
HETATM    2  C6  UNL     1     128.101 106.747 287.128  1.00  0.00     0.070 A 
HETATM    3  C7  UNL     1     127.453 106.571 285.913  1.00  0.00     0.118 A 
HETATM    4  F1  UNL     1     126.302 107.248 285.633  1.00  0.00    -0.206 F 
HETATM    5  C8  UNL     1     127.968 105.709 284.974  1.00  0.00     0.053 A 
HETATM    6  C9  UNL     1     129.132 105.010 285.224  1.00  0.00    -0.011 A 
HETATM    7  C10 UNL     1     129.773 105.188 286.434  1.00  0.00     0.099 A 
HETATM    8  O3  UNL     1     130.925 104.457 286.605  1.00  0.00    -0.348 OA
HETATM    9  C11 UNL     1     131.840 104.364 285.521  1.00  0.00     0.182 C 
HETATM   10  C12 UNL     1     131.181 103.984 284.216  1.00  0.00     0.035 C 
HETATM   11  C13 UNL     1     129.701 104.054 284.233  1.00  0.00    -0.005 C 
HETATM   12  C14 UNL     1     129.057 102.714 284.687  1.00  0.00     0.021 C 
HETATM   13  C15 UNL     1     129.049 104.325 282.912  1.00  0.00     0.049 C 
HETATM   14  C16 UNL     1     129.828 103.705 281.835  1.00  0.00     0.160 C 
HETATM   15  O4  UNL     1     130.210 102.399 281.988  1.00  0.00    -0.380 OA
HETATM   16  C17 UNL     1     131.041 102.224 280.854  1.00  0.00     0.203 C 
HETATM   17  C18 UNL     1     131.814 103.523 280.715  1.00  0.00     0.179 C 
HETATM   18  C19 UNL     1     131.190 104.402 281.737  1.00  0.00     0.120 C 
HETATM   19  C20 UNL     1     131.910 104.525 283.031  1.00  0.00     0.015 C 
HETATM   20  C21 UNL     1     133.175 103.628 282.918  1.00  0.00     0.020 C 
ENDROOT
BRANCH   1  21
HETATM   21  S1  UNL     1     130.141 106.159 288.905  1.00  0.00     0.261 S 
HETATM   22  O1  UNL     1     129.198 106.727 289.949  1.00  0.00    -0.200 OA
HETATM   23  O2  UNL     1     131.259 107.175 288.658  1.00  0.00    -0.200 OA
BRANCH  21  24
HETATM   24  N1  UNL     1     130.882 104.732 289.415  1.00  0.00    -0.315 N 
ATOM     25  H1  UNL     1     131.891 104.665 289.544  1.00  0.00     0.172 HD
BRANCH  24  26
HETATM   26  C4  UNL     1     130.020 103.633 289.655  1.00  0.00     0.136 C 
BRANCH  26  27
HETATM   27  C2  UNL     1     130.895 102.503 290.223  1.00  0.00    -0.004 C 
HETATM   28  C1  UNL     1     130.006 101.583 291.034  1.00  0.00     0.011 C 
HETATM   29  C3  UNL     1     131.887 103.164 291.152  1.00  0.00     0.011 C 
ENDBRANCH  26  27
ENDBRANCH  24  26
ENDBRANCH  21  24
ENDBRANCH   1  21
BRANCH  19  30
HETATM   30  C22 UNL     1     132.516 105.875 283.138  1.00  0.00     0.090 C 
HETATM   31  C23 UNL     1     133.716 106.121 283.926  1.00  0.00     0.027 C 
HETATM   32 CL1  UNL     1     131.241 106.959 283.836  1.00  0.00    -0.124 Cl
ENDBRANCH  19  30
BRANCH  18  33
HETATM   33  O6  UNL     1     130.890 105.653 281.160  1.00  0.00    -0.384 OA
ATOM     34  H6  UNL     1     130.635 105.439 280.270  1.00  0.00     0.210 HD
ENDBRANCH  18  33
BRANCH  17  35
HETATM   35  O5  UNL     1     131.499 104.032 279.434  1.00  0.00    -0.390 OA
ATOM     36  H5  UNL     1     131.073 103.324 278.965  1.00  0.00     0.210 HD
ENDBRANCH  17  35
TORSDOF 7
ENDMDL
MODEL 4
REMARK VINA RESULT: -7.451236518      3.783      7.168
REMARK  7 active torsions:
REMARK  status: ('A' for Active; 'I' for Inactive)
REMARK    1  A    between atoms: C2_2  and  C4_4 
REMARK    2  A    between atoms: C4_4  and  N1_5 
REMARK    3  A    between atoms: N1_5  and  S1_7 
REMARK    4  A    between atoms: S1_7  and  C5_10 
REMARK    5  A    between atoms: C18_26  and  O5_27 
REMARK    6  A    between atoms: C19_29  and  O6_30 
REMARK    7  A    between atoms: C20_32  and  C22_34 
ROOT
HETATM    1  C5  UNL     1     133.418 105.075 286.282  1.00  0.00     0.116 A 
HETATM    2  C6  UNL     1     133.685 104.392 285.123  1.00  0.00     0.070 A 
HETATM    3  C7  UNL     1     132.725 104.291 284.124  1.00  0.00     0.118 A 
HETATM    4  F1  UNL     1     132.989 103.611 282.971  1.00  0.00    -0.206 F 
HETATM    5  C8  UNL     1     131.493 104.878 284.288  1.00  0.00     0.053 A 
HETATM    6  C9  UNL     1     131.192 105.572 285.443  1.00  0.00    -0.011 A 
HETATM    7  C10 UNL     1     132.149 105.670 286.434  1.00  0.00     0.099 A 
HETATM    8  O3  UNL     1     131.771 106.376 287.551  1.00  0.00    -0.348 OA
HETATM    9  C11 UNL     1     130.469 106.167 288.082  1.00  0.00     0.182 C 
HETATM   10  C12 UNL     1     129.381 106.243 287.037  1.00  0.00     0.035 C 
HETATM   11  C13 UNL     1     129.873 106.236 285.638  1.00  0.00    -0.005 C 
HETATM   12  C14 UNL     1     130.164 107.669 285.113  1.00  0.00     0.021 C 
HETATM   13  C15 UNL     1     128.926 105.676 284.621  1.00  0.00     0.049 C 
HETATM   14  C16 UNL     1     127.545 105.985 285.003  1.00  0.00     0.160 C 
HETATM   15  O4  UNL     1     127.249 107.274 285.360  1.00  0.00    -0.380 OA
HETATM   16  C17 UNL     1     125.906 107.135 285.791  1.00  0.00     0.203 C 
HETATM   17  C18 UNL     1     125.855 105.813 286.535  1.00  0.00     0.179 C 
HETATM   18  C19 UNL     1     127.202 105.233 286.294  1.00  0.00     0.120 C 
HETATM   19  C20 UNL     1     128.198 105.402 287.384  1.00  0.00     0.015 C 
HETATM   20  C21 UNL     1     127.484 106.195 288.514  1.00  0.00     0.020 C 
ENDROOT
BRANCH   1  21
HETATM   21  S1  UNL     1     134.543 105.317 287.587  1.00  0.00     0.261 S 
HETATM   22  O1  UNL     1     135.287 106.608 287.306  1.00  0.00    -0.200 OA
HETATM   23  O2  UNL     1     135.536 104.154 287.491  1.00  0.00    -0.200 OA
BRANCH  21  24
HETATM   24  N1  UNL     1     133.891 105.274 289.142  1.00  0.00    -0.315 N 
ATOM     25  H1  UNL     1     133.581 106.120 289.620  1.00  0.00     0.172 HD
BRANCH  24  26
HETATM   26  C4  UNL     1     133.799 103.995 289.745  1.00  0.00     0.136 C 
BRANCH  26  27
HETATM   27  C2  UNL     1     132.353 103.514 289.539  1.00  0.00    -0.004 C 
HETATM   28  C1  UNL     1     131.786 103.134 290.891  1.00  0.00     0.011 C 
HETATM   29  C3  UNL     1     132.441 102.271 288.683  1.00  0.00     0.011 C 
ENDBRANCH  26  27
ENDBRANCH  24  26
ENDBRANCH  21  24
ENDBRANCH   1  21
BRANCH  19  30
HETATM   30  C22 UNL     1     128.437 104.096 288.047  1.00  0.00     0.090 C 
HETATM   31  C23 UNL     1     129.019 102.966 287.335  1.00  0.00     0.027 C 
HETATM   32 CL1  UNL     1     126.825 103.519 288.647  1.00  0.00    -0.124 Cl
ENDBRANCH  19  30
BRANCH  18  33
HETATM   33  O6  UNL     1     127.069 103.892 285.881  1.00  0.00    -0.384 OA
ATOM     34  H6  UNL     1     127.963 103.574 285.846  1.00  0.00     0.210 HD
ENDBRANCH  18  33
BRANCH  17  35
HETATM   35  O5  UNL     1     124.899 105.019 285.860  1.00  0.00    -0.390 OA
ATOM     36  H5  UNL     1     125.294 104.162 285.755  1.00  0.00     0.210 HD
ENDBRANCH  17  35
TORSDOF 7
ENDMDL
MODEL 5
REMARK VINA RESULT: -7.437066396      3.307      7.062
REMARK  7 active torsions:
REMARK  status: ('A' for Active; 'I' for Inactive)
REMARK    1  A    between atoms: C2_2  and  C4_4 
REMARK    2  A    between atoms: C4_4  and  N1_5 
REMARK    3  A    between atoms: N1_5  and  S1_7 
REMARK    4  A    between atoms: S1_7  and  C5_10 
REMARK    5  A    between atoms: C18_26  and  O5_27 
REMARK    6  A    between atoms: C19_29  and  O6_30 
REMARK    7  A    between atoms: C20_32  and  C22_34 
ROOT
HETATM    1  C5  UNL     1     132.578 104.821 286.759  1.00  0.00     0.116 A 
HETATM    2  C6  UNL     1     132.950 104.681 288.071  1.00  0.00     0.070 A 
HETATM    3  C7  UNL     1     132.054 104.194 289.014  1.00  0.00     0.118 A 
HETATM    4  F1  UNL     1     132.423 104.056 290.319  1.00  0.00    -0.206 F 
HETATM    5  C8  UNL     1     130.779 103.846 288.638  1.00  0.00     0.053 A 
HETATM    6  C9  UNL     1     130.372 103.975 287.325  1.00  0.00    -0.011 A 
HETATM    7  C10 UNL     1     131.266 104.460 286.391  1.00  0.00     0.099 A 
HETATM    8  O3  UNL     1     130.784 104.559 285.108  1.00  0.00    -0.348 OA
HETATM    9  C11 UNL     1     129.472 105.071 284.910  1.00  0.00     0.182 C 
HETATM   10  C12 UNL     1     128.439 104.417 285.796  1.00  0.00     0.035 C 
HETATM   11  C13 UNL     1     129.003 103.585 286.886  1.00  0.00    -0.005 C 
HETATM   12  C14 UNL     1     129.225 102.112 286.443  1.00  0.00     0.021 C 
HETATM   13  C15 UNL     1     128.150 103.458 288.111  1.00  0.00     0.049 C 
HETATM   14  C16 UNL     1     126.733 103.466 287.735  1.00  0.00     0.160 C 
HETATM   15  O4  UNL     1     126.334 102.644 286.715  1.00  0.00    -0.380 OA
HETATM   16  C17 UNL     1     124.982 103.041 286.559  1.00  0.00     0.203 C 
HETATM   17  C18 UNL     1     124.980 104.548 286.741  1.00  0.00     0.179 C 
HETATM   18  C19 UNL     1     126.373 104.842 287.165  1.00  0.00     0.120 C 
HETATM   19  C20 UNL     1     127.297 105.327 286.107  1.00  0.00     0.015 C 
HETATM   20  C21 UNL     1     126.474 105.371 284.790  1.00  0.00     0.020 C 
ENDROOT
BRANCH   1  21
HETATM   21  S1  UNL     1     133.614 105.371 285.474  1.00  0.00     0.261 S 
HETATM   22  O1  UNL     1     134.054 104.147 284.694  1.00  0.00    -0.200 OA
HETATM   23  O2  UNL     1     134.841 105.970 286.167  1.00  0.00    -0.200 OA
BRANCH  21  24
HETATM   24  N1  UNL     1     132.980 106.575 284.478  1.00  0.00    -0.315 N 
ATOM     25  H1  UNL     1     132.444 107.358 284.852  1.00  0.00     0.172 HD
BRANCH  24  26
HETATM   26  C4  UNL     1     133.236 106.436 283.091  1.00  0.00     0.136 C 
BRANCH  26  27
HETATM   27  C2  UNL     1     132.091 107.154 282.357  1.00  0.00    -0.004 C 
HETATM   28  C1  UNL     1     131.267 107.900 283.387  1.00  0.00     0.011 C 
HETATM   29  C3  UNL     1     131.236 106.069 281.745  1.00  0.00     0.011 C 
ENDBRANCH  26  27
ENDBRANCH  24  26
ENDBRANCH  21  24
ENDBRANCH   1  21
BRANCH  19  30
HETATM   30  C22 UNL     1     127.587 106.767 286.321  1.00  0.00     0.090 C 
HETATM   31  C23 UNL     1     127.907 107.660 285.215  1.00  0.00     0.027 C 
HETATM   32 CL1  UNL     1     129.012 106.846 287.441  1.00  0.00    -0.124 Cl
ENDBRANCH  19  30
BRANCH  18  33
HETATM   33  O6  UNL     1     126.352 105.683 288.297  1.00  0.00    -0.384 OA
ATOM     34  H6  UNL     1     127.085 105.381 288.820  1.00  0.00     0.210 HD
ENDBRANCH  18  33
BRANCH  17  35
HETATM   35  O5  UNL     1     124.116 104.811 287.829  1.00  0.00    -0.390 OA
ATOM     36  H5  UNL     1     124.153 105.749 287.975  1.00  0.00     0.210 HD
ENDBRANCH  17  35
TORSDOF 7
ENDMDL
