MODEL 1
REMARK VINA RESULT: -8.755418784      0.000      0.000
REMARK  8 active torsions:
REMARK  status: ('A' for Active; 'I' for Inactive)
REMARK    1  A    between atoms: C2_2  and  C3_3 
REMARK    2  A    between atoms: C2_2  and  C12_20 
REMARK    3  A    between atoms: C3_3  and  C4_4 
REMARK    4  A    between atoms: C5_5  and  C6_6 
REMARK    5  A    between atoms: N1_8  and  N2_9 
REMARK       I    between atoms: N2_9  and  C8_11 
REMARK    6  A    between atoms: C8_11  and  C9_13 
REMARK    7  A    between atoms: C14_22  and  O4_23 
REMARK    8  A    between atoms: C20_30  and  O5_31 
ROOT
HETATM    1  C12 UNL     1     131.098 106.644 283.919  1.00  0.00     0.007 C 
HETATM    2  C13 UNL     1     131.088 106.912 282.428  1.00  0.00     0.038 C 
HETATM    3  C14 UNL     1     131.968 106.111 281.572  1.00  0.00     0.119 C 
HETATM    4  C15 UNL     1     133.243 105.759 282.267  1.00  0.00     0.041 C 
HETATM    5  C16 UNL     1     133.135 105.270 283.670  1.00  0.00    -0.033 C 
HETATM    6  C17 UNL     1     133.556 103.801 283.620  1.00  0.00     0.016 C 
HETATM    7  C18 UNL     1     131.795 105.395 284.335  1.00  0.00     0.002 C 
HETATM    8  C19 UNL     1     131.823 105.290 285.811  1.00  0.00     0.038 C 
HETATM    9  C20 UNL     1     133.075 105.344 286.563  1.00  0.00     0.125 C 
HETATM   10  C21 UNL     1     134.367 105.524 285.824  1.00  0.00     0.043 C 
HETATM   11  C22 UNL     1     135.301 106.460 286.585  1.00  0.00     0.175 C 
HETATM   12  O6  UNL     1     136.274 106.975 285.766  1.00  0.00    -0.391 OA
HETATM   13  C23 UNL     1     136.588 106.148 284.698  1.00  0.00     0.168 C 
HETATM   14  C24 UNL     1     135.436 106.260 283.713  1.00  0.00     0.032 C 
HETATM   15  C25 UNL     1     134.142 106.093 284.473  1.00  0.00     0.005 C 
ENDROOT
BRANCH   1  16
HETATM   16  C2  UNL     1     129.820 106.968 284.420  1.00  0.00     0.057 C 
HETATM   17  C1  UNL     1     130.217 108.770 284.457  1.00  0.00     0.023 C 
BRANCH  16  18
HETATM   18  C3  UNL     1     128.682 107.255 284.866  1.00  0.00    -0.151 C 
BRANCH  18  19
HETATM   19  C4  UNL     1     127.465 107.564 285.336  1.00  0.00     0.049 C 
HETATM   20  C5  UNL     1     126.394 106.941 285.763  1.00  0.00     0.015 C 
BRANCH  20  21
HETATM   21  C6  UNL     1     126.017 105.551 285.939  1.00  0.00     0.177 C 
HETATM   22  C7  UNL     1     125.505 104.882 284.702  1.00  0.00     0.191 C 
HETATM   23  N1  UNL     1     124.712 103.794 285.251  1.00  0.00    -0.231 N 
HETATM   24  C11 UNL     1     124.305 104.222 286.569  1.00  0.00     0.382 C 
HETATM   25  O2  UNL     1     123.530 103.509 287.296  1.00  0.00    -0.236 OA
HETATM   26  O3  UNL     1     124.879 105.443 286.822  1.00  0.00    -0.292 OA
BRANCH  23  27
HETATM   27  N2  UNL     1     124.428 102.583 284.641  1.00  0.00    -0.259 N 
HETATM   28  C8  UNL     1     123.223 102.444 283.848  1.00  0.00     0.291 C 
HETATM   29  O1  UNL     1     122.492 103.440 283.745  1.00  0.00    -0.267 OA
ATOM     30  H2  UNL     1     125.064 101.793 284.749  1.00  0.00     0.190 HD
BRANCH  28  31
HETATM   31  C9  UNL     1     122.954 101.133 283.222  1.00  0.00     0.256 C 
HETATM   32  C10 UNL     1     122.110 101.202 281.998  1.00  0.00     0.081 C 
HETATM   33  F1  UNL     1     124.107 100.402 282.981  1.00  0.00    -0.215 F 
HETATM   34 CL1  UNL     1     122.031 100.182 284.445  1.00  0.00    -0.073 Cl
ENDBRANCH  28  31
ENDBRANCH  23  27
ENDBRANCH  20  21
ENDBRANCH  18  19
ENDBRANCH  16  18
ENDBRANCH   1  16
BRANCH   3  35
HETATM   35  O4  UNL     1     131.405 105.039 280.900  1.00  0.00    -0.396 OA
ATOM     36  H4  UNL     1     131.447 105.045 279.950  1.00  0.00     0.210 HD
ENDBRANCH   3  35
BRANCH   9  37
HETATM   37  O5  UNL     1     133.165 104.221 287.442  1.00  0.00    -0.395 OA
ATOM     38  H5  UNL     1     133.199 104.516 288.345  1.00  0.00     0.210 HD
ENDBRANCH   9  37
TORSDOF 8
ENDMDL
MODEL 2
REMARK VINA RESULT: -8.583816530      5.009      9.039
REMARK  8 active torsions:
REMARK  status: ('A' for Active; 'I' for Inactive)
REMARK    1  A    between atoms: C2_2  and  C3_3 
REMARK    2  A    between atoms: C2_2  and  C12_20 
REMARK    3  A    between atoms: C3_3  and  C4_4 
REMARK    4  A    between atoms: C5_5  and  C6_6 
REMARK    5  A    between atoms: N1_8  and  N2_9 
REMARK       I    between atoms: N2_9  and  C8_11 
REMARK    6  A    between atoms: C8_11  and  C9_13 
REMARK    7  A    between atoms: C14_22  and  O4_23 
REMARK    8  A    between atoms: C20_30  and  O5_31 
ROOT
HETATM    1  C12 UNL     1     128.853 106.428 285.394  1.00  0.00     0.007 C 
HETATM    2  C13 UNL     1     127.473 106.517 284.774  1.00  0.00     0.038 C 
HETATM    3  C14 UNL     1     126.313 106.591 285.666  1.00  0.00     0.119 C 
HETATM    4  C15 UNL     1     126.528 105.804 286.918  1.00  0.00     0.041 C 
HETATM    5  C16 UNL     1     127.843 105.964 287.600  1.00  0.00    -0.033 C 
HETATM    6  C17 UNL     1     127.531 106.677 288.916  1.00  0.00     0.016 C 
HETATM    7  C18 UNL     1     128.911 106.712 286.855  1.00  0.00     0.002 C 
HETATM    8  C19 UNL     1     130.284 106.502 287.365  1.00  0.00     0.038 C 
HETATM    9  C20 UNL     1     130.597 105.443 288.323  1.00  0.00     0.125 C 
HETATM   10  C21 UNL     1     129.501 104.535 288.795  1.00  0.00     0.043 C 
HETATM   11  C22 UNL     1     130.002 103.099 288.916  1.00  0.00     0.175 C 
HETATM   12  O6  UNL     1     128.962 102.203 288.922  1.00  0.00    -0.391 OA
HETATM   13  C23 UNL     1     127.782 102.735 289.419  1.00  0.00     0.168 C 
HETATM   14  C24 UNL     1     127.232 103.649 288.337  1.00  0.00     0.032 C 
HETATM   15  C25 UNL     1     128.350 104.547 287.860  1.00  0.00     0.005 C 
ENDROOT
BRANCH   1  16
HETATM   16  C2  UNL     1     129.763 107.024 284.498  1.00  0.00     0.057 C 
HETATM   17  C1  UNL     1     130.150 105.404 283.705  1.00  0.00     0.023 C 
BRANCH  16  18
HETATM   18  C3  UNL     1     130.574 107.557 283.701  1.00  0.00    -0.151 C 
BRANCH  18  19
HETATM   19  C4  UNL     1     131.434 108.130 282.846  1.00  0.00     0.049 C 
HETATM   20  C5  UNL     1     132.643 107.918 282.386  1.00  0.00     0.015 C 
BRANCH  20  21
HETATM   21  C6  UNL     1     133.658 106.903 282.598  1.00  0.00     0.177 C 
HETATM   22  C7  UNL     1     133.550 106.175 283.901  1.00  0.00     0.191 C 
HETATM   23  N1  UNL     1     134.910 105.694 284.093  1.00  0.00    -0.231 N 
HETATM   24  C11 UNL     1     135.762 106.600 283.358  1.00  0.00     0.382 C 
HETATM   25  O2  UNL     1     137.036 106.490 283.382  1.00  0.00    -0.236 OA
HETATM   26  O3  UNL     1     134.965 107.509 282.708  1.00  0.00    -0.292 OA
BRANCH  23  27
HETATM   27  N2  UNL     1     135.301 104.578 284.814  1.00  0.00    -0.259 N 
HETATM   28  C8  UNL     1     135.568 104.699 286.234  1.00  0.00     0.291 C 
HETATM   29  O1  UNL     1     135.422 105.818 286.747  1.00  0.00    -0.267 OA
ATOM     30  H2  UNL     1     135.402 103.677 284.349  1.00  0.00     0.190 HD
BRANCH  28  31
HETATM   31  C9  UNL     1     135.993 103.485 286.963  1.00  0.00     0.256 C 
HETATM   32  C10 UNL     1     137.242 102.867 286.444  1.00  0.00     0.081 C 
HETATM   33  F1  UNL     1     136.076 103.681 288.334  1.00  0.00    -0.215 F 
HETATM   34 CL1  UNL     1     134.671 102.280 286.730  1.00  0.00    -0.073 Cl
ENDBRANCH  28  31
ENDBRANCH  23  27
ENDBRANCH  20  21
ENDBRANCH  18  19
ENDBRANCH  16  18
ENDBRANCH   1  16
BRANCH   3  35
HETATM   35  O4  UNL     1     125.765 107.841 285.902  1.00  0.00    -0.396 OA
ATOM     36  H4  UNL     1     124.818 107.904 285.953  1.00  0.00     0.210 HD
ENDBRANCH   3  35
BRANCH   9  37
HETATM   37  O5  UNL     1     131.298 105.990 289.442  1.00  0.00    -0.395 OA
ATOM     38  H5  UNL     1     131.796 105.308 289.877  1.00  0.00     0.210 HD
ENDBRANCH   9  37
TORSDOF 8
ENDMDL
MODEL 3
REMARK VINA RESULT: -8.502528867      1.069      1.193
REMARK  8 active torsions:
REMARK  status: ('A' for Active; 'I' for Inactive)
REMARK    1  A    between atoms: C2_2  and  C3_3 
REMARK    2  A    between atoms: C2_2  and  C12_20 
REMARK    3  A    between atoms: C3_3  and  C4_4 
REMARK    4  A    between atoms: C5_5  and  C6_6 
REMARK    5  A    between atoms: N1_8  and  N2_9 
REMARK       I    between atoms: N2_9  and  C8_11 
REMARK    6  A    between atoms: C8_11  and  C9_13 
REMARK    7  A    between atoms: C14_22  and  O4_23 
REMARK    8  A    between atoms: C20_30  and  O5_31 
ROOT
HETATM    1  C12 UNL     1     130.948 106.524 283.935  1.00  0.00     0.007 C 
HETATM    2  C13 UNL     1     130.979 106.791 282.444  1.00  0.00     0.038 C 
HETATM    3  C14 UNL     1     131.866 105.976 281.609  1.00  0.00     0.119 C 
HETATM    4  C15 UNL     1     133.118 105.604 282.335  1.00  0.00     0.041 C 
HETATM    5  C16 UNL     1     132.969 105.118 283.735  1.00  0.00    -0.033 C 
HETATM    6  C17 UNL     1     133.367 103.642 283.695  1.00  0.00     0.016 C 
HETATM    7  C18 UNL     1     131.615 105.264 284.367  1.00  0.00     0.002 C 
HETATM    8  C19 UNL     1     131.606 105.159 285.843  1.00  0.00     0.038 C 
HETATM    9  C20 UNL     1     132.840 105.194 286.626  1.00  0.00     0.125 C 
HETATM   10  C21 UNL     1     134.152 105.353 285.918  1.00  0.00     0.043 C 
HETATM   11  C22 UNL     1     135.082 106.274 286.701  1.00  0.00     0.175 C 
HETATM   12  O6  UNL     1     136.083 106.773 285.906  1.00  0.00    -0.391 OA
HETATM   13  C23 UNL     1     136.409 105.941 284.845  1.00  0.00     0.168 C 
HETATM   14  C24 UNL     1     135.284 106.071 283.833  1.00  0.00     0.032 C 
HETATM   15  C25 UNL     1     133.969 105.925 284.562  1.00  0.00     0.005 C 
ENDROOT
BRANCH   1  16
HETATM   16  C2  UNL     1     129.664 106.869 284.405  1.00  0.00     0.057 C 
HETATM   17  C1  UNL     1     130.101 108.659 284.491  1.00  0.00     0.023 C 
BRANCH  16  18
HETATM   18  C3  UNL     1     128.520 107.173 284.823  1.00  0.00    -0.151 C 
BRANCH  18  19
HETATM   19  C4  UNL     1     127.301 107.505 285.271  1.00  0.00     0.049 C 
HETATM   20  C5  UNL     1     126.296 106.932 285.888  1.00  0.00     0.015 C 
BRANCH  20  21
HETATM   21  C6  UNL     1     126.032 105.602 286.404  1.00  0.00     0.177 C 
HETATM   22  C7  UNL     1     125.399 104.667 285.422  1.00  0.00     0.191 C 
HETATM   23  N1  UNL     1     124.756 103.698 286.297  1.00  0.00    -0.231 N 
HETATM   24  C11 UNL     1     124.507 104.388 287.541  1.00  0.00     0.382 C 
HETATM   25  O2  UNL     1     123.883 103.826 288.507  1.00  0.00    -0.236 OA
HETATM   26  O3  UNL     1     125.034 105.652 287.447  1.00  0.00    -0.292 OA
BRANCH  23  27
HETATM   27  N2  UNL     1     124.467 102.376 286.002  1.00  0.00    -0.259 N 
HETATM   28  C8  UNL     1     123.216 102.044 285.349  1.00  0.00     0.291 C 
HETATM   29  O1  UNL     1     122.452 102.980 285.074  1.00  0.00    -0.267 OA
ATOM     30  H2  UNL     1     125.130 101.640 286.242  1.00  0.00     0.190 HD
BRANCH  28  31
HETATM   31  C9  UNL     1     122.943 100.620 285.061  1.00  0.00     0.256 C 
HETATM   32  C10 UNL     1     122.961  99.740 286.260  1.00  0.00     0.081 C 
HETATM   33  F1  UNL     1     121.778 100.431 284.333  1.00  0.00    -0.215 F 
HETATM   34 CL1  UNL     1     124.279 100.069 283.982  1.00  0.00    -0.073 Cl
ENDBRANCH  28  31
ENDBRANCH  23  27
ENDBRANCH  20  21
ENDBRANCH  18  19
ENDBRANCH  16  18
ENDBRANCH   1  16
BRANCH   3  35
HETATM   35  O4  UNL     1     131.302 104.913 280.923  1.00  0.00    -0.396 OA
ATOM     36  H4  UNL     1     131.499 104.833 279.997  1.00  0.00     0.210 HD
ENDBRANCH   3  35
BRANCH   9  37
HETATM   37  O5  UNL     1     132.891 104.070 287.507  1.00  0.00    -0.395 OA
ATOM     38  H5  UNL     1     132.074 103.586 287.464  1.00  0.00     0.210 HD
ENDBRANCH   9  37
TORSDOF 8
ENDMDL
MODEL 4
REMARK VINA RESULT: -8.372867897      3.114      3.861
REMARK  8 active torsions:
REMARK  status: ('A' for Active; 'I' for Inactive)
REMARK    1  A    between atoms: C2_2  and  C3_3 
REMARK    2  A    between atoms: C2_2  and  C12_20 
REMARK    3  A    between atoms: C3_3  and  C4_4 
REMARK    4  A    between atoms: C5_5  and  C6_6 
REMARK    5  A    between atoms: N1_8  and  N2_9 
REMARK       I    between atoms: N2_9  and  C8_11 
REMARK    6  A    between atoms: C8_11  and  C9_13 
REMARK    7  A    between atoms: C14_22  and  O4_23 
REMARK    8  A    between atoms: C20_30  and  O5_31 
ROOT
HETATM    1  C12 UNL     1     131.044 106.617 283.920  1.00  0.00     0.007 C 
HETATM    2  C13 UNL     1     131.038 106.951 282.442  1.00  0.00     0.038 C 
HETATM    3  C14 UNL     1     131.928 106.195 281.555  1.00  0.00     0.119 C 
HETATM    4  C15 UNL     1     133.202 105.821 282.239  1.00  0.00     0.041 C 
HETATM    5  C16 UNL     1     133.092 105.270 283.619  1.00  0.00    -0.033 C 
HETATM    6  C17 UNL     1     133.523 103.808 283.506  1.00  0.00     0.016 C 
HETATM    7  C18 UNL     1     131.748 105.356 284.283  1.00  0.00     0.002 C 
HETATM    8  C19 UNL     1     131.771 105.185 285.752  1.00  0.00     0.038 C 
HETATM    9  C20 UNL     1     133.019 105.215 286.512  1.00  0.00     0.125 C 
HETATM   10  C21 UNL     1     134.313 105.436 285.787  1.00  0.00     0.043 C 
HETATM   11  C22 UNL     1     135.237 106.344 286.594  1.00  0.00     0.175 C 
HETATM   12  O6  UNL     1     136.209 106.902 285.803  1.00  0.00    -0.391 OA
HETATM   13  C23 UNL     1     136.533 106.125 284.700  1.00  0.00     0.168 C 
HETATM   14  C24 UNL     1     135.386 106.273 283.716  1.00  0.00     0.032 C 
HETATM   15  C25 UNL     1     134.089 106.063 284.463  1.00  0.00     0.005 C 
ENDROOT
BRANCH   1  16
HETATM   16  C2  UNL     1     129.762 106.910 284.428  1.00  0.00     0.057 C 
HETATM   17  C1  UNL     1     130.133 108.715 284.514  1.00  0.00     0.023 C 
BRANCH  16  18
HETATM   18  C3  UNL     1     128.619 107.168 284.881  1.00  0.00    -0.151 C 
BRANCH  18  19
HETATM   19  C4  UNL     1     127.397 107.439 285.360  1.00  0.00     0.049 C 
HETATM   20  C5  UNL     1     126.476 106.848 286.083  1.00  0.00     0.015 C 
BRANCH  20  21
HETATM   21  C6  UNL     1     126.356 105.559 286.738  1.00  0.00     0.177 C 
HETATM   22  C7  UNL     1     127.361 105.314 287.821  1.00  0.00     0.191 C 
HETATM   23  N1  UNL     1     127.392 103.861 287.882  1.00  0.00    -0.231 N 
HETATM   24  C11 UNL     1     126.985 103.397 286.576  1.00  0.00     0.382 C 
HETATM   25  O2  UNL     1     126.974 102.152 286.280  1.00  0.00    -0.236 OA
HETATM   26  O3  UNL     1     126.655 104.491 285.814  1.00  0.00    -0.292 OA
BRANCH  23  27
HETATM   27  N2  UNL     1     127.722 103.083 288.980  1.00  0.00    -0.259 N 
HETATM   28  C8  UNL     1     126.674 102.435 289.741  1.00  0.00     0.291 C 
HETATM   29  O1  UNL     1     125.506 102.605 289.361  1.00  0.00    -0.267 OA
ATOM     30  H2  UNL     1     128.699 102.968 289.251  1.00  0.00     0.190 HD
BRANCH  28  31
HETATM   31  C9  UNL     1     127.069 101.622 290.911  1.00  0.00     0.256 C 
HETATM   32  C10 UNL     1     128.510 101.251 290.939  1.00  0.00     0.081 C 
HETATM   33  F1  UNL     1     126.686 102.190 292.117  1.00  0.00    -0.215 F 
HETATM   34 CL1  UNL     1     126.132 100.086 290.784  1.00  0.00    -0.073 Cl
ENDBRANCH  28  31
ENDBRANCH  23  27
ENDBRANCH  20  21
ENDBRANCH  18  19
ENDBRANCH  16  18
ENDBRANCH   1  16
BRANCH   3  35
HETATM   35  O4  UNL     1     131.375 105.150 280.833  1.00  0.00    -0.396 OA
ATOM     36  H4  UNL     1     131.935 104.703 280.209  1.00  0.00     0.210 HD
ENDBRANCH   3  35
BRANCH   9  37
HETATM   37  O5  UNL     1     133.113 104.054 287.341  1.00  0.00    -0.395 OA
ATOM     38  H5  UNL     1     132.349 103.992 287.902  1.00  0.00     0.210 HD
ENDBRANCH   9  37
TORSDOF 8
ENDMDL
MODEL 5
REMARK VINA RESULT: -8.272257540      3.140      4.061
REMARK  8 active torsions:
REMARK  status: ('A' for Active; 'I' for Inactive)
REMARK    1  A    between atoms: C2_2  and  C3_3 
REMARK    2  A    between atoms: C2_2  and  C12_20 
REMARK    3  A    between atoms: C3_3  and  C4_4 
REMARK    4  A    between atoms: C5_5  and  C6_6 
REMARK    5  A    between atoms: N1_8  and  N2_9 
REMARK       I    between atoms: N2_9  and  C8_11 
REMARK    6  A    between atoms: C8_11  and  C9_13 
REMARK    7  A    between atoms: C14_22  and  O4_23 
REMARK    8  A    between atoms: C20_30  and  O5_31 
ROOT
HETATM    1  C12 UNL     1     130.641 105.291 283.735  1.00  0.00     0.007 C 
HETATM    2  C13 UNL     1     130.977 106.083 282.488  1.00  0.00     0.038 C 
HETATM    3  C14 UNL     1     132.292 105.884 281.872  1.00  0.00     0.119 C 
HETATM    4  C15 UNL     1     133.345 105.604 282.895  1.00  0.00     0.041 C 
HETATM    5  C16 UNL     1     133.007 104.620 283.960  1.00  0.00    -0.033 C 
HETATM    6  C17 UNL     1     133.911 103.415 283.697  1.00  0.00     0.016 C 
HETATM    7  C18 UNL     1     131.576 104.174 284.049  1.00  0.00     0.002 C 
HETATM    8  C19 UNL     1     131.204 103.539 285.332  1.00  0.00     0.038 C 
HETATM    9  C20 UNL     1     132.076 103.598 286.503  1.00  0.00     0.125 C 
HETATM   10  C21 UNL     1     133.380 104.334 286.409  1.00  0.00     0.043 C 
HETATM   11  C22 UNL     1     133.658 105.109 287.694  1.00  0.00     0.175 C 
HETATM   12  O6  UNL     1     134.584 106.102 287.491  1.00  0.00    -0.391 OA
HETATM   13  C23 UNL     1     135.467 105.827 286.457  1.00  0.00     0.168 C 
HETATM   14  C24 UNL     1     134.694 106.027 285.165  1.00  0.00     0.032 C 
HETATM   15  C25 UNL     1     133.377 105.294 285.280  1.00  0.00     0.005 C 
ENDROOT
BRANCH   1  16
HETATM   16  C2  UNL     1     129.244 105.100 283.756  1.00  0.00     0.057 C 
HETATM   17  C1  UNL     1     129.014 106.425 285.020  1.00  0.00     0.023 C 
BRANCH  16  18
HETATM   18  C3  UNL     1     128.000 104.929 283.774  1.00  0.00    -0.151 C 
BRANCH  18  19
HETATM   19  C4  UNL     1     126.673 104.741 283.788  1.00  0.00     0.049 C 
HETATM   20  C5  UNL     1     125.725 104.521 284.667  1.00  0.00     0.015 C 
BRANCH  20  21
HETATM   21  C6  UNL     1     125.676 104.380 286.110  1.00  0.00     0.177 C 
HETATM   22  C7  UNL     1     125.887 102.984 286.606  1.00  0.00     0.191 C 
HETATM   23  N1  UNL     1     125.246 103.026 287.912  1.00  0.00    -0.231 N 
HETATM   24  C11 UNL     1     124.254 104.074 287.836  1.00  0.00     0.382 C 
HETATM   25  O2  UNL     1     123.463 104.321 288.811  1.00  0.00    -0.236 OA
HETATM   26  O3  UNL     1     124.350 104.669 286.602  1.00  0.00    -0.292 OA
BRANCH  23  27
HETATM   27  N2  UNL     1     125.546 102.238 289.010  1.00  0.00    -0.259 N 
HETATM   28  C8  UNL     1     126.684 102.570 289.843  1.00  0.00     0.291 C 
HETATM   29  O1  UNL     1     127.346 103.571 289.529  1.00  0.00    -0.267 OA
ATOM     30  H2  UNL     1     124.968 101.427 289.232  1.00  0.00     0.190 HD
BRANCH  28  31
HETATM   31  C9  UNL     1     126.975 101.697 290.999  1.00  0.00     0.256 C 
HETATM   32  C10 UNL     1     128.390 101.247 291.085  1.00  0.00     0.081 C 
HETATM   33  F1  UNL     1     126.561 102.243 292.205  1.00  0.00    -0.215 F 
HETATM   34 CL1  UNL     1     125.965 100.220 290.769  1.00  0.00    -0.073 Cl
ENDBRANCH  28  31
ENDBRANCH  23  27
ENDBRANCH  20  21
ENDBRANCH  18  19
ENDBRANCH  16  18
ENDBRANCH   1  16
BRANCH   3  35
HETATM   35  O4  UNL     1     132.365 105.039 280.776  1.00  0.00    -0.396 OA
ATOM     36  H4  UNL     1     133.044 104.375 280.777  1.00  0.00     0.210 HD
ENDBRANCH   3  35
BRANCH   9  37
HETATM   37  O5  UNL     1     132.291 102.283 287.019  1.00  0.00    -0.395 OA
ATOM     38  H5  UNL     1     131.919 102.211 287.890  1.00  0.00     0.210 HD
ENDBRANCH   9  37
TORSDOF 8
ENDMDL
