MODEL 1
REMARK VINA RESULT: -8.415972990      0.000      0.000
REMARK  9 active torsions:
REMARK  status: ('A' for Active; 'I' for Inactive)
REMARK    1  A    between atoms: C4_5  and  O1_6 
REMARK    2  A    between atoms: C5_8  and  C22_30 
REMARK    3  A    between atoms: C9_12  and  O2_13 
REMARK    4  A    between atoms: C11_16  and  C12_17 
REMARK    5  A    between atoms: C13_18  and  C14_20 
REMARK    6  A    between atoms: C17_23  and  C18_24 
REMARK    7  A    between atoms: C18_24  and  O4_26 
REMARK    8  A    between atoms: C22_30  and  O5_31 
REMARK    9  A    between atoms: C27_37  and  O7_38 
ROOT
HETATM    1  C1  UNL     1     131.779 105.085 287.367  1.00  0.00     0.019 C 
HETATM    2  C2  UNL     1     130.509 105.157 287.089  1.00  0.00    -0.026 C 
HETATM    3  C3  UNL     1     129.836 103.868 286.784  1.00  0.00     0.152 C 
HETATM    4 CL1  UNL     1     129.496 102.920 288.245  1.00  0.00    -0.117 Cl
HETATM    5  C4  UNL     1     128.749 103.965 285.834  1.00  0.00     0.127 C 
HETATM    6  C5  UNL     1     127.435 104.489 286.042  1.00  0.00     0.089 C 
HETATM    7  C6  UNL     1     126.948 104.485 284.621  1.00  0.00    -0.074 C 
HETATM    8  C7  UNL     1     125.568 104.384 284.089  1.00  0.00     0.044 C 
HETATM    9  C8  UNL     1     127.994 104.581 283.771  1.00  0.00     0.021 C 
HETATM   10  C9  UNL     1     129.259 104.657 284.559  1.00  0.00     0.133 C 
HETATM   11  C10 UNL     1     129.689 106.024 284.726  1.00  0.00    -0.031 C 
HETATM   12  C11 UNL     1     130.449 106.591 283.828  1.00  0.00     0.009 C 
HETATM   13  C20 UNL     1     129.251 106.918 285.853  1.00  0.00     0.067 C 
HETATM   14  C21 UNL     1     127.756 106.968 285.880  1.00  0.00     0.052 C 
HETATM   15  C22 UNL     1     127.143 105.790 286.624  1.00  0.00     0.081 C 
HETATM   16  C24 UNL     1     127.517 106.039 288.066  1.00  0.00     0.090 C 
HETATM   17  C25 UNL     1     126.722 107.256 288.568  1.00  0.00     0.021 C 
HETATM   18  C26 UNL     1     128.936 106.425 288.260  1.00  0.00     0.172 C 
HETATM   19  O6  UNL     1     129.356 106.681 289.376  1.00  0.00    -0.294 OA
HETATM   20  C27 UNL     1     129.888 106.514 287.112  1.00  0.00     0.150 C 
ENDROOT
BRANCH  10  21
HETATM   21  O2  UNL     1     130.212 103.812 283.972  1.00  0.00    -0.378 OA
ATOM     22  H2  UNL     1     131.058 104.032 284.344  1.00  0.00     0.211 HD
ENDBRANCH  10  21
BRANCH  12  23
HETATM   23  C12 UNL     1     130.969 106.081 282.614  1.00  0.00     0.039 C 
HETATM   24  C13 UNL     1     132.244 106.054 282.304  1.00  0.00     0.102 C 
HETATM   25  F1  UNL     1     132.708 105.561 281.141  1.00  0.00    -0.210 F 
BRANCH  24  26
HETATM   26  C14 UNL     1     133.261 106.673 283.197  1.00  0.00     0.090 A 
HETATM   27  C15 UNL     1     134.249 107.455 282.386  1.00  0.00     0.044 A 
HETATM   28  C16 UNL     1     135.256 106.562 282.925  1.00  0.00    -0.012 A 
HETATM   29  C17 UNL     1     134.398 105.898 283.616  1.00  0.00     0.024 A 
BRANCH  29  30
HETATM   30  C18 UNL     1     134.528 104.751 284.556  1.00  0.00     0.289 C 
HETATM   31  O3  UNL     1     134.315 103.578 284.191  1.00  0.00    -0.260 OA
BRANCH  30  32
HETATM   32  O4  UNL     1     134.884 104.967 285.859  1.00  0.00    -0.323 OA
HETATM   33  C19 UNL     1     135.338 106.166 286.423  1.00  0.00     0.213 C 
ENDBRANCH  30  32
ENDBRANCH  29  30
ENDBRANCH  24  26
ENDBRANCH  12  23
BRANCH   5  34
HETATM   34  O1  UNL     1     128.558 102.626 285.357  1.00  0.00    -0.383 OA
ATOM     35  H1  UNL     1     127.820 102.683 284.762  1.00  0.00     0.210 HD
ENDBRANCH   5  34
BRANCH  20  36
HETATM   36  O7  UNL     1     130.899 107.429 287.415  1.00  0.00    -0.377 OA
ATOM     37  H7  UNL     1     130.542 108.047 288.042  1.00  0.00     0.211 HD
ENDBRANCH  20  36
BRANCH  15  38
HETATM   38  O5  UNL     1     125.773 106.004 286.571  1.00  0.00    -0.383 OA
HETATM   39  C23 UNL     1     124.957 105.230 287.310  1.00  0.00     0.202 C 
ENDBRANCH  15  38
TORSDOF 9
ENDMDL
MODEL 2
REMARK VINA RESULT: -8.366484830      2.790      6.504
REMARK  9 active torsions:
REMARK  status: ('A' for Active; 'I' for Inactive)
REMARK    1  A    between atoms: C4_5  and  O1_6 
REMARK    2  A    between atoms: C5_8  and  C22_30 
REMARK    3  A    between atoms: C9_12  and  O2_13 
REMARK    4  A    between atoms: C11_16  and  C12_17 
REMARK    5  A    between atoms: C13_18  and  C14_20 
REMARK    6  A    between atoms: C17_23  and  C18_24 
REMARK    7  A    between atoms: C18_24  and  O4_26 
REMARK    8  A    between atoms: C22_30  and  O5_31 
REMARK    9  A    between atoms: C27_37  and  O7_38 
ROOT
HETATM    1  C1  UNL     1     133.296 105.576 287.001  1.00  0.00     0.019 C 
HETATM    2  C2  UNL     1     133.115 105.050 285.825  1.00  0.00    -0.026 C 
HETATM    3  C3  UNL     1     133.744 105.769 284.687  1.00  0.00     0.152 C 
HETATM    4 CL1  UNL     1     135.492 105.478 284.585  1.00  0.00    -0.117 Cl
HETATM    5  C4  UNL     1     133.020 105.673 283.438  1.00  0.00     0.127 C 
HETATM    6  C5  UNL     1     132.927 104.556 282.551  1.00  0.00     0.089 C 
HETATM    7  C6  UNL     1     131.868 105.075 281.621  1.00  0.00    -0.074 C 
HETATM    8  C7  UNL     1     131.609 104.748 280.198  1.00  0.00     0.044 C 
HETATM    9  C8  UNL     1     131.089 105.976 282.260  1.00  0.00     0.021 C 
HETATM   10  C9  UNL     1     131.568 106.126 283.666  1.00  0.00     0.133 C 
HETATM   11  C10 UNL     1     130.798 105.306 284.570  1.00  0.00    -0.031 C 
HETATM   12  C11 UNL     1     129.700 105.767 285.105  1.00  0.00     0.009 C 
HETATM   13  C20 UNL     1     131.121 103.875 284.900  1.00  0.00     0.067 C 
HETATM   14  C21 UNL     1     131.202 103.091 283.628  1.00  0.00     0.052 C 
HETATM   15  C22 UNL     1     132.563 103.205 282.954  1.00  0.00     0.081 C 
HETATM   16  C24 UNL     1     133.488 102.450 283.878  1.00  0.00     0.090 C 
HETATM   17  C25 UNL     1     133.147 100.954 283.786  1.00  0.00     0.021 C 
HETATM   18  C26 UNL     1     133.303 102.779 285.313  1.00  0.00     0.172 C 
HETATM   19  O6  UNL     1     133.972 102.216 286.164  1.00  0.00    -0.294 OA
HETATM   20  C27 UNL     1     132.306 103.797 285.761  1.00  0.00     0.150 C 
ENDROOT
BRANCH  10  21
HETATM   21  O2  UNL     1     131.597 107.489 283.992  1.00  0.00    -0.378 OA
ATOM     22  H2  UNL     1     131.085 107.951 283.339  1.00  0.00     0.211 HD
ENDBRANCH  10  21
BRANCH  12  23
HETATM   23  C12 UNL     1     129.060 107.021 284.948  1.00  0.00     0.039 C 
HETATM   24  C13 UNL     1     127.859 107.304 285.396  1.00  0.00     0.102 C 
HETATM   25  F1  UNL     1     127.278 108.507 285.231  1.00  0.00    -0.210 F 
BRANCH  24  26
HETATM   26  C14 UNL     1     127.014 106.258 286.032  1.00  0.00     0.090 A 
HETATM   27  C15 UNL     1     125.573 106.666 285.991  1.00  0.00     0.044 A 
HETATM   28  C16 UNL     1     125.612 106.605 287.439  1.00  0.00    -0.012 A 
HETATM   29  C17 UNL     1     126.849 106.256 287.461  1.00  0.00     0.024 A 
BRANCH  29  30
HETATM   30  C18 UNL     1     127.787 105.924 288.569  1.00  0.00     0.289 C 
HETATM   31  O3  UNL     1     127.595 104.947 289.319  1.00  0.00    -0.260 OA
BRANCH  30  32
HETATM   32  O4  UNL     1     128.891 106.701 288.791  1.00  0.00    -0.323 OA
HETATM   33  C19 UNL     1     130.232 106.326 288.635  1.00  0.00     0.213 C 
ENDBRANCH  30  32
ENDBRANCH  29  30
ENDBRANCH  24  26
ENDBRANCH  12  23
BRANCH   5  34
HETATM   34  O1  UNL     1     133.519 106.756 282.640  1.00  0.00    -0.383 OA
ATOM     35  H1  UNL     1     133.427 106.459 281.743  1.00  0.00     0.210 HD
ENDBRANCH   5  34
BRANCH  20  36
HETATM   36  O7  UNL     1     131.894 103.503 287.063  1.00  0.00    -0.377 OA
ATOM     37  H7  UNL     1     131.195 102.861 287.000  1.00  0.00     0.211 HD
ENDBRANCH  20  36
BRANCH  15  38
HETATM   38  O5  UNL     1     132.470 102.413 281.819  1.00  0.00    -0.383 OA
HETATM   39  C23 UNL     1     131.346 101.703 281.602  1.00  0.00     0.202 C 
ENDBRANCH  15  38
TORSDOF 9
ENDMDL
MODEL 3
REMARK VINA RESULT: -8.250307873      2.800      7.043
REMARK  9 active torsions:
REMARK  status: ('A' for Active; 'I' for Inactive)
REMARK    1  A    between atoms: C4_5  and  O1_6 
REMARK    2  A    between atoms: C5_8  and  C22_30 
REMARK    3  A    between atoms: C9_12  and  O2_13 
REMARK    4  A    between atoms: C11_16  and  C12_17 
REMARK    5  A    between atoms: C13_18  and  C14_20 
REMARK    6  A    between atoms: C17_23  and  C18_24 
REMARK    7  A    between atoms: C18_24  and  O4_26 
REMARK    8  A    between atoms: C22_30  and  O5_31 
REMARK    9  A    between atoms: C27_37  and  O7_38 
ROOT
HETATM    1  C1  UNL     1     133.478 105.572 287.127  1.00  0.00     0.019 C 
HETATM    2  C2  UNL     1     133.276 105.085 285.937  1.00  0.00    -0.026 C 
HETATM    3  C3  UNL     1     133.737 105.925 284.803  1.00  0.00     0.152 C 
HETATM    4 CL1  UNL     1     135.495 105.845 284.573  1.00  0.00    -0.117 Cl
HETATM    5  C4  UNL     1     132.943 105.804 283.599  1.00  0.00     0.127 C 
HETATM    6  C5  UNL     1     132.916 104.726 282.661  1.00  0.00     0.089 C 
HETATM    7  C6  UNL     1     131.742 105.161 281.830  1.00  0.00    -0.074 C 
HETATM    8  C7  UNL     1     131.422 104.874 280.411  1.00  0.00     0.044 C 
HETATM    9  C8  UNL     1     130.912 105.934 282.567  1.00  0.00     0.021 C 
HETATM   10  C9  UNL     1     131.469 106.073 283.945  1.00  0.00     0.133 C 
HETATM   11  C10 UNL     1     130.863 105.127 284.850  1.00  0.00    -0.031 C 
HETATM   12  C11 UNL     1     129.759 105.430 285.480  1.00  0.00     0.009 C 
HETATM   13  C20 UNL     1     131.368 103.729 285.079  1.00  0.00     0.067 C 
HETATM   14  C21 UNL     1     131.448 103.021 283.764  1.00  0.00     0.052 C 
HETATM   15  C22 UNL     1     132.736 103.325 283.011  1.00  0.00     0.081 C 
HETATM   16  C24 UNL     1     133.804 102.641 283.831  1.00  0.00     0.090 C 
HETATM   17  C25 UNL     1     133.630 101.121 283.679  1.00  0.00     0.021 C 
HETATM   18  C26 UNL     1     133.684 102.878 285.291  1.00  0.00     0.172 C 
HETATM   19  O6  UNL     1     134.471 102.357 286.064  1.00  0.00    -0.294 OA
HETATM   20  C27 UNL     1     132.612 103.750 285.857  1.00  0.00     0.150 C 
ENDROOT
BRANCH  10  21
HETATM   21  O2  UNL     1     131.365 107.413 284.343  1.00  0.00    -0.378 OA
ATOM     22  H2  UNL     1     132.024 107.565 285.010  1.00  0.00     0.211 HD
ENDBRANCH  10  21
BRANCH  12  23
HETATM   23  C12 UNL     1     128.972 106.606 285.433  1.00  0.00     0.039 C 
HETATM   24  C13 UNL     1     127.660 106.626 285.485  1.00  0.00     0.102 C 
HETATM   25  F1  UNL     1     126.940 107.762 285.440  1.00  0.00    -0.210 F 
BRANCH  24  26
HETATM   26  C14 UNL     1     126.876 105.362 285.493  1.00  0.00     0.090 A 
HETATM   27  C15 UNL     1     126.520 104.969 284.092  1.00  0.00     0.044 A 
HETATM   28  C16 UNL     1     125.137 105.076 284.514  1.00  0.00    -0.012 A 
HETATM   29  C17 UNL     1     125.456 105.412 285.713  1.00  0.00     0.024 A 
BRANCH  29  30
HETATM   30  C18 UNL     1     124.648 105.715 286.927  1.00  0.00     0.289 C 
HETATM   31  O3  UNL     1     124.669 104.975 287.929  1.00  0.00    -0.260 OA
BRANCH  30  32
HETATM   32  O4  UNL     1     123.851 106.827 286.962  1.00  0.00    -0.323 OA
HETATM   33  C19 UNL     1     124.268 108.164 286.989  1.00  0.00     0.213 C 
ENDBRANCH  30  32
ENDBRANCH  29  30
ENDBRANCH  24  26
ENDBRANCH  12  23
BRANCH   5  34
HETATM   34  O1  UNL     1     133.258 106.974 282.832  1.00  0.00    -0.383 OA
ATOM     35  H1  UNL     1     132.471 107.157 282.333  1.00  0.00     0.210 HD
ENDBRANCH   5  34
BRANCH  20  36
HETATM   36  O7  UNL     1     132.328 103.348 287.165  1.00  0.00    -0.377 OA
ATOM     37  H7  UNL     1     131.535 102.826 287.134  1.00  0.00     0.211 HD
ENDBRANCH  20  36
BRANCH  15  38
HETATM   38  O5  UNL     1     132.655 102.581 281.843  1.00  0.00    -0.383 OA
HETATM   39  C23 UNL     1     131.622 101.734 281.673  1.00  0.00     0.202 C 
ENDBRANCH  15  38
TORSDOF 9
ENDMDL
MODEL 4
REMARK VINA RESULT: -8.101567519      1.834      2.697
REMARK  9 active torsions:
REMARK  status: ('A' for Active; 'I' for Inactive)
REMARK    1  A    between atoms: C4_5  and  O1_6 
REMARK    2  A    between atoms: C5_8  and  C22_30 
REMARK    3  A    between atoms: C9_12  and  O2_13 
REMARK    4  A    between atoms: C11_16  and  C12_17 
REMARK    5  A    between atoms: C13_18  and  C14_20 
REMARK    6  A    between atoms: C17_23  and  C18_24 
REMARK    7  A    between atoms: C18_24  and  O4_26 
REMARK    8  A    between atoms: C22_30  and  O5_31 
REMARK    9  A    between atoms: C27_37  and  O7_38 
ROOT
HETATM    1  C1  UNL     1     131.699 104.592 289.199  1.00  0.00     0.019 C 
HETATM    2  C2  UNL     1     130.602 104.727 288.512  1.00  0.00    -0.026 C 
HETATM    3  C3  UNL     1     129.895 103.467 288.162  1.00  0.00     0.152 C 
HETATM    4 CL1  UNL     1     128.994 102.793 289.534  1.00  0.00    -0.117 Cl
HETATM    5  C4  UNL     1     129.182 103.505 286.904  1.00  0.00     0.127 C 
HETATM    6  C5  UNL     1     127.950 104.164 286.603  1.00  0.00     0.089 C 
HETATM    7  C6  UNL     1     127.936 103.978 285.112  1.00  0.00    -0.074 C 
HETATM    8  C7  UNL     1     126.791 103.912 284.172  1.00  0.00     0.044 C 
HETATM    9  C8  UNL     1     129.199 103.850 284.648  1.00  0.00     0.021 C 
HETATM   10  C9  UNL     1     130.152 103.942 285.793  1.00  0.00     0.133 C 
HETATM   11  C10 UNL     1     130.683 105.278 285.925  1.00  0.00    -0.031 C 
HETATM   12  C11 UNL     1     131.753 105.631 285.264  1.00  0.00     0.009 C 
HETATM   13  C20 UNL     1     130.035 106.372 286.728  1.00  0.00     0.067 C 
HETATM   14  C21 UNL     1     128.627 106.551 286.256  1.00  0.00     0.052 C 
HETATM   15  C22 UNL     1     127.663 105.561 286.894  1.00  0.00     0.081 C 
HETATM   16  C24 UNL     1     127.596 106.001 288.337  1.00  0.00     0.090 C 
HETATM   17  C25 UNL     1     126.850 107.344 288.398  1.00  0.00     0.021 C 
HETATM   18  C26 UNL     1     128.921 106.291 288.938  1.00  0.00     0.172 C 
HETATM   19  O6  UNL     1     129.000 106.683 290.091  1.00  0.00    -0.294 OA
HETATM   20  C27 UNL     1     130.187 106.118 288.165  1.00  0.00     0.150 C 
ENDROOT
BRANCH  10  21
HETATM   21  O2  UNL     1     131.121 102.939 285.659  1.00  0.00    -0.378 OA
ATOM     22  H2  UNL     1     131.363 102.654 286.532  1.00  0.00     0.211 HD
ENDBRANCH  10  21
BRANCH  12  23
HETATM   23  C12 UNL     1     132.555 104.894 284.360  1.00  0.00     0.039 C 
HETATM   24  C13 UNL     1     132.395 104.889 283.057  1.00  0.00     0.102 C 
HETATM   25  F1  UNL     1     133.176 104.178 282.223  1.00  0.00    -0.210 F 
BRANCH  24  26
HETATM   26  C14 UNL     1     131.254 105.603 282.424  1.00  0.00     0.090 A 
HETATM   27  C15 UNL     1     131.162 105.243 280.973  1.00  0.00     0.044 A 
HETATM   28  C16 UNL     1     131.358 106.654 280.706  1.00  0.00    -0.012 A 
HETATM   29  C17 UNL     1     131.435 106.951 281.956  1.00  0.00     0.024 A 
BRANCH  29  30
HETATM   30  C18 UNL     1     131.612 108.240 282.679  1.00  0.00     0.289 C 
HETATM   31  O3  UNL     1     130.937 108.523 283.687  1.00  0.00    -0.260 OA
BRANCH  30  32
HETATM   32  O4  UNL     1     132.532 109.153 282.240  1.00  0.00    -0.323 OA
HETATM   33  C19 UNL     1     132.320 110.518 282.005  1.00  0.00     0.213 C 
ENDBRANCH  30  32
ENDBRANCH  29  30
ENDBRANCH  24  26
ENDBRANCH  12  23
BRANCH   5  34
HETATM   34  O1  UNL     1     128.977 102.128 286.557  1.00  0.00    -0.383 OA
ATOM     35  H1  UNL     1     129.015 102.109 285.608  1.00  0.00     0.210 HD
ENDBRANCH   5  34
BRANCH  20  36
HETATM   36  O7  UNL     1     131.163 106.980 288.670  1.00  0.00    -0.377 OA
ATOM     37  H7  UNL     1     131.478 106.603 289.484  1.00  0.00     0.211 HD
ENDBRANCH  20  36
BRANCH  15  38
HETATM   38  O5  UNL     1     126.419 105.878 286.368  1.00  0.00    -0.383 OA
HETATM   39  C23 UNL     1     126.294 106.968 285.587  1.00  0.00     0.202 C 
ENDBRANCH  15  38
TORSDOF 9
ENDMDL
MODEL 5
REMARK VINA RESULT: -8.057095124      2.316      4.406
REMARK  9 active torsions:
REMARK  status: ('A' for Active; 'I' for Inactive)
REMARK    1  A    between atoms: C4_5  and  O1_6 
REMARK    2  A    between atoms: C5_8  and  C22_30 
REMARK    3  A    between atoms: C9_12  and  O2_13 
REMARK    4  A    between atoms: C11_16  and  C12_17 
REMARK    5  A    between atoms: C13_18  and  C14_20 
REMARK    6  A    between atoms: C17_23  and  C18_24 
REMARK    7  A    between atoms: C18_24  and  O4_26 
REMARK    8  A    between atoms: C22_30  and  O5_31 
REMARK    9  A    between atoms: C27_37  and  O7_38 
ROOT
HETATM    1  C1  UNL     1     126.149 107.580 285.707  1.00  0.00     0.019 C 
HETATM    2  C2  UNL     1     126.615 106.582 286.400  1.00  0.00    -0.026 C 
HETATM    3  C3  UNL     1     127.231 106.930 287.707  1.00  0.00     0.152 C 
HETATM    4 CL1  UNL     1     126.018 107.276 288.956  1.00  0.00    -0.117 Cl
HETATM    5  C4  UNL     1     128.316 106.064 288.113  1.00  0.00     0.127 C 
HETATM    6  C5  UNL     1     128.243 104.728 288.615  1.00  0.00     0.089 C 
HETATM    7  C6  UNL     1     129.706 104.386 288.603  1.00  0.00    -0.074 C 
HETATM    8  C7  UNL     1     130.465 103.423 289.436  1.00  0.00     0.044 C 
HETATM    9  C8  UNL     1     130.348 105.123 287.669  1.00  0.00     0.021 C 
HETATM   10  C9  UNL     1     129.362 106.012 286.986  1.00  0.00     0.133 C 
HETATM   11  C10 UNL     1     128.907 105.431 285.746  1.00  0.00    -0.031 C 
HETATM   12  C11 UNL     1     129.566 105.643 284.638  1.00  0.00     0.009 C 
HETATM   13  C20 UNL     1     127.737 104.495 285.627  1.00  0.00     0.067 C 
HETATM   14  C21 UNL     1     127.946 103.337 286.552  1.00  0.00     0.052 C 
HETATM   15  C22 UNL     1     127.513 103.641 287.979  1.00  0.00     0.081 C 
HETATM   16  C24 UNL     1     126.009 103.735 287.888  1.00  0.00     0.090 C 
HETATM   17  C25 UNL     1     125.452 102.328 287.618  1.00  0.00     0.021 C 
HETATM   18  C26 UNL     1     125.526 104.545 286.743  1.00  0.00     0.172 C 
HETATM   19  O6  UNL     1     124.329 104.674 286.543  1.00  0.00    -0.294 OA
HETATM   20  C27 UNL     1     126.474 105.220 285.806  1.00  0.00     0.150 C 
ENDROOT
BRANCH  10  21
HETATM   21  O2  UNL     1     129.915 107.294 286.863  1.00  0.00    -0.378 OA
ATOM     22  H2  UNL     1     130.161 107.585 287.734  1.00  0.00     0.211 HD
ENDBRANCH  10  21
BRANCH  12  23
HETATM   23  C12 UNL     1     130.746 106.389 284.402  1.00  0.00     0.039 C 
HETATM   24  C13 UNL     1     131.923 105.863 284.156  1.00  0.00     0.102 C 
HETATM   25  F1  UNL     1     133.026 106.600 283.935  1.00  0.00    -0.210 F 
BRANCH  24  26
HETATM   26  C14 UNL     1     132.128 104.390 284.211  1.00  0.00     0.090 A 
HETATM   27  C15 UNL     1     133.592 104.075 284.220  1.00  0.00     0.044 A 
HETATM   28  C16 UNL     1     133.348 103.348 282.990  1.00  0.00    -0.012 A 
HETATM   29  C17 UNL     1     132.092 103.626 282.994  1.00  0.00     0.024 A 
BRANCH  29  30
HETATM   30  C18 UNL     1     130.973 103.259 282.083  1.00  0.00     0.289 C 
HETATM   31  O3  UNL     1     130.374 102.171 282.186  1.00  0.00    -0.260 OA
BRANCH  30  32
HETATM   32  O4  UNL     1     130.579 104.121 281.096  1.00  0.00    -0.323 OA
HETATM   33  C19 UNL     1     131.356 105.112 280.481  1.00  0.00     0.213 C 
ENDBRANCH  30  32
ENDBRANCH  29  30
ENDBRANCH  24  26
ENDBRANCH  12  23
BRANCH   5  34
HETATM   34  O1  UNL     1     129.029 106.811 289.109  1.00  0.00    -0.383 OA
ATOM     35  H1  UNL     1     129.816 106.304 289.275  1.00  0.00     0.210 HD
ENDBRANCH   5  34
BRANCH  20  36
HETATM   36  O7  UNL     1     125.865 105.373 284.558  1.00  0.00    -0.377 OA
ATOM     37  H7  UNL     1     126.475 105.047 283.905  1.00  0.00     0.211 HD
ENDBRANCH  20  36
BRANCH  15  38
HETATM   38  O5  UNL     1     127.753 102.471 288.685  1.00  0.00    -0.383 OA
HETATM   39  C23 UNL     1     127.293 102.355 289.945  1.00  0.00     0.202 C 
ENDBRANCH  15  38
TORSDOF 9
ENDMDL
