MODEL 1
REMARK VINA RESULT: -8.395010452      0.000      0.000
REMARK  7 active torsions:
REMARK  status: ('A' for Active; 'I' for Inactive)
REMARK    1  A    between atoms: C4_4  and  C5_5 
REMARK    2  A    between atoms: C6_8  and  N2_9 
REMARK    3  A    between atoms: N2_9  and  C7_11 
REMARK    4  A    between atoms: C7_11  and  C8_12 
REMARK    5  A    between atoms: N4_16  and  O2_17 
REMARK    6  A    between atoms: C9_19  and  C10_20 
REMARK    7  A    between atoms: C17_31  and  N6_32 
ROOT
HETATM    1  C5  UNL     1     134.294 105.424 286.283  1.00  0.00     0.079 A 
HETATM    2  N1  UNL     1     133.069 105.935 286.559  1.00  0.00    -0.338 N 
ATOM      3  H1  UNL     1     132.893 106.899 286.279  1.00  0.00     0.167 HD
HETATM    4  C6  UNL     1     132.063 105.275 287.173  1.00  0.00     0.123 A 
HETATM    5  C14 UNL     1     132.272 103.974 287.563  1.00  0.00     0.056 A 
HETATM    6 BR1  UNL     1     130.946 102.903 288.444  1.00  0.00    -0.047 Br
HETATM    7  C15 UNL     1     133.497 103.415 287.304  1.00  0.00     0.044 A 
HETATM    8  C16 UNL     1     134.529 104.134 286.658  1.00  0.00     0.041 A 
HETATM    9 BR2  UNL     1     136.173 103.213 286.371  1.00  0.00    -0.049 Br
ENDROOT
BRANCH   4  10
HETATM   10  N2  UNL     1     130.969 105.903 287.358  1.00  0.00    -0.349 N 
ATOM     11  H2  UNL     1     131.057 106.665 288.030  1.00  0.00     0.167 HD
BRANCH  10  12
HETATM   12  C7  UNL     1     129.677 105.776 286.841  1.00  0.00     0.123 C 
BRANCH  12  13
HETATM   13  C8  UNL     1     128.682 106.222 287.867  1.00  0.00     0.100 A 
HETATM   14  N3  UNL     1     128.850 106.310 289.168  1.00  0.00    -0.236 N 
HETATM   15  O1  UNL     1     127.738 106.741 289.725  1.00  0.00    -0.128 OA
ATOM     16  H3  UNL     1     129.709 106.079 289.668  1.00  0.00     0.197 HD
HETATM   17  N4  UNL     1     126.844 106.934 288.770  1.00  0.00    -0.103 N 
HETATM   18  C9  UNL     1     127.388 106.622 287.591  1.00  0.00     0.105 A 
BRANCH  17  19
HETATM   19  O2  UNL     1     125.563 107.394 289.074  1.00  0.00    -0.261 OA
ATOM     20  H2  UNL     1     124.909 107.496 288.393  1.00  0.00     0.247 HD
ENDBRANCH  17  19
BRANCH  18  21
HETATM   21  C10 UNL     1     126.760 106.686 286.277  1.00  0.00    -0.002 C 
HETATM   22  C11 UNL     1     126.388 105.324 285.726  1.00  0.00     0.021 C 
HETATM   23  C12 UNL     1     125.476 107.472 286.364  1.00  0.00     0.021 C 
HETATM   24  C13 UNL     1     127.643 107.441 285.273  1.00  0.00     0.021 C 
ENDBRANCH  18  21
ENDBRANCH  12  13
ENDBRANCH  10  12
ENDBRANCH   4  10
BRANCH   1  25
HETATM   25  C4  UNL     1     135.266 106.283 285.608  1.00  0.00     0.079 A 
HETATM   26  C3  UNL     1     135.619 106.292 284.307  1.00  0.00     0.057 A 
HETATM   27  C2  UNL     1     136.588 107.205 283.833  1.00  0.00     0.025 A 
HETATM   28  C1  UNL     1     136.966 107.206 282.411  1.00  0.00     0.068 C 
HETATM   29  N7  UNL     1     137.179 108.079 284.660  1.00  0.00    -0.196 N 
HETATM   30  C17 UNL     1     136.825 108.067 285.956  1.00  0.00     0.676 A 
ATOM     31  H7  UNL     1     137.879 108.735 284.314  1.00  0.00     0.184 HD
HETATM   32  N5  UNL     1     135.909 107.202 286.394  1.00  0.00    -0.190 N 
ATOM     33  H5  UNL     1     135.671 107.226 287.386  1.00  0.00     0.184 HD
BRANCH  30  34
HETATM   34  N6  UNL     1     137.406 108.919 286.745  1.00  0.00    -0.234 N 
ATOM     35  H62 UNL     1     137.889 108.550 287.564  1.00  0.00     0.174 HD
ATOM     36  H61 UNL     1     137.390 109.923 286.568  1.00  0.00     0.174 HD
ENDBRANCH  30  34
ENDBRANCH   1  25
TORSDOF 7
ENDMDL
MODEL 2
REMARK VINA RESULT: -8.379244136      2.946      4.887
REMARK  7 active torsions:
REMARK  status: ('A' for Active; 'I' for Inactive)
REMARK    1  A    between atoms: C4_4  and  C5_5 
REMARK    2  A    between atoms: C6_8  and  N2_9 
REMARK    3  A    between atoms: N2_9  and  C7_11 
REMARK    4  A    between atoms: C7_11  and  C8_12 
REMARK    5  A    between atoms: N4_16  and  O2_17 
REMARK    6  A    between atoms: C9_19  and  C10_20 
REMARK    7  A    between atoms: C17_31  and  N6_32 
ROOT
HETATM    1  C5  UNL     1     133.086 104.359 288.644  1.00  0.00     0.079 A 
HETATM    2  N1  UNL     1     131.992 105.065 288.273  1.00  0.00    -0.338 N 
ATOM      3  H1  UNL     1     131.265 105.203 288.975  1.00  0.00     0.167 HD
HETATM    4  C6  UNL     1     131.780 105.602 287.051  1.00  0.00     0.123 A 
HETATM    5  C14 UNL     1     132.741 105.432 286.083  1.00  0.00     0.056 A 
HETATM    6 BR1  UNL     1     132.592 106.131 284.303  1.00  0.00    -0.047 Br
HETATM    7  C15 UNL     1     133.867 104.723 286.414  1.00  0.00     0.044 A 
HETATM    8  C16 UNL     1     134.057 104.175 287.704  1.00  0.00     0.041 A 
HETATM    9 BR2  UNL     1     135.677 103.217 288.004  1.00  0.00    -0.049 Br
ENDROOT
BRANCH   4  10
HETATM   10  N2  UNL     1     130.693 106.240 286.865  1.00  0.00    -0.349 N 
ATOM     11  H2  UNL     1     130.811 107.252 286.918  1.00  0.00     0.167 HD
BRANCH  10  12
HETATM   12  C7  UNL     1     129.374 105.859 286.603  1.00  0.00     0.123 C 
BRANCH  12  13
HETATM   13  C8  UNL     1     128.496 106.278 287.740  1.00  0.00     0.100 A 
HETATM   14  N3  UNL     1     128.807 106.347 289.016  1.00  0.00    -0.236 N 
HETATM   15  O1  UNL     1     127.761 106.759 289.700  1.00  0.00    -0.128 OA
ATOM     16  H3  UNL     1     129.718 106.117 289.414  1.00  0.00     0.197 HD
HETATM   17  N4  UNL     1     126.765 106.958 288.854  1.00  0.00    -0.103 N 
HETATM   18  C9  UNL     1     127.176 106.670 287.616  1.00  0.00     0.105 A 
BRANCH  17  19
HETATM   19  O2  UNL     1     125.522 107.402 289.305  1.00  0.00    -0.261 OA
ATOM     20  H2  UNL     1     124.741 107.278 288.779  1.00  0.00     0.247 HD
ENDBRANCH  17  19
BRANCH  18  21
HETATM   21  C10 UNL     1     126.405 106.749 286.382  1.00  0.00    -0.002 C 
HETATM   22  C11 UNL     1     125.866 105.408 285.927  1.00  0.00     0.021 C 
HETATM   23  C12 UNL     1     125.206 107.640 286.586  1.00  0.00     0.021 C 
HETATM   24  C13 UNL     1     127.221 107.402 285.256  1.00  0.00     0.021 C 
ENDBRANCH  18  21
ENDBRANCH  12  13
ENDBRANCH  10  12
ENDBRANCH   4  10
BRANCH   1  25
HETATM   25  C4  UNL     1     133.150 103.850 290.014  1.00  0.00     0.079 A 
HETATM   26  C3  UNL     1     132.292 103.022 290.643  1.00  0.00     0.057 A 
HETATM   27  C2  UNL     1     132.519 102.635 291.982  1.00  0.00     0.025 A 
HETATM   28  C1  UNL     1     131.577 101.731 292.659  1.00  0.00     0.068 C 
HETATM   29  N7  UNL     1     133.587 103.081 292.659  1.00  0.00    -0.196 N 
HETATM   30  C17 UNL     1     134.441 103.907 292.030  1.00  0.00     0.676 A 
ATOM     31  H7  UNL     1     133.748 102.801 293.627  1.00  0.00     0.184 HD
HETATM   32  N5  UNL     1     134.216 104.265 290.765  1.00  0.00    -0.190 N 
ATOM     33  H5  UNL     1     134.889 104.895 290.326  1.00  0.00     0.184 HD
BRANCH  30  34
HETATM   34  N6  UNL     1     135.470 104.330 292.698  1.00  0.00    -0.234 N 
ATOM     35  H62 UNL     1     136.255 104.707 292.167  1.00  0.00     0.174 HD
ATOM     36  H61 UNL     1     135.510 104.293 293.717  1.00  0.00     0.174 HD
ENDBRANCH  30  34
ENDBRANCH   1  25
TORSDOF 7
ENDMDL
MODEL 3
REMARK VINA RESULT: -8.340598598      3.488      4.325
REMARK  7 active torsions:
REMARK  status: ('A' for Active; 'I' for Inactive)
REMARK    1  A    between atoms: C4_4  and  C5_5 
REMARK    2  A    between atoms: C6_8  and  N2_9 
REMARK    3  A    between atoms: N2_9  and  C7_11 
REMARK    4  A    between atoms: C7_11  and  C8_12 
REMARK    5  A    between atoms: N4_16  and  O2_17 
REMARK    6  A    between atoms: C9_19  and  C10_20 
REMARK    7  A    between atoms: C17_31  and  N6_32 
ROOT
HETATM    1  C5  UNL     1     134.203 105.612 285.882  1.00  0.00     0.079 A 
HETATM    2  N1  UNL     1     132.935 106.043 285.677  1.00  0.00    -0.338 N 
ATOM      3  H1  UNL     1     132.816 106.912 285.157  1.00  0.00     0.167 HD
HETATM    4  C6  UNL     1     131.814 105.420 286.103  1.00  0.00     0.123 A 
HETATM    5  C14 UNL     1     131.942 104.247 286.808  1.00  0.00     0.056 A 
HETATM    6 BR1  UNL     1     130.452 103.242 287.480  1.00  0.00    -0.047 Br
HETATM    7  C15 UNL     1     133.208 103.771 287.039  1.00  0.00     0.044 A 
HETATM    8  C16 UNL     1     134.360 104.449 286.578  1.00  0.00     0.041 A 
HETATM    9 BR2  UNL     1     136.046 103.657 286.982  1.00  0.00    -0.049 Br
ENDROOT
BRANCH   4  10
HETATM   10  N2  UNL     1     130.694 105.960 285.825  1.00  0.00    -0.349 N 
ATOM     11  H2  UNL     1     130.131 106.157 286.653  1.00  0.00     0.167 HD
BRANCH  10  12
HETATM   12  C7  UNL     1     130.068 106.342 284.636  1.00  0.00     0.123 C 
BRANCH  12  13
HETATM   13  C8  UNL     1     129.782 105.128 283.808  1.00  0.00     0.100 A 
HETATM   14  N3  UNL     1     128.928 104.161 284.064  1.00  0.00    -0.236 N 
HETATM   15  O1  UNL     1     128.969 103.272 283.094  1.00  0.00    -0.128 OA
ATOM     16  H3  UNL     1     128.327 104.107 284.887  1.00  0.00     0.197 HD
HETATM   17  N4  UNL     1     129.860 103.673 282.202  1.00  0.00    -0.103 N 
HETATM   18  C9  UNL     1     130.395 104.829 282.606  1.00  0.00     0.105 A 
BRANCH  17  19
HETATM   19  O2  UNL     1     130.113 102.919 281.057  1.00  0.00    -0.261 OA
ATOM     20  H2  UNL     1     130.959 102.509 280.922  1.00  0.00     0.247 HD
ENDBRANCH  17  19
BRANCH  18  21
HETATM   21  C10 UNL     1     131.413 105.621 281.929  1.00  0.00    -0.002 C 
HETATM   22  C11 UNL     1     131.396 107.083 282.328  1.00  0.00     0.021 C 
HETATM   23  C12 UNL     1     132.783 105.102 282.285  1.00  0.00     0.021 C 
HETATM   24  C13 UNL     1     131.302 105.486 280.403  1.00  0.00     0.021 C 
ENDBRANCH  18  21
ENDBRANCH  12  13
ENDBRANCH  10  12
ENDBRANCH   4  10
BRANCH   1  25
HETATM   25  C4  UNL     1     135.302 106.415 285.347  1.00  0.00     0.079 A 
HETATM   26  C3  UNL     1     135.821 106.405 284.103  1.00  0.00     0.057 A 
HETATM   27  C2  UNL     1     136.893 107.261 283.767  1.00  0.00     0.025 A 
HETATM   28  C1  UNL     1     137.452 107.243 282.406  1.00  0.00     0.068 C 
HETATM   29  N7  UNL     1     137.421 108.098 284.671  1.00  0.00    -0.196 N 
HETATM   30  C17 UNL     1     136.902 108.105 285.911  1.00  0.00     0.676 A 
ATOM     31  H7  UNL     1     138.196 108.714 284.426  1.00  0.00     0.184 HD
HETATM   32  N5  UNL     1     135.889 107.293 286.218  1.00  0.00    -0.190 N 
ATOM     33  H5  UNL     1     135.526 107.330 287.171  1.00  0.00     0.184 HD
BRANCH  30  34
HETATM   34  N6  UNL     1     137.422 108.921 286.776  1.00  0.00    -0.234 N 
ATOM     35  H62 UNL     1     138.149 108.555 287.392  1.00  0.00     0.174 HD
ATOM     36  H61 UNL     1     137.128 109.894 286.852  1.00  0.00     0.174 HD
ENDBRANCH  30  34
ENDBRANCH   1  25
TORSDOF 7
ENDMDL
MODEL 4
REMARK VINA RESULT: -8.146729727      3.439      4.908
REMARK  7 active torsions:
REMARK  status: ('A' for Active; 'I' for Inactive)
REMARK    1  A    between atoms: C4_4  and  C5_5 
REMARK    2  A    between atoms: C6_8  and  N2_9 
REMARK    3  A    between atoms: N2_9  and  C7_11 
REMARK    4  A    between atoms: C7_11  and  C8_12 
REMARK    5  A    between atoms: N4_16  and  O2_17 
REMARK    6  A    between atoms: C9_19  and  C10_20 
REMARK    7  A    between atoms: C17_31  and  N6_32 
ROOT
HETATM    1  C5  UNL     1     132.676 104.447 288.954  1.00  0.00     0.079 A 
HETATM    2  N1  UNL     1     131.413 104.905 289.132  1.00  0.00    -0.338 N 
ATOM      3  H1  UNL     1     130.948 104.661 290.006  1.00  0.00     0.167 HD
HETATM    4  C6  UNL     1     130.719 105.658 288.251  1.00  0.00     0.123 A 
HETATM    5  C14 UNL     1     131.320 106.003 287.065  1.00  0.00     0.056 A 
HETATM    6 BR1  UNL     1     130.469 107.067 285.712  1.00  0.00    -0.047 Br
HETATM    7  C15 UNL     1     132.598 105.562 286.840  1.00  0.00     0.044 A 
HETATM    8  C16 UNL     1     133.297 104.775 287.785  1.00  0.00     0.041 A 
HETATM    9 BR2  UNL     1     135.067 104.242 287.322  1.00  0.00    -0.049 Br
ENDROOT
BRANCH   4  10
HETATM   10  N2  UNL     1     129.536 106.008 288.574  1.00  0.00    -0.349 N 
ATOM     11  H2  UNL     1     129.479 106.978 288.885  1.00  0.00     0.167 HD
BRANCH  10  12
HETATM   12  C7  UNL     1     128.301 105.355 288.596  1.00  0.00     0.123 C 
BRANCH  12  13
HETATM   13  C8  UNL     1     127.200 106.367 288.644  1.00  0.00     0.100 A 
HETATM   14  N3  UNL     1     126.859 107.140 289.652  1.00  0.00    -0.236 N 
HETATM   15  O1  UNL     1     125.839 107.894 289.301  1.00  0.00    -0.128 OA
ATOM     16  H3  UNL     1     127.315 107.153 290.565  1.00  0.00     0.197 HD
HETATM   17  N4  UNL     1     125.520 107.603 288.051  1.00  0.00    -0.103 N 
HETATM   18  C9  UNL     1     126.342 106.653 287.598  1.00  0.00     0.105 A 
BRANCH  17  19
HETATM   19  O2  UNL     1     124.465 108.256 287.412  1.00  0.00    -0.261 OA
ATOM     20  H2  UNL     1     124.488 108.416 286.476  1.00  0.00     0.247 HD
ENDBRANCH  17  19
BRANCH  18  21
HETATM   21  C10 UNL     1     126.348 106.038 286.277  1.00  0.00    -0.002 C 
HETATM   22  C11 UNL     1     127.315 104.877 286.163  1.00  0.00     0.021 C 
HETATM   23  C12 UNL     1     124.981 105.482 285.968  1.00  0.00     0.021 C 
HETATM   24  C13 UNL     1     126.633 107.074 285.179  1.00  0.00     0.021 C 
ENDBRANCH  18  21
ENDBRANCH  12  13
ENDBRANCH  10  12
ENDBRANCH   4  10
BRANCH   1  25
HETATM   25  C4  UNL     1     133.277 103.643 290.017  1.00  0.00     0.079 A 
HETATM   26  C3  UNL     1     133.193 102.311 290.213  1.00  0.00     0.057 A 
HETATM   27  C2  UNL     1     133.848 101.705 291.307  1.00  0.00     0.025 A 
HETATM   28  C1  UNL     1     133.751 100.251 291.511  1.00  0.00     0.068 C 
HETATM   29  N7  UNL     1     134.564 102.433 292.176  1.00  0.00    -0.196 N 
HETATM   30  C17 UNL     1     134.646 103.760 291.978  1.00  0.00     0.676 A 
ATOM     31  H7  UNL     1     135.035 101.992 292.965  1.00  0.00     0.184 HD
HETATM   32  N5  UNL     1     134.024 104.323 290.941  1.00  0.00    -0.190 N 
ATOM     33  H5  UNL     1     134.111 105.333 290.829  1.00  0.00     0.184 HD
BRANCH  30  34
HETATM   34  N6  UNL     1     135.343 104.451 292.827  1.00  0.00    -0.234 N 
ATOM     35  H62 UNL     1     135.491 105.440 292.622  1.00  0.00     0.174 HD
ATOM     36  H61 UNL     1     135.736 104.039 293.672  1.00  0.00     0.174 HD
ENDBRANCH  30  34
ENDBRANCH   1  25
TORSDOF 7
ENDMDL
MODEL 5
REMARK VINA RESULT: -8.143113675      3.508      5.294
REMARK  7 active torsions:
REMARK  status: ('A' for Active; 'I' for Inactive)
REMARK    1  A    between atoms: C4_4  and  C5_5 
REMARK    2  A    between atoms: C6_8  and  N2_9 
REMARK    3  A    between atoms: N2_9  and  C7_11 
REMARK    4  A    between atoms: C7_11  and  C8_12 
REMARK    5  A    between atoms: N4_16  and  O2_17 
REMARK    6  A    between atoms: C9_19  and  C10_20 
REMARK    7  A    between atoms: C17_31  and  N6_32 
ROOT
HETATM    1  C5  UNL     1     133.116 103.890 289.634  1.00  0.00     0.079 A 
HETATM    2  N1  UNL     1     132.455 105.007 289.245  1.00  0.00    -0.338 N 
ATOM      3  H1  UNL     1     132.193 105.671 289.973  1.00  0.00     0.167 HD
HETATM    4  C6  UNL     1     132.112 105.315 287.975  1.00  0.00     0.123 A 
HETATM    5  C14 UNL     1     132.450 104.438 286.972  1.00  0.00     0.056 A 
HETATM    6 BR1  UNL     1     132.037 104.730 285.121  1.00  0.00    -0.047 Br
HETATM    7  C15 UNL     1     133.121 103.294 287.318  1.00  0.00     0.044 A 
HETATM    8  C16 UNL     1     133.466 103.003 288.659  1.00  0.00     0.041 A 
HETATM    9 BR2  UNL     1     134.398 101.371 288.974  1.00  0.00    -0.049 Br
ENDROOT
BRANCH   4  10
HETATM   10  N2  UNL     1     131.489 106.409 287.778  1.00  0.00    -0.349 N 
ATOM     11  H2  UNL     1     131.873 107.187 288.315  1.00  0.00     0.167 HD
BRANCH  10  12
HETATM   12  C7  UNL     1     130.396 106.778 286.989  1.00  0.00     0.123 C 
BRANCH  12  13
HETATM   13  C8  UNL     1     129.128 106.549 287.751  1.00  0.00     0.100 A 
HETATM   14  N3  UNL     1     128.987 106.373 289.046  1.00  0.00    -0.236 N 
HETATM   15  O1  UNL     1     127.713 106.202 289.329  1.00  0.00    -0.128 OA
ATOM     16  H3  UNL     1     129.747 106.368 289.727  1.00  0.00     0.197 HD
HETATM   17  N4  UNL     1     127.026 106.271 288.201  1.00  0.00    -0.103 N 
HETATM   18  C9  UNL     1     127.868 106.486 287.187  1.00  0.00     0.105 A 
BRANCH  17  19
HETATM   19  O2  UNL     1     125.639 106.126 288.200  1.00  0.00    -0.261 OA
ATOM     20  H2  UNL     1     125.070 106.886 288.226  1.00  0.00     0.247 HD
ENDBRANCH  17  19
BRANCH  18  21
HETATM   21  C10 UNL     1     127.540 106.628 285.774  1.00  0.00    -0.002 C 
HETATM   22  C11 UNL     1     126.141 107.160 285.535  1.00  0.00     0.021 C 
HETATM   23  C12 UNL     1     128.483 107.612 285.128  1.00  0.00     0.021 C 
HETATM   24  C13 UNL     1     127.740 105.305 285.019  1.00  0.00     0.021 C 
ENDBRANCH  18  21
ENDBRANCH  12  13
ENDBRANCH  10  12
ENDBRANCH   4  10
BRANCH   1  25
HETATM   25  C4  UNL     1     133.407 103.719 291.057  1.00  0.00     0.079 A 
HETATM   26  C3  UNL     1     132.628 103.177 292.014  1.00  0.00     0.057 A 
HETATM   27  C2  UNL     1     133.083 103.096 293.349  1.00  0.00     0.025 A 
HETATM   28  C1  UNL     1     132.225 102.502 294.386  1.00  0.00     0.068 C 
HETATM   29  N7  UNL     1     134.294 103.554 293.696  1.00  0.00    -0.196 N 
HETATM   30  C17 UNL     1     135.069 104.094 292.740  1.00  0.00     0.676 A 
ATOM     31  H7  UNL     1     134.619 103.495 294.661  1.00  0.00     0.184 HD
HETATM   32  N5  UNL     1     134.629 104.166 291.482  1.00  0.00    -0.190 N 
ATOM     33  H5  UNL     1     135.249 104.584 290.788  1.00  0.00     0.184 HD
BRANCH  30  34
HETATM   34  N6  UNL     1     136.238 104.534 293.091  1.00  0.00    -0.234 N 
ATOM     35  H62 UNL     1     136.276 105.413 293.608  1.00  0.00     0.174 HD
ATOM     36  H61 UNL     1     137.098 104.033 292.868  1.00  0.00     0.174 HD
ENDBRANCH  30  34
ENDBRANCH   1  25
TORSDOF 7
ENDMDL
