MODEL 1
REMARK VINA RESULT: -7.656301996      0.000      0.000
REMARK  10 active torsions:
REMARK  status: ('A' for Active; 'I' for Inactive)
REMARK    1  A    between atoms: N1_1  and  C1_4 
REMARK    2  A    between atoms: C2_7  and  N3_8 
REMARK    3  A    between atoms: N3_8  and  C3_10 
REMARK    4  A    between atoms: C3_10  and  C4_11 
REMARK    5  A    between atoms: C4_11  and  S1_12 
REMARK    6  A    between atoms: S1_12  and  C5_13 
REMARK    7  A    between atoms: C7_25  and  C8_26 
REMARK    8  A    between atoms: C11_32  and  C12_33 
REMARK    9  A    between atoms: C12_33  and  O2_34 
REMARK   10  A    between atoms: C12_33  and  O3_36 
ROOT
HETATM    1  C1  UNL     1     -29.685   5.091 -31.731  1.00  0.00     0.679 A 
HETATM    2  N2  UNL     1     -31.020   5.158 -31.591  1.00  0.00    -0.175 N 
ATOM      3  H2  UNL     1     -31.607   5.235 -32.421  1.00  0.00     0.186 HD
HETATM    4  C2  UNL     1     -31.595   5.125 -30.376  1.00  0.00     0.147 A 
HETATM    5  C6  UNL     1     -30.736   5.018 -29.288  1.00  0.00     0.125 A 
HETATM    6  N8  UNL     1     -31.279   4.983 -28.034  1.00  0.00    -0.332 N 
ATOM      7  H8  UNL     1     -32.290   5.033 -27.910  1.00  0.00     0.168 HD
HETATM    8  C7  UNL     1     -30.473   4.882 -26.967  1.00  0.00     0.173 A 
HETATM    9  N10 UNL     1     -29.149   4.819 -27.179  1.00  0.00    -0.280 N 
ATOM     10  H10 UNL     1     -28.550   4.741 -26.358  1.00  0.00     0.188 HD
HETATM   11  N11 UNL     1     -28.557   4.849 -28.355  1.00  0.00    -0.281 N 
ATOM     12  H11 UNL     1     -27.542   4.798 -28.444  1.00  0.00     0.188 HD
HETATM   13  C13 UNL     1     -29.369   4.951 -29.451  1.00  0.00     0.166 A 
HETATM   14  N12 UNL     1     -28.849   4.989 -30.688  1.00  0.00    -0.173 N 
ATOM     15  H12 UNL     1     -27.841   4.941 -30.831  1.00  0.00     0.186 HD
ENDROOT
BRANCH   4  16
HETATM   16  N3  UNL     1     -32.864   5.186 -30.177  1.00  0.00    -0.373 N 
ATOM     17  H3  UNL     1     -33.362   4.396 -29.768  1.00  0.00     0.161 HD
BRANCH  16  18
HETATM   18  C3  UNL     1     -33.578   6.397 -30.543  1.00  0.00     0.132 C 
BRANCH  18  19
HETATM   19  C4  UNL     1     -33.712   7.336 -29.361  1.00  0.00     0.102 C 
BRANCH  19  20
HETATM   20  S1  UNL     1     -32.486   8.661 -29.406  1.00  0.00    -0.090 SA
BRANCH  20  21
HETATM   21  C5  UNL     1     -31.300   8.500 -28.091  1.00  0.00     0.176 A 
HETATM   22  N4  UNL     1     -31.557   8.463 -26.763  1.00  0.00    -0.263 N 
HETATM   23  N5  UNL     1     -30.422   8.337 -26.101  1.00  0.00    -0.226 N 
ATOM     24  H4  UNL     1     -32.483   8.523 -26.339  1.00  0.00     0.190 HD
HETATM   25  N6  UNL     1     -29.457   8.297 -26.999  1.00  0.00    -0.226 N 
ATOM     26  H5  UNL     1     -30.313   8.282 -25.088  1.00  0.00     0.210 HD
HETATM   27  N7  UNL     1     -29.969   8.395 -28.216  1.00  0.00    -0.263 N 
ATOM     28  H6  UNL     1     -28.463   8.205 -26.788  1.00  0.00     0.210 HD
ATOM     29  H7  UNL     1     -29.446   8.391 -29.091  1.00  0.00     0.190 HD
ENDBRANCH  20  21
ENDBRANCH  19  20
ENDBRANCH  18  19
ENDBRANCH  16  18
ENDBRANCH   4  16
BRANCH   1  30
HETATM   30  N1  UNL     1     -29.139   5.124 -32.923  1.00  0.00    -0.234 N 
ATOM     31  H12 UNL     1     -29.186   4.266 -33.474  1.00  0.00     0.174 HD
ATOM     32  H11 UNL     1     -28.695   5.976 -33.265  1.00  0.00     0.174 HD
ENDBRANCH   1  30
BRANCH   8  33
HETATM   33  C8  UNL     1     -31.023   4.840 -25.594  1.00  0.00     0.197 A 
HETATM   34  N9  UNL     1     -30.972   3.728 -24.852  1.00  0.00    -0.300 N 
HETATM   35  C9  UNL     1     -31.454   3.621 -23.598  1.00  0.00     0.249 A 
ATOM     36  H9  UNL     1     -30.539   2.902 -25.264  1.00  0.00     0.171 HD
HETATM   37  O1  UNL     1     -31.403   2.587 -22.917  1.00  0.00    -0.268 OA
HETATM   38  C10 UNL     1     -32.038   4.751 -23.053  1.00  0.00     0.112 A 
HETATM   39  C11 UNL     1     -32.079   5.882 -23.833  1.00  0.00     0.115 A 
HETATM   40  O4  UNL     1     -31.578   5.903 -25.069  1.00  0.00    -0.289 OA
BRANCH  39  41
HETATM   41  C12 UNL     1     -32.705   7.099 -23.254  1.00  0.00     0.312 C 
BRANCH  41  42
HETATM   42  O2  UNL     1     -32.088   8.221 -23.822  1.00  0.00    -0.365 OA
ATOM     43  H2  UNL     1     -32.436   8.997 -23.400  1.00  0.00     0.213 HD
ENDBRANCH  41  42
BRANCH  41  44
HETATM   44  O3  UNL     1     -32.428   7.096 -21.894  1.00  0.00    -0.365 OA
ATOM     45  H3  UNL     1     -31.952   6.296 -21.707  1.00  0.00     0.213 HD
ENDBRANCH  41  44
ENDBRANCH  39  41
ENDBRANCH   8  33
TORSDOF 10
ENDMDL
MODEL 2
REMARK VINA RESULT: -7.461861142      4.414      7.709
REMARK  10 active torsions:
REMARK  status: ('A' for Active; 'I' for Inactive)
REMARK    1  A    between atoms: N1_1  and  C1_4 
REMARK    2  A    between atoms: C2_7  and  N3_8 
REMARK    3  A    between atoms: N3_8  and  C3_10 
REMARK    4  A    between atoms: C3_10  and  C4_11 
REMARK    5  A    between atoms: C4_11  and  S1_12 
REMARK    6  A    between atoms: S1_12  and  C5_13 
REMARK    7  A    between atoms: C7_25  and  C8_26 
REMARK    8  A    between atoms: C11_32  and  C12_33 
REMARK    9  A    between atoms: C12_33  and  O2_34 
REMARK   10  A    between atoms: C12_33  and  O3_36 
ROOT
HETATM    1  C1  UNL     1     -36.250  10.473 -19.937  1.00  0.00     0.679 A 
HETATM    2  N2  UNL     1     -36.578  10.666 -21.227  1.00  0.00    -0.175 N 
ATOM      3  H2  UNL     1     -37.353  11.286 -21.459  1.00  0.00     0.186 HD
HETATM    4  C2  UNL     1     -35.900  10.056 -22.215  1.00  0.00     0.147 A 
HETATM    5  C6  UNL     1     -34.855   9.225 -21.828  1.00  0.00     0.125 A 
HETATM    6  N8  UNL     1     -34.141   8.584 -22.802  1.00  0.00    -0.332 N 
ATOM      7  H8  UNL     1     -34.376   8.719 -23.785  1.00  0.00     0.168 HD
HETATM    8  C7  UNL     1     -33.129   7.776 -22.455  1.00  0.00     0.173 A 
HETATM    9  N10 UNL     1     -32.855   7.629 -21.149  1.00  0.00    -0.280 N 
ATOM     10  H10 UNL     1     -32.081   7.013 -20.902  1.00  0.00     0.188 HD
HETATM   11  N11 UNL     1     -33.499   8.213 -20.160  1.00  0.00    -0.281 N 
ATOM     12  H11 UNL     1     -33.239   8.055 -19.186  1.00  0.00     0.188 HD
HETATM   13  C13 UNL     1     -34.534   9.039 -20.501  1.00  0.00     0.166 A 
HETATM   14  N12 UNL     1     -35.244   9.674 -19.555  1.00  0.00    -0.173 N 
ATOM     15  H12 UNL     1     -35.024   9.550 -18.567  1.00  0.00     0.186 HD
ENDROOT
BRANCH   4  16
HETATM   16  N3  UNL     1     -36.166  10.198 -23.466  1.00  0.00    -0.373 N 
ATOM     17  H3  UNL     1     -36.649   9.461 -23.979  1.00  0.00     0.161 HD
BRANCH  16  18
HETATM   18  C3  UNL     1     -35.766  11.423 -24.137  1.00  0.00     0.132 C 
BRANCH  18  19
HETATM   19  C4  UNL     1     -35.310  11.150 -25.555  1.00  0.00     0.102 C 
BRANCH  19  20
HETATM   20  S1  UNL     1     -33.534  10.835 -25.647  1.00  0.00    -0.090 SA
BRANCH  20  21
HETATM   21  C5  UNL     1     -33.167   9.456 -26.707  1.00  0.00     0.176 A 
HETATM   22  N4  UNL     1     -32.344   9.451 -27.781  1.00  0.00    -0.263 N 
HETATM   23  N5  UNL     1     -32.327   8.244 -28.315  1.00  0.00    -0.226 N 
ATOM     24  H4  UNL     1     -31.818  10.254 -28.125  1.00  0.00     0.190 HD
HETATM   25  N6  UNL     1     -33.133   7.493 -27.588  1.00  0.00    -0.226 N 
ATOM     26  H5  UNL     1     -31.794   7.948 -29.132  1.00  0.00     0.210 HD
HETATM   27  N7  UNL     1     -33.654   8.211 -26.605  1.00  0.00    -0.263 N 
ATOM     28  H6  UNL     1     -33.325   6.506 -27.758  1.00  0.00     0.210 HD
ATOM     29  H7  UNL     1     -34.308   7.877 -25.898  1.00  0.00     0.190 HD
ENDBRANCH  20  21
ENDBRANCH  19  20
ENDBRANCH  18  19
ENDBRANCH  16  18
ENDBRANCH   4  16
BRANCH   1  30
HETATM   30  N1  UNL     1     -36.920  11.076 -18.984  1.00  0.00    -0.234 N 
ATOM     31  H12 UNL     1     -37.292  12.001 -19.199  1.00  0.00     0.174 HD
ATOM     32  H11 UNL     1     -37.052  10.624 -18.080  1.00  0.00     0.174 HD
ENDBRANCH   1  30
BRANCH   8  33
HETATM   33  C8  UNL     1     -32.332   7.065 -23.480  1.00  0.00     0.197 A 
HETATM   34  N9  UNL     1     -32.491   5.756 -23.709  1.00  0.00    -0.300 N 
HETATM   35  C9  UNL     1     -31.800   5.049 -24.624  1.00  0.00     0.249 A 
ATOM     36  H9  UNL     1     -33.184   5.258 -23.150  1.00  0.00     0.171 HD
HETATM   37  O1  UNL     1     -31.954   3.836 -24.829  1.00  0.00    -0.268 OA
HETATM   38  C10 UNL     1     -30.864   5.739 -25.372  1.00  0.00     0.112 A 
HETATM   39  C11 UNL     1     -30.717   7.083 -25.121  1.00  0.00     0.115 A 
HETATM   40  O4  UNL     1     -31.444   7.709 -24.194  1.00  0.00    -0.289 OA
BRANCH  39  41
HETATM   41  C12 UNL     1     -29.713   7.831 -25.922  1.00  0.00     0.312 C 
BRANCH  41  42
HETATM   42  O2  UNL     1     -30.065   9.187 -25.907  1.00  0.00    -0.365 OA
ATOM     43  H2  UNL     1     -29.268   9.701 -25.970  1.00  0.00     0.213 HD
ENDBRANCH  41  42
BRANCH  41  44
HETATM   44  O3  UNL     1     -29.808   7.374 -27.229  1.00  0.00    -0.365 OA
ATOM     45  H3  UNL     1     -28.932   7.388 -27.596  1.00  0.00     0.213 HD
ENDBRANCH  41  44
ENDBRANCH  39  41
ENDBRANCH   8  33
TORSDOF 10
ENDMDL
MODEL 3
REMARK VINA RESULT: -7.346052191      4.270      7.741
REMARK  10 active torsions:
REMARK  status: ('A' for Active; 'I' for Inactive)
REMARK    1  A    between atoms: N1_1  and  C1_4 
REMARK    2  A    between atoms: C2_7  and  N3_8 
REMARK    3  A    between atoms: N3_8  and  C3_10 
REMARK    4  A    between atoms: C3_10  and  C4_11 
REMARK    5  A    between atoms: C4_11  and  S1_12 
REMARK    6  A    between atoms: S1_12  and  C5_13 
REMARK    7  A    between atoms: C7_25  and  C8_26 
REMARK    8  A    between atoms: C11_32  and  C12_33 
REMARK    9  A    between atoms: C12_33  and  O2_34 
REMARK   10  A    between atoms: C12_33  and  O3_36 
ROOT
HETATM    1  C1  UNL     1     -36.021  10.481 -19.925  1.00  0.00     0.679 A 
HETATM    2  N2  UNL     1     -36.258  10.815 -21.206  1.00  0.00    -0.175 N 
ATOM      3  H2  UNL     1     -36.966  11.518 -21.417  1.00  0.00     0.186 HD
HETATM    4  C2  UNL     1     -35.578  10.238 -22.212  1.00  0.00     0.147 A 
HETATM    5  C6  UNL     1     -34.627   9.289 -21.852  1.00  0.00     0.125 A 
HETATM    6  N8  UNL     1     -33.914   8.677 -22.846  1.00  0.00    -0.332 N 
ATOM      7  H8  UNL     1     -34.082   8.919 -23.822  1.00  0.00     0.168 HD
HETATM    8  C7  UNL     1     -32.993   7.757 -22.526  1.00  0.00     0.173 A 
HETATM    9  N10 UNL     1     -32.806   7.473 -21.228  1.00  0.00    -0.280 N 
ATOM     10  H10 UNL     1     -32.101   6.772 -21.002  1.00  0.00     0.188 HD
HETATM   11  N11 UNL     1     -33.455   8.020 -20.221  1.00  0.00    -0.281 N 
ATOM     12  H11 UNL     1     -33.264   7.756 -19.255  1.00  0.00     0.188 HD
HETATM   13  C13 UNL     1     -34.398   8.960 -20.534  1.00  0.00     0.166 A 
HETATM   14  N12 UNL     1     -35.106   9.568 -19.569  1.00  0.00    -0.173 N 
ATOM     15  H12 UNL     1     -34.953   9.339 -18.588  1.00  0.00     0.186 HD
ENDROOT
BRANCH   4  16
HETATM   16  N3  UNL     1     -35.759  10.513 -23.455  1.00  0.00    -0.373 N 
ATOM     17  H3  UNL     1     -35.170  11.200 -23.925  1.00  0.00     0.161 HD
BRANCH  16  18
HETATM   18  C3  UNL     1     -36.816   9.830 -24.181  1.00  0.00     0.132 C 
BRANCH  18  19
HETATM   19  C4  UNL     1     -36.323   9.318 -25.519  1.00  0.00     0.102 C 
BRANCH  19  20
HETATM   20  S1  UNL     1     -34.807  10.147 -26.045  1.00  0.00    -0.090 SA
BRANCH  20  21
HETATM   21  C5  UNL     1     -33.829   9.111 -27.108  1.00  0.00     0.176 A 
HETATM   22  N4  UNL     1     -34.001   7.789 -27.340  1.00  0.00    -0.263 N 
HETATM   23  N5  UNL     1     -33.078   7.369 -28.186  1.00  0.00    -0.226 N 
ATOM     24  H4  UNL     1     -34.729   7.207 -26.927  1.00  0.00     0.190 HD
HETATM   25  N6  UNL     1     -32.329   8.414 -28.485  1.00  0.00    -0.226 N 
ATOM     26  H5  UNL     1     -32.966   6.419 -28.540  1.00  0.00     0.210 HD
HETATM   27  N7  UNL     1     -32.768   9.483 -27.840  1.00  0.00    -0.263 N 
ATOM     28  H6  UNL     1     -31.530   8.399 -29.119  1.00  0.00     0.210 HD
ATOM     29  H7  UNL     1     -32.372  10.421 -27.891  1.00  0.00     0.190 HD
ENDBRANCH  20  21
ENDBRANCH  19  20
ENDBRANCH  18  19
ENDBRANCH  16  18
ENDBRANCH   4  16
BRANCH   1  30
HETATM   30  N1  UNL     1     -36.692  11.053 -18.954  1.00  0.00    -0.234 N 
ATOM     31  H12 UNL     1     -36.634  12.070 -18.893  1.00  0.00     0.174 HD
ATOM     32  H11 UNL     1     -37.239  10.491 -18.303  1.00  0.00     0.174 HD
ENDBRANCH   1  30
BRANCH   8  33
HETATM   33  C8  UNL     1     -32.200   7.073 -23.573  1.00  0.00     0.197 A 
HETATM   34  N9  UNL     1     -31.614   7.753 -24.565  1.00  0.00    -0.300 N 
HETATM   35  C9  UNL     1     -30.881   7.195 -25.548  1.00  0.00     0.249 A 
ATOM     36  H9  UNL     1     -31.730   8.766 -24.579  1.00  0.00     0.171 HD
HETATM   37  O1  UNL     1     -30.341   7.832 -26.464  1.00  0.00    -0.268 OA
HETATM   38  C10 UNL     1     -30.733   5.819 -25.514  1.00  0.00     0.112 A 
HETATM   39  C11 UNL     1     -31.343   5.141 -24.486  1.00  0.00     0.115 A 
HETATM   40  O4  UNL     1     -32.054   5.773 -23.550  1.00  0.00    -0.289 OA
BRANCH  39  41
HETATM   41  C12 UNL     1     -31.189   3.664 -24.443  1.00  0.00     0.312 C 
BRANCH  41  42
HETATM   42  O2  UNL     1     -32.414   3.085 -24.800  1.00  0.00    -0.365 OA
ATOM     43  H2  UNL     1     -32.273   2.540 -25.564  1.00  0.00     0.213 HD
ENDBRANCH  41  42
BRANCH  41  44
HETATM   44  O3  UNL     1     -30.914   3.318 -23.127  1.00  0.00    -0.365 OA
ATOM     45  H3  UNL     1     -30.022   3.588 -22.946  1.00  0.00     0.213 HD
ENDBRANCH  41  44
ENDBRANCH  39  41
ENDBRANCH   8  33
TORSDOF 10
ENDMDL
MODEL 4
REMARK VINA RESULT: -7.320712933      5.389      8.647
REMARK  10 active torsions:
REMARK  status: ('A' for Active; 'I' for Inactive)
REMARK    1  A    between atoms: N1_1  and  C1_4 
REMARK    2  A    between atoms: C2_7  and  N3_8 
REMARK    3  A    between atoms: N3_8  and  C3_10 
REMARK    4  A    between atoms: C3_10  and  C4_11 
REMARK    5  A    between atoms: C4_11  and  S1_12 
REMARK    6  A    between atoms: S1_12  and  C5_13 
REMARK    7  A    between atoms: C7_25  and  C8_26 
REMARK    8  A    between atoms: C11_32  and  C12_33 
REMARK    9  A    between atoms: C12_33  and  O2_34 
REMARK   10  A    between atoms: C12_33  and  O3_36 
ROOT
HETATM    1  C1  UNL     1     -36.153  10.479 -19.904  1.00  0.00     0.679 A 
HETATM    2  N2  UNL     1     -36.421  10.785 -21.186  1.00  0.00    -0.175 N 
ATOM      3  H2  UNL     1     -37.157  11.458 -21.396  1.00  0.00     0.186 HD
HETATM    4  C2  UNL     1     -35.736  10.216 -22.194  1.00  0.00     0.147 A 
HETATM    5  C6  UNL     1     -34.747   9.307 -21.835  1.00  0.00     0.125 A 
HETATM    6  N8  UNL     1     -34.029   8.705 -22.831  1.00  0.00    -0.332 N 
ATOM      7  H8  UNL     1     -34.220   8.925 -23.808  1.00  0.00     0.168 HD
HETATM    8  C7  UNL     1     -33.070   7.823 -22.512  1.00  0.00     0.173 A 
HETATM    9  N10 UNL     1     -32.854   7.566 -21.213  1.00  0.00    -0.280 N 
ATOM     10  H10 UNL     1     -32.121   6.894 -20.987  1.00  0.00     0.188 HD
HETATM   11  N11 UNL     1     -33.506   8.106 -20.205  1.00  0.00    -0.281 N 
ATOM     12  H11 UNL     1     -33.291   7.863 -19.237  1.00  0.00     0.188 HD
HETATM   13  C13 UNL     1     -34.486   9.007 -20.516  1.00  0.00     0.166 A 
HETATM   14  N12 UNL     1     -35.201   9.604 -19.550  1.00  0.00    -0.173 N 
ATOM     15  H12 UNL     1     -35.025   9.396 -18.567  1.00  0.00     0.186 HD
ENDROOT
BRANCH   4  16
HETATM   16  N3  UNL     1     -35.947  10.465 -23.438  1.00  0.00    -0.373 N 
ATOM     17  H3  UNL     1     -35.199  10.351 -24.122  1.00  0.00     0.161 HD
BRANCH  16  18
HETATM   18  C3  UNL     1     -37.265  10.910 -23.856  1.00  0.00     0.132 C 
BRANCH  18  19
HETATM   19  C4  UNL     1     -37.804  10.053 -24.983  1.00  0.00     0.102 C 
BRANCH  19  20
HETATM   20  S1  UNL     1     -37.067   8.404 -24.992  1.00  0.00    -0.090 SA
BRANCH  20  21
HETATM   21  C5  UNL     1     -37.875   7.319 -23.839  1.00  0.00     0.176 A 
HETATM   22  N4  UNL     1     -38.557   7.676 -22.725  1.00  0.00    -0.263 N 
HETATM   23  N5  UNL     1     -39.013   6.592 -22.125  1.00  0.00    -0.226 N 
ATOM     24  H4  UNL     1     -38.696   8.632 -22.400  1.00  0.00     0.190 HD
HETATM   25  N6  UNL     1     -38.623   5.560 -22.849  1.00  0.00    -0.226 N 
ATOM     26  H5  UNL     1     -39.561   6.559 -21.265  1.00  0.00     0.210 HD
HETATM   27  N7  UNL     1     -37.930   5.980 -23.896  1.00  0.00    -0.263 N 
ATOM     28  H6  UNL     1     -38.826   4.584 -22.634  1.00  0.00     0.210 HD
ATOM     29  H7  UNL     1     -37.513   5.392 -24.617  1.00  0.00     0.190 HD
ENDBRANCH  20  21
ENDBRANCH  19  20
ENDBRANCH  18  19
ENDBRANCH  16  18
ENDBRANCH   4  16
BRANCH   1  30
HETATM   30  N1  UNL     1     -36.828  11.043 -18.931  1.00  0.00    -0.234 N 
ATOM     31  H12 UNL     1     -37.207  11.972 -19.113  1.00  0.00     0.174 HD
ATOM     32  H11 UNL     1     -36.959  10.557 -18.044  1.00  0.00     0.174 HD
ENDBRANCH   1  30
BRANCH   8  33
HETATM   33  C8  UNL     1     -32.270   7.151 -23.561  1.00  0.00     0.197 A 
HETATM   34  N9  UNL     1     -31.728   7.835 -24.576  1.00  0.00    -0.300 N 
HETATM   35  C9  UNL     1     -30.992   7.287 -25.561  1.00  0.00     0.249 A 
ATOM     36  H9  UNL     1     -31.884   8.843 -24.605  1.00  0.00     0.171 HD
HETATM   37  O1  UNL     1     -30.493   7.928 -26.498  1.00  0.00    -0.268 OA
HETATM   38  C10 UNL     1     -30.790   5.920 -25.506  1.00  0.00     0.112 A 
HETATM   39  C11 UNL     1     -31.355   5.238 -24.455  1.00  0.00     0.115 A 
HETATM   40  O4  UNL     1     -32.073   5.859 -23.518  1.00  0.00    -0.289 OA
BRANCH  39  41
HETATM   41  C12 UNL     1     -31.142   3.768 -24.390  1.00  0.00     0.312 C 
BRANCH  41  42
HETATM   42  O2  UNL     1     -32.352   3.136 -24.706  1.00  0.00    -0.365 OA
ATOM     43  H2  UNL     1     -33.054   3.766 -24.594  1.00  0.00     0.213 HD
ENDBRANCH  41  42
BRANCH  41  44
HETATM   44  O3  UNL     1     -30.824   3.458 -23.074  1.00  0.00    -0.365 OA
ATOM     45  H3  UNL     1     -30.050   2.908 -23.095  1.00  0.00     0.213 HD
ENDBRANCH  41  44
ENDBRANCH  39  41
ENDBRANCH   8  33
TORSDOF 10
ENDMDL
MODEL 5
REMARK VINA RESULT: -7.085229659      5.172      8.327
REMARK  10 active torsions:
REMARK  status: ('A' for Active; 'I' for Inactive)
REMARK    1  A    between atoms: N1_1  and  C1_4 
REMARK    2  A    between atoms: C2_7  and  N3_8 
REMARK    3  A    between atoms: N3_8  and  C3_10 
REMARK    4  A    between atoms: C3_10  and  C4_11 
REMARK    5  A    between atoms: C4_11  and  S1_12 
REMARK    6  A    between atoms: S1_12  and  C5_13 
REMARK    7  A    between atoms: C7_25  and  C8_26 
REMARK    8  A    between atoms: C11_32  and  C12_33 
REMARK    9  A    between atoms: C12_33  and  O2_34 
REMARK   10  A    between atoms: C12_33  and  O3_36 
ROOT
HETATM    1  C1  UNL     1     -36.143  10.485 -19.918  1.00  0.00     0.679 A 
HETATM    2  N2  UNL     1     -36.413  10.781 -21.202  1.00  0.00    -0.175 N 
ATOM      3  H2  UNL     1     -37.149  11.454 -21.416  1.00  0.00     0.186 HD
HETATM    4  C2  UNL     1     -35.731  10.205 -22.207  1.00  0.00     0.147 A 
HETATM    5  C6  UNL     1     -34.742   9.297 -21.844  1.00  0.00     0.125 A 
HETATM    6  N8  UNL     1     -34.026   8.687 -22.836  1.00  0.00    -0.332 N 
ATOM      7  H8  UNL     1     -34.219   8.900 -23.814  1.00  0.00     0.168 HD
HETATM    8  C7  UNL     1     -33.068   7.807 -22.513  1.00  0.00     0.173 A 
HETATM    9  N10 UNL     1     -32.850   7.558 -21.212  1.00  0.00    -0.280 N 
ATOM     10  H10 UNL     1     -32.117   6.888 -20.983  1.00  0.00     0.188 HD
HETATM   11  N11 UNL     1     -33.500   8.107 -20.206  1.00  0.00    -0.281 N 
ATOM     12  H11 UNL     1     -33.283   7.871 -19.238  1.00  0.00     0.188 HD
HETATM   13  C13 UNL     1     -34.479   9.006 -20.523  1.00  0.00     0.166 A 
HETATM   14  N12 UNL     1     -35.191   9.611 -19.559  1.00  0.00    -0.173 N 
ATOM     15  H12 UNL     1     -35.013   9.411 -18.576  1.00  0.00     0.186 HD
ENDROOT
BRANCH   4  16
HETATM   16  N3  UNL     1     -35.944  10.444 -23.453  1.00  0.00    -0.373 N 
ATOM     17  H3  UNL     1     -35.454   9.914 -24.173  1.00  0.00     0.161 HD
BRANCH  16  18
HETATM   18  C3  UNL     1     -36.892  11.481 -23.820  1.00  0.00     0.132 C 
BRANCH  18  19
HETATM   19  C4  UNL     1     -36.184  12.716 -24.340  1.00  0.00     0.102 C 
BRANCH  19  20
HETATM   20  S1  UNL     1     -34.566  12.324 -25.040  1.00  0.00    -0.090 SA
BRANCH  20  21
HETATM   21  C5  UNL     1     -33.347  13.538 -24.592  1.00  0.00     0.176 A 
HETATM   22  N4  UNL     1     -33.227  14.172 -23.402  1.00  0.00    -0.263 N 
HETATM   23  N5  UNL     1     -32.203  15.003 -23.450  1.00  0.00    -0.226 N 
ATOM     24  H4  UNL     1     -33.833  14.029 -22.595  1.00  0.00     0.190 HD
HETATM   25  N6  UNL     1     -31.681  14.899 -24.657  1.00  0.00    -0.226 N 
ATOM     26  H5  UNL     1     -31.878  15.610 -22.697  1.00  0.00     0.210 HD
HETATM   27  N7  UNL     1     -32.362  14.014 -25.368  1.00  0.00    -0.263 N 
ATOM     28  H6  UNL     1     -30.873  15.423 -24.993  1.00  0.00     0.210 HD
ATOM     29  H7  UNL     1     -32.171  13.742 -26.332  1.00  0.00     0.190 HD
ENDBRANCH  20  21
ENDBRANCH  19  20
ENDBRANCH  18  19
ENDBRANCH  16  18
ENDBRANCH   4  16
BRANCH   1  30
HETATM   30  N1  UNL     1     -36.816  11.056 -18.948  1.00  0.00    -0.234 N 
ATOM     31  H12 UNL     1     -37.833  11.040 -19.024  1.00  0.00     0.174 HD
ATOM     32  H11 UNL     1     -36.327  11.490 -18.166  1.00  0.00     0.174 HD
ENDBRANCH   1  30
BRANCH   8  33
HETATM   33  C8  UNL     1     -32.271   7.126 -23.558  1.00  0.00     0.197 A 
HETATM   34  N9  UNL     1     -31.709   7.805 -24.565  1.00  0.00    -0.300 N 
HETATM   35  C9  UNL     1     -30.974   7.249 -25.547  1.00  0.00     0.249 A 
ATOM     36  H9  UNL     1     -31.847   8.815 -24.591  1.00  0.00     0.171 HD
HETATM   37  O1  UNL     1     -30.456   7.886 -26.476  1.00  0.00    -0.268 OA
HETATM   38  C10 UNL     1     -30.796   5.878 -25.497  1.00  0.00     0.112 A 
HETATM   39  C11 UNL     1     -31.382   5.201 -24.454  1.00  0.00     0.115 A 
HETATM   40  O4  UNL     1     -32.097   5.830 -23.520  1.00  0.00    -0.289 OA
BRANCH  39  41
HETATM   41  C12 UNL     1     -31.195   3.728 -24.394  1.00  0.00     0.312 C 
BRANCH  41  42
HETATM   42  O2  UNL     1     -32.413   3.118 -24.722  1.00  0.00    -0.365 OA
ATOM     43  H2  UNL     1     -32.906   2.990 -23.920  1.00  0.00     0.213 HD
ENDBRANCH  41  42
BRANCH  41  44
HETATM   44  O3  UNL     1     -30.891   3.406 -23.077  1.00  0.00    -0.365 OA
ATOM     45  H3  UNL     1     -30.383   4.126 -22.723  1.00  0.00     0.213 HD
ENDBRANCH  41  44
ENDBRANCH  39  41
ENDBRANCH   8  33
TORSDOF 10
ENDMDL
