MODEL 1
REMARK VINA RESULT: -9.130156561      0.000      0.000
REMARK  8 active torsions:
REMARK  status: ('A' for Active; 'I' for Inactive)
REMARK    1  A    between atoms: C2_3  and  O1_4 
REMARK    2  A    between atoms: C3_6  and  N2_7 
REMARK    3  A    between atoms: C4_10  and  N3_11 
REMARK    4  A    between atoms: N3_11  and  N4_13 
REMARK    5  A    between atoms: N4_13  and  C5_15 
REMARK    6  A    between atoms: C8_18  and  S1_19 
REMARK    7  A    between atoms: S1_19  and  N5_22 
REMARK       I    between atoms: N5_22  and  C9_24 
REMARK    8  A    between atoms: C11_30  and  N8_31 
ROOT
HETATM    1  C5  UNL     1     -33.064   8.022 -22.208  1.00  0.00     0.081 A 
HETATM    2  C6  UNL     1     -33.306   8.084 -20.843  1.00  0.00     0.035 A 
HETATM    3  C7  UNL     1     -34.422   8.766 -20.355  1.00  0.00     0.028 A 
HETATM    4  C8  UNL     1     -35.310   9.392 -21.183  1.00  0.00     0.082 A 
HETATM    5  C10 UNL     1     -35.063   9.327 -22.537  1.00  0.00     0.063 A 
HETATM    6  C11 UNL     1     -33.973   8.661 -23.028  1.00  0.00     0.132 A 
ENDROOT
BRANCH   1   7
HETATM    7  N4  UNL     1     -31.932   7.341 -22.748  1.00  0.00    -0.297 N 
ATOM      8  H4  UNL     1     -30.995   7.730 -22.653  1.00  0.00     0.187 HD
BRANCH   7   9
HETATM    9  N3  UNL     1     -32.136   6.131 -23.410  1.00  0.00    -0.283 N 
ATOM     10  H3  UNL     1     -32.765   5.428 -23.020  1.00  0.00     0.188 HD
BRANCH   9  11
HETATM   11  C4  UNL     1     -31.463   5.891 -24.625  1.00  0.00     0.162 A 
HETATM   12  C3  UNL     1     -31.126   4.583 -24.927  1.00  0.00     0.199 A 
HETATM   13  C2  UNL     1     -30.470   4.337 -26.112  1.00  0.00     0.183 A 
HETATM   14  N1  UNL     1     -30.161   5.331 -26.960  1.00  0.00    -0.282 N 
HETATM   15  C1  UNL     1     -29.472   4.991 -28.187  1.00  0.00     0.163 C 
HETATM   16  C12 UNL     1     -30.504   6.593 -26.636  1.00  0.00     0.329 A 
HETATM   17  N9  UNL     1     -31.144   6.860 -25.485  1.00  0.00    -0.291 N 
HETATM   18  O8  UNL     1     -30.220   7.549 -27.427  1.00  0.00    -0.246 OA
ATOM     19  H9  UNL     1     -31.391   7.825 -25.264  1.00  0.00     0.172 HD
BRANCH  12  20
HETATM   20  N2  UNL     1     -31.460   3.551 -24.014  1.00  0.00    -0.107 N 
HETATM   21  O2  UNL     1     -30.993   3.613 -22.864  1.00  0.00    -0.531 OA
HETATM   22  O3  UNL     1     -32.267   2.493 -24.332  1.00  0.00    -0.531 OA
ENDBRANCH  12  20
BRANCH  13  23
HETATM   23  O1  UNL     1     -30.138   3.001 -26.396  1.00  0.00    -0.344 OA
ATOM     24  H1  UNL     1     -30.628   2.277 -26.022  1.00  0.00     0.219 HD
ENDBRANCH  13  23
ENDBRANCH   9  11
ENDBRANCH   7   9
ENDBRANCH   1   7
BRANCH   6  25
HETATM   25  N8  UNL     1     -33.769   8.620 -24.429  1.00  0.00    -0.113 N 
HETATM   26  O6  UNL     1     -34.343   7.716 -25.076  1.00  0.00    -0.532 OA
HETATM   27  O7  UNL     1     -32.972   9.534 -25.077  1.00  0.00    -0.532 OA
ENDBRANCH   6  25
BRANCH   4  28
HETATM   28  S1  UNL     1     -36.692  10.225 -20.505  1.00  0.00     0.265 S 
HETATM   29  O4  UNL     1     -37.683   9.241 -19.976  1.00  0.00    -0.200 OA
HETATM   30  O5  UNL     1     -37.335  11.006 -21.644  1.00  0.00    -0.200 OA
BRANCH  28  31
HETATM   31  N5  UNL     1     -36.226  11.299 -19.241  1.00  0.00    -0.254 N 
HETATM   32  C9  UNL     1     -36.633  12.657 -19.330  1.00  0.00     0.195 C 
HETATM   33  N6  UNL     1     -37.836  13.035 -19.115  1.00  0.00    -0.373 N 
HETATM   34  N7  UNL     1     -35.647  13.624 -19.672  1.00  0.00    -0.063 NA
ATOM     35  H62 UNL     1     -38.542  12.341 -18.869  1.00  0.00     0.158 HD
ATOM     36  H61 UNL     1     -38.127  14.010 -19.179  1.00  0.00     0.158 HD
ATOM     37  H5  UNL     1     -35.674  10.968 -18.450  1.00  0.00     0.181 HD
ENDBRANCH  28  31
ENDBRANCH   4  28
TORSDOF 8
ENDMDL
MODEL 2
REMARK VINA RESULT: -8.834944391      1.505      1.975
REMARK  8 active torsions:
REMARK  status: ('A' for Active; 'I' for Inactive)
REMARK    1  A    between atoms: C2_3  and  O1_4 
REMARK    2  A    between atoms: C3_6  and  N2_7 
REMARK    3  A    between atoms: C4_10  and  N3_11 
REMARK    4  A    between atoms: N3_11  and  N4_13 
REMARK    5  A    between atoms: N4_13  and  C5_15 
REMARK    6  A    between atoms: C8_18  and  S1_19 
REMARK    7  A    between atoms: S1_19  and  N5_22 
REMARK       I    between atoms: N5_22  and  C9_24 
REMARK    8  A    between atoms: C11_30  and  N8_31 
ROOT
HETATM    1  C5  UNL     1     -32.859   7.924 -22.253  1.00  0.00     0.081 A 
HETATM    2  C6  UNL     1     -33.141   7.972 -20.895  1.00  0.00     0.035 A 
HETATM    3  C7  UNL     1     -34.216   8.728 -20.425  1.00  0.00     0.028 A 
HETATM    4  C8  UNL     1     -35.026   9.439 -21.264  1.00  0.00     0.082 A 
HETATM    5  C10 UNL     1     -34.740   9.386 -22.611  1.00  0.00     0.063 A 
HETATM    6  C11 UNL     1     -33.689   8.649 -23.085  1.00  0.00     0.132 A 
ENDROOT
BRANCH   1   7
HETATM    7  N4  UNL     1     -31.766   7.169 -22.775  1.00  0.00    -0.297 N 
ATOM      8  H4  UNL     1     -30.806   7.491 -22.656  1.00  0.00     0.187 HD
BRANCH   7   9
HETATM    9  N3  UNL     1     -32.039   5.982 -23.454  1.00  0.00    -0.283 N 
ATOM     10  H3  UNL     1     -32.695   5.304 -23.066  1.00  0.00     0.188 HD
BRANCH   9  11
HETATM   11  C4  UNL     1     -31.396   5.729 -24.682  1.00  0.00     0.162 A 
HETATM   12  C3  UNL     1     -31.118   4.413 -25.005  1.00  0.00     0.199 A 
HETATM   13  C2  UNL     1     -30.492   4.155 -26.204  1.00  0.00     0.183 A 
HETATM   14  N1  UNL     1     -30.156   5.145 -27.045  1.00  0.00    -0.282 N 
HETATM   15  C1  UNL     1     -29.502   4.793 -28.287  1.00  0.00     0.163 C 
HETATM   16  C12 UNL     1     -30.442   6.416 -26.701  1.00  0.00     0.329 A 
HETATM   17  N9  UNL     1     -31.051   6.695 -25.537  1.00  0.00    -0.291 N 
HETATM   18  O8  UNL     1     -30.131   7.369 -27.485  1.00  0.00    -0.246 OA
ATOM     19  H9  UNL     1     -31.254   7.667 -25.300  1.00  0.00     0.172 HD
BRANCH  12  20
HETATM   20  N2  UNL     1     -31.479   3.384 -24.099  1.00  0.00    -0.107 N 
HETATM   21  O2  UNL     1     -32.237   2.487 -24.504  1.00  0.00    -0.531 OA
HETATM   22  O3  UNL     1     -31.036   3.326 -22.806  1.00  0.00    -0.531 OA
ENDBRANCH  12  20
BRANCH  13  23
HETATM   23  O1  UNL     1     -30.220   2.810 -26.509  1.00  0.00    -0.344 OA
ATOM     24  H1  UNL     1     -30.633   2.099 -26.032  1.00  0.00     0.219 HD
ENDBRANCH  13  23
ENDBRANCH   9  11
ENDBRANCH   7   9
ENDBRANCH   1   7
BRANCH   6  25
HETATM   25  N8  UNL     1     -33.442   8.624 -24.480  1.00  0.00    -0.113 N 
HETATM   26  O6  UNL     1     -34.092   7.810 -25.173  1.00  0.00    -0.532 OA
HETATM   27  O7  UNL     1     -32.526   9.460 -25.073  1.00  0.00    -0.532 OA
ENDBRANCH   6  25
BRANCH   4  28
HETATM   28  S1  UNL     1     -36.361  10.361 -20.609  1.00  0.00     0.265 S 
HETATM   29  O4  UNL     1     -35.858  11.599 -19.941  1.00  0.00    -0.200 OA
HETATM   30  O5  UNL     1     -37.033   9.478 -19.565  1.00  0.00    -0.200 OA
BRANCH  28  31
HETATM   31  N5  UNL     1     -37.493  10.795 -21.833  1.00  0.00    -0.254 N 
HETATM   32  C9  UNL     1     -38.470   9.837 -22.214  1.00  0.00     0.195 C 
HETATM   33  N6  UNL     1     -39.478   9.547 -21.480  1.00  0.00    -0.373 N 
HETATM   34  N7  UNL     1     -38.306   9.184 -23.466  1.00  0.00    -0.063 NA
ATOM     35  H62 UNL     1     -39.595  10.017 -20.582  1.00  0.00     0.158 HD
ATOM     36  H61 UNL     1     -40.179   8.860 -21.754  1.00  0.00     0.158 HD
ATOM     37  H5  UNL     1     -37.463  11.715 -22.272  1.00  0.00     0.181 HD
ENDBRANCH  28  31
ENDBRANCH   4  28
TORSDOF 8
ENDMDL
MODEL 3
REMARK VINA RESULT: -8.445201127      5.011     10.674
REMARK  8 active torsions:
REMARK  status: ('A' for Active; 'I' for Inactive)
REMARK    1  A    between atoms: C2_3  and  O1_4 
REMARK    2  A    between atoms: C3_6  and  N2_7 
REMARK    3  A    between atoms: C4_10  and  N3_11 
REMARK    4  A    between atoms: N3_11  and  N4_13 
REMARK    5  A    between atoms: N4_13  and  C5_15 
REMARK    6  A    between atoms: C8_18  and  S1_19 
REMARK    7  A    between atoms: S1_19  and  N5_22 
REMARK       I    between atoms: N5_22  and  C9_24 
REMARK    8  A    between atoms: C11_30  and  N8_31 
ROOT
HETATM    1  C5  UNL     1     -29.373   5.447 -29.185  1.00  0.00     0.081 A 
HETATM    2  C6  UNL     1     -28.256   4.940 -29.833  1.00  0.00     0.035 A 
HETATM    3  C7  UNL     1     -28.304   4.650 -31.198  1.00  0.00     0.028 A 
HETATM    4  C8  UNL     1     -29.431   4.849 -31.944  1.00  0.00     0.082 A 
HETATM    5  C10 UNL     1     -30.536   5.353 -31.294  1.00  0.00     0.063 A 
HETATM    6  C11 UNL     1     -30.502   5.642 -29.956  1.00  0.00     0.132 A 
ENDROOT
BRANCH   1   7
HETATM    7  N4  UNL     1     -29.369   5.752 -27.791  1.00  0.00    -0.297 N 
ATOM      8  H4  UNL     1     -28.686   6.400 -27.401  1.00  0.00     0.187 HD
BRANCH   7   9
HETATM    9  N3  UNL     1     -30.320   5.143 -26.973  1.00  0.00    -0.283 N 
ATOM     10  H3  UNL     1     -30.556   4.158 -27.099  1.00  0.00     0.188 HD
BRANCH   9  11
HETATM   11  C4  UNL     1     -30.952   5.905 -25.970  1.00  0.00     0.162 A 
HETATM   12  C3  UNL     1     -31.424   5.236 -24.854  1.00  0.00     0.199 A 
HETATM   13  C2  UNL     1     -32.042   5.972 -23.867  1.00  0.00     0.183 A 
HETATM   14  N1  UNL     1     -32.187   7.302 -23.974  1.00  0.00    -0.282 N 
HETATM   15  C1  UNL     1     -32.846   8.005 -22.893  1.00  0.00     0.163 C 
HETATM   16  C12 UNL     1     -31.716   7.922 -25.073  1.00  0.00     0.329 A 
HETATM   17  N9  UNL     1     -31.110   7.228 -26.051  1.00  0.00    -0.291 N 
HETATM   18  O8  UNL     1     -31.844   9.183 -25.192  1.00  0.00    -0.246 OA
ATOM     19  H9  UNL     1     -30.764   7.723 -26.873  1.00  0.00     0.172 HD
BRANCH  12  20
HETATM   20  N2  UNL     1     -31.262   3.831 -24.766  1.00  0.00    -0.107 N 
HETATM   21  O2  UNL     1     -30.732   3.366 -23.743  1.00  0.00    -0.531 OA
HETATM   22  O3  UNL     1     -31.660   2.962 -25.745  1.00  0.00    -0.531 OA
ENDBRANCH  12  20
BRANCH  13  23
HETATM   23  O1  UNL     1     -32.512   5.270 -22.744  1.00  0.00    -0.344 OA
ATOM     24  H1  UNL     1     -32.352   4.339 -22.637  1.00  0.00     0.219 HD
ENDBRANCH  13  23
ENDBRANCH   9  11
ENDBRANCH   7   9
ENDBRANCH   1   7
BRANCH   6  25
HETATM   25  N8  UNL     1     -31.665   6.164 -29.338  1.00  0.00    -0.113 N 
HETATM   26  O6  UNL     1     -31.673   7.379 -29.040  1.00  0.00    -0.532 OA
HETATM   27  O7  UNL     1     -32.761   5.379 -29.067  1.00  0.00    -0.532 OA
ENDBRANCH   6  25
BRANCH   4  28
HETATM   28  S1  UNL     1     -29.421   4.469 -33.652  1.00  0.00     0.265 S 
HETATM   29  O4  UNL     1     -30.719   4.860 -34.278  1.00  0.00    -0.200 OA
HETATM   30  O5  UNL     1     -29.257   2.958 -33.764  1.00  0.00    -0.200 OA
BRANCH  28  31
HETATM   31  N5  UNL     1     -28.132   5.265 -34.471  1.00  0.00    -0.254 N 
HETATM   32  C9  UNL     1     -27.215   4.472 -35.211  1.00  0.00     0.195 C 
HETATM   33  N6  UNL     1     -27.511   3.942 -36.337  1.00  0.00    -0.373 N 
HETATM   34  N7  UNL     1     -25.918   4.272 -34.664  1.00  0.00    -0.063 NA
ATOM     35  H62 UNL     1     -28.442   4.086 -36.730  1.00  0.00     0.158 HD
ATOM     36  H61 UNL     1     -26.853   3.373 -36.869  1.00  0.00     0.158 HD
ATOM     37  H5  UNL     1     -28.030   6.279 -34.426  1.00  0.00     0.181 HD
ENDBRANCH  28  31
ENDBRANCH   4  28
TORSDOF 8
ENDMDL
MODEL 4
REMARK VINA RESULT: -8.276307458      2.053      2.597
REMARK  8 active torsions:
REMARK  status: ('A' for Active; 'I' for Inactive)
REMARK    1  A    between atoms: C2_3  and  O1_4 
REMARK    2  A    between atoms: C3_6  and  N2_7 
REMARK    3  A    between atoms: C4_10  and  N3_11 
REMARK    4  A    between atoms: N3_11  and  N4_13 
REMARK    5  A    between atoms: N4_13  and  C5_15 
REMARK    6  A    between atoms: C8_18  and  S1_19 
REMARK    7  A    between atoms: S1_19  and  N5_22 
REMARK       I    between atoms: N5_22  and  C9_24 
REMARK    8  A    between atoms: C11_30  and  N8_31 
ROOT
HETATM    1  C5  UNL     1     -33.264   8.292 -23.104  1.00  0.00     0.081 A 
HETATM    2  C6  UNL     1     -33.829   8.690 -24.307  1.00  0.00     0.035 A 
HETATM    3  C7  UNL     1     -35.043   9.380 -24.321  1.00  0.00     0.028 A 
HETATM    4  C8  UNL     1     -35.716   9.689 -23.174  1.00  0.00     0.082 A 
HETATM    5  C10 UNL     1     -35.149   9.290 -21.983  1.00  0.00     0.063 A 
HETATM    6  C11 UNL     1     -33.960   8.614 -21.955  1.00  0.00     0.132 A 
ENDROOT
BRANCH   1   7
HETATM    7  N4  UNL     1     -32.028   7.580 -23.044  1.00  0.00    -0.297 N 
ATOM      8  H4  UNL     1     -31.187   8.025 -22.677  1.00  0.00     0.187 HD
BRANCH   7   9
HETATM    9  N3  UNL     1     -31.996   6.262 -23.499  1.00  0.00    -0.283 N 
ATOM     10  H3  UNL     1     -32.440   5.518 -22.960  1.00  0.00     0.188 HD
BRANCH   9  11
HETATM   11  C4  UNL     1     -31.341   5.971 -24.712  1.00  0.00     0.162 A 
HETATM   12  C3  UNL     1     -31.065   4.644 -24.993  1.00  0.00     0.199 A 
HETATM   13  C2  UNL     1     -30.427   4.348 -26.177  1.00  0.00     0.183 A 
HETATM   14  N1  UNL     1     -30.078   5.312 -27.043  1.00  0.00    -0.282 N 
HETATM   15  C1  UNL     1     -29.412   4.921 -28.267  1.00  0.00     0.163 C 
HETATM   16  C12 UNL     1     -30.361   6.594 -26.739  1.00  0.00     0.329 A 
HETATM   17  N9  UNL     1     -30.982   6.910 -25.591  1.00  0.00    -0.291 N 
HETATM   18  O8  UNL     1     -30.037   7.522 -27.548  1.00  0.00    -0.246 OA
ATOM     19  H9  UNL     1     -31.183   7.889 -25.385  1.00  0.00     0.172 HD
BRANCH  12  20
HETATM   20  N2  UNL     1     -31.441   3.644 -24.062  1.00  0.00    -0.107 N 
HETATM   21  O2  UNL     1     -30.983   3.717 -22.909  1.00  0.00    -0.531 OA
HETATM   22  O3  UNL     1     -32.280   2.606 -24.364  1.00  0.00    -0.531 OA
ENDBRANCH  12  20
BRANCH  13  23
HETATM   23  O1  UNL     1     -30.159   2.994 -26.439  1.00  0.00    -0.344 OA
ATOM     24  H1  UNL     1     -30.248   2.330 -25.765  1.00  0.00     0.219 HD
ENDBRANCH  13  23
ENDBRANCH   9  11
ENDBRANCH   7   9
ENDBRANCH   1   7
BRANCH   6  25
HETATM   25  N8  UNL     1     -33.418   8.232 -20.703  1.00  0.00    -0.113 N 
HETATM   26  O6  UNL     1     -32.680   7.221 -20.670  1.00  0.00    -0.532 OA
HETATM   27  O7  UNL     1     -33.678   8.936 -19.551  1.00  0.00    -0.532 OA
ENDBRANCH   6  25
BRANCH   4  28
HETATM   28  S1  UNL     1     -37.231  10.560 -23.264  1.00  0.00     0.265 S 
HETATM   29  O4  UNL     1     -37.666  10.699 -24.685  1.00  0.00    -0.200 OA
HETATM   30  O5  UNL     1     -36.973  11.948 -22.691  1.00  0.00    -0.200 OA
BRANCH  28  31
HETATM   31  N5  UNL     1     -38.471   9.771 -22.364  1.00  0.00    -0.254 N 
HETATM   32  C9  UNL     1     -38.644  10.131 -21.001  1.00  0.00     0.195 C 
HETATM   33  N6  UNL     1     -39.180  11.235 -20.640  1.00  0.00    -0.373 N 
HETATM   34  N7  UNL     1     -38.199   9.213 -20.010  1.00  0.00    -0.063 NA
ATOM     35  H62 UNL     1     -39.500  11.893 -21.351  1.00  0.00     0.158 HD
ATOM     36  H61 UNL     1     -39.305  11.492 -19.661  1.00  0.00     0.158 HD
ATOM     37  H5  UNL     1     -39.064   9.064 -22.799  1.00  0.00     0.181 HD
ENDBRANCH  28  31
ENDBRANCH   4  28
TORSDOF 8
ENDMDL
MODEL 5
REMARK VINA RESULT: -8.179649683      1.798      2.265
REMARK  8 active torsions:
REMARK  status: ('A' for Active; 'I' for Inactive)
REMARK    1  A    between atoms: C2_3  and  O1_4 
REMARK    2  A    between atoms: C3_6  and  N2_7 
REMARK    3  A    between atoms: C4_10  and  N3_11 
REMARK    4  A    between atoms: N3_11  and  N4_13 
REMARK    5  A    between atoms: N4_13  and  C5_15 
REMARK    6  A    between atoms: C8_18  and  S1_19 
REMARK    7  A    between atoms: S1_19  and  N5_22 
REMARK       I    between atoms: N5_22  and  C9_24 
REMARK    8  A    between atoms: C11_30  and  N8_31 
ROOT
HETATM    1  C5  UNL     1     -33.234   8.329 -23.136  1.00  0.00     0.081 A 
HETATM    2  C6  UNL     1     -33.789   8.787 -24.323  1.00  0.00     0.035 A 
HETATM    3  C7  UNL     1     -34.975   9.525 -24.308  1.00  0.00     0.028 A 
HETATM    4  C8  UNL     1     -35.629   9.825 -23.147  1.00  0.00     0.082 A 
HETATM    5  C10 UNL     1     -35.072   9.367 -21.973  1.00  0.00     0.063 A 
HETATM    6  C11 UNL     1     -33.910   8.643 -21.974  1.00  0.00     0.132 A 
ENDROOT
BRANCH   1   7
HETATM    7  N4  UNL     1     -32.028   7.567 -23.106  1.00  0.00    -0.297 N 
ATOM      8  H4  UNL     1     -31.167   7.967 -22.734  1.00  0.00     0.187 HD
BRANCH   7   9
HETATM    9  N3  UNL     1     -32.052   6.262 -23.598  1.00  0.00    -0.283 N 
ATOM     10  H3  UNL     1     -32.554   5.530 -23.096  1.00  0.00     0.188 HD
BRANCH   9  11
HETATM   11  C4  UNL     1     -31.373   5.969 -24.798  1.00  0.00     0.162 A 
HETATM   12  C3  UNL     1     -31.067   4.644 -25.057  1.00  0.00     0.199 A 
HETATM   13  C2  UNL     1     -30.406   4.346 -26.228  1.00  0.00     0.183 A 
HETATM   14  N1  UNL     1     -30.063   5.305 -27.101  1.00  0.00    -0.282 N 
HETATM   15  C1  UNL     1     -29.371   4.912 -28.310  1.00  0.00     0.163 C 
HETATM   16  C12 UNL     1     -30.376   6.585 -26.819  1.00  0.00     0.329 A 
HETATM   17  N9  UNL     1     -31.019   6.903 -25.683  1.00  0.00    -0.291 N 
HETATM   18  O8  UNL     1     -30.058   7.509 -27.634  1.00  0.00    -0.246 OA
ATOM     19  H9  UNL     1     -31.243   7.881 -25.494  1.00  0.00     0.172 HD
BRANCH  12  20
HETATM   20  N2  UNL     1     -31.437   3.649 -24.119  1.00  0.00    -0.107 N 
HETATM   21  O2  UNL     1     -30.981   3.734 -22.966  1.00  0.00    -0.531 OA
HETATM   22  O3  UNL     1     -32.268   2.603 -24.414  1.00  0.00    -0.531 OA
ENDBRANCH  12  20
BRANCH  13  23
HETATM   23  O1  UNL     1     -30.107   2.994 -26.469  1.00  0.00    -0.344 OA
ATOM     24  H1  UNL     1     -30.448   2.303 -25.912  1.00  0.00     0.219 HD
ENDBRANCH  13  23
ENDBRANCH   9  11
ENDBRANCH   7   9
ENDBRANCH   1   7
BRANCH   6  25
HETATM   25  N8  UNL     1     -33.377   8.202 -20.738  1.00  0.00    -0.113 N 
HETATM   26  O6  UNL     1     -32.703   7.147 -20.736  1.00  0.00    -0.532 OA
HETATM   27  O7  UNL     1     -33.579   8.895 -19.568  1.00  0.00    -0.532 OA
ENDBRANCH   6  25
BRANCH   4  28
HETATM   28  S1  UNL     1     -37.108  10.759 -23.200  1.00  0.00     0.265 S 
HETATM   29  O4  UNL     1     -38.242   9.908 -23.669  1.00  0.00    -0.200 OA
HETATM   30  O5  UNL     1     -36.884  11.878 -24.209  1.00  0.00    -0.200 OA
BRANCH  28  31
HETATM   31  N5  UNL     1     -37.494  11.422 -21.658  1.00  0.00    -0.254 N 
HETATM   32  C9  UNL     1     -36.829  12.610 -21.253  1.00  0.00     0.195 C 
HETATM   33  N6  UNL     1     -37.108  13.760 -21.740  1.00  0.00    -0.373 N 
HETATM   34  N7  UNL     1     -35.816  12.499 -20.261  1.00  0.00    -0.063 NA
ATOM     35  H62 UNL     1     -37.836  13.839 -22.451  1.00  0.00     0.158 HD
ATOM     36  H61 UNL     1     -36.631  14.612 -21.449  1.00  0.00     0.158 HD
ATOM     37  H5  UNL     1     -38.181  10.974 -21.052  1.00  0.00     0.181 HD
ENDBRANCH  28  31
ENDBRANCH   4  28
TORSDOF 8
ENDMDL
