MODEL 1
REMARK VINA RESULT: -7.197334287      0.000      0.000
REMARK  6 active torsions:
REMARK  status: ('A' for Active; 'I' for Inactive)
REMARK       I    between atoms: N2_4  and  C3_6 
REMARK       I    between atoms: C3_6  and  N3_7 
REMARK       I    between atoms: C3_6  and  N4_11 
REMARK    1  A    between atoms: C7_20  and  N7_21 
REMARK    2  A    between atoms: N11_31  and  C12_32 
REMARK    3  A    between atoms: C12_32  and  C13_33 
REMARK    4  A    between atoms: C13_33  and  S1_34 
REMARK    5  A    between atoms: S1_34  and  C14_35 
REMARK    6  A    between atoms: C14_35  and  C15_36 
ROOT
HETATM    1  C1  UNL     1     -34.798  11.332 -27.816  1.00  0.00     0.179 C 
HETATM    2  N1  UNL     1     -33.730  10.442 -27.405  1.00  0.00    -0.277 N 
HETATM    3  C2  UNL     1     -32.462  10.809 -27.151  1.00  0.00     0.137 A 
HETATM    4  N2  UNL     1     -31.859  11.930 -27.186  1.00  0.00    -0.325 N 
ATOM      5  H2  UNL     1     -30.874  11.863 -26.931  1.00  0.00     0.165 HD
HETATM    6  C3  UNL     1     -32.254  13.230 -27.497  1.00  0.00     0.481 C 
HETATM    7  N3  UNL     1     -31.168  14.026 -28.100  1.00  0.00    -0.033 N 
ATOM      8  H31 UNL     1     -31.457  14.977 -28.328  1.00  0.00     0.278 HD
ATOM      9  H32 UNL     1     -30.779  13.555 -28.918  1.00  0.00     0.278 HD
ATOM     10  H33 UNL     1     -30.340  14.028 -27.504  1.00  0.00     0.278 HD
HETATM   11  N4  UNL     1     -32.654  14.022 -26.330  1.00  0.00    -0.033 N 
ATOM     12  H41 UNL     1     -32.943  14.973 -26.558  1.00  0.00     0.278 HD
ATOM     13  H42 UNL     1     -31.912  14.031 -25.630  1.00  0.00     0.278 HD
ATOM     14  H43 UNL     1     -33.382  13.541 -25.802  1.00  0.00     0.278 HD
HETATM   15  C4  UNL     1     -31.755   9.654 -26.788  1.00  0.00     0.081 A 
HETATM   16  C5  UNL     1     -30.454   9.426 -26.429  1.00  0.00     0.092 A 
HETATM   17  N5  UNL     1     -29.498  10.471 -26.364  1.00  0.00    -0.099 NA
HETATM   18  C6  UNL     1     -30.031   8.133 -26.113  1.00  0.00     0.116 A 
HETATM   19  N6  UNL     1     -28.678   7.896 -25.740  1.00  0.00    -0.096 NA
HETATM   20  C7  UNL     1     -30.938   7.122 -26.172  1.00  0.00     0.138 A 
HETATM   21  N10 UNL     1     -32.205   7.379 -26.527  1.00  0.00    -0.325 N 
ATOM     22  H10 UNL     1     -32.867   6.603 -26.563  1.00  0.00     0.169 HD
HETATM   23  C11 UNL     1     -32.654   8.632 -26.843  1.00  0.00     0.140 A 
HETATM   24  N11 UNL     1     -33.847   9.121 -27.218  1.00  0.00    -0.272 N 
ENDROOT
BRANCH  24  25
HETATM   25  C12 UNL     1     -35.026   8.332 -27.380  1.00  0.00     0.161 C 
BRANCH  25  26
HETATM   26  C13 UNL     1     -36.189   8.763 -26.512  1.00  0.00     0.096 C 
BRANCH  26  27
HETATM   27  S1  UNL     1     -35.762   8.245 -24.805  1.00  0.00    -0.160 SA
BRANCH  27  28
HETATM   28  C14 UNL     1     -34.877   9.570 -23.951  1.00  0.00     0.153 C 
BRANCH  28  29
HETATM   29  C15 UNL     1     -33.964   8.923 -22.968  1.00  0.00     0.122 A 
HETATM   30  N12 UNL     1     -34.170   9.024 -21.633  1.00  0.00    -0.272 N 
HETATM   31  N13 UNL     1     -33.211   8.356 -21.013  1.00  0.00    -0.227 N 
ATOM     32  H12 UNL     1     -34.933   9.529 -21.183  1.00  0.00     0.190 HD
HETATM   33  N14 UNL     1     -32.440   7.861 -21.949  1.00  0.00    -0.227 N 
ATOM     34  H13 UNL     1     -33.094   8.248 -20.005  1.00  0.00     0.210 HD
HETATM   35  N15 UNL     1     -32.872   8.188 -23.158  1.00  0.00    -0.272 N 
ATOM     36  H14 UNL     1     -31.610   7.295 -21.769  1.00  0.00     0.210 HD
ATOM     37  H15 UNL     1     -32.453   7.930 -24.051  1.00  0.00     0.190 HD
ENDBRANCH  28  29
ENDBRANCH  27  28
ENDBRANCH  26  27
ENDBRANCH  25  26
ENDBRANCH  24  25
BRANCH  20  38
HETATM   38  N7  UNL     1     -30.580   5.784 -25.865  1.00  0.00    -0.304 N 
HETATM   39  C8  UNL     1     -30.035   4.766 -26.739  1.00  0.00     0.153 C 
HETATM   40  C9  UNL     1     -30.585   3.500 -26.070  1.00  0.00     0.142 C 
HETATM   41  N8  UNL     1     -30.711   3.904 -24.694  1.00  0.00    -0.363 N 
HETATM   42  C10 UNL     1     -30.709   5.194 -24.568  1.00  0.00     0.192 C 
ATOM     43  H8  UNL     1     -30.792   3.254 -23.913  1.00  0.00     0.162 HD
HETATM   44  N9  UNL     1     -30.816   5.910 -23.352  1.00  0.00    -0.063 NA
ENDBRANCH  20  38
TORSDOF 6
ENDMDL
MODEL 2
REMARK VINA RESULT: -7.068349444      2.508      5.305
REMARK  6 active torsions:
REMARK  status: ('A' for Active; 'I' for Inactive)
REMARK       I    between atoms: N2_4  and  C3_6 
REMARK       I    between atoms: C3_6  and  N3_7 
REMARK       I    between atoms: C3_6  and  N4_11 
REMARK    1  A    between atoms: C7_20  and  N7_21 
REMARK    2  A    between atoms: N11_31  and  C12_32 
REMARK    3  A    between atoms: C12_32  and  C13_33 
REMARK    4  A    between atoms: C13_33  and  S1_34 
REMARK    5  A    between atoms: S1_34  and  C14_35 
REMARK    6  A    between atoms: C14_35  and  C15_36 
ROOT
HETATM    1  C1  UNL     1     -35.875  10.530 -23.930  1.00  0.00     0.179 C 
HETATM    2  N1  UNL     1     -34.781   9.580 -24.003  1.00  0.00    -0.277 N 
HETATM    3  C2  UNL     1     -34.160   9.022 -22.949  1.00  0.00     0.137 A 
HETATM    4  N2  UNL     1     -34.317   9.134 -21.690  1.00  0.00    -0.325 N 
ATOM      5  H2  UNL     1     -33.666   8.560 -21.154  1.00  0.00     0.165 HD
HETATM    6  C3  UNL     1     -35.184   9.871 -20.887  1.00  0.00     0.481 C 
HETATM    7  N3  UNL     1     -34.575  10.260 -19.600  1.00  0.00    -0.033 N 
ATOM      8  H31 UNL     1     -35.209  10.799 -19.012  1.00  0.00     0.278 HD
ATOM      9  H32 UNL     1     -33.697  10.759 -19.746  1.00  0.00     0.278 HD
ATOM     10  H33 UNL     1     -34.218   9.444 -19.102  1.00  0.00     0.278 HD
HETATM   11  N4  UNL     1     -36.390   9.138 -20.489  1.00  0.00    -0.033 N 
ATOM     12  H41 UNL     1     -37.024   9.678 -19.901  1.00  0.00     0.278 HD
ATOM     13  H42 UNL     1     -36.142   8.258 -20.037  1.00  0.00     0.278 HD
ATOM     14  H43 UNL     1     -36.878   8.779 -21.309  1.00  0.00     0.278 HD
HETATM   15  C4  UNL     1     -33.166   8.171 -23.451  1.00  0.00     0.081 A 
HETATM   16  C5  UNL     1     -32.242   7.357 -22.854  1.00  0.00     0.092 A 
HETATM   17  N5  UNL     1     -32.140   7.242 -21.445  1.00  0.00    -0.099 NA
HETATM   18  C6  UNL     1     -31.359   6.608 -23.635  1.00  0.00     0.116 A 
HETATM   19  N6  UNL     1     -30.398   5.762 -23.015  1.00  0.00    -0.096 NA
HETATM   20  C7  UNL     1     -31.446   6.709 -24.988  1.00  0.00     0.138 A 
HETATM   21  N10 UNL     1     -32.364   7.515 -25.542  1.00  0.00    -0.325 N 
ATOM     22  H10 UNL     1     -32.410   7.573 -26.559  1.00  0.00     0.169 HD
HETATM   23  C11 UNL     1     -33.243   8.263 -24.808  1.00  0.00     0.140 A 
HETATM   24  N11 UNL     1     -34.225   9.120 -25.131  1.00  0.00    -0.272 N 
ENDROOT
BRANCH  24  25
HETATM   25  C12 UNL     1     -34.589   9.460 -26.469  1.00  0.00     0.161 C 
BRANCH  25  26
HETATM   26  C13 UNL     1     -33.680  10.479 -27.122  1.00  0.00     0.096 C 
BRANCH  26  27
HETATM   27  S1  UNL     1     -32.955   9.642 -28.585  1.00  0.00    -0.160 SA
BRANCH  27  28
HETATM   28  C14 UNL     1     -33.719   8.022 -28.822  1.00  0.00     0.153 C 
BRANCH  28  29
HETATM   29  C15 UNL     1     -32.632   7.078 -29.206  1.00  0.00     0.122 A 
HETATM   30  N12 UNL     1     -31.523   7.499 -29.859  1.00  0.00    -0.272 N 
HETATM   31  N13 UNL     1     -30.740   6.453 -30.065  1.00  0.00    -0.227 N 
ATOM     32  H12 UNL     1     -31.325   8.459 -30.143  1.00  0.00     0.190 HD
HETATM   33  N14 UNL     1     -31.359   5.420 -29.550  1.00  0.00    -0.227 N 
ATOM     34  H13 UNL     1     -29.833   6.451 -30.533  1.00  0.00     0.210 HD
HETATM   35  N15 UNL     1     -32.520   5.767 -29.015  1.00  0.00    -0.272 N 
ATOM     36  H14 UNL     1     -30.992   4.468 -29.560  1.00  0.00     0.210 HD
ATOM     37  H15 UNL     1     -33.191   5.154 -28.552  1.00  0.00     0.190 HD
ENDBRANCH  28  29
ENDBRANCH  27  28
ENDBRANCH  26  27
ENDBRANCH  25  26
ENDBRANCH  24  25
BRANCH  20  38
HETATM   38  N7  UNL     1     -30.584   5.978 -25.845  1.00  0.00    -0.304 N 
HETATM   39  C8  UNL     1     -30.448   4.543 -25.988  1.00  0.00     0.153 C 
HETATM   40  C9  UNL     1     -28.976   4.442 -26.408  1.00  0.00     0.142 C 
HETATM   41  N8  UNL     1     -28.753   5.701 -27.068  1.00  0.00    -0.363 N 
HETATM   42  C10 UNL     1     -29.658   6.576 -26.757  1.00  0.00     0.192 C 
ATOM     43  H8  UNL     1     -27.978   5.884 -27.705  1.00  0.00     0.162 HD
HETATM   44  N9  UNL     1     -29.726   7.907 -27.234  1.00  0.00    -0.063 NA
ENDBRANCH  20  38
TORSDOF 6
ENDMDL
MODEL 3
REMARK VINA RESULT: -7.038835104      1.266      1.443
REMARK  6 active torsions:
REMARK  status: ('A' for Active; 'I' for Inactive)
REMARK       I    between atoms: N2_4  and  C3_6 
REMARK       I    between atoms: C3_6  and  N3_7 
REMARK       I    between atoms: C3_6  and  N4_11 
REMARK    1  A    between atoms: C7_20  and  N7_21 
REMARK    2  A    between atoms: N11_31  and  C12_32 
REMARK    3  A    between atoms: C12_32  and  C13_33 
REMARK    4  A    between atoms: C13_33  and  S1_34 
REMARK    5  A    between atoms: S1_34  and  C14_35 
REMARK    6  A    between atoms: C14_35  and  C15_36 
ROOT
HETATM    1  C1  UNL     1     -35.455  11.315 -27.395  1.00  0.00     0.179 C 
HETATM    2  N1  UNL     1     -34.353  10.484 -26.950  1.00  0.00    -0.277 N 
HETATM    3  C2  UNL     1     -33.049  10.791 -27.062  1.00  0.00     0.137 A 
HETATM    4  N2  UNL     1     -32.432  11.796 -27.541  1.00  0.00    -0.325 N 
ATOM      5  H2  UNL     1     -31.418  11.714 -27.470  1.00  0.00     0.165 HD
HETATM    6  C3  UNL     1     -32.842  12.985 -28.141  1.00  0.00     0.481 C 
HETATM    7  N3  UNL     1     -31.881  13.474 -29.148  1.00  0.00    -0.033 N 
ATOM      8  H31 UNL     1     -32.180  14.344 -29.588  1.00  0.00     0.278 HD
ATOM      9  H32 UNL     1     -31.687  12.758 -29.849  1.00  0.00     0.278 HD
ATOM     10  H33 UNL     1     -30.947  13.569 -28.748  1.00  0.00     0.278 HD
HETATM   11  N4  UNL     1     -32.964  14.108 -27.208  1.00  0.00    -0.033 N 
ATOM     12  H41 UNL     1     -33.264  14.978 -27.647  1.00  0.00     0.278 HD
ATOM     13  H42 UNL     1     -32.092  14.247 -26.696  1.00  0.00     0.278 HD
ATOM     14  H43 UNL     1     -33.581  13.865 -26.433  1.00  0.00     0.278 HD
HETATM   15  C4  UNL     1     -32.320   9.726 -26.515  1.00  0.00     0.081 A 
HETATM   16  C5  UNL     1     -30.980   9.492 -26.359  1.00  0.00     0.092 A 
HETATM   17  N5  UNL     1     -29.999  10.419 -26.788  1.00  0.00    -0.099 NA
HETATM   18  C6  UNL     1     -30.541   8.307 -25.761  1.00  0.00     0.116 A 
HETATM   19  N6  UNL     1     -29.149   8.063 -25.598  1.00  0.00    -0.096 NA
HETATM   20  C7  UNL     1     -31.472   7.409 -25.345  1.00  0.00     0.138 A 
HETATM   21  N10 UNL     1     -32.777   7.669 -25.512  1.00  0.00    -0.325 N 
ATOM     22  H10 UNL     1     -33.456   6.979 -25.190  1.00  0.00     0.169 HD
HETATM   23  C11 UNL     1     -33.242   8.816 -26.093  1.00  0.00     0.140 A 
HETATM   24  N11 UNL     1     -34.471   9.287 -26.361  1.00  0.00    -0.272 N 
ENDROOT
BRANCH  24  25
HETATM   25  C12 UNL     1     -35.682   8.595 -26.055  1.00  0.00     0.161 C 
BRANCH  25  26
HETATM   26  C13 UNL     1     -35.891   8.328 -24.580  1.00  0.00     0.096 C 
BRANCH  26  27
HETATM   27  S1  UNL     1     -35.876   9.970 -23.764  1.00  0.00    -0.160 SA
BRANCH  27  28
HETATM   28  C14 UNL     1     -36.412   9.820 -22.044  1.00  0.00     0.153 C 
BRANCH  28  29
HETATM   29  C15 UNL     1     -35.209   9.465 -21.240  1.00  0.00     0.122 A 
HETATM   30  N12 UNL     1     -35.128   9.750 -19.918  1.00  0.00    -0.272 N 
HETATM   31  N13 UNL     1     -33.958   9.323 -19.472  1.00  0.00    -0.227 N 
ATOM     32  H12 UNL     1     -35.847  10.214 -19.362  1.00  0.00     0.190 HD
HETATM   33  N14 UNL     1     -33.342   8.793 -20.499  1.00  0.00    -0.227 N 
ATOM     34  H13 UNL     1     -33.605   9.393 -18.518  1.00  0.00     0.210 HD
HETATM   35  N15 UNL     1     -34.079   8.862 -21.597  1.00  0.00    -0.272 N 
ATOM     36  H14 UNL     1     -32.411   8.378 -20.458  1.00  0.00     0.210 HD
ATOM     37  H15 UNL     1     -33.831   8.523 -22.527  1.00  0.00     0.190 HD
ENDBRANCH  28  29
ENDBRANCH  27  28
ENDBRANCH  26  27
ENDBRANCH  25  26
ENDBRANCH  24  25
BRANCH  20  38
HETATM   38  N7  UNL     1     -31.101   6.185 -24.729  1.00  0.00    -0.304 N 
HETATM   39  C8  UNL     1     -30.493   5.015 -25.328  1.00  0.00     0.153 C 
HETATM   40  C9  UNL     1     -31.047   3.914 -24.415  1.00  0.00     0.142 C 
HETATM   41  N8  UNL     1     -31.248   4.612 -23.172  1.00  0.00    -0.363 N 
HETATM   42  C10 UNL     1     -31.279   5.897 -23.339  1.00  0.00     0.192 C 
ATOM     43  H8  UNL     1     -31.352   4.151 -22.268  1.00  0.00     0.162 HD
HETATM   44  N9  UNL     1     -31.461   6.863 -22.322  1.00  0.00    -0.063 NA
ENDBRANCH  20  38
TORSDOF 6
ENDMDL
MODEL 4
REMARK VINA RESULT: -6.789788265      3.104      5.297
REMARK  6 active torsions:
REMARK  status: ('A' for Active; 'I' for Inactive)
REMARK       I    between atoms: N2_4  and  C3_6 
REMARK       I    between atoms: C3_6  and  N3_7 
REMARK       I    between atoms: C3_6  and  N4_11 
REMARK    1  A    between atoms: C7_20  and  N7_21 
REMARK    2  A    between atoms: N11_31  and  C12_32 
REMARK    3  A    between atoms: C12_32  and  C13_33 
REMARK    4  A    between atoms: C13_33  and  S1_34 
REMARK    5  A    between atoms: S1_34  and  C14_35 
REMARK    6  A    between atoms: C14_35  and  C15_36 
ROOT
HETATM    1  C1  UNL     1     -31.343   6.669 -31.762  1.00  0.00     0.179 C 
HETATM    2  N1  UNL     1     -31.820   7.326 -30.560  1.00  0.00    -0.277 N 
HETATM    3  C2  UNL     1     -32.207   8.611 -30.474  1.00  0.00     0.137 A 
HETATM    4  N2  UNL     1     -32.273   9.557 -31.325  1.00  0.00    -0.325 N 
ATOM      5  H2  UNL     1     -32.617  10.430 -30.926  1.00  0.00     0.165 HD
HETATM    6  C3  UNL     1     -31.976   9.657 -32.682  1.00  0.00     0.481 C 
HETATM    7  N3  UNL     1     -31.510  11.004 -33.064  1.00  0.00    -0.033 N 
ATOM      8  H31 UNL     1     -31.292  11.077 -34.058  1.00  0.00     0.278 HD
ATOM      9  H32 UNL     1     -30.715  11.292 -32.493  1.00  0.00     0.278 HD
ATOM     10  H33 UNL     1     -32.182  11.718 -32.783  1.00  0.00     0.278 HD
HETATM   11  N4  UNL     1     -33.129   9.430 -33.559  1.00  0.00    -0.033 N 
ATOM     12  H41 UNL     1     -32.911   9.504 -34.552  1.00  0.00     0.278 HD
ATOM     13  H42 UNL     1     -33.896  10.056 -33.312  1.00  0.00     0.278 HD
ATOM     14  H43 UNL     1     -33.566   8.532 -33.352  1.00  0.00     0.278 HD
HETATM   15  C4  UNL     1     -32.591   8.845 -29.147  1.00  0.00     0.081 A 
HETATM   16  C5  UNL     1     -33.063   9.949 -28.490  1.00  0.00     0.092 A 
HETATM   17  N5  UNL     1     -33.259  11.189 -29.147  1.00  0.00    -0.099 NA
HETATM   18  C6  UNL     1     -33.368   9.877 -27.128  1.00  0.00     0.116 A 
HETATM   19  N6  UNL     1     -33.859  11.024 -26.444  1.00  0.00    -0.096 NA
HETATM   20  C7  UNL     1     -33.184   8.693 -26.485  1.00  0.00     0.138 A 
HETATM   21  N10 UNL     1     -32.720   7.630 -27.159  1.00  0.00    -0.325 N 
ATOM     22  H10 UNL     1     -32.592   6.753 -26.653  1.00  0.00     0.169 HD
HETATM   23  C11 UNL     1     -32.412   7.665 -28.490  1.00  0.00     0.140 A 
HETATM   24  N11 UNL     1     -31.944   6.752 -29.357  1.00  0.00    -0.272 N 
ENDROOT
BRANCH  24  25
HETATM   25  C12 UNL     1     -31.641   5.399 -29.015  1.00  0.00     0.161 C 
BRANCH  25  26
HETATM   26  C13 UNL     1     -30.163   5.110 -28.867  1.00  0.00     0.096 C 
BRANCH  26  27
HETATM   27  S1  UNL     1     -29.821   5.150 -27.065  1.00  0.00    -0.160 SA
BRANCH  27  28
HETATM   28  C14 UNL     1     -30.274   3.573 -26.306  1.00  0.00     0.153 C 
BRANCH  28  29
HETATM   29  C15 UNL     1     -30.819   3.880 -24.953  1.00  0.00     0.122 A 
HETATM   30  N12 UNL     1     -31.391   5.075 -24.672  1.00  0.00    -0.272 N 
HETATM   31  N13 UNL     1     -31.778   5.062 -23.407  1.00  0.00    -0.227 N 
ATOM     32  H12 UNL     1     -31.504   5.852 -25.324  1.00  0.00     0.190 HD
HETATM   33  N14 UNL     1     -31.448   3.888 -22.931  1.00  0.00    -0.227 N 
ATOM     34  H13 UNL     1     -32.242   5.818 -22.902  1.00  0.00     0.210 HD
HETATM   35  N15 UNL     1     -30.859   3.139 -23.851  1.00  0.00    -0.272 N 
ATOM     36  H14 UNL     1     -31.623   3.587 -21.972  1.00  0.00     0.210 HD
ATOM     37  H15 UNL     1     -30.508   2.188 -23.737  1.00  0.00     0.190 HD
ENDBRANCH  28  29
ENDBRANCH  27  28
ENDBRANCH  26  27
ENDBRANCH  25  26
ENDBRANCH  24  25
BRANCH  20  38
HETATM   38  N7  UNL     1     -33.473   8.545 -25.104  1.00  0.00    -0.304 N 
HETATM   39  C8  UNL     1     -34.761   8.499 -24.445  1.00  0.00     0.153 C 
HETATM   40  C9  UNL     1     -34.395   9.080 -23.074  1.00  0.00     0.142 C 
HETATM   41  N8  UNL     1     -33.009   8.716 -22.941  1.00  0.00    -0.363 N 
HETATM   42  C10 UNL     1     -32.479   8.411 -24.084  1.00  0.00     0.192 C 
ATOM     43  H8  UNL     1     -32.505   8.699 -22.054  1.00  0.00     0.162 HD
HETATM   44  N9  UNL     1     -31.138   8.012 -24.297  1.00  0.00    -0.063 NA
ENDBRANCH  20  38
TORSDOF 6
ENDMDL
MODEL 5
REMARK VINA RESULT: -6.755687580      2.599      5.104
REMARK  6 active torsions:
REMARK  status: ('A' for Active; 'I' for Inactive)
REMARK       I    between atoms: N2_4  and  C3_6 
REMARK       I    between atoms: C3_6  and  N3_7 
REMARK       I    between atoms: C3_6  and  N4_11 
REMARK    1  A    between atoms: C7_20  and  N7_21 
REMARK    2  A    between atoms: N11_31  and  C12_32 
REMARK    3  A    between atoms: C12_32  and  C13_33 
REMARK    4  A    between atoms: C13_33  and  S1_34 
REMARK    5  A    between atoms: S1_34  and  C14_35 
REMARK    6  A    between atoms: C14_35  and  C15_36 
ROOT
HETATM    1  C1  UNL     1     -35.470  10.904 -26.362  1.00  0.00     0.179 C 
HETATM    2  N1  UNL     1     -34.519   9.930 -25.860  1.00  0.00    -0.277 N 
HETATM    3  C2  UNL     1     -34.198   9.747 -24.568  1.00  0.00     0.137 A 
HETATM    4  N2  UNL     1     -34.581  10.307 -23.490  1.00  0.00    -0.325 N 
ATOM      5  H2  UNL     1     -34.132   9.924 -22.659  1.00  0.00     0.165 HD
HETATM    6  C3  UNL     1     -35.483  11.329 -23.201  1.00  0.00     0.481 C 
HETATM    7  N3  UNL     1     -35.092  12.113 -22.014  1.00  0.00    -0.033 N 
ATOM      8  H31 UNL     1     -35.752  12.861 -21.802  1.00  0.00     0.278 HD
ATOM      9  H32 UNL     1     -34.144  12.478 -22.112  1.00  0.00     0.278 HD
ATOM     10  H33 UNL     1     -34.952  11.508 -21.204  1.00  0.00     0.278 HD
HETATM   11  N4  UNL     1     -36.830  10.854 -22.871  1.00  0.00    -0.033 N 
ATOM     12  H41 UNL     1     -37.490  11.602 -22.659  1.00  0.00     0.278 HD
ATOM     13  H42 UNL     1     -36.796  10.179 -22.107  1.00  0.00     0.278 HD
ATOM     14  H43 UNL     1     -37.192  10.255 -23.613  1.00  0.00     0.278 HD
HETATM   15  C4  UNL     1     -33.247   8.718 -24.514  1.00  0.00     0.081 A 
HETATM   16  C5  UNL     1     -32.575   8.118 -23.484  1.00  0.00     0.092 A 
HETATM   17  N5  UNL     1     -32.767   8.504 -22.134  1.00  0.00    -0.099 NA
HETATM   18  C6  UNL     1     -31.664   7.092 -23.745  1.00  0.00     0.116 A 
HETATM   19  N6  UNL     1     -30.965   6.468 -22.675  1.00  0.00    -0.096 NA
HETATM   20  C7  UNL     1     -31.470   6.712 -25.036  1.00  0.00     0.138 A 
HETATM   21  N10 UNL     1     -32.145   7.320 -26.022  1.00  0.00    -0.325 N 
ATOM     22  H10 UNL     1     -31.982   7.015 -26.982  1.00  0.00     0.169 HD
HETATM   23  C11 UNL     1     -33.043   8.327 -25.803  1.00  0.00     0.140 A 
HETATM   24  N11 UNL     1     -33.820   9.069 -26.610  1.00  0.00    -0.272 N 
ENDROOT
BRANCH  24  25
HETATM   25  C12 UNL     1     -33.865   8.932 -28.031  1.00  0.00     0.161 C 
BRANCH  25  26
HETATM   26  C13 UNL     1     -32.727   9.614 -28.759  1.00  0.00     0.096 C 
BRANCH  26  27
HETATM   27  S1  UNL     1     -31.865   8.292 -29.694  1.00  0.00    -0.160 SA
BRANCH  27  28
HETATM   28  C14 UNL     1     -30.213   8.017 -29.012  1.00  0.00     0.153 C 
BRANCH  28  29
HETATM   29  C15 UNL     1     -29.726   6.719 -29.558  1.00  0.00     0.122 A 
HETATM   30  N12 UNL     1     -30.582   5.739 -29.933  1.00  0.00    -0.272 N 
HETATM   31  N13 UNL     1     -29.873   4.714 -30.374  1.00  0.00    -0.227 N 
ATOM     32  H12 UNL     1     -31.600   5.784 -29.883  1.00  0.00     0.190 HD
HETATM   33  N14 UNL     1     -28.615   5.062 -30.270  1.00  0.00    -0.227 N 
ATOM     34  H13 UNL     1     -30.234   3.827 -30.727  1.00  0.00     0.210 HD
HETATM   35  N15 UNL     1     -28.488   6.284 -29.774  1.00  0.00    -0.272 N 
ATOM     36  H14 UNL     1     -27.830   4.467 -30.537  1.00  0.00     0.210 HD
ATOM     37  H15 UNL     1     -27.620   6.788 -29.595  1.00  0.00     0.190 HD
ENDBRANCH  28  29
ENDBRANCH  27  28
ENDBRANCH  26  27
ENDBRANCH  25  26
ENDBRANCH  24  25
BRANCH  20  38
HETATM   38  N7  UNL     1     -30.561   5.676 -25.377  1.00  0.00    -0.304 N 
HETATM   39  C8  UNL     1     -29.239   5.783 -25.957  1.00  0.00     0.153 C 
HETATM   40  C9  UNL     1     -29.163   4.458 -26.726  1.00  0.00     0.142 C 
HETATM   41  N8  UNL     1     -30.029   3.602 -25.958  1.00  0.00    -0.363 N 
HETATM   42  C10 UNL     1     -30.824   4.282 -25.192  1.00  0.00     0.192 C 
ATOM     43  H8  UNL     1     -30.019   2.584 -26.011  1.00  0.00     0.162 HD
HETATM   44  N9  UNL     1     -31.794   3.743 -24.315  1.00  0.00    -0.063 NA
ENDBRANCH  20  38
TORSDOF 6
ENDMDL
