MODEL 1
REMARK VINA RESULT: -9.240008783      0.000      0.000
REMARK  9 active torsions:
REMARK  status: ('A' for Active; 'I' for Inactive)
REMARK    1  A    between atoms: N1_1  and  C1_5 
REMARK    2  A    between atoms: C1_5  and  C2_6 
REMARK    3  A    between atoms: N3_9  and  N4_10 
REMARK    4  A    between atoms: C3_12  and  C4_13 
REMARK    5  A    between atoms: C4_13  and  C5_14 
REMARK    6  A    between atoms: C5_14  and  N5_15 
REMARK    7  A    between atoms: C9_25  and  C10_26 
REMARK    8  A    between atoms: C12_28  and  O3_29 
REMARK    9  A    between atoms: C13_31  and  O4_32 
ROOT
HETATM    1  N5  UNL     1     -30.643   6.473 -24.634  1.00  0.00    -0.239 N 
HETATM    2  N6  UNL     1     -30.554   7.653 -25.147  1.00  0.00    -0.273 N 
ATOM      3  H6  UNL     1     -30.862   8.519 -24.704  1.00  0.00     0.189 HD
HETATM    4  C6  UNL     1     -29.974   7.552 -26.388  1.00  0.00     0.215 A 
HETATM    5  C7  UNL     1     -29.781   8.664 -27.233  1.00  0.00     0.295 C 
HETATM    6  O1  UNL     1     -29.374   9.695 -26.724  1.00  0.00    -0.264 OA
HETATM    7  N7  UNL     1     -30.042   8.630 -28.584  1.00  0.00    -0.285 N 
ATOM      8  H7  UNL     1     -30.300   9.496 -29.057  1.00  0.00     0.172 HD
HETATM    9  C8  UNL     1     -29.970   7.493 -29.303  1.00  0.00     0.279 C 
HETATM   10  O2  UNL     1     -30.616   7.458 -30.416  1.00  0.00    -0.265 OA
HETATM   11  C9  UNL     1     -29.316   6.327 -29.003  1.00  0.00     0.151 C 
HETATM   12  N8  UNL     1     -29.187   5.710 -27.776  1.00  0.00    -0.281 N 
ATOM     13  H8  UNL     1     -28.692   4.819 -27.719  1.00  0.00     0.188 HD
HETATM   14  N9  UNL     1     -29.706   6.261 -26.627  1.00  0.00    -0.180 N 
HETATM   15  C14 UNL     1     -30.121   5.594 -25.547  1.00  0.00     0.364 A 
HETATM   16  O6  UNL     1     -30.051   4.348 -25.351  1.00  0.00    -0.243 OA
ENDROOT
BRANCH   1  17
HETATM   17  C5  UNL     1     -31.175   6.047 -23.363  1.00  0.00     0.159 C 
BRANCH  17  18
HETATM   18  C4  UNL     1     -31.808   7.091 -22.517  1.00  0.00     0.068 C 
BRANCH  18  19
HETATM   19  C3  UNL     1     -32.379   8.160 -23.386  1.00  0.00     0.084 C 
HETATM   20  N4  UNL     1     -33.273   8.935 -23.182  1.00  0.00    -0.293 N 
ATOM     21  H4  UNL     1     -33.443   9.552 -23.976  1.00  0.00     0.187 HD
BRANCH  20  22
HETATM   22  N3  UNL     1     -34.128   9.188 -22.123  1.00  0.00    -0.181 N 
HETATM   23  N2  UNL     1     -35.441   9.593 -22.203  1.00  0.00    -0.277 N 
HETATM   24  C2  UNL     1     -35.579   9.626 -20.900  1.00  0.00     0.097 A 
ATOM     25  H2  UNL     1     -36.069   9.791 -22.981  1.00  0.00     0.189 HD
HETATM   26  C15 UNL     1     -34.232   9.213 -20.825  1.00  0.00     0.181 A 
HETATM   27  N10 UNL     1     -33.460   9.086 -19.610  1.00  0.00    -0.077 NA
BRANCH  24  28
HETATM   28  C1  UNL     1     -36.720   9.814 -19.936  1.00  0.00     0.291 C 
BRANCH  28  29
HETATM   29  N1  UNL     1     -36.344  10.928 -19.031  1.00  0.00    -0.074 N 
ATOM     30  H13 UNL     1     -35.430  11.327 -19.245  1.00  0.00     0.274 HD
ATOM     31  H12 UNL     1     -36.893  11.773 -19.187  1.00  0.00     0.274 HD
ATOM     32  H11 UNL     1     -36.414  10.573 -18.077  1.00  0.00     0.274 HD
ENDBRANCH  28  29
ENDBRANCH  24  28
ENDBRANCH  20  22
ENDBRANCH  18  19
ENDBRANCH  17  18
ENDBRANCH   1  17
BRANCH  11  33
HETATM   33  C10 UNL     1     -28.694   5.671 -30.179  1.00  0.00     0.115 A 
HETATM   34  C11 UNL     1     -29.210   4.769 -31.048  1.00  0.00     0.081 A 
HETATM   35  C12 UNL     1     -28.249   4.428 -32.000  1.00  0.00     0.127 A 
HETATM   36  C13 UNL     1     -27.166   5.186 -31.623  1.00  0.00     0.218 A 
HETATM   37  O5  UNL     1     -27.421   5.904 -30.568  1.00  0.00    -0.283 OA
BRANCH  35  38
HETATM   38  O3  UNL     1     -28.441   3.520 -33.013  1.00  0.00    -0.356 OA
ATOM     39  H3  UNL     1     -28.328   2.580 -32.925  1.00  0.00     0.218 HD
ENDBRANCH  35  38
BRANCH  36  40
HETATM   40  O4  UNL     1     -25.884   5.206 -32.225  1.00  0.00    -0.339 OA
ATOM     41  H4  UNL     1     -25.080   4.844 -31.873  1.00  0.00     0.220 HD
ENDBRANCH  36  40
ENDBRANCH  11  33
TORSDOF 9
ENDMDL
MODEL 2
REMARK VINA RESULT: -8.927711219      4.065     10.915
REMARK  9 active torsions:
REMARK  status: ('A' for Active; 'I' for Inactive)
REMARK    1  A    between atoms: N1_1  and  C1_5 
REMARK    2  A    between atoms: C1_5  and  C2_6 
REMARK    3  A    between atoms: N3_9  and  N4_10 
REMARK    4  A    between atoms: C3_12  and  C4_13 
REMARK    5  A    between atoms: C4_13  and  C5_14 
REMARK    6  A    between atoms: C5_14  and  N5_15 
REMARK    7  A    between atoms: C9_25  and  C10_26 
REMARK    8  A    between atoms: C12_28  and  O3_29 
REMARK    9  A    between atoms: C13_31  and  O4_32 
ROOT
HETATM    1  N5  UNL     1     -29.737   5.393 -30.129  1.00  0.00    -0.239 N 
HETATM    2  N6  UNL     1     -30.014   6.625 -30.389  1.00  0.00    -0.273 N 
ATOM      3  H6  UNL     1     -29.848   7.097 -31.278  1.00  0.00     0.189 HD
HETATM    4  C6  UNL     1     -30.571   7.198 -29.271  1.00  0.00     0.215 A 
HETATM    5  C7  UNL     1     -30.939   8.558 -29.213  1.00  0.00     0.295 C 
HETATM    6  O1  UNL     1     -31.505   9.030 -30.185  1.00  0.00    -0.264 OA
HETATM    7  N7  UNL     1     -30.676   9.357 -28.125  1.00  0.00    -0.285 N 
ATOM      8  H7  UNL     1     -30.560  10.361 -28.268  1.00  0.00     0.172 HD
HETATM    9  C8  UNL     1     -30.566   8.861 -26.876  1.00  0.00     0.279 C 
HETATM   10  O2  UNL     1     -29.923   9.571 -26.016  1.00  0.00    -0.265 OA
HETATM   11  C9  UNL     1     -31.025   7.669 -26.383  1.00  0.00     0.151 C 
HETATM   12  N8  UNL     1     -31.054   6.438 -27.006  1.00  0.00    -0.281 N 
ATOM     13  H8  UNL     1     -31.399   5.629 -26.490  1.00  0.00     0.188 HD
HETATM   14  N9  UNL     1     -30.629   6.272 -28.305  1.00  0.00    -0.180 N 
HETATM   15  C14 UNL     1     -30.113   5.159 -28.832  1.00  0.00     0.364 A 
HETATM   16  O6  UNL     1     -29.982   4.039 -28.261  1.00  0.00    -0.243 OA
ENDROOT
BRANCH   1  17
HETATM   17  C5  UNL     1     -29.144   4.375 -30.961  1.00  0.00     0.159 C 
BRANCH  17  18
HETATM   18  C4  UNL     1     -28.351   4.841 -32.127  1.00  0.00     0.068 C 
BRANCH  18  19
HETATM   19  C3  UNL     1     -26.910   4.923 -31.751  1.00  0.00     0.084 C 
HETATM   20  N4  UNL     1     -25.937   5.110 -32.429  1.00  0.00    -0.293 N 
ATOM     21  H4  UNL     1     -25.075   5.108 -31.885  1.00  0.00     0.187 HD
BRANCH  20  22
HETATM   22  N3  UNL     1     -25.710   5.328 -33.778  1.00  0.00    -0.181 N 
HETATM   23  N2  UNL     1     -24.740   6.133 -34.330  1.00  0.00    -0.277 N 
HETATM   24  C2  UNL     1     -25.116   5.858 -35.555  1.00  0.00     0.097 A 
ATOM     25  H2  UNL     1     -24.006   6.722 -33.936  1.00  0.00     0.189 HD
HETATM   26  C15 UNL     1     -26.108   5.036 -34.983  1.00  0.00     0.181 A 
HETATM   27  N10 UNL     1     -27.151   4.350 -35.711  1.00  0.00    -0.077 NA
BRANCH  24  28
HETATM   28  C1  UNL     1     -24.587   6.132 -36.938  1.00  0.00     0.291 C 
BRANCH  28  29
HETATM   29  N1  UNL     1     -25.743   6.062 -37.865  1.00  0.00    -0.074 N 
ATOM     30  H13 UNL     1     -26.432   5.361 -37.595  1.00  0.00     0.274 HD
ATOM     31  H12 UNL     1     -26.355   6.875 -37.805  1.00  0.00     0.274 HD
ATOM     32  H11 UNL     1     -25.365   5.913 -38.802  1.00  0.00     0.274 HD
ENDBRANCH  28  29
ENDBRANCH  24  28
ENDBRANCH  20  22
ENDBRANCH  18  19
ENDBRANCH  17  18
ENDBRANCH   1  17
BRANCH  11  33
HETATM   33  C10 UNL     1     -31.534   7.755 -24.992  1.00  0.00     0.115 A 
HETATM   34  C11 UNL     1     -31.166   7.065 -23.886  1.00  0.00     0.081 A 
HETATM   35  C12 UNL     1     -31.929   7.483 -22.795  1.00  0.00     0.127 A 
HETATM   36  C13 UNL     1     -32.744   8.444 -23.345  1.00  0.00     0.218 A 
HETATM   37  O5  UNL     1     -32.519   8.600 -24.617  1.00  0.00    -0.283 OA
BRANCH  35  38
HETATM   38  O3  UNL     1     -31.825   6.969 -21.525  1.00  0.00    -0.356 OA
ATOM     39  H3  UNL     1     -32.533   6.545 -21.053  1.00  0.00     0.218 HD
ENDBRANCH  35  38
BRANCH  36  40
HETATM   40  O4  UNL     1     -33.759   9.182 -22.689  1.00  0.00    -0.339 OA
ATOM     41  H4  UNL     1     -33.705  10.076 -22.374  1.00  0.00     0.220 HD
ENDBRANCH  36  40
ENDBRANCH  11  33
TORSDOF 9
ENDMDL
MODEL 3
REMARK VINA RESULT: -8.873174066      1.714      2.256
REMARK  9 active torsions:
REMARK  status: ('A' for Active; 'I' for Inactive)
REMARK    1  A    between atoms: N1_1  and  C1_5 
REMARK    2  A    between atoms: C1_5  and  C2_6 
REMARK    3  A    between atoms: N3_9  and  N4_10 
REMARK    4  A    between atoms: C3_12  and  C4_13 
REMARK    5  A    between atoms: C4_13  and  C5_14 
REMARK    6  A    between atoms: C5_14  and  N5_15 
REMARK    7  A    between atoms: C9_25  and  C10_26 
REMARK    8  A    between atoms: C12_28  and  O3_29 
REMARK    9  A    between atoms: C13_31  and  O4_32 
ROOT
HETATM    1  N5  UNL     1     -30.451   5.001 -25.259  1.00  0.00    -0.239 N 
HETATM    2  N6  UNL     1     -30.421   6.260 -25.531  1.00  0.00    -0.273 N 
ATOM      3  H6  UNL     1     -30.781   7.006 -24.936  1.00  0.00     0.189 HD
HETATM    4  C6  UNL     1     -29.824   6.433 -26.757  1.00  0.00     0.215 A 
HETATM    5  C7  UNL     1     -29.684   7.697 -27.366  1.00  0.00     0.295 C 
HETATM    6  O1  UNL     1     -29.340   8.628 -26.659  1.00  0.00    -0.264 OA
HETATM    7  N7  UNL     1     -29.930   7.913 -28.703  1.00  0.00    -0.285 N 
ATOM      8  H7  UNL     1     -30.230   8.839 -29.005  1.00  0.00     0.172 HD
HETATM    9  C8  UNL     1     -29.788   6.942 -29.627  1.00  0.00     0.279 C 
HETATM   10  O2  UNL     1     -30.420   7.091 -30.738  1.00  0.00    -0.265 OA
HETATM   11  C9  UNL     1     -29.074   5.776 -29.545  1.00  0.00     0.151 C 
HETATM   12  N8  UNL     1     -28.923   4.939 -28.458  1.00  0.00    -0.281 N 
ATOM     13  H8  UNL     1     -28.382   4.081 -28.565  1.00  0.00     0.188 HD
HETATM   14  N9  UNL     1     -29.484   5.229 -27.235  1.00  0.00    -0.180 N 
HETATM   15  C14 UNL     1     -29.872   4.344 -26.313  1.00  0.00     0.364 A 
HETATM   16  O6  UNL     1     -29.736   3.088 -26.362  1.00  0.00    -0.243 OA
ENDROOT
BRANCH   1  17
HETATM   17  C5  UNL     1     -30.971   4.308 -24.105  1.00  0.00     0.159 C 
BRANCH  17  18
HETATM   18  C4  UNL     1     -32.009   5.014 -23.312  1.00  0.00     0.068 C 
BRANCH  18  19
HETATM   19  C3  UNL     1     -31.361   6.026 -22.428  1.00  0.00     0.084 C 
HETATM   20  N4  UNL     1     -31.581   7.198 -22.295  1.00  0.00    -0.293 N 
ATOM     21  H4  UNL     1     -30.963   7.635 -21.611  1.00  0.00     0.187 HD
BRANCH  20  22
HETATM   22  N3  UNL     1     -32.476   8.098 -22.850  1.00  0.00    -0.181 N 
HETATM   23  N2  UNL     1     -33.528   8.714 -22.212  1.00  0.00    -0.277 N 
HETATM   24  C2  UNL     1     -33.888   9.365 -23.291  1.00  0.00     0.097 A 
ATOM     25  H2  UNL     1     -33.890   8.678 -21.259  1.00  0.00     0.189 HD
HETATM   26  C15 UNL     1     -32.809   8.728 -23.939  1.00  0.00     0.181 A 
HETATM   27  N10 UNL     1     -32.507   8.818 -25.350  1.00  0.00    -0.077 NA
BRANCH  24  28
HETATM   28  C1  UNL     1     -34.873  10.454 -23.621  1.00  0.00     0.291 C 
BRANCH  28  29
HETATM   29  N1  UNL     1     -34.100  11.566 -24.228  1.00  0.00    -0.074 N 
ATOM     30  H13 UNL     1     -34.692  12.288 -24.639  1.00  0.00     0.274 HD
ATOM     31  H12 UNL     1     -33.637  12.156 -23.537  1.00  0.00     0.274 HD
ATOM     32  H11 UNL     1     -33.453  11.148 -24.897  1.00  0.00     0.274 HD
ENDBRANCH  28  29
ENDBRANCH  24  28
ENDBRANCH  20  22
ENDBRANCH  18  19
ENDBRANCH  17  18
ENDBRANCH   1  17
BRANCH  11  33
HETATM   33  C10 UNL     1     -28.406   5.394 -30.813  1.00  0.00     0.115 A 
HETATM   34  C11 UNL     1     -28.893   4.734 -31.891  1.00  0.00     0.081 A 
HETATM   35  C12 UNL     1     -27.892   4.597 -32.853  1.00  0.00     0.127 A 
HETATM   36  C13 UNL     1     -26.816   5.215 -32.260  1.00  0.00     0.218 A 
HETATM   37  O5  UNL     1     -27.111   5.674 -31.079  1.00  0.00    -0.283 OA
BRANCH  35  38
HETATM   38  O3  UNL     1     -28.048   3.955 -34.057  1.00  0.00    -0.356 OA
ATOM     39  H3  UNL     1     -27.859   4.343 -34.905  1.00  0.00     0.218 HD
ENDBRANCH  35  38
BRANCH  36  40
HETATM   40  O4  UNL     1     -25.505   5.337 -32.783  1.00  0.00    -0.339 OA
ATOM     41  H4  UNL     1     -24.755   5.740 -32.362  1.00  0.00     0.220 HD
ENDBRANCH  36  40
ENDBRANCH  11  33
TORSDOF 9
ENDMDL
MODEL 4
REMARK VINA RESULT: -8.862143256      3.910      6.102
REMARK  9 active torsions:
REMARK  status: ('A' for Active; 'I' for Inactive)
REMARK    1  A    between atoms: N1_1  and  C1_5 
REMARK    2  A    between atoms: C1_5  and  C2_6 
REMARK    3  A    between atoms: N3_9  and  N4_10 
REMARK    4  A    between atoms: C3_12  and  C4_13 
REMARK    5  A    between atoms: C4_13  and  C5_14 
REMARK    6  A    between atoms: C5_14  and  N5_15 
REMARK    7  A    between atoms: C9_25  and  C10_26 
REMARK    8  A    between atoms: C12_28  and  O3_29 
REMARK    9  A    between atoms: C13_31  and  O4_32 
ROOT
HETATM    1  N5  UNL     1     -33.454  11.186 -25.193  1.00  0.00    -0.239 N 
HETATM    2  N6  UNL     1     -33.765  10.821 -23.996  1.00  0.00    -0.273 N 
ATOM      3  H6  UNL     1     -34.167  11.422 -23.277  1.00  0.00     0.189 HD
HETATM    4  C6  UNL     1     -33.464   9.489 -23.849  1.00  0.00     0.215 A 
HETATM    5  C7  UNL     1     -33.640   8.797 -22.632  1.00  0.00     0.295 C 
HETATM    6  O1  UNL     1     -34.663   9.011 -22.005  1.00  0.00    -0.264 OA
HETATM    7  N7  UNL     1     -32.709   7.915 -22.134  1.00  0.00    -0.285 N 
ATOM      8  H7  UNL     1     -32.653   7.776 -21.125  1.00  0.00     0.172 HD
HETATM    9  C8  UNL     1     -31.867   7.228 -22.932  1.00  0.00     0.279 C 
HETATM   10  O2  UNL     1     -30.789   6.773 -22.396  1.00  0.00    -0.265 OA
HETATM   11  C9  UNL     1     -31.980   6.962 -24.271  1.00  0.00     0.151 C 
HETATM   12  N8  UNL     1     -32.460   7.783 -25.270  1.00  0.00    -0.281 N 
ATOM     13  H8  UNL     1     -32.449   7.449 -26.234  1.00  0.00     0.188 HD
HETATM   14  N9  UNL     1     -32.954   9.039 -25.003  1.00  0.00    -0.180 N 
HETATM   15  C14 UNL     1     -32.944  10.086 -25.832  1.00  0.00     0.364 A 
HETATM   16  O6  UNL     1     -32.546  10.100 -27.032  1.00  0.00    -0.243 OA
ENDROOT
BRANCH   1  17
HETATM   17  C5  UNL     1     -33.570  12.472 -25.836  1.00  0.00     0.159 C 
BRANCH  17  18
HETATM   18  C4  UNL     1     -34.819  13.236 -25.584  1.00  0.00     0.068 C 
BRANCH  18  19
HETATM   19  C3  UNL     1     -34.525  14.395 -24.692  1.00  0.00     0.084 C 
HETATM   20  N4  UNL     1     -34.675  14.524 -23.508  1.00  0.00    -0.293 N 
ATOM     21  H4  UNL     1     -34.385  15.444 -23.177  1.00  0.00     0.187 HD
BRANCH  20  22
HETATM   22  N3  UNL     1     -35.148  13.718 -22.486  1.00  0.00    -0.181 N 
HETATM   23  N2  UNL     1     -34.888  13.855 -21.142  1.00  0.00    -0.277 N 
HETATM   24  C2  UNL     1     -35.617  12.812 -20.827  1.00  0.00     0.097 A 
ATOM     25  H2  UNL     1     -34.337  14.518 -20.596  1.00  0.00     0.189 HD
HETATM   26  C15 UNL     1     -35.878  12.677 -22.206  1.00  0.00     0.181 A 
HETATM   27  N10 UNL     1     -36.608  11.590 -22.819  1.00  0.00    -0.077 NA
BRANCH  24  28
HETATM   28  C1  UNL     1     -36.115  12.183 -19.553  1.00  0.00     0.291 C 
BRANCH  28  29
HETATM   29  N1  UNL     1     -35.652  10.774 -19.557  1.00  0.00    -0.074 N 
ATOM     30  H13 UNL     1     -36.331  10.130 -19.961  1.00  0.00     0.274 HD
ATOM     31  H12 UNL     1     -34.898  10.602 -20.221  1.00  0.00     0.274 HD
ATOM     32  H11 UNL     1     -35.401  10.541 -18.595  1.00  0.00     0.274 HD
ENDBRANCH  28  29
ENDBRANCH  24  28
ENDBRANCH  20  22
ENDBRANCH  18  19
ENDBRANCH  17  18
ENDBRANCH   1  17
BRANCH  11  33
HETATM   33  C10 UNL     1     -31.498   5.612 -24.653  1.00  0.00     0.115 A 
HETATM   34  C11 UNL     1     -30.481   5.249 -25.472  1.00  0.00     0.081 A 
HETATM   35  C12 UNL     1     -30.401   3.857 -25.535  1.00  0.00     0.127 A 
HETATM   36  C13 UNL     1     -31.425   3.456 -24.710  1.00  0.00     0.218 A 
HETATM   37  O5  UNL     1     -32.062   4.471 -24.201  1.00  0.00    -0.283 OA
BRANCH  35  38
HETATM   38  O3  UNL     1     -29.493   3.161 -26.295  1.00  0.00    -0.356 OA
ATOM     39  H3  UNL     1     -28.686   2.784 -25.963  1.00  0.00     0.218 HD
ENDBRANCH  35  38
BRANCH  36  40
HETATM   40  O4  UNL     1     -31.830   2.128 -24.433  1.00  0.00    -0.339 OA
ATOM     41  H4  UNL     1     -31.282   1.352 -24.421  1.00  0.00     0.220 HD
ENDBRANCH  36  40
ENDBRANCH  11  33
TORSDOF 9
ENDMDL
MODEL 5
REMARK VINA RESULT: -8.677895667      3.947      7.366
REMARK  9 active torsions:
REMARK  status: ('A' for Active; 'I' for Inactive)
REMARK    1  A    between atoms: N1_1  and  C1_5 
REMARK    2  A    between atoms: C1_5  and  C2_6 
REMARK    3  A    between atoms: N3_9  and  N4_10 
REMARK    4  A    between atoms: C3_12  and  C4_13 
REMARK    5  A    between atoms: C4_13  and  C5_14 
REMARK    6  A    between atoms: C5_14  and  N5_15 
REMARK    7  A    between atoms: C9_25  and  C10_26 
REMARK    8  A    between atoms: C12_28  and  O3_29 
REMARK    9  A    between atoms: C13_31  and  O4_32 
ROOT
HETATM    1  N5  UNL     1     -32.530  10.383 -26.704  1.00  0.00    -0.239 N 
HETATM    2  N6  UNL     1     -31.247  10.300 -26.806  1.00  0.00    -0.273 N 
ATOM      3  H6  UNL     1     -30.642  10.984 -27.260  1.00  0.00     0.189 HD
HETATM    4  C6  UNL     1     -30.830   9.138 -26.204  1.00  0.00     0.215 A 
HETATM    5  C7  UNL     1     -29.481   8.728 -26.190  1.00  0.00     0.295 C 
HETATM    6  O1  UNL     1     -28.636   9.578 -25.967  1.00  0.00    -0.264 OA
HETATM    7  N7  UNL     1     -29.093   7.429 -26.427  1.00  0.00    -0.285 N 
ATOM      8  H7  UNL     1     -28.168   7.255 -26.820  1.00  0.00     0.172 HD
HETATM    9  C8  UNL     1     -29.893   6.378 -26.157  1.00  0.00     0.279 C 
HETATM   10  O2  UNL     1     -29.646   5.277 -26.776  1.00  0.00    -0.265 OA
HETATM   11  C9  UNL     1     -30.977   6.316 -25.321  1.00  0.00     0.151 C 
HETATM   12  N8  UNL     1     -31.947   7.272 -25.104  1.00  0.00    -0.281 N 
ATOM     13  H8  UNL     1     -32.717   7.062 -24.469  1.00  0.00     0.188 HD
HETATM   14  N9  UNL     1     -31.905   8.501 -25.722  1.00  0.00    -0.180 N 
HETATM   15  C14 UNL     1     -32.955   9.267 -26.031  1.00  0.00     0.364 A 
HETATM   16  O6  UNL     1     -34.168   9.039 -25.757  1.00  0.00    -0.243 OA
ENDROOT
BRANCH   1  17
HETATM   17  C5  UNL     1     -33.440  11.400 -27.171  1.00  0.00     0.159 C 
BRANCH  17  18
HETATM   18  C4  UNL     1     -33.310  11.812 -28.592  1.00  0.00     0.068 C 
BRANCH  18  19
HETATM   19  C3  UNL     1     -34.133  10.912 -29.451  1.00  0.00     0.084 C 
HETATM   20  N4  UNL     1     -33.899   9.815 -29.878  1.00  0.00    -0.293 N 
ATOM     21  H4  UNL     1     -34.660   9.448 -30.449  1.00  0.00     0.187 HD
BRANCH  20  22
HETATM   22  N3  UNL     1     -32.839   8.930 -29.777  1.00  0.00    -0.181 N 
HETATM   23  N2  UNL     1     -31.590   9.073 -30.339  1.00  0.00    -0.277 N 
HETATM   24  C2  UNL     1     -31.167   7.932 -29.850  1.00  0.00     0.097 A 
ATOM     25  H2  UNL     1     -31.157   9.793 -30.916  1.00  0.00     0.189 HD
HETATM   26  C15 UNL     1     -32.449   7.791 -29.279  1.00  0.00     0.181 A 
HETATM   27  N10 UNL     1     -32.927   6.628 -28.568  1.00  0.00    -0.077 NA
BRANCH  24  28
HETATM   28  C1  UNL     1     -29.847   7.213 -29.764  1.00  0.00     0.291 C 
BRANCH  28  29
HETATM   29  N1  UNL     1     -30.138   5.762 -29.863  1.00  0.00    -0.074 N 
ATOM     30  H13 UNL     1     -31.108   5.532 -29.648  1.00  0.00     0.274 HD
ATOM     31  H12 UNL     1     -30.132   5.416 -30.822  1.00  0.00     0.274 HD
ATOM     32  H11 UNL     1     -29.469   5.283 -29.259  1.00  0.00     0.274 HD
ENDBRANCH  28  29
ENDBRANCH  24  28
ENDBRANCH  20  22
ENDBRANCH  18  19
ENDBRANCH  17  18
ENDBRANCH   1  17
BRANCH  11  33
HETATM   33  C10 UNL     1     -31.090   5.033 -24.585  1.00  0.00     0.115 A 
HETATM   34  C11 UNL     1     -30.719   4.717 -23.321  1.00  0.00     0.081 A 
HETATM   35  C12 UNL     1     -31.019   3.379 -23.062  1.00  0.00     0.127 A 
HETATM   36  C13 UNL     1     -31.579   2.959 -24.245  1.00  0.00     0.218 A 
HETATM   37  O5  UNL     1     -31.618   3.914 -25.129  1.00  0.00    -0.283 OA
BRANCH  35  38
HETATM   38  O3  UNL     1     -30.751   2.733 -21.879  1.00  0.00    -0.356 OA
ATOM     39  H3  UNL     1     -29.953   2.840 -21.374  1.00  0.00     0.218 HD
ENDBRANCH  35  38
BRANCH  36  40
HETATM   40  O4  UNL     1     -32.036   1.656 -24.560  1.00  0.00    -0.339 OA
ATOM     41  H4  UNL     1     -32.428   1.367 -25.375  1.00  0.00     0.220 HD
ENDBRANCH  36  40
ENDBRANCH  11  33
TORSDOF 9
ENDMDL
