MODEL 1
REMARK VINA RESULT: -7.504117377      0.000      0.000
REMARK  6 active torsions:
REMARK  status: ('A' for Active; 'I' for Inactive)
REMARK    1  A    between atoms: C5_5  and  N1_6 
REMARK    2  A    between atoms: N1_6  and  C6_8 
REMARK    3  A    between atoms: C6_8  and  N2_10 
REMARK    4  A    between atoms: N2_10  and  C7_12 
REMARK    5  A    between atoms: C10_15  and  O1_16 
REMARK    6  A    between atoms: O1_16  and  C11_17 
ROOT
HETATM    1  C6  UNL     1      -7.606   4.652  15.950  1.00  0.00     0.176 C 
HETATM    2  S1  UNL     1      -9.152   4.490  16.395  1.00  0.00    -0.041 SA
ENDROOT
BRANCH   1   3
HETATM    3  N1  UNL     1      -6.628   3.855  16.649  1.00  0.00    -0.337 N 
ATOM      4  H1  UNL     1      -6.623   2.843  16.519  1.00  0.00     0.168 HD
BRANCH   3   5
HETATM    5  C5  UNL     1      -5.672   4.452  17.515  1.00  0.00     0.013 C 
HETATM    6  C4  UNL     1      -6.004   5.294  18.489  1.00  0.00     0.035 C 
HETATM    7  C2  UNL     1      -5.029   5.912  19.383  1.00  0.00     0.074 C 
HETATM    8  C1  UNL     1      -5.558   7.274  19.783  1.00  0.00     0.050 C 
HETATM    9  C3  UNL     1      -4.973   5.076  20.657  1.00  0.00     0.050 C 
HETATM   10  O2  UNL     1      -3.765   6.039  18.905  1.00  0.00    -0.366 OA
HETATM   11  C15 UNL     1      -3.450   5.446  17.733  1.00  0.00     0.060 C 
HETATM   12  C14 UNL     1      -4.208   4.189  17.409  1.00  0.00     0.094 C 
HETATM   13  C16 UNL     1      -3.642   6.396  16.550  1.00  0.00     0.046 C 
HETATM   14  C17 UNL     1      -1.978   5.080  17.752  1.00  0.00     0.046 C 
ENDBRANCH   3   5
ENDBRANCH   1   3
BRANCH   1  15
HETATM   15  N2  UNL     1      -7.224   5.563  14.951  1.00  0.00    -0.333 N 
ATOM     16  H2  UNL     1      -6.632   5.231  14.190  1.00  0.00     0.168 HD
BRANCH  15  17
HETATM   17  C7  UNL     1      -7.622   6.913  14.952  1.00  0.00     0.034 A 
HETATM   18  C8  UNL     1      -8.461   7.534  14.074  1.00  0.00     0.032 A 
HETATM   19  C9  UNL     1      -8.830   8.879  14.178  1.00  0.00     0.039 A 
HETATM   20  C10 UNL     1      -8.358   9.674  15.190  1.00  0.00     0.075 A 
HETATM   21  C12 UNL     1      -7.488   9.052  16.105  1.00  0.00     0.039 A 
HETATM   22  C13 UNL     1      -7.141   7.736  15.988  1.00  0.00     0.032 A 
BRANCH  20  23
HETATM   23  O1  UNL     1      -8.669  11.008  15.366  1.00  0.00    -0.290 OA
BRANCH  23  24
HETATM   24  C11 UNL     1      -9.400  11.524  16.419  1.00  0.00     0.505 C 
HETATM   25  F1  UNL     1      -8.527  11.810  17.477  1.00  0.00    -0.184 F 
HETATM   26  F2  UNL     1     -10.381  10.631  16.870  1.00  0.00    -0.184 F 
ENDBRANCH  23  24
ENDBRANCH  20  23
ENDBRANCH  15  17
ENDBRANCH   1  15
TORSDOF 6
ENDMDL
MODEL 2
REMARK VINA RESULT: -7.414892222      4.157      5.619
REMARK  6 active torsions:
REMARK  status: ('A' for Active; 'I' for Inactive)
REMARK    1  A    between atoms: C5_5  and  N1_6 
REMARK    2  A    between atoms: N1_6  and  C6_8 
REMARK    3  A    between atoms: C6_8  and  N2_10 
REMARK    4  A    between atoms: N2_10  and  C7_12 
REMARK    5  A    between atoms: C10_15  and  O1_16 
REMARK    6  A    between atoms: O1_16  and  C11_17 
ROOT
HETATM    1  C6  UNL     1      -9.114  10.251  15.813  1.00  0.00     0.176 C 
HETATM    2  S1  UNL     1     -10.453  11.121  15.564  1.00  0.00    -0.041 SA
ENDROOT
BRANCH   1   3
HETATM    3  N1  UNL     1      -8.914   9.706  17.133  1.00  0.00    -0.337 N 
ATOM      4  H1  UNL     1      -9.724   9.511  17.722  1.00  0.00     0.168 HD
BRANCH   3   5
HETATM    5  C5  UNL     1      -7.610   9.434  17.630  1.00  0.00     0.013 C 
HETATM    6  C4  UNL     1      -7.075   8.216  17.631  1.00  0.00     0.035 C 
HETATM    7  C2  UNL     1      -5.738   7.927  18.139  1.00  0.00     0.074 C 
HETATM    8  C1  UNL     1      -5.743   6.519  18.699  1.00  0.00     0.050 C 
HETATM    9  C3  UNL     1      -4.782   7.919  16.950  1.00  0.00     0.050 C 
HETATM   10  O2  UNL     1      -5.246   8.783  19.070  1.00  0.00    -0.366 OA
HETATM   11  C15 UNL     1      -5.930   9.917  19.337  1.00  0.00     0.060 C 
HETATM   12  C14 UNL     1      -6.722  10.489  18.195  1.00  0.00     0.094 C 
HETATM   13  C16 UNL     1      -6.904   9.729  20.501  1.00  0.00     0.046 C 
HETATM   14  C17 UNL     1      -4.947  10.987  19.772  1.00  0.00     0.046 C 
ENDBRANCH   3   5
ENDBRANCH   1   3
BRANCH   1  15
HETATM   15  N2  UNL     1      -8.160  10.067  14.797  1.00  0.00    -0.333 N 
ATOM     16  H2  UNL     1      -7.322  10.647  14.805  1.00  0.00     0.168 HD
BRANCH  15  17
HETATM   17  C7  UNL     1      -8.311   9.118  13.769  1.00  0.00     0.034 A 
HETATM   18  C8  UNL     1      -8.950   9.278  12.575  1.00  0.00     0.032 A 
HETATM   19  C9  UNL     1      -9.017   8.283  11.594  1.00  0.00     0.039 A 
HETATM   20  C10 UNL     1      -8.432   7.057  11.778  1.00  0.00     0.075 A 
HETATM   21  C12 UNL     1      -7.768   6.871  13.006  1.00  0.00     0.039 A 
HETATM   22  C13 UNL     1      -7.714   7.856  13.951  1.00  0.00     0.032 A 
BRANCH  20  23
HETATM   23  O1  UNL     1      -8.449   6.021  10.866  1.00  0.00    -0.290 OA
BRANCH  23  24
HETATM   24  C11 UNL     1      -9.416   5.824   9.899  1.00  0.00     0.505 C 
HETATM   25  F1  UNL     1      -9.375   4.486   9.485  1.00  0.00    -0.184 F 
HETATM   26  F2  UNL     1      -9.224   6.649   8.783  1.00  0.00    -0.184 F 
ENDBRANCH  23  24
ENDBRANCH  20  23
ENDBRANCH  15  17
ENDBRANCH   1  15
TORSDOF 6
ENDMDL
MODEL 3
REMARK VINA RESULT: -7.385354124      3.276      5.331
REMARK  6 active torsions:
REMARK  status: ('A' for Active; 'I' for Inactive)
REMARK    1  A    between atoms: C5_5  and  N1_6 
REMARK    2  A    between atoms: N1_6  and  C6_8 
REMARK    3  A    between atoms: C6_8  and  N2_10 
REMARK    4  A    between atoms: N2_10  and  C7_12 
REMARK    5  A    between atoms: C10_15  and  O1_16 
REMARK    6  A    between atoms: O1_16  and  C11_17 
ROOT
HETATM    1  C6  UNL     1      -6.175   6.508  19.264  1.00  0.00     0.176 C 
HETATM    2  S1  UNL     1      -4.669   6.778  19.786  1.00  0.00    -0.041 SA
ENDROOT
BRANCH   1   3
HETATM    3  N1  UNL     1      -7.216   7.370  19.767  1.00  0.00    -0.337 N 
ATOM      4  H1  UNL     1      -7.809   7.045  20.531  1.00  0.00     0.168 HD
BRANCH   3   5
HETATM    5  C5  UNL     1      -7.432   8.664  19.219  1.00  0.00     0.013 C 
HETATM    6  C4  UNL     1      -7.637   8.876  17.922  1.00  0.00     0.035 C 
HETATM    7  C2  UNL     1      -7.860  10.200  17.350  1.00  0.00     0.074 C 
HETATM    8  C1  UNL     1      -7.302  10.202  15.942  1.00  0.00     0.050 C 
HETATM    9  C3  UNL     1      -9.365  10.403  17.222  1.00  0.00     0.050 C 
HETATM   10  O2  UNL     1      -7.350  11.251  18.041  1.00  0.00    -0.366 OA
HETATM   11  C15 UNL     1      -6.833  11.032  19.271  1.00  0.00     0.060 C 
HETATM   12  C14 UNL     1      -7.447   9.903  20.048  1.00  0.00     0.094 C 
HETATM   13  C16 UNL     1      -5.328  10.763  19.211  1.00  0.00     0.046 C 
HETATM   14  C17 UNL     1      -7.009  12.288  20.103  1.00  0.00     0.046 C 
ENDBRANCH   3   5
ENDBRANCH   1   3
BRANCH   1  15
HETATM   15  N2  UNL     1      -6.466   5.449  18.386  1.00  0.00    -0.333 N 
ATOM     16  H2  UNL     1      -6.395   4.494  18.735  1.00  0.00     0.168 HD
BRANCH  15  17
HETATM   17  C7  UNL     1      -6.852   5.649  17.048  1.00  0.00     0.034 A 
HETATM   18  C8  UNL     1      -8.097   5.500  16.510  1.00  0.00     0.032 A 
HETATM   19  C9  UNL     1      -8.394   5.758  15.167  1.00  0.00     0.039 A 
HETATM   20  C10 UNL     1      -7.430   6.183  14.290  1.00  0.00     0.075 A 
HETATM   21  C12 UNL     1      -6.138   6.341  14.827  1.00  0.00     0.039 A 
HETATM   22  C13 UNL     1      -5.868   6.085  16.141  1.00  0.00     0.032 A 
BRANCH  20  23
HETATM   23  O1  UNL     1      -7.636   6.460  12.953  1.00  0.00    -0.290 OA
BRANCH  23  24
HETATM   24  C11 UNL     1      -8.284   7.575  12.459  1.00  0.00     0.505 C 
HETATM   25  F1  UNL     1      -7.606   8.023  11.317  1.00  0.00    -0.184 F 
HETATM   26  F2  UNL     1      -8.332   8.617  13.395  1.00  0.00    -0.184 F 
ENDBRANCH  23  24
ENDBRANCH  20  23
ENDBRANCH  15  17
ENDBRANCH   1  15
TORSDOF 6
ENDMDL
MODEL 4
REMARK VINA RESULT: -7.317664696      3.584      4.406
REMARK  6 active torsions:
REMARK  status: ('A' for Active; 'I' for Inactive)
REMARK    1  A    between atoms: C5_5  and  N1_6 
REMARK    2  A    between atoms: N1_6  and  C6_8 
REMARK    3  A    between atoms: C6_8  and  N2_10 
REMARK    4  A    between atoms: N2_10  and  C7_12 
REMARK    5  A    between atoms: C10_15  and  O1_16 
REMARK    6  A    between atoms: O1_16  and  C11_17 
ROOT
HETATM    1  C6  UNL     1      -7.533   8.321  16.648  1.00  0.00     0.176 C 
HETATM    2  S1  UNL     1      -6.495   9.532  16.388  1.00  0.00    -0.041 SA
ENDROOT
BRANCH   1   3
HETATM    3  N1  UNL     1      -7.265   7.446  17.763  1.00  0.00    -0.337 N 
ATOM      4  H1  UNL     1      -7.836   7.519  18.604  1.00  0.00     0.168 HD
BRANCH   3   5
HETATM    5  C5  UNL     1      -6.220   6.484  17.711  1.00  0.00     0.013 C 
HETATM    6  C4  UNL     1      -5.075   6.623  18.374  1.00  0.00     0.035 C 
HETATM    7  C2  UNL     1      -3.996   5.640  18.327  1.00  0.00     0.074 C 
HETATM    8  C1  UNL     1      -2.684   6.379  18.489  1.00  0.00     0.050 C 
HETATM    9  C3  UNL     1      -4.140   4.736  19.547  1.00  0.00     0.050 C 
HETATM   10  O2  UNL     1      -3.941   4.854  17.223  1.00  0.00    -0.366 OA
HETATM   11  C15 UNL     1      -4.960   4.905  16.336  1.00  0.00     0.060 C 
HETATM   12  C14 UNL     1      -6.311   5.231  16.909  1.00  0.00     0.094 C 
HETATM   13  C16 UNL     1      -4.693   5.921  15.225  1.00  0.00     0.046 C 
HETATM   14  C17 UNL     1      -5.083   3.553  15.659  1.00  0.00     0.046 C 
ENDBRANCH   3   5
ENDBRANCH   1   3
BRANCH   1  15
HETATM   15  N2  UNL     1      -8.632   8.103  15.798  1.00  0.00    -0.333 N 
ATOM     16  H2  UNL     1      -9.564   8.059  16.210  1.00  0.00     0.168 HD
BRANCH  15  17
HETATM   17  C7  UNL     1      -8.503   7.944  14.406  1.00  0.00     0.034 A 
HETATM   18  C8  UNL     1      -7.856   6.945  13.739  1.00  0.00     0.032 A 
HETATM   19  C9  UNL     1      -7.813   6.850  12.344  1.00  0.00     0.039 A 
HETATM   20  C10 UNL     1      -8.430   7.777  11.545  1.00  0.00     0.075 A 
HETATM   21  C12 UNL     1      -9.102   8.817  12.215  1.00  0.00     0.039 A 
HETATM   22  C13 UNL     1      -9.133   8.892  13.578  1.00  0.00     0.032 A 
BRANCH  20  23
HETATM   23  O1  UNL     1      -8.437   7.760  10.164  1.00  0.00    -0.290 OA
BRANCH  23  24
HETATM   24  C11 UNL     1      -9.173   6.893   9.380  1.00  0.00     0.505 C 
HETATM   25  F1  UNL     1      -9.154   7.353   8.056  1.00  0.00    -0.184 F 
HETATM   26  F2  UNL     1     -10.504   6.795   9.806  1.00  0.00    -0.184 F 
ENDBRANCH  23  24
ENDBRANCH  20  23
ENDBRANCH  15  17
ENDBRANCH   1  15
TORSDOF 6
ENDMDL
MODEL 5
REMARK VINA RESULT: -7.317627545      3.968      5.098
REMARK  6 active torsions:
REMARK  status: ('A' for Active; 'I' for Inactive)
REMARK    1  A    between atoms: C5_5  and  N1_6 
REMARK    2  A    between atoms: N1_6  and  C6_8 
REMARK    3  A    between atoms: C6_8  and  N2_10 
REMARK    4  A    between atoms: N2_10  and  C7_12 
REMARK    5  A    between atoms: C10_15  and  O1_16 
REMARK    6  A    between atoms: O1_16  and  C11_17 
ROOT
HETATM    1  C6  UNL     1      -8.917  10.090  15.896  1.00  0.00     0.176 C 
HETATM    2  S1  UNL     1      -9.966  11.320  15.888  1.00  0.00    -0.041 SA
ENDROOT
BRANCH   1   3
HETATM    3  N1  UNL     1      -8.939   9.208  17.037  1.00  0.00    -0.337 N 
ATOM      4  H1  UNL     1      -9.817   8.766  17.310  1.00  0.00     0.168 HD
BRANCH   3   5
HETATM    5  C5  UNL     1      -7.762   8.943  17.788  1.00  0.00     0.013 C 
HETATM    6  C4  UNL     1      -7.208   9.835  18.605  1.00  0.00     0.035 C 
HETATM    7  C2  UNL     1      -5.999   9.572  19.380  1.00  0.00     0.074 C 
HETATM    8  C1  UNL     1      -5.253  10.880  19.541  1.00  0.00     0.050 C 
HETATM    9  C3  UNL     1      -6.430   9.142  20.778  1.00  0.00     0.050 C 
HETATM   10  O2  UNL     1      -5.158   8.628  18.888  1.00  0.00    -0.366 OA
HETATM   11  C15 UNL     1      -5.561   7.884  17.834  1.00  0.00     0.060 C 
HETATM   12  C14 UNL     1      -7.039   7.640  17.730  1.00  0.00     0.094 C 
HETATM   13  C16 UNL     1      -5.119   8.500  16.506  1.00  0.00     0.046 C 
HETATM   14  C17 UNL     1      -4.894   6.523  17.916  1.00  0.00     0.046 C 
ENDBRANCH   3   5
ENDBRANCH   1   3
BRANCH   1  15
HETATM   15  N2  UNL     1      -7.992   9.909  14.854  1.00  0.00    -0.333 N 
ATOM     16  H2  UNL     1      -7.113  10.425  14.888  1.00  0.00     0.168 HD
BRANCH  15  17
HETATM   17  C7  UNL     1      -8.224   9.049  13.765  1.00  0.00     0.034 A 
HETATM   18  C8  UNL     1      -8.871   9.338  12.599  1.00  0.00     0.032 A 
HETATM   19  C9  UNL     1      -9.021   8.422  11.552  1.00  0.00     0.039 A 
HETATM   20  C10 UNL     1      -8.518   7.151  11.636  1.00  0.00     0.075 A 
HETATM   21  C12 UNL     1      -7.848   6.833  12.833  1.00  0.00     0.039 A 
HETATM   22  C13 UNL     1      -7.710   7.741  13.844  1.00  0.00     0.032 A 
BRANCH  20  23
HETATM   23  O1  UNL     1      -8.621   6.186  10.653  1.00  0.00    -0.290 OA
BRANCH  23  24
HETATM   24  C11 UNL     1      -9.567   6.170   9.647  1.00  0.00     0.505 C 
HETATM   25  F1  UNL     1      -9.193   7.091   8.659  1.00  0.00    -0.184 F 
HETATM   26  F2  UNL     1     -10.844   6.504  10.117  1.00  0.00    -0.184 F 
ENDBRANCH  23  24
ENDBRANCH  20  23
ENDBRANCH  15  17
ENDBRANCH   1  15
TORSDOF 6
ENDMDL
