MODEL 1
REMARK VINA RESULT: -6.822646186      0.000      0.000
REMARK  3 active torsions:
REMARK  status: ('A' for Active; 'I' for Inactive)
REMARK       I    between atoms: C1_2  and  N1_3 
REMARK    1  A    between atoms: C1_2  and  C7_14 
REMARK    2  A    between atoms: N1_3  and  N2_5 
REMARK       I    between atoms: N2_5  and  C2_7 
REMARK    3  A    between atoms: C2_7  and  C3_9 
ROOT
HETATM    1  O1  UNL     1     -19.899 -23.446 -18.788  1.00  0.00    -0.266 OA
HETATM    2  C1  UNL     1     -19.551 -23.756 -17.615  1.00  0.00     0.271 C 
HETATM    3  N1  UNL     1     -20.483 -24.368 -16.722  1.00  0.00    -0.263 N 
ATOM      4  H1  UNL     1     -20.210 -24.619 -15.771  1.00  0.00     0.190 HD
ENDROOT
BRANCH   3   5
HETATM    5  N2  UNL     1     -21.790 -24.617 -17.189  1.00  0.00    -0.263 N 
HETATM    6  C2  UNL     1     -22.181 -25.888 -17.676  1.00  0.00     0.277 C 
HETATM    7  O2  UNL     1     -21.370 -26.842 -17.707  1.00  0.00    -0.265 OA
ATOM      8  H2  UNL     1     -22.473 -23.859 -17.175  1.00  0.00     0.190 HD
BRANCH   6   9
HETATM    9  C3  UNL     1     -23.559 -26.069 -18.147  1.00  0.00     0.074 A 
HETATM   10  C4  UNL     1     -24.387 -25.173 -18.764  1.00  0.00     0.025 A 
HETATM   11  C5  UNL     1     -25.611 -25.591 -19.099  1.00  0.00     0.009 A 
HETATM   12  C6  UNL     1     -25.938 -26.887 -18.796  1.00  0.00     0.050 A 
HETATM   13  S1  UNL     1     -24.521 -27.474 -18.053  1.00  0.00    -0.097 SA
ENDBRANCH   6   9
ENDBRANCH   3   5
BRANCH   2  14
HETATM   14  C7  UNL     1     -18.188 -23.478 -17.199  1.00  0.00     0.049 A 
HETATM   15  C8  UNL     1     -17.634 -24.042 -16.080  1.00  0.00     0.020 A 
HETATM   16  C9  UNL     1     -16.322 -23.729 -15.738  1.00  0.00     0.018 A 
HETATM   17  C10 UNL     1     -15.586 -22.863 -16.510  1.00  0.00     0.087 A 
HETATM   18  N3  UNL     1     -16.146 -22.317 -17.607  1.00  0.00    -0.374 N 
HETATM   19  C11 UNL     1     -17.399 -22.620 -17.930  1.00  0.00     0.104 A 
ATOM     20  H3  UNL     1     -15.610 -21.673 -18.188  1.00  0.00     0.164 HD
ENDBRANCH   2  14
TORSDOF 3
ENDMDL
MODEL 2
REMARK VINA RESULT: -6.782925421      1.064      1.264
REMARK  3 active torsions:
REMARK  status: ('A' for Active; 'I' for Inactive)
REMARK       I    between atoms: C1_2  and  N1_3 
REMARK    1  A    between atoms: C1_2  and  C7_14 
REMARK    2  A    between atoms: N1_3  and  N2_5 
REMARK       I    between atoms: N2_5  and  C2_7 
REMARK    3  A    between atoms: C2_7  and  C3_9 
ROOT
HETATM    1  O1  UNL     1     -19.485 -25.314 -18.938  1.00  0.00    -0.266 OA
HETATM    2  C1  UNL     1     -19.522 -24.411 -18.056  1.00  0.00     0.271 C 
HETATM    3  N1  UNL     1     -20.772 -23.972 -17.522  1.00  0.00    -0.263 N 
ATOM      4  H1  UNL     1     -20.811 -23.241 -16.811  1.00  0.00     0.190 HD
ENDROOT
BRANCH   3   5
HETATM    5  N2  UNL     1     -21.952 -24.576 -18.004  1.00  0.00    -0.263 N 
HETATM    6  C2  UNL     1     -22.526 -25.705 -17.370  1.00  0.00     0.277 C 
HETATM    7  O2  UNL     1     -22.000 -26.208 -16.352  1.00  0.00    -0.265 OA
ATOM      8  H2  UNL     1     -22.405 -24.188 -18.832  1.00  0.00     0.190 HD
BRANCH   6   9
HETATM    9  C3  UNL     1     -23.755 -26.279 -17.932  1.00  0.00     0.074 A 
HETATM   10  C4  UNL     1     -24.289 -27.525 -17.751  1.00  0.00     0.025 A 
HETATM   11  C5  UNL     1     -25.434 -27.805 -18.381  1.00  0.00     0.009 A 
HETATM   12  C6  UNL     1     -25.981 -26.818 -19.159  1.00  0.00     0.050 A 
HETATM   13  S1  UNL     1     -24.874 -25.534 -18.981  1.00  0.00    -0.097 SA
ENDBRANCH   6   9
ENDBRANCH   3   5
BRANCH   2  14
HETATM   14  C7  UNL     1     -18.270 -23.835 -17.599  1.00  0.00     0.049 A 
HETATM   15  C8  UNL     1     -17.688 -24.194 -16.412  1.00  0.00     0.020 A 
HETATM   16  C9  UNL     1     -16.488 -23.599 -16.035  1.00  0.00     0.018 A 
HETATM   17  C10 UNL     1     -15.889 -22.661 -16.841  1.00  0.00     0.087 A 
HETATM   18  N3  UNL     1     -16.476 -22.319 -18.005  1.00  0.00    -0.374 N 
HETATM   19  C11 UNL     1     -17.621 -22.890 -18.361  1.00  0.00     0.104 A 
ATOM     20  H3  UNL     1     -16.041 -21.623 -18.611  1.00  0.00     0.164 HD
ENDBRANCH   2  14
TORSDOF 3
ENDMDL
MODEL 3
REMARK VINA RESULT: -6.739715052      1.154      1.190
REMARK  3 active torsions:
REMARK  status: ('A' for Active; 'I' for Inactive)
REMARK       I    between atoms: C1_2  and  N1_3 
REMARK    1  A    between atoms: C1_2  and  C7_14 
REMARK    2  A    between atoms: N1_3  and  N2_5 
REMARK       I    between atoms: N2_5  and  C2_7 
REMARK    3  A    between atoms: C2_7  and  C3_9 
ROOT
HETATM    1  O1  UNL     1     -19.510 -25.312 -18.803  1.00  0.00    -0.266 OA
HETATM    2  C1  UNL     1     -19.497 -24.537 -17.806  1.00  0.00     0.271 C 
HETATM    3  N1  UNL     1     -20.691 -24.299 -17.058  1.00  0.00    -0.263 N 
ATOM      4  H1  UNL     1     -20.689 -23.672 -16.254  1.00  0.00     0.190 HD
ENDROOT
BRANCH   3   5
HETATM    5  N2  UNL     1     -21.872 -24.956 -17.461  1.00  0.00    -0.263 N 
HETATM    6  C2  UNL     1     -22.301 -26.162 -16.855  1.00  0.00     0.277 C 
HETATM    7  O2  UNL     1     -21.639 -26.689 -15.932  1.00  0.00    -0.265 OA
ATOM      8  H2  UNL     1     -22.433 -24.550 -18.210  1.00  0.00     0.190 HD
BRANCH   6   9
HETATM    9  C3  UNL     1     -23.541 -26.787 -17.330  1.00  0.00     0.074 A 
HETATM   10  C4  UNL     1     -23.985 -26.964 -18.611  1.00  0.00     0.025 A 
HETATM   11  C5  UNL     1     -25.163 -27.573 -18.779  1.00  0.00     0.009 A 
HETATM   12  C6  UNL     1     -25.832 -27.970 -17.651  1.00  0.00     0.050 A 
HETATM   13  S1  UNL     1     -24.789 -27.479 -16.396  1.00  0.00    -0.097 SA
ENDBRANCH   6   9
ENDBRANCH   3   5
BRANCH   2  14
HETATM   14  C7  UNL     1     -18.246 -23.897 -17.442  1.00  0.00     0.049 A 
HETATM   15  C8  UNL     1     -17.590 -24.183 -16.273  1.00  0.00     0.020 A 
HETATM   16  C9  UNL     1     -16.395 -23.529 -15.985  1.00  0.00     0.018 A 
HETATM   17  C10 UNL     1     -15.875 -22.607 -16.860  1.00  0.00     0.087 A 
HETATM   18  N3  UNL     1     -16.533 -22.337 -18.005  1.00  0.00    -0.374 N 
HETATM   19  C11 UNL     1     -17.673 -22.963 -18.275  1.00  0.00     0.104 A 
ATOM     20  H3  UNL     1     -16.157 -21.653 -18.662  1.00  0.00     0.164 HD
ENDBRANCH   2  14
TORSDOF 3
ENDMDL
MODEL 4
REMARK VINA RESULT: -6.734623885      2.404      3.120
REMARK  3 active torsions:
REMARK  status: ('A' for Active; 'I' for Inactive)
REMARK       I    between atoms: C1_2  and  N1_3 
REMARK    1  A    between atoms: C1_2  and  C7_14 
REMARK    2  A    between atoms: N1_3  and  N2_5 
REMARK       I    between atoms: N2_5  and  C2_7 
REMARK    3  A    between atoms: C2_7  and  C3_9 
ROOT
HETATM    1  O1  UNL     1     -21.623 -24.731 -16.169  1.00  0.00    -0.266 OA
HETATM    2  C1  UNL     1     -20.953 -25.084 -17.179  1.00  0.00     0.271 C 
HETATM    3  N1  UNL     1     -21.369 -26.198 -17.970  1.00  0.00    -0.263 N 
ATOM      4  H1  UNL     1     -20.831 -26.492 -18.786  1.00  0.00     0.190 HD
ENDROOT
BRANCH   3   5
HETATM    5  N2  UNL     1     -22.543 -26.882 -17.594  1.00  0.00    -0.263 N 
HETATM    6  C2  UNL     1     -22.683 -28.281 -17.770  1.00  0.00     0.277 C 
HETATM    7  O2  UNL     1     -21.759 -28.962 -18.270  1.00  0.00    -0.265 OA
ATOM      8  H2  UNL     1     -23.314 -26.355 -17.183  1.00  0.00     0.190 HD
BRANCH   6   9
HETATM    9  C3  UNL     1     -23.937 -28.921 -17.355  1.00  0.00     0.074 A 
HETATM   10  C4  UNL     1     -24.261 -30.249 -17.325  1.00  0.00     0.025 A 
HETATM   11  C5  UNL     1     -25.484 -30.578 -16.898  1.00  0.00     0.009 A 
HETATM   12  C6  UNL     1     -26.316 -29.555 -16.525  1.00  0.00     0.050 A 
HETATM   13  S1  UNL     1     -25.357 -28.170 -16.785  1.00  0.00    -0.097 SA
ENDBRANCH   6   9
ENDBRANCH   3   5
BRANCH   2  14
HETATM   14  C7  UNL     1     -19.756 -24.334 -17.515  1.00  0.00     0.049 A 
HETATM   15  C8  UNL     1     -19.744 -23.371 -18.490  1.00  0.00     0.020 A 
HETATM   16  C9  UNL     1     -18.560 -22.692 -18.763  1.00  0.00     0.018 A 
HETATM   17  C10 UNL     1     -17.413 -22.980 -18.064  1.00  0.00     0.087 A 
HETATM   18  N3  UNL     1     -17.442 -23.930 -17.108  1.00  0.00    -0.374 N 
HETATM   19  C11 UNL     1     -18.574 -24.575 -16.852  1.00  0.00     0.104 A 
ATOM     20  H3  UNL     1     -16.596 -24.153 -16.583  1.00  0.00     0.164 HD
ENDBRANCH   2  14
TORSDOF 3
ENDMDL
MODEL 5
REMARK VINA RESULT: -6.684274656      1.385      1.770
REMARK  3 active torsions:
REMARK  status: ('A' for Active; 'I' for Inactive)
REMARK       I    between atoms: C1_2  and  N1_3 
REMARK    1  A    between atoms: C1_2  and  C7_14 
REMARK    2  A    between atoms: N1_3  and  N2_5 
REMARK       I    between atoms: N2_5  and  C2_7 
REMARK    3  A    between atoms: C2_7  and  C3_9 
ROOT
HETATM    1  O1  UNL     1     -20.654 -24.007 -15.687  1.00  0.00    -0.266 OA
HETATM    2  C1  UNL     1     -20.107 -24.075 -16.823  1.00  0.00     0.271 C 
HETATM    3  N1  UNL     1     -20.819 -24.616 -17.938  1.00  0.00    -0.263 N 
ATOM      4  H1  UNL     1     -20.383 -24.677 -18.858  1.00  0.00     0.190 HD
ENDROOT
BRANCH   3   5
HETATM    5  N2  UNL     1     -22.140 -25.064 -17.732  1.00  0.00    -0.263 N 
HETATM    6  C2  UNL     1     -22.486 -26.435 -17.819  1.00  0.00     0.277 C 
HETATM    7  O2  UNL     1     -21.622 -27.301 -18.083  1.00  0.00    -0.265 OA
ATOM      8  H2  UNL     1     -22.866 -24.382 -17.514  1.00  0.00     0.190 HD
BRANCH   6   9
HETATM    9  C3  UNL     1     -23.883 -26.824 -17.593  1.00  0.00     0.074 A 
HETATM   10  C4  UNL     1     -24.973 -26.645 -18.400  1.00  0.00     0.025 A 
HETATM   11  C5  UNL     1     -26.150 -27.098 -17.960  1.00  0.00     0.009 A 
HETATM   12  C6  UNL     1     -26.170 -27.707 -16.732  1.00  0.00     0.050 A 
HETATM   13  S1  UNL     1     -24.541 -27.623 -16.238  1.00  0.00    -0.097 SA
ENDBRANCH   6   9
ENDBRANCH   3   5
BRANCH   2  14
HETATM   14  C7  UNL     1     -18.746 -23.591 -16.969  1.00  0.00     0.049 A 
HETATM   15  C8  UNL     1     -18.213 -23.255 -18.186  1.00  0.00     0.020 A 
HETATM   16  C9  UNL     1     -16.900 -22.801 -18.252  1.00  0.00     0.018 A 
HETATM   17  C10 UNL     1     -16.141 -22.689 -17.113  1.00  0.00     0.087 A 
HETATM   18  N3  UNL     1     -16.679 -23.024 -15.924  1.00  0.00    -0.374 N 
HETATM   19  C11 UNL     1     -17.934 -23.457 -15.865  1.00  0.00     0.104 A 
ATOM     20  H3  UNL     1     -16.125 -22.946 -15.071  1.00  0.00     0.164 HD
ENDBRANCH   2  14
TORSDOF 3
ENDMDL
