MODEL 1
REMARK VINA RESULT: -6.055659553      0.000      0.000
REMARK  5 active torsions:
REMARK  status: ('A' for Active; 'I' for Inactive)
REMARK    1  A    between atoms: O1_2  and  C2_3 
REMARK       I    between atoms: C2_3  and  N1_5 
REMARK    2  A    between atoms: N1_5  and  C3_7 
REMARK    3  A    between atoms: C3_7  and  N2_9 
REMARK    4  A    between atoms: N2_9  and  C4_11 
REMARK    5  A    between atoms: C9_16  and  N3_17 
ROOT
HETATM    1  N2  UNL     1     -22.306 -27.399 -14.658  1.00  0.00    -0.331 N 
ATOM      2  H2  UNL     1     -22.307 -28.321 -15.095  1.00  0.00     0.168 HD
ENDROOT
BRANCH   1   3
HETATM    3  C3  UNL     1     -22.659 -27.412 -13.302  1.00  0.00     0.180 C 
HETATM    4  S1  UNL     1     -22.279 -28.587 -12.250  1.00  0.00    -0.040 SA
BRANCH   3   5
HETATM    5  N1  UNL     1     -23.440 -26.315 -12.772  1.00  0.00    -0.279 N 
HETATM    6  C2  UNL     1     -24.832 -26.316 -12.885  1.00  0.00     0.366 C 
HETATM    7  O2  UNL     1     -25.501 -27.216 -13.425  1.00  0.00    -0.238 OA
ATOM      8  H1  UNL     1     -22.970 -25.534 -12.312  1.00  0.00     0.173 HD
BRANCH   6   9
HETATM    9  O1  UNL     1     -25.556 -25.228 -12.355  1.00  0.00    -0.309 OA
HETATM   10  C1  UNL     1     -26.902 -24.990 -12.747  1.00  0.00     0.215 C 
ENDBRANCH   6   9
ENDBRANCH   3   5
ENDBRANCH   1   3
BRANCH   1  11
HETATM   11  C4  UNL     1     -21.954 -26.364 -15.522  1.00  0.00     0.061 A 
HETATM   12  C5  UNL     1     -21.080 -25.335 -15.240  1.00  0.00     0.032 A 
HETATM   13  C6  UNL     1     -20.785 -24.289 -16.105  1.00  0.00     0.002 A 
HETATM   14  C7  UNL     1     -21.402 -24.271 -17.327  1.00  0.00     0.002 A 
HETATM   15  C8  UNL     1     -22.284 -25.277 -17.656  1.00  0.00     0.031 A 
HETATM   16  C9  UNL     1     -22.566 -26.307 -16.789  1.00  0.00     0.056 A 
BRANCH  16  17
HETATM   17  N3  UNL     1     -23.451 -27.345 -17.180  1.00  0.00    -0.388 N 
HETATM   18  C10 UNL     1     -22.893 -28.488 -17.913  1.00  0.00     0.149 C 
HETATM   19  C11 UNL     1     -24.867 -27.279 -16.865  1.00  0.00     0.149 C 
ENDBRANCH  16  17
ENDBRANCH   1  11
TORSDOF 5
ENDMDL
MODEL 2
REMARK VINA RESULT: -5.907468842      3.735      5.277
REMARK  5 active torsions:
REMARK  status: ('A' for Active; 'I' for Inactive)
REMARK    1  A    between atoms: O1_2  and  C2_3 
REMARK       I    between atoms: C2_3  and  N1_5 
REMARK    2  A    between atoms: N1_5  and  C3_7 
REMARK    3  A    between atoms: C3_7  and  N2_9 
REMARK    4  A    between atoms: N2_9  and  C4_11 
REMARK    5  A    between atoms: C9_16  and  N3_17 
ROOT
HETATM    1  N2  UNL     1     -23.419 -26.778 -18.014  1.00  0.00    -0.331 N 
ATOM      2  H2  UNL     1     -22.959 -27.568 -18.468  1.00  0.00     0.168 HD
ENDROOT
BRANCH   1   3
HETATM    3  C3  UNL     1     -24.814 -26.782 -18.142  1.00  0.00     0.180 C 
HETATM    4  S1  UNL     1     -25.822 -27.759 -17.329  1.00  0.00    -0.040 SA
BRANCH   3   5
HETATM    5  N1  UNL     1     -25.433 -25.868 -19.077  1.00  0.00    -0.279 N 
HETATM    6  C2  UNL     1     -25.390 -26.121 -20.450  1.00  0.00     0.366 C 
HETATM    7  O2  UNL     1     -24.842 -27.108 -20.974  1.00  0.00    -0.238 OA
ATOM      8  H1  UNL     1     -25.905 -25.032 -18.731  1.00  0.00     0.173 HD
BRANCH   6   9
HETATM    9  O1  UNL     1     -26.006 -25.205 -21.328  1.00  0.00    -0.309 OA
HETATM   10  C1  UNL     1     -25.684 -25.197 -22.713  1.00  0.00     0.215 C 
ENDBRANCH   6   9
ENDBRANCH   3   5
ENDBRANCH   1   3
BRANCH   1  11
HETATM   11  C4  UNL     1     -22.540 -25.899 -17.383  1.00  0.00     0.061 A 
HETATM   12  C5  UNL     1     -22.115 -24.684 -17.877  1.00  0.00     0.032 A 
HETATM   13  C6  UNL     1     -21.200 -23.851 -17.248  1.00  0.00     0.002 A 
HETATM   14  C7  UNL     1     -20.679 -24.257 -16.049  1.00  0.00     0.002 A 
HETATM   15  C8  UNL     1     -21.073 -25.463 -15.512  1.00  0.00     0.031 A 
HETATM   16  C9  UNL     1     -21.980 -26.279 -16.148  1.00  0.00     0.056 A 
BRANCH  16  17
HETATM   17  N3  UNL     1     -22.388 -27.496 -15.544  1.00  0.00    -0.388 N 
HETATM   18  C10 UNL     1     -23.423 -27.438 -14.504  1.00  0.00     0.149 C 
HETATM   19  C11 UNL     1     -21.801 -28.763 -15.943  1.00  0.00     0.149 C 
ENDBRANCH  16  17
ENDBRANCH   1  11
TORSDOF 5
ENDMDL
MODEL 3
REMARK VINA RESULT: -5.778167342      2.969      4.748
REMARK  5 active torsions:
REMARK  status: ('A' for Active; 'I' for Inactive)
REMARK    1  A    between atoms: O1_2  and  C2_3 
REMARK       I    between atoms: C2_3  and  N1_5 
REMARK    2  A    between atoms: N1_5  and  C3_7 
REMARK    3  A    between atoms: C3_7  and  N2_9 
REMARK    4  A    between atoms: N2_9  and  C4_11 
REMARK    5  A    between atoms: C9_16  and  N3_17 
ROOT
HETATM    1  N2  UNL     1     -23.148 -26.906 -16.866  1.00  0.00    -0.331 N 
ATOM      2  H2  UNL     1     -23.971 -26.791 -16.275  1.00  0.00     0.168 HD
ENDROOT
BRANCH   1   3
HETATM    3  C3  UNL     1     -23.168 -28.065 -17.652  1.00  0.00     0.180 C 
HETATM    4  S1  UNL     1     -22.795 -29.554 -17.128  1.00  0.00    -0.040 SA
BRANCH   3   5
HETATM    5  N1  UNL     1     -23.529 -27.957 -19.049  1.00  0.00    -0.279 N 
HETATM    6  C2  UNL     1     -24.665 -27.241 -19.435  1.00  0.00     0.366 C 
HETATM    7  O2  UNL     1     -25.436 -26.656 -18.653  1.00  0.00    -0.238 OA
ATOM      8  H1  UNL     1     -22.950 -28.407 -19.758  1.00  0.00     0.173 HD
BRANCH   6   9
HETATM    9  O1  UNL     1     -24.981 -27.159 -20.807  1.00  0.00    -0.309 OA
HETATM   10  C1  UNL     1     -25.735 -26.066 -21.315  1.00  0.00     0.215 C 
ENDBRANCH   6   9
ENDBRANCH   3   5
ENDBRANCH   1   3
BRANCH   1  11
HETATM   11  C4  UNL     1     -22.213 -25.879 -16.739  1.00  0.00     0.061 A 
HETATM   12  C5  UNL     1     -21.948 -24.904 -17.677  1.00  0.00     0.032 A 
HETATM   13  C6  UNL     1     -20.976 -23.922 -17.544  1.00  0.00     0.002 A 
HETATM   14  C7  UNL     1     -20.222 -23.914 -16.401  1.00  0.00     0.002 A 
HETATM   15  C8  UNL     1     -20.448 -24.868 -15.434  1.00  0.00     0.031 A 
HETATM   16  C9  UNL     1     -21.415 -25.836 -15.580  1.00  0.00     0.056 A 
BRANCH  16  17
HETATM   17  N3  UNL     1     -21.642 -26.777 -14.544  1.00  0.00    -0.388 N 
HETATM   18  C10 UNL     1     -20.749 -27.940 -14.458  1.00  0.00     0.149 C 
HETATM   19  C11 UNL     1     -22.727 -26.598 -13.594  1.00  0.00     0.149 C 
ENDBRANCH  16  17
ENDBRANCH   1  11
TORSDOF 5
ENDMDL
MODEL 4
REMARK VINA RESULT: -5.767332226      1.691      2.245
REMARK  5 active torsions:
REMARK  status: ('A' for Active; 'I' for Inactive)
REMARK    1  A    between atoms: O1_2  and  C2_3 
REMARK       I    between atoms: C2_3  and  N1_5 
REMARK    2  A    between atoms: N1_5  and  C3_7 
REMARK    3  A    between atoms: C3_7  and  N2_9 
REMARK    4  A    between atoms: N2_9  and  C4_11 
REMARK    5  A    between atoms: C9_16  and  N3_17 
ROOT
HETATM    1  N2  UNL     1     -23.674 -28.538 -14.347  1.00  0.00    -0.331 N 
ATOM      2  H2  UNL     1     -24.397 -29.257 -14.321  1.00  0.00     0.168 HD
ENDROOT
BRANCH   1   3
HETATM    3  C3  UNL     1     -23.333 -28.029 -13.087  1.00  0.00     0.180 C 
HETATM    4  S1  UNL     1     -22.403 -28.786 -11.995  1.00  0.00    -0.040 SA
BRANCH   3   5
HETATM    5  N1  UNL     1     -23.851 -26.737 -12.692  1.00  0.00    -0.279 N 
HETATM    6  C2  UNL     1     -25.204 -26.433 -12.860  1.00  0.00     0.366 C 
HETATM    7  O2  UNL     1     -26.052 -27.208 -13.341  1.00  0.00    -0.238 OA
ATOM      8  H1  UNL     1     -23.223 -26.042 -12.287  1.00  0.00     0.173 HD
BRANCH   6   9
HETATM    9  O1  UNL     1     -25.669 -25.163 -12.461  1.00  0.00    -0.309 OA
HETATM   10  C1  UNL     1     -26.985 -24.735 -12.788  1.00  0.00     0.215 C 
ENDBRANCH   6   9
ENDBRANCH   3   5
ENDBRANCH   1   3
BRANCH   1  11
HETATM   11  C4  UNL     1     -23.210 -28.248 -15.629  1.00  0.00     0.061 A 
HETATM   12  C5  UNL     1     -22.118 -27.465 -15.938  1.00  0.00     0.032 A 
HETATM   13  C6  UNL     1     -21.707 -27.153 -17.227  1.00  0.00     0.002 A 
HETATM   14  C7  UNL     1     -22.434 -27.656 -18.273  1.00  0.00     0.002 A 
HETATM   15  C8  UNL     1     -23.534 -28.444 -18.016  1.00  0.00     0.031 A 
HETATM   16  C9  UNL     1     -23.929 -28.745 -16.733  1.00  0.00     0.056 A 
BRANCH  16  17
HETATM   17  N3  UNL     1     -25.045 -29.591 -16.512  1.00  0.00    -0.388 N 
HETATM   18  C10 UNL     1     -24.814 -31.041 -16.458  1.00  0.00     0.149 C 
HETATM   19  C11 UNL     1     -26.379 -29.042 -16.342  1.00  0.00     0.149 C 
ENDBRANCH  16  17
ENDBRANCH   1  11
TORSDOF 5
ENDMDL
MODEL 5
REMARK VINA RESULT: -5.749444954      4.652      6.346
REMARK  5 active torsions:
REMARK  status: ('A' for Active; 'I' for Inactive)
REMARK    1  A    between atoms: O1_2  and  C2_3 
REMARK       I    between atoms: C2_3  and  N1_5 
REMARK    2  A    between atoms: N1_5  and  C3_7 
REMARK    3  A    between atoms: C3_7  and  N2_9 
REMARK    4  A    between atoms: N2_9  and  C4_11 
REMARK    5  A    between atoms: C9_16  and  N3_17 
ROOT
HETATM    1  N2  UNL     1     -19.015 -25.409 -14.975  1.00  0.00    -0.331 N 
ATOM      2  H2  UNL     1     -19.340 -24.508 -14.623  1.00  0.00     0.168 HD
ENDROOT
BRANCH   1   3
HETATM    3  C3  UNL     1     -17.621 -25.524 -15.042  1.00  0.00     0.180 C 
HETATM    4  S1  UNL     1     -16.712 -26.447 -14.065  1.00  0.00    -0.040 SA
BRANCH   3   5
HETATM    5  N1  UNL     1     -16.903 -24.758 -16.039  1.00  0.00    -0.279 N 
HETATM    6  C2  UNL     1     -17.126 -23.386 -16.176  1.00  0.00     0.366 C 
HETATM    7  O2  UNL     1     -17.924 -22.724 -15.487  1.00  0.00    -0.238 OA
ATOM      8  H1  UNL     1     -16.228 -25.224 -16.646  1.00  0.00     0.173 HD
BRANCH   6   9
HETATM    9  O1  UNL     1     -16.406 -22.677 -17.159  1.00  0.00    -0.309 OA
HETATM   10  C1  UNL     1     -16.742 -22.797 -18.535  1.00  0.00     0.215 C 
ENDBRANCH   6   9
ENDBRANCH   3   5
ENDBRANCH   1   3
BRANCH   1  11
HETATM   11  C4  UNL     1     -20.043 -26.294 -15.297  1.00  0.00     0.061 A 
HETATM   12  C5  UNL     1     -20.408 -27.410 -14.574  1.00  0.00     0.032 A 
HETATM   13  C6  UNL     1     -21.405 -28.301 -14.945  1.00  0.00     0.002 A 
HETATM   14  C7  UNL     1     -22.078 -28.063 -16.114  1.00  0.00     0.002 A 
HETATM   15  C8  UNL     1     -21.750 -26.961 -16.872  1.00  0.00     0.031 A 
HETATM   16  C9  UNL     1     -20.760 -26.086 -16.491  1.00  0.00     0.056 A 
BRANCH  16  17
HETATM   17  N3  UNL     1     -20.477 -24.942 -17.281  1.00  0.00    -0.388 N 
HETATM   18  C10 UNL     1     -21.076 -23.662 -16.882  1.00  0.00     0.149 C 
HETATM   19  C11 UNL     1     -19.621 -25.033 -18.451  1.00  0.00     0.149 C 
ENDBRANCH  16  17
ENDBRANCH   1  11
TORSDOF 5
ENDMDL
