MODEL 1
REMARK VINA RESULT: -6.464377271      0.000      0.000
REMARK  5 active torsions:
REMARK  status: ('A' for Active; 'I' for Inactive)
REMARK    1  A    between atoms: O1_1  and  C1_3 
REMARK    2  A    between atoms: C1_3  and  N1_4 
REMARK    3  A    between atoms: C1_3  and  C7_14 
REMARK    4  A    between atoms: N1_4  and  N2_5 
REMARK       I    between atoms: N2_5  and  C2_7 
REMARK    5  A    between atoms: C2_7  and  C3_9 
ROOT
HETATM    1  N1  UNL     1     -20.555 -25.067 -18.100  1.00  0.00    -0.296 NA
ENDROOT
BRANCH   1   2
HETATM    2  C1  UNL     1     -19.336 -24.781 -18.597  1.00  0.00     0.250 C 
BRANCH   2   3
HETATM    3  O1  UNL     1     -18.874 -25.362 -19.691  1.00  0.00    -0.333 OA
ATOM      4  H1  UNL     1     -19.030 -26.281 -19.875  1.00  0.00     0.220 HD
ENDBRANCH   2   3
BRANCH   2   5
HETATM    5  C7  UNL     1     -18.362 -23.845 -18.037  1.00  0.00     0.055 A 
HETATM    6  C8  UNL     1     -17.288 -23.185 -18.547  1.00  0.00     0.043 A 
HETATM    7  C9  UNL     1     -16.678 -22.418 -17.576  1.00  0.00     0.142 A 
HETATM    8  O3  UNL     1     -17.397 -22.618 -16.493  1.00  0.00    -0.334 OA
HETATM    9  C10 UNL     1     -18.378 -23.425 -16.690  1.00  0.00     0.158 A 
ENDBRANCH   2   5
ENDBRANCH   1   2
BRANCH   1  10
HETATM   10  N2  UNL     1     -21.778 -25.354 -17.604  1.00  0.00    -0.196 N 
HETATM   11  C2  UNL     1     -22.308 -26.699 -17.762  1.00  0.00     0.287 C 
HETATM   12  O2  UNL     1     -21.637 -27.591 -18.280  1.00  0.00    -0.264 OA
ATOM     13  H2  UNL     1     -22.322 -24.637 -17.124  1.00  0.00     0.205 HD
BRANCH  11  14
HETATM   14  C3  UNL     1     -23.686 -26.890 -17.276  1.00  0.00     0.075 A 
HETATM   15  C4  UNL     1     -24.875 -26.715 -17.921  1.00  0.00     0.025 A 
HETATM   16  C5  UNL     1     -25.997 -27.030 -17.259  1.00  0.00     0.009 A 
HETATM   17  C6  UNL     1     -25.892 -27.498 -15.994  1.00  0.00     0.050 A 
HETATM   18  S1  UNL     1     -24.217 -27.494 -15.745  1.00  0.00    -0.097 SA
ENDBRANCH  11  14
ENDBRANCH   1  10
TORSDOF 5
ENDMDL
MODEL 2
REMARK VINA RESULT: -6.220393038      4.430      7.032
REMARK  5 active torsions:
REMARK  status: ('A' for Active; 'I' for Inactive)
REMARK    1  A    between atoms: O1_1  and  C1_3 
REMARK    2  A    between atoms: C1_3  and  N1_4 
REMARK    3  A    between atoms: C1_3  and  C7_14 
REMARK    4  A    between atoms: N1_4  and  N2_5 
REMARK       I    between atoms: N2_5  and  C2_7 
REMARK    5  A    between atoms: C2_7  and  C3_9 
ROOT
HETATM    1  N1  UNL     1     -21.867 -25.775 -14.712  1.00  0.00    -0.296 NA
ENDROOT
BRANCH   1   2
HETATM    2  C1  UNL     1     -22.442 -26.397 -13.664  1.00  0.00     0.250 C 
BRANCH   2   3
HETATM    3  O1  UNL     1     -23.610 -26.013 -13.178  1.00  0.00    -0.333 OA
ATOM      4  H1  UNL     1     -23.679 -25.531 -12.362  1.00  0.00     0.220 HD
ENDBRANCH   2   3
BRANCH   2   5
HETATM    5  C7  UNL     1     -21.897 -27.530 -12.915  1.00  0.00     0.055 A 
HETATM    6  C8  UNL     1     -20.703 -28.180 -12.927  1.00  0.00     0.043 A 
HETATM    7  C9  UNL     1     -20.702 -29.217 -12.018  1.00  0.00     0.142 A 
HETATM    8  O3  UNL     1     -21.893 -29.176 -11.463  1.00  0.00    -0.334 OA
HETATM    9  C10 UNL     1     -22.627 -28.230 -11.932  1.00  0.00     0.158 A 
ENDBRANCH   2   5
ENDBRANCH   1   2
BRANCH   1  10
HETATM   10  N2  UNL     1     -21.290 -25.151 -15.762  1.00  0.00    -0.196 N 
HETATM   11  C2  UNL     1     -19.839 -25.133 -15.864  1.00  0.00     0.287 C 
HETATM   12  O2  UNL     1     -19.136 -25.730 -15.049  1.00  0.00    -0.264 OA
ATOM     13  H2  UNL     1     -21.864 -24.699 -16.473  1.00  0.00     0.205 HD
BRANCH  11  14
HETATM   14  C3  UNL     1     -19.300 -24.346 -16.988  1.00  0.00     0.075 A 
HETATM   15  C4  UNL     1     -19.910 -23.924 -18.133  1.00  0.00     0.025 A 
HETATM   16  C5  UNL     1     -19.200 -23.152 -18.969  1.00  0.00     0.009 A 
HETATM   17  C6  UNL     1     -17.927 -22.838 -18.637  1.00  0.00     0.050 A 
HETATM   18  S1  UNL     1     -17.736 -23.628 -17.151  1.00  0.00    -0.097 SA
ENDBRANCH  11  14
ENDBRANCH   1  10
TORSDOF 5
ENDMDL
MODEL 3
REMARK VINA RESULT: -6.207701696      2.705      7.092
REMARK  5 active torsions:
REMARK  status: ('A' for Active; 'I' for Inactive)
REMARK    1  A    between atoms: O1_1  and  C1_3 
REMARK    2  A    between atoms: C1_3  and  N1_4 
REMARK    3  A    between atoms: C1_3  and  C7_14 
REMARK    4  A    between atoms: N1_4  and  N2_5 
REMARK       I    between atoms: N2_5  and  C2_7 
REMARK    5  A    between atoms: C2_7  and  C3_9 
ROOT
HETATM    1  N1  UNL     1     -21.271 -26.449 -17.767  1.00  0.00    -0.296 NA
ENDROOT
BRANCH   1   2
HETATM    2  C1  UNL     1     -22.163 -27.366 -18.192  1.00  0.00     0.250 C 
BRANCH   2   3
HETATM    3  O1  UNL     1     -21.802 -28.600 -18.502  1.00  0.00    -0.333 OA
ATOM      4  H1  UNL     1     -21.249 -29.119 -17.931  1.00  0.00     0.220 HD
ENDBRANCH   2   3
BRANCH   2   5
HETATM    5  C7  UNL     1     -23.598 -27.163 -18.387  1.00  0.00     0.055 A 
HETATM    6  C8  UNL     1     -24.388 -26.062 -18.487  1.00  0.00     0.043 A 
HETATM    7  C9  UNL     1     -25.710 -26.421 -18.652  1.00  0.00     0.142 A 
HETATM    8  O3  UNL     1     -25.700 -27.735 -18.659  1.00  0.00    -0.334 OA
HETATM    9  C10 UNL     1     -24.520 -28.224 -18.513  1.00  0.00     0.158 A 
ENDBRANCH   2   5
ENDBRANCH   1   2
BRANCH   1  10
HETATM   10  N2  UNL     1     -20.376 -25.531 -17.343  1.00  0.00    -0.196 N 
HETATM   11  C2  UNL     1     -19.384 -25.024 -18.279  1.00  0.00     0.287 C 
HETATM   12  O2  UNL     1     -19.389 -25.369 -19.460  1.00  0.00    -0.264 OA
ATOM     13  H2  UNL     1     -20.396 -25.197 -16.380  1.00  0.00     0.205 HD
BRANCH  11  14
HETATM   14  C3  UNL     1     -18.392 -24.101 -17.699  1.00  0.00     0.075 A 
HETATM   15  C4  UNL     1     -18.087 -23.849 -16.394  1.00  0.00     0.025 A 
HETATM   16  C5  UNL     1     -17.080 -23.002 -16.141  1.00  0.00     0.009 A 
HETATM   17  C6  UNL     1     -16.425 -22.444 -17.185  1.00  0.00     0.050 A 
HETATM   18  S1  UNL     1     -17.229 -23.116 -18.516  1.00  0.00    -0.097 SA
ENDBRANCH  11  14
ENDBRANCH   1  10
TORSDOF 5
ENDMDL
MODEL 4
REMARK VINA RESULT: -6.059320157      2.821      7.133
REMARK  5 active torsions:
REMARK  status: ('A' for Active; 'I' for Inactive)
REMARK    1  A    between atoms: O1_1  and  C1_3 
REMARK    2  A    between atoms: C1_3  and  N1_4 
REMARK    3  A    between atoms: C1_3  and  C7_14 
REMARK    4  A    between atoms: N1_4  and  N2_5 
REMARK       I    between atoms: N2_5  and  C2_7 
REMARK    5  A    between atoms: C2_7  and  C3_9 
ROOT
HETATM    1  N1  UNL     1     -21.801 -25.754 -17.701  1.00  0.00    -0.296 NA
ENDROOT
BRANCH   1   2
HETATM    2  C1  UNL     1     -23.052 -26.236 -17.562  1.00  0.00     0.250 C 
BRANCH   2   3
HETATM    3  O1  UNL     1     -23.427 -26.906 -16.485  1.00  0.00    -0.333 OA
ATOM      4  H1  UNL     1     -23.256 -26.583 -15.609  1.00  0.00     0.220 HD
ENDBRANCH   2   3
BRANCH   2   5
HETATM    5  C7  UNL     1     -24.144 -26.123 -18.529  1.00  0.00     0.055 A 
HETATM    6  C8  UNL     1     -24.815 -25.073 -19.073  1.00  0.00     0.043 A 
HETATM    7  C9  UNL     1     -25.792 -25.514 -19.941  1.00  0.00     0.142 A 
HETATM    8  O3  UNL     1     -25.692 -26.825 -19.917  1.00  0.00    -0.334 OA
HETATM    9  C10 UNL     1     -24.766 -27.238 -19.128  1.00  0.00     0.158 A 
ENDBRANCH   2   5
ENDBRANCH   1   2
BRANCH   1  10
HETATM   10  N2  UNL     1     -20.547 -25.273 -17.840  1.00  0.00    -0.196 N 
HETATM   11  C2  UNL     1     -20.062 -24.277 -16.897  1.00  0.00     0.287 C 
HETATM   12  O2  UNL     1     -20.749 -23.917 -15.942  1.00  0.00    -0.264 OA
ATOM     13  H2  UNL     1     -19.948 -25.603 -18.597  1.00  0.00     0.205 HD
BRANCH  11  14
HETATM   14  C3  UNL     1     -18.720 -23.741 -17.189  1.00  0.00     0.075 A 
HETATM   15  C4  UNL     1     -18.147 -23.414 -18.383  1.00  0.00     0.025 A 
HETATM   16  C5  UNL     1     -16.921 -22.874 -18.360  1.00  0.00     0.009 A 
HETATM   17  C6  UNL     1     -16.319 -22.685 -17.163  1.00  0.00     0.050 A 
HETATM   18  S1  UNL     1     -17.482 -23.267 -16.078  1.00  0.00    -0.097 SA
ENDBRANCH  11  14
ENDBRANCH   1  10
TORSDOF 5
ENDMDL
MODEL 5
REMARK VINA RESULT: -6.055359934      3.036      6.874
REMARK  5 active torsions:
REMARK  status: ('A' for Active; 'I' for Inactive)
REMARK    1  A    between atoms: O1_1  and  C1_3 
REMARK    2  A    between atoms: C1_3  and  N1_4 
REMARK    3  A    between atoms: C1_3  and  C7_14 
REMARK    4  A    between atoms: N1_4  and  N2_5 
REMARK       I    between atoms: N2_5  and  C2_7 
REMARK    5  A    between atoms: C2_7  and  C3_9 
ROOT
HETATM    1  N1  UNL     1     -22.951 -27.132 -18.371  1.00  0.00    -0.296 NA
ENDROOT
BRANCH   1   2
HETATM    2  C1  UNL     1     -24.062 -27.510 -19.034  1.00  0.00     0.250 C 
BRANCH   2   3
HETATM    3  O1  UNL     1     -24.225 -28.745 -19.478  1.00  0.00    -0.333 OA
ATOM      4  H1  UNL     1     -24.224 -29.492 -18.892  1.00  0.00     0.220 HD
ENDBRANCH   2   3
BRANCH   2   5
HETATM    5  C7  UNL     1     -25.207 -26.664 -19.373  1.00  0.00     0.055 A 
HETATM    6  C8  UNL     1     -25.901 -26.434 -20.518  1.00  0.00     0.043 A 
HETATM    7  C9  UNL     1     -26.906 -25.513 -20.305  1.00  0.00     0.142 A 
HETATM    8  O3  UNL     1     -26.812 -25.206 -19.030  1.00  0.00    -0.334 OA
HETATM    9  C10 UNL     1     -25.858 -25.832 -18.437  1.00  0.00     0.158 A 
ENDBRANCH   2   5
ENDBRANCH   1   2
BRANCH   1  10
HETATM   10  N2  UNL     1     -21.838 -26.755 -17.707  1.00  0.00    -0.196 N 
HETATM   11  C2  UNL     1     -21.576 -25.338 -17.510  1.00  0.00     0.287 C 
HETATM   12  O2  UNL     1     -22.381 -24.485 -17.880  1.00  0.00    -0.264 OA
ATOM     13  H2  UNL     1     -21.189 -27.455 -17.348  1.00  0.00     0.205 HD
BRANCH  11  14
HETATM   14  C3  UNL     1     -20.290 -25.023 -16.863  1.00  0.00     0.075 A 
HETATM   15  C4  UNL     1     -19.850 -25.307 -15.603  1.00  0.00     0.025 A 
HETATM   16  C5  UNL     1     -18.594 -24.963 -15.288  1.00  0.00     0.009 A 
HETATM   17  C6  UNL     1     -17.834 -24.354 -16.228  1.00  0.00     0.050 A 
HETATM   18  S1  UNL     1     -18.891 -24.272 -17.549  1.00  0.00    -0.097 SA
ENDBRANCH  11  14
ENDBRANCH   1  10
TORSDOF 5
ENDMDL
