MODEL 1
REMARK VINA RESULT: -6.366178084      0.000      0.000
REMARK  3 active torsions:
REMARK  status: ('A' for Active; 'I' for Inactive)
REMARK    1  A    between atoms: O1_2  and  C2_3 
REMARK    2  A    between atoms: C5_6  and  C6_7 
REMARK       I    between atoms: C6_7  and  N1_9 
REMARK       I    between atoms: N1_9  and  C7_11 
REMARK       I    between atoms: C7_11  and  N2_13 
REMARK    3  A    between atoms: N2_13  and  C8_15 
ROOT
HETATM    1  C6  UNL     1     -20.522 -25.402 -17.477  1.00  0.00     0.283 C 
HETATM    2  O2  UNL     1     -20.957 -26.288 -18.026  1.00  0.00    -0.265 OA
HETATM    3  N1  UNL     1     -21.074 -25.157 -15.836  1.00  0.00    -0.273 N 
ATOM      4  H1  UNL     1     -20.797 -24.479 -15.125  1.00  0.00     0.173 HD
HETATM    5  C7  UNL     1     -21.991 -26.160 -15.816  1.00  0.00     0.323 C 
HETATM    6  O3  UNL     1     -22.392 -26.930 -16.688  1.00  0.00    -0.247 OA
HETATM    7  N2  UNL     1     -22.618 -26.344 -14.466  1.00  0.00    -0.335 N 
ATOM      8  H2  UNL     1     -22.324 -25.753 -13.689  1.00  0.00     0.165 HD
ENDROOT
BRANCH   1   9
HETATM    9  C5  UNL     1     -19.593 -24.374 -17.782  1.00  0.00     0.146 A 
HETATM   10  C4  UNL     1     -19.544 -23.671 -19.001  1.00  0.00     0.048 A 
HETATM   11  C3  UNL     1     -18.522 -22.773 -18.890  1.00  0.00     0.067 A 
HETATM   12  C2  UNL     1     -17.958 -22.924 -17.621  1.00  0.00     0.185 A 
HETATM   13  O4  UNL     1     -18.629 -23.862 -17.056  1.00  0.00    -0.282 OA
BRANCH  12  14
HETATM   14  O1  UNL     1     -16.906 -22.232 -17.064  1.00  0.00    -0.335 OA
HETATM   15  C1  UNL     1     -15.742 -22.838 -16.564  1.00  0.00     0.212 C 
ENDBRANCH  12  14
ENDBRANCH   1   9
BRANCH   7  16
HETATM   16  C8  UNL     1     -23.621 -27.336 -14.257  1.00  0.00     0.023 C 
HETATM   17  C9  UNL     1     -24.296 -27.085 -12.934  1.00  0.00     0.037 C 
HETATM   18  C10 UNL     1     -22.977 -28.709 -14.271  1.00  0.00     0.037 C 
HETATM   19  C11 UNL     1     -24.663 -27.275 -15.364  1.00  0.00     0.037 C 
ENDBRANCH   7  16
TORSDOF 3
ENDMDL
MODEL 2
REMARK VINA RESULT: -6.340674096      2.799      3.514
REMARK  3 active torsions:
REMARK  status: ('A' for Active; 'I' for Inactive)
REMARK    1  A    between atoms: O1_2  and  C2_3 
REMARK    2  A    between atoms: C5_6  and  C6_7 
REMARK       I    between atoms: C6_7  and  N1_9 
REMARK       I    between atoms: N1_9  and  C7_11 
REMARK       I    between atoms: C7_11  and  N2_13 
REMARK    3  A    between atoms: N2_13  and  C8_15 
ROOT
HETATM    1  C6  UNL     1     -21.164 -26.083 -17.289  1.00  0.00     0.283 C 
HETATM    2  O2  UNL     1     -21.339 -27.194 -17.389  1.00  0.00    -0.265 OA
HETATM    3  N1  UNL     1     -22.482 -25.041 -17.773  1.00  0.00    -0.273 N 
ATOM      4  H1  UNL     1     -22.594 -24.028 -17.728  1.00  0.00     0.173 HD
HETATM    5  C7  UNL     1     -23.310 -26.018 -18.230  1.00  0.00     0.323 C 
HETATM    6  O3  UNL     1     -23.158 -27.232 -18.366  1.00  0.00    -0.247 OA
HETATM    7  N2  UNL     1     -24.654 -25.495 -18.639  1.00  0.00    -0.335 N 
ATOM      8  H2  UNL     1     -24.859 -24.501 -18.539  1.00  0.00     0.165 HD
ENDROOT
BRANCH   1   9
HETATM    9  C5  UNL     1     -20.096 -25.258 -16.852  1.00  0.00     0.146 A 
HETATM   10  C4  UNL     1     -19.532 -25.288 -15.562  1.00  0.00     0.048 A 
HETATM   11  C3  UNL     1     -18.537 -24.353 -15.552  1.00  0.00     0.067 A 
HETATM   12  C2  UNL     1     -18.492 -23.764 -16.817  1.00  0.00     0.185 A 
HETATM   13  O4  UNL     1     -19.419 -24.338 -17.497  1.00  0.00    -0.282 OA
BRANCH  12  14
HETATM   14  O1  UNL     1     -17.649 -22.775 -17.271  1.00  0.00    -0.335 OA
HETATM   15  C1  UNL     1     -16.904 -22.858 -18.458  1.00  0.00     0.212 C 
ENDBRANCH  12  14
ENDBRANCH   1   9
BRANCH   7  16
HETATM   16  C8  UNL     1     -25.648 -26.371 -19.164  1.00  0.00     0.023 C 
HETATM   17  C9  UNL     1     -25.910 -27.473 -18.172  1.00  0.00     0.037 C 
HETATM   18  C10 UNL     1     -25.162 -26.948 -20.480  1.00  0.00     0.037 C 
HETATM   19  C11 UNL     1     -26.943 -25.611 -19.414  1.00  0.00     0.037 C 
ENDBRANCH   7  16
TORSDOF 3
ENDMDL
MODEL 3
REMARK VINA RESULT: -6.340078603      0.030      1.032
REMARK  3 active torsions:
REMARK  status: ('A' for Active; 'I' for Inactive)
REMARK    1  A    between atoms: O1_2  and  C2_3 
REMARK    2  A    between atoms: C5_6  and  C6_7 
REMARK       I    between atoms: C6_7  and  N1_9 
REMARK       I    between atoms: N1_9  and  C7_11 
REMARK       I    between atoms: C7_11  and  N2_13 
REMARK    3  A    between atoms: N2_13  and  C8_15 
ROOT
HETATM    1  C6  UNL     1     -20.524 -25.412 -17.491  1.00  0.00     0.283 C 
HETATM    2  O2  UNL     1     -20.951 -26.301 -18.041  1.00  0.00    -0.265 OA
HETATM    3  N1  UNL     1     -21.091 -25.163 -15.856  1.00  0.00    -0.273 N 
ATOM      4  H1  UNL     1     -20.823 -24.482 -15.144  1.00  0.00     0.173 HD
HETATM    5  C7  UNL     1     -22.004 -26.170 -15.839  1.00  0.00     0.323 C 
HETATM    6  O3  UNL     1     -22.394 -26.944 -16.712  1.00  0.00    -0.247 OA
HETATM    7  N2  UNL     1     -22.641 -26.352 -14.495  1.00  0.00    -0.335 N 
ATOM      8  H2  UNL     1     -22.356 -25.757 -13.717  1.00  0.00     0.165 HD
ENDROOT
BRANCH   1   9
HETATM    9  C5  UNL     1     -19.597 -24.381 -17.792  1.00  0.00     0.146 A 
HETATM   10  C4  UNL     1     -19.545 -23.677 -19.010  1.00  0.00     0.048 A 
HETATM   11  C3  UNL     1     -18.525 -22.776 -18.894  1.00  0.00     0.067 A 
HETATM   12  C2  UNL     1     -17.967 -22.926 -17.623  1.00  0.00     0.185 A 
HETATM   13  O4  UNL     1     -18.637 -23.866 -17.061  1.00  0.00    -0.282 OA
BRANCH  12  14
HETATM   14  O1  UNL     1     -16.918 -22.232 -17.061  1.00  0.00    -0.335 OA
HETATM   15  C1  UNL     1     -15.750 -22.833 -16.567  1.00  0.00     0.212 C 
ENDBRANCH  12  14
ENDBRANCH   1   9
BRANCH   7  16
HETATM   16  C8  UNL     1     -23.642 -27.347 -14.291  1.00  0.00     0.023 C 
HETATM   17  C9  UNL     1     -24.668 -27.249 -15.389  1.00  0.00     0.037 C 
HETATM   18  C10 UNL     1     -24.292 -27.133 -12.938  1.00  0.00     0.037 C 
HETATM   19  C11 UNL     1     -23.019 -28.736 -14.318  1.00  0.00     0.037 C 
ENDBRANCH   7  16
TORSDOF 3
ENDMDL
MODEL 4
REMARK VINA RESULT: -6.334548259      0.036      1.037
REMARK  3 active torsions:
REMARK  status: ('A' for Active; 'I' for Inactive)
REMARK    1  A    between atoms: O1_2  and  C2_3 
REMARK    2  A    between atoms: C5_6  and  C6_7 
REMARK       I    between atoms: C6_7  and  N1_9 
REMARK       I    between atoms: N1_9  and  C7_11 
REMARK       I    between atoms: C7_11  and  N2_13 
REMARK    3  A    between atoms: N2_13  and  C8_15 
ROOT
HETATM    1  C6  UNL     1     -20.513 -25.397 -17.484  1.00  0.00     0.283 C 
HETATM    2  O2  UNL     1     -20.940 -26.282 -18.039  1.00  0.00    -0.265 OA
HETATM    3  N1  UNL     1     -21.083 -25.155 -15.849  1.00  0.00    -0.273 N 
ATOM      4  H1  UNL     1     -20.816 -24.478 -15.133  1.00  0.00     0.173 HD
HETATM    5  C7  UNL     1     -21.998 -26.161 -15.839  1.00  0.00     0.323 C 
HETATM    6  O3  UNL     1     -22.388 -26.930 -16.716  1.00  0.00    -0.247 OA
HETATM    7  N2  UNL     1     -22.638 -26.348 -14.497  1.00  0.00    -0.335 N 
ATOM      8  H2  UNL     1     -22.354 -25.757 -13.715  1.00  0.00     0.165 HD
ENDROOT
BRANCH   1   9
HETATM    9  C5  UNL     1     -19.584 -24.366 -17.778  1.00  0.00     0.146 A 
HETATM   10  C4  UNL     1     -19.542 -23.642 -18.985  1.00  0.00     0.048 A 
HETATM   11  C3  UNL     1     -18.516 -22.748 -18.865  1.00  0.00     0.067 A 
HETATM   12  C2  UNL     1     -17.945 -22.921 -17.603  1.00  0.00     0.185 A 
HETATM   13  O4  UNL     1     -18.614 -23.867 -17.049  1.00  0.00    -0.282 OA
BRANCH  12  14
HETATM   14  O1  UNL     1     -16.887 -22.242 -17.041  1.00  0.00    -0.335 OA
HETATM   15  C1  UNL     1     -15.742 -22.861 -16.517  1.00  0.00     0.212 C 
ENDBRANCH  12  14
ENDBRANCH   1   9
BRANCH   7  16
HETATM   16  C8  UNL     1     -23.640 -27.343 -14.300  1.00  0.00     0.023 C 
HETATM   17  C9  UNL     1     -22.991 -28.702 -14.289  1.00  0.00     0.037 C 
HETATM   18  C10 UNL     1     -24.661 -27.253 -15.417  1.00  0.00     0.037 C 
HETATM   19  C11 UNL     1     -24.350 -27.123 -12.971  1.00  0.00     0.037 C 
ENDBRANCH   7  16
TORSDOF 3
ENDMDL
MODEL 5
REMARK VINA RESULT: -6.309458175      1.475      1.532
REMARK  3 active torsions:
REMARK  status: ('A' for Active; 'I' for Inactive)
REMARK    1  A    between atoms: O1_2  and  C2_3 
REMARK    2  A    between atoms: C5_6  and  C6_7 
REMARK       I    between atoms: C6_7  and  N1_9 
REMARK       I    between atoms: N1_9  and  C7_11 
REMARK       I    between atoms: C7_11  and  N2_13 
REMARK    3  A    between atoms: N2_13  and  C8_15 
ROOT
HETATM    1  C6  UNL     1     -20.009 -24.184 -16.759  1.00  0.00     0.283 C 
HETATM    2  O2  UNL     1     -21.096 -23.886 -16.830  1.00  0.00    -0.265 OA
HETATM    3  N1  UNL     1     -19.666 -25.673 -15.909  1.00  0.00    -0.273 N 
ATOM      4  H1  UNL     1     -18.792 -26.179 -15.759  1.00  0.00     0.173 HD
HETATM    5  C7  UNL     1     -20.939 -25.939 -15.513  1.00  0.00     0.323 C 
HETATM    6  O3  UNL     1     -21.985 -25.299 -15.616  1.00  0.00    -0.247 OA
HETATM    7  N2  UNL     1     -21.067 -27.264 -14.824  1.00  0.00    -0.335 N 
ATOM      8  H2  UNL     1     -20.245 -27.857 -14.716  1.00  0.00     0.165 HD
ENDROOT
BRANCH   1   9
HETATM    9  C5  UNL     1     -18.776 -23.639 -17.198  1.00  0.00     0.146 A 
HETATM   10  C4  UNL     1     -18.513 -23.198 -18.509  1.00  0.00     0.048 A 
HETATM   11  C3  UNL     1     -17.225 -22.745 -18.515  1.00  0.00     0.067 A 
HETATM   12  C2  UNL     1     -16.711 -22.905 -17.227  1.00  0.00     0.185 A 
HETATM   13  O4  UNL     1     -17.663 -23.425 -16.539  1.00  0.00    -0.282 OA
BRANCH  12  14
HETATM   14  O1  UNL     1     -15.455 -22.585 -16.760  1.00  0.00    -0.335 OA
HETATM   15  C1  UNL     1     -14.813 -23.254 -15.707  1.00  0.00     0.212 C 
ENDBRANCH  12  14
ENDBRANCH   1   9
BRANCH   7  16
HETATM   16  C8  UNL     1     -22.325 -27.703 -14.317  1.00  0.00     0.023 C 
HETATM   17  C9  UNL     1     -22.824 -26.709 -13.301  1.00  0.00     0.037 C 
HETATM   18  C10 UNL     1     -22.159 -29.071 -13.684  1.00  0.00     0.037 C 
HETATM   19  C11 UNL     1     -23.341 -27.809 -15.446  1.00  0.00     0.037 C 
ENDBRANCH   7  16
TORSDOF 3
ENDMDL
