MODEL 1
REMARK VINA RESULT: -5.849442111      0.000      0.000
REMARK  2 active torsions:
REMARK  status: ('A' for Active; 'I' for Inactive)
REMARK    1  A    between atoms: C2_2  and  O2_4 
REMARK    2  A    between atoms: O2_4  and  C3_5 
ROOT
HETATM    1  C3  UNL     1      -5.322   3.204  17.749  1.00  0.00     0.229 C 
HETATM    2  C4  UNL     1      -5.286   4.004  16.532  1.00  0.00     0.048 C 
HETATM    3  C5  UNL     1      -6.237   3.596  15.720  1.00  0.00     0.054 C 
HETATM    4  C6  UNL     1      -6.984   2.499  16.316  1.00  0.00     0.183 C 
HETATM    5  O3  UNL     1      -8.137   2.139  15.998  1.00  0.00    -0.290 OA
HETATM    6  C7  UNL     1      -6.060   1.950  17.349  1.00  0.00     0.265 C 
HETATM    7  O4  UNL     1      -5.039   1.201  16.766  1.00  0.00    -0.337 OA
HETATM    8  C8  UNL     1      -3.898   1.492  17.492  1.00  0.00     0.162 C 
HETATM    9  C9  UNL     1      -3.724   0.422  18.556  1.00  0.00     0.078 C 
HETATM   10  C10 UNL     1      -2.676   1.603  16.619  1.00  0.00     0.078 C 
HETATM   11  O5  UNL     1      -4.087   2.696  18.129  1.00  0.00    -0.313 OA
ENDROOT
BRANCH   1  12
HETATM   12  O2  UNL     1      -5.986   3.860  18.811  1.00  0.00    -0.276 OA
BRANCH  12  13
HETATM   13  C2  UNL     1      -5.550   3.881  20.105  1.00  0.00     0.257 C 
HETATM   14  C1  UNL     1      -5.867   2.846  21.125  1.00  0.00     0.126 C 
HETATM   15  O1  UNL     1      -4.824   4.849  20.465  1.00  0.00    -0.266 OA
ENDBRANCH  12  13
ENDBRANCH   1  12
TORSDOF 2
ENDMDL
MODEL 2
REMARK VINA RESULT: -5.742234761      3.211      5.065
REMARK  2 active torsions:
REMARK  status: ('A' for Active; 'I' for Inactive)
REMARK    1  A    between atoms: C2_2  and  O2_4 
REMARK    2  A    between atoms: O2_4  and  C3_5 
ROOT
HETATM    1  C3  UNL     1      -6.570   5.462  16.146  1.00  0.00     0.229 C 
HETATM    2  C4  UNL     1      -7.050   4.103  15.933  1.00  0.00     0.048 C 
HETATM    3  C5  UNL     1      -8.365   4.099  15.968  1.00  0.00     0.054 C 
HETATM    4  C6  UNL     1      -8.875   5.442  16.206  1.00  0.00     0.183 C 
HETATM    5  O3  UNL     1     -10.025   5.847  15.938  1.00  0.00    -0.290 OA
HETATM    6  C7  UNL     1      -7.724   6.162  16.821  1.00  0.00     0.265 C 
HETATM    7  O4  UNL     1      -7.541   5.782  18.150  1.00  0.00    -0.337 OA
HETATM    8  C8  UNL     1      -6.172   5.718  18.337  1.00  0.00     0.162 C 
HETATM    9  C9  UNL     1      -5.708   7.040  18.923  1.00  0.00     0.078 C 
HETATM   10  C10 UNL     1      -5.766   4.558  19.209  1.00  0.00     0.078 C 
HETATM   11  O5  UNL     1      -5.574   5.566  17.108  1.00  0.00    -0.313 OA
ENDROOT
BRANCH   1  12
HETATM   12  O2  UNL     1      -6.226   6.112  14.939  1.00  0.00    -0.276 OA
BRANCH  12  13
HETATM   13  C2  UNL     1      -5.420   5.579  13.973  1.00  0.00     0.257 C 
HETATM   14  C1  UNL     1      -3.935   5.526  14.040  1.00  0.00     0.126 C 
HETATM   15  O1  UNL     1      -5.974   5.095  12.946  1.00  0.00    -0.266 OA
ENDBRANCH  12  13
ENDBRANCH   1  12
TORSDOF 2
ENDMDL
MODEL 3
REMARK VINA RESULT: -5.702281789      2.902      4.304
REMARK  2 active torsions:
REMARK  status: ('A' for Active; 'I' for Inactive)
REMARK    1  A    between atoms: C2_2  and  O2_4 
REMARK    2  A    between atoms: O2_4  and  C3_5 
ROOT
HETATM    1  C3  UNL     1      -7.048   5.132  16.260  1.00  0.00     0.229 C 
HETATM    2  C4  UNL     1      -5.636   5.490  16.298  1.00  0.00     0.048 C 
HETATM    3  C5  UNL     1      -5.126   5.360  15.092  1.00  0.00     0.054 C 
HETATM    4  C6  UNL     1      -6.142   4.908  14.152  1.00  0.00     0.183 C 
HETATM    5  O3  UNL     1      -6.100   5.036  12.911  1.00  0.00    -0.290 OA
HETATM    6  C7  UNL     1      -7.185   4.287  15.017  1.00  0.00     0.265 C 
HETATM    7  O4  UNL     1      -6.777   3.038  15.483  1.00  0.00    -0.337 OA
HETATM    8  C8  UNL     1      -7.224   2.961  16.791  1.00  0.00     0.162 C 
HETATM    9  C9  UNL     1      -8.560   2.238  16.796  1.00  0.00     0.078 C 
HETATM   10  C10 UNL     1      -6.229   2.284  17.697  1.00  0.00     0.078 C 
HETATM   11  O5  UNL     1      -7.432   4.240  17.252  1.00  0.00    -0.313 OA
ENDROOT
BRANCH   1  12
HETATM   12  O2  UNL     1      -7.893   6.263  16.194  1.00  0.00    -0.276 OA
BRANCH  12  13
HETATM   13  C2  UNL     1      -9.177   6.300  16.656  1.00  0.00     0.257 C 
HETATM   14  C1  UNL     1      -9.589   6.842  17.979  1.00  0.00     0.126 C 
HETATM   15  O1  UNL     1     -10.085   5.841  15.908  1.00  0.00    -0.266 OA
ENDBRANCH  12  13
ENDBRANCH   1  12
TORSDOF 2
ENDMDL
MODEL 4
REMARK VINA RESULT: -5.699168158      2.730      4.399
REMARK  2 active torsions:
REMARK  status: ('A' for Active; 'I' for Inactive)
REMARK    1  A    between atoms: C2_2  and  O2_4 
REMARK    2  A    between atoms: O2_4  and  C3_5 
ROOT
HETATM    1  C3  UNL     1      -5.667   4.410  15.694  1.00  0.00     0.229 C 
HETATM    2  C4  UNL     1      -5.862   5.022  17.003  1.00  0.00     0.048 C 
HETATM    3  C5  UNL     1      -7.078   5.518  17.069  1.00  0.00     0.054 C 
HETATM    4  C6  UNL     1      -7.796   5.284  15.825  1.00  0.00     0.183 C 
HETATM    5  O3  UNL     1      -9.036   5.288  15.683  1.00  0.00    -0.290 OA
HETATM    6  C7  UNL     1      -6.718   5.053  14.823  1.00  0.00     0.265 C 
HETATM    7  O4  UNL     1      -6.092   6.248  14.469  1.00  0.00    -0.337 OA
HETATM    8  C8  UNL     1      -4.747   5.946  14.344  1.00  0.00     0.162 C 
HETATM    9  C9  UNL     1      -4.456   5.661  12.881  1.00  0.00     0.078 C 
HETATM   10  C10 UNL     1      -3.861   7.040  14.878  1.00  0.00     0.078 C 
HETATM   11  O5  UNL     1      -4.495   4.797  15.058  1.00  0.00    -0.313 OA
ENDROOT
BRANCH   1  12
HETATM   12  O2  UNL     1      -5.829   3.006  15.722  1.00  0.00    -0.276 OA
BRANCH  12  13
HETATM   13  C2  UNL     1      -5.269   2.179  16.654  1.00  0.00     0.257 C 
HETATM   14  C1  UNL     1      -3.811   1.923  16.795  1.00  0.00     0.126 C 
HETATM   15  O1  UNL     1      -6.044   1.585  17.455  1.00  0.00    -0.266 OA
ENDBRANCH  12  13
ENDBRANCH   1  12
TORSDOF 2
ENDMDL
MODEL 5
REMARK VINA RESULT: -5.672524128      4.332      5.981
REMARK  2 active torsions:
REMARK  status: ('A' for Active; 'I' for Inactive)
REMARK    1  A    between atoms: C2_2  and  O2_4 
REMARK    2  A    between atoms: O2_4  and  C3_5 
ROOT
HETATM    1  C3  UNL     1      -2.092  -1.441  18.606  1.00  0.00     0.229 C 
HETATM    2  C4  UNL     1      -2.104  -0.098  19.173  1.00  0.00     0.048 C 
HETATM    3  C5  UNL     1      -3.331   0.206  19.535  1.00  0.00     0.054 C 
HETATM    4  C6  UNL     1      -4.238  -0.895  19.246  1.00  0.00     0.183 C 
HETATM    5  O3  UNL     1      -5.352  -1.086  19.778  1.00  0.00    -0.290 OA
HETATM    6  C7  UNL     1      -3.526  -1.688  18.204  1.00  0.00     0.265 C 
HETATM    7  O4  UNL     1      -3.580  -1.055  16.963  1.00  0.00    -0.337 OA
HETATM    8  C8  UNL     1      -2.338  -1.255  16.385  1.00  0.00     0.162 C 
HETATM    9  C9  UNL     1      -2.424  -2.471  15.479  1.00  0.00     0.078 C 
HETATM   10  C10 UNL     1      -1.853  -0.043  15.634  1.00  0.00     0.078 C 
HETATM   11  O5  UNL     1      -1.436  -1.534  17.386  1.00  0.00    -0.313 OA
ENDROOT
BRANCH   1  12
HETATM   12  O2  UNL     1      -1.655  -2.416  19.531  1.00  0.00    -0.276 OA
BRANCH  12  13
HETATM   13  C2  UNL     1      -2.109  -3.704  19.574  1.00  0.00     0.257 C 
HETATM   14  C1  UNL     1      -3.079  -4.230  20.571  1.00  0.00     0.126 C 
HETATM   15  O1  UNL     1      -1.675  -4.510  18.704  1.00  0.00    -0.266 OA
ENDBRANCH  12  13
ENDBRANCH   1  12
TORSDOF 2
ENDMDL
