MODEL 1
REMARK VINA RESULT: -6.512346388      0.000      0.000
REMARK  4 active torsions:
REMARK  status: ('A' for Active; 'I' for Inactive)
REMARK    1  A    between atoms: O1_2  and  C2_3 
REMARK       I    between atoms: C2_3  and  N1_5 
REMARK       I    between atoms: N1_5  and  C3_6 
REMARK    2  A    between atoms: N1_5  and  C5_9 
REMARK    3  A    between atoms: C5_9  and  O4_10 
REMARK    4  A    between atoms: C5_9  and  C6_12 
ROOT
HETATM    1  C5  UNL     1      -2.781  -1.833  18.480  1.00  0.00     0.164 C 
ENDROOT
BRANCH   1   2
HETATM    2  N1  UNL     1      -2.873  -0.976  17.352  1.00  0.00    -0.206 N 
HETATM    3  C2  UNL     1      -3.325   0.351  17.383  1.00  0.00     0.375 C 
HETATM    4  O2  UNL     1      -3.484   0.999  16.288  1.00  0.00    -0.237 OA
HETATM    5  C3  UNL     1      -2.271  -1.447  16.155  1.00  0.00     0.230 C 
HETATM    6  C4  UNL     1      -2.271  -0.697  14.905  1.00  0.00     0.118 C 
HETATM    7  O3  UNL     1      -1.702  -2.568  16.147  1.00  0.00    -0.273 OA
BRANCH   3   8
HETATM    8  O1  UNL     1      -3.638   1.128  18.490  1.00  0.00    -0.308 OA
HETATM    9  C1  UNL     1      -4.941   1.482  18.876  1.00  0.00     0.215 C 
ENDBRANCH   3   8
ENDBRANCH   1   2
BRANCH   1  10
HETATM   10  O4  UNL     1      -1.583  -1.934  19.044  1.00  0.00    -0.345 OA
ATOM     11  H4  UNL     1      -0.890  -2.287  18.497  1.00  0.00     0.219 HD
ENDBRANCH   1  10
BRANCH   1  12
HETATM   12  C6  UNL     1      -3.748  -2.635  19.148  1.00  0.00     0.015 A 
HETATM   13  C7  UNL     1      -4.783  -2.158  19.886  1.00  0.00     0.016 A 
HETATM   14  C8  UNL     1      -5.670  -2.987  20.596  1.00  0.00     0.001 A 
HETATM   15  C9  UNL     1      -5.507  -4.344  20.556  1.00  0.00     0.000 A 
HETATM   16  C10 UNL     1      -4.478  -4.854  19.821  1.00  0.00     0.001 A 
HETATM   17  C11 UNL     1      -3.610  -4.038  19.127  1.00  0.00     0.016 A 
ENDBRANCH   1  12
TORSDOF 4
ENDMDL
MODEL 2
REMARK VINA RESULT: -6.493001267      0.184      1.185
REMARK  4 active torsions:
REMARK  status: ('A' for Active; 'I' for Inactive)
REMARK    1  A    between atoms: O1_2  and  C2_3 
REMARK       I    between atoms: C2_3  and  N1_5 
REMARK       I    between atoms: N1_5  and  C3_6 
REMARK    2  A    between atoms: N1_5  and  C5_9 
REMARK    3  A    between atoms: C5_9  and  O4_10 
REMARK    4  A    between atoms: C5_9  and  C6_12 
ROOT
HETATM    1  C5  UNL     1      -2.747  -1.883  18.365  1.00  0.00     0.164 C 
ENDROOT
BRANCH   1   2
HETATM    2  N1  UNL     1      -2.967  -1.031  17.251  1.00  0.00    -0.206 N 
HETATM    3  C2  UNL     1      -3.443   0.286  17.326  1.00  0.00     0.375 C 
HETATM    4  O2  UNL     1      -3.723   0.928  16.253  1.00  0.00    -0.237 OA
HETATM    5  C3  UNL     1      -2.474  -1.491  16.001  1.00  0.00     0.230 C 
HETATM    6  C4  UNL     1      -2.613  -0.743  14.757  1.00  0.00     0.118 C 
HETATM    7  O3  UNL     1      -1.884  -2.599  15.937  1.00  0.00    -0.273 OA
BRANCH   3   8
HETATM    8  O1  UNL     1      -3.664   1.057  18.459  1.00  0.00    -0.308 OA
HETATM    9  C1  UNL     1      -4.921   1.521  18.878  1.00  0.00     0.215 C 
ENDBRANCH   3   8
ENDBRANCH   1   2
BRANCH   1  10
HETATM   10  O4  UNL     1      -1.501  -1.942  18.821  1.00  0.00    -0.345 OA
ATOM     11  H4  UNL     1      -0.823  -1.634  18.231  1.00  0.00     0.219 HD
ENDBRANCH   1  10
BRANCH   1  12
HETATM   12  C6  UNL     1      -3.623  -2.719  19.113  1.00  0.00     0.015 A 
HETATM   13  C7  UNL     1      -3.574  -4.076  19.140  1.00  0.00     0.016 A 
HETATM   14  C8  UNL     1      -4.510  -4.867  19.831  1.00  0.00     0.001 A 
HETATM   15  C9  UNL     1      -5.528  -4.266  20.517  1.00  0.00     0.000 A 
HETATM   16  C10 UNL     1      -5.603  -2.905  20.511  1.00  0.00     0.001 A 
HETATM   17  C11 UNL     1      -4.685  -2.133  19.832  1.00  0.00     0.016 A 
ENDBRANCH   1  12
TORSDOF 4
ENDMDL
MODEL 3
REMARK VINA RESULT: -6.378761738      1.910      4.704
REMARK  4 active torsions:
REMARK  status: ('A' for Active; 'I' for Inactive)
REMARK    1  A    between atoms: O1_2  and  C2_3 
REMARK       I    between atoms: C2_3  and  N1_5 
REMARK       I    between atoms: N1_5  and  C3_6 
REMARK    2  A    between atoms: N1_5  and  C5_9 
REMARK    3  A    between atoms: C5_9  and  O4_10 
REMARK    4  A    between atoms: C5_9  and  C6_12 
ROOT
HETATM    1  C5  UNL     1      -2.759  -1.946  18.930  1.00  0.00     0.164 C 
ENDROOT
BRANCH   1   2
HETATM    2  N1  UNL     1      -3.839  -2.606  19.573  1.00  0.00    -0.206 N 
HETATM    3  C2  UNL     1      -5.008  -1.981  20.030  1.00  0.00     0.375 C 
HETATM    4  O2  UNL     1      -5.869  -2.649  20.705  1.00  0.00    -0.237 OA
HETATM    5  C3  UNL     1      -3.804  -4.026  19.560  1.00  0.00     0.230 C 
HETATM    6  C4  UNL     1      -4.830  -4.862  20.171  1.00  0.00     0.118 C 
HETATM    7  O3  UNL     1      -2.847  -4.617  19.000  1.00  0.00    -0.273 OA
BRANCH   3   8
HETATM    8  O1  UNL     1      -5.410  -0.665  19.843  1.00  0.00    -0.308 OA
HETATM    9  C1  UNL     1      -5.131   0.389  20.727  1.00  0.00     0.215 C 
ENDBRANCH   3   8
ENDBRANCH   1   2
BRANCH   1  10
HETATM   10  O4  UNL     1      -1.577  -2.038  19.527  1.00  0.00    -0.345 OA
ATOM     11  H4  UNL     1      -1.361  -1.346  20.142  1.00  0.00     0.219 HD
ENDBRANCH   1  10
BRANCH   1  12
HETATM   12  C6  UNL     1      -2.689  -1.177  17.735  1.00  0.00     0.015 A 
HETATM   13  C7  UNL     1      -2.504  -1.684  16.489  1.00  0.00     0.016 A 
HETATM   14  C8  UNL     1      -2.360  -0.882  15.344  1.00  0.00     0.001 A 
HETATM   15  C9  UNL     1      -2.406   0.479  15.461  1.00  0.00     0.000 A 
HETATM   16  C10 UNL     1      -2.593   1.020  16.698  1.00  0.00     0.001 A 
HETATM   17  C11 UNL     1      -2.733   0.230  17.819  1.00  0.00     0.016 A 
ENDBRANCH   1  12
TORSDOF 4
ENDMDL
MODEL 4
REMARK VINA RESULT: -6.332803637      1.859      4.506
REMARK  4 active torsions:
REMARK  status: ('A' for Active; 'I' for Inactive)
REMARK    1  A    between atoms: O1_2  and  C2_3 
REMARK       I    between atoms: C2_3  and  N1_5 
REMARK       I    between atoms: N1_5  and  C3_6 
REMARK    2  A    between atoms: N1_5  and  C5_9 
REMARK    3  A    between atoms: C5_9  and  O4_10 
REMARK    4  A    between atoms: C5_9  and  C6_12 
ROOT
HETATM    1  C5  UNL     1      -2.721  -1.934  18.829  1.00  0.00     0.164 C 
ENDROOT
BRANCH   1   2
HETATM    2  N1  UNL     1      -3.838  -2.481  19.512  1.00  0.00    -0.206 N 
HETATM    3  C2  UNL     1      -4.956  -1.753  19.942  1.00  0.00     0.375 C 
HETATM    4  O2  UNL     1      -5.855  -2.321  20.657  1.00  0.00    -0.237 OA
HETATM    5  C3  UNL     1      -3.903  -3.899  19.575  1.00  0.00     0.230 C 
HETATM    6  C4  UNL     1      -4.979  -4.627  20.236  1.00  0.00     0.118 C 
HETATM    7  O3  UNL     1      -2.995  -4.585  19.041  1.00  0.00    -0.273 OA
BRANCH   3   8
HETATM    8  O1  UNL     1      -5.266  -0.424  19.688  1.00  0.00    -0.308 OA
HETATM    9  C1  UNL     1      -5.222   0.605  20.643  1.00  0.00     0.215 C 
ENDBRANCH   3   8
ENDBRANCH   1   2
BRANCH   1  10
HETATM   10  O4  UNL     1      -1.558  -1.990  19.468  1.00  0.00    -0.345 OA
ATOM     11  H4  UNL     1      -1.358  -2.810  19.905  1.00  0.00     0.219 HD
ENDBRANCH   1  10
BRANCH   1  12
HETATM   12  C6  UNL     1      -2.594  -1.313  17.555  1.00  0.00     0.015 A 
HETATM   13  C7  UNL     1      -2.680   0.022  17.325  1.00  0.00     0.016 A 
HETATM   14  C8  UNL     1      -2.628   0.588  16.039  1.00  0.00     0.001 A 
HETATM   15  C9  UNL     1      -2.483  -0.223  14.948  1.00  0.00     0.000 A 
HETATM   16  C10 UNL     1      -2.391  -1.568  15.146  1.00  0.00     0.001 A 
HETATM   17  C11 UNL     1      -2.443  -2.120  16.408  1.00  0.00     0.016 A 
ENDBRANCH   1  12
TORSDOF 4
ENDMDL
MODEL 5
REMARK VINA RESULT: -6.217241426      1.949      4.573
REMARK  4 active torsions:
REMARK  status: ('A' for Active; 'I' for Inactive)
REMARK    1  A    between atoms: O1_2  and  C2_3 
REMARK       I    between atoms: C2_3  and  N1_5 
REMARK       I    between atoms: N1_5  and  C3_6 
REMARK    2  A    between atoms: N1_5  and  C5_9 
REMARK    3  A    between atoms: C5_9  and  O4_10 
REMARK    4  A    between atoms: C5_9  and  C6_12 
ROOT
HETATM    1  C5  UNL     1      -2.568  -1.562  18.974  1.00  0.00     0.164 C 
ENDROOT
BRANCH   1   2
HETATM    2  N1  UNL     1      -3.571  -2.462  19.418  1.00  0.00    -0.206 N 
HETATM    3  C2  UNL     1      -4.845  -2.089  19.868  1.00  0.00     0.375 C 
HETATM    4  O2  UNL     1      -5.634  -2.971  20.361  1.00  0.00    -0.237 OA
HETATM    5  C3  UNL     1      -3.322  -3.842  19.191  1.00  0.00     0.230 C 
HETATM    6  C4  UNL     1      -4.244  -4.901  19.581  1.00  0.00     0.118 C 
HETATM    7  O3  UNL     1      -2.255  -4.194  18.626  1.00  0.00    -0.273 OA
BRANCH   3   8
HETATM    8  O1  UNL     1      -5.429  -0.830  19.853  1.00  0.00    -0.308 OA
HETATM    9  C1  UNL     1      -6.109  -0.250  20.936  1.00  0.00     0.215 C 
ENDBRANCH   3   8
ENDBRANCH   1   2
BRANCH   1  10
HETATM   10  O4  UNL     1      -1.397  -1.635  19.596  1.00  0.00    -0.345 OA
ATOM     11  H4  UNL     1      -0.685  -2.031  19.106  1.00  0.00     0.219 HD
ENDBRANCH   1  10
BRANCH   1  12
HETATM   12  C6  UNL     1      -2.566  -0.560  17.963  1.00  0.00     0.015 A 
HETATM   13  C7  UNL     1      -2.746   0.769  18.180  1.00  0.00     0.016 A 
HETATM   14  C8  UNL     1      -2.817   1.716  17.143  1.00  0.00     0.001 A 
HETATM   15  C9  UNL     1      -2.701   1.308  15.844  1.00  0.00     0.000 A 
HETATM   16  C10 UNL     1      -2.517  -0.020  15.593  1.00  0.00     0.001 A 
HETATM   17  C11 UNL     1      -2.449  -0.946  16.612  1.00  0.00     0.016 A 
ENDBRANCH   1  12
TORSDOF 4
ENDMDL
