MODEL 1
REMARK VINA RESULT: -5.284102705      0.000      0.000
REMARK  5 active torsions:
REMARK  status: ('A' for Active; 'I' for Inactive)
REMARK    1  A    between atoms: O1_2  and  C2_3 
REMARK    2  A    between atoms: C2_3  and  C3_4 
REMARK    3  A    between atoms: C2_3  and  N1_11 
REMARK    4  A    between atoms: C4_5  and  C5_6 
REMARK    5  A    between atoms: C5_6  and  O2_9 
ROOT
HETATM    1  C2  UNL     1      37.965  24.702  54.535  1.00  0.00     0.443 C 
ENDROOT
BRANCH   1   2
HETATM    2  O1  UNL     1      38.230  24.105  53.323  1.00  0.00    -0.353 OA
HETATM    3  C1  UNL     1      38.794  22.828  53.520  1.00  0.00     0.205 C 
ENDBRANCH   1   2
BRANCH   1   4
HETATM    4  C3  UNL     1      39.206  25.393  54.950  1.00  0.00    -0.040 C 
HETATM    5  C4  UNL     1      40.211  25.955  55.308  1.00  0.00    -0.065 C 
BRANCH   5   6
HETATM    6  C5  UNL     1      41.434  26.625  55.760  1.00  0.00     0.114 C 
HETATM    7  C6  UNL     1      42.595  26.330  54.836  1.00  0.00     0.060 C 
HETATM    8  C7  UNL     1      41.689  26.187  57.167  1.00  0.00     0.060 C 
BRANCH   6   9
HETATM    9  O2  UNL     1      41.265  28.018  55.777  1.00  0.00    -0.378 OA
ATOM     10  H2  UNL     1      41.484  28.376  56.630  1.00  0.00     0.211 HD
ENDBRANCH   6   9
ENDBRANCH   5   6
ENDBRANCH   1   4
BRANCH   1  11
HETATM   11  N1  UNL     1      36.932  25.707  54.460  1.00  0.00     0.154 N 
HETATM   12  C8  UNL     1      35.754  25.265  53.777  1.00  0.00     0.306 C 
HETATM   13  C9  UNL     1      34.673  26.127  54.443  1.00  0.00     0.200 C 
HETATM   14  O3  UNL     1      35.282  26.695  55.551  1.00  0.00    -0.361 OA
HETATM   15  C10 UNL     1      36.455  25.986  55.786  1.00  0.00     0.445 C 
ENDBRANCH   1  11
TORSDOF 5
ENDMDL
MODEL 2
REMARK VINA RESULT: -5.187485149      1.494      1.873
REMARK  5 active torsions:
REMARK  status: ('A' for Active; 'I' for Inactive)
REMARK    1  A    between atoms: O1_2  and  C2_3 
REMARK    2  A    between atoms: C2_3  and  C3_4 
REMARK    3  A    between atoms: C2_3  and  N1_11 
REMARK    4  A    between atoms: C4_5  and  C5_6 
REMARK    5  A    between atoms: C5_6  and  O2_9 
ROOT
HETATM    1  C2  UNL     1      37.507  25.125  55.207  1.00  0.00     0.443 C 
ENDROOT
BRANCH   1   2
HETATM    2  O1  UNL     1      37.592  23.759  55.360  1.00  0.00    -0.353 OA
HETATM    3  C1  UNL     1      36.870  23.350  56.500  1.00  0.00     0.205 C 
ENDBRANCH   1   2
BRANCH   1   4
HETATM    4  C3  UNL     1      38.872  25.663  55.405  1.00  0.00    -0.040 C 
HETATM    5  C4  UNL     1      39.981  26.099  55.587  1.00  0.00    -0.065 C 
BRANCH   5   6
HETATM    6  C5  UNL     1      41.332  26.616  55.823  1.00  0.00     0.114 C 
HETATM    7  C6  UNL     1      42.295  26.142  54.757  1.00  0.00     0.060 C 
HETATM    8  C7  UNL     1      41.737  26.192  57.198  1.00  0.00     0.060 C 
BRANCH   6   9
HETATM    9  O2  UNL     1      41.343  28.019  55.795  1.00  0.00    -0.378 OA
ATOM     10  H2  UNL     1      41.284  28.376  56.673  1.00  0.00     0.211 HD
ENDBRANCH   6   9
ENDBRANCH   5   6
ENDBRANCH   1   4
BRANCH   1  11
HETATM   11  N1  UNL     1      37.088  25.525  53.884  1.00  0.00     0.154 N 
HETATM   12  C8  UNL     1      37.364  24.545  52.878  1.00  0.00     0.306 C 
HETATM   13  C9  UNL     1      36.260  24.839  51.854  1.00  0.00     0.200 C 
HETATM   14  O3  UNL     1      35.374  25.688  52.497  1.00  0.00    -0.361 OA
HETATM   15  C10 UNL     1      35.656  25.625  53.858  1.00  0.00     0.445 C 
ENDBRANCH   1  11
TORSDOF 5
ENDMDL
MODEL 3
REMARK VINA RESULT: -5.089105720      1.059      1.094
REMARK  5 active torsions:
REMARK  status: ('A' for Active; 'I' for Inactive)
REMARK    1  A    between atoms: O1_2  and  C2_3 
REMARK    2  A    between atoms: C2_3  and  C3_4 
REMARK    3  A    between atoms: C2_3  and  N1_11 
REMARK    4  A    between atoms: C4_5  and  C5_6 
REMARK    5  A    between atoms: C5_6  and  O2_9 
ROOT
HETATM    1  C2  UNL     1      38.842  24.417  54.946  1.00  0.00     0.443 C 
ENDROOT
BRANCH   1   2
HETATM    2  O1  UNL     1      38.997  23.782  53.734  1.00  0.00    -0.353 OA
HETATM    3  C1  UNL     1      39.729  22.588  53.899  1.00  0.00     0.205 C 
ENDBRANCH   1   2
BRANCH   1   4
HETATM    4  C3  UNL     1      40.117  25.114  55.229  1.00  0.00    -0.040 C 
HETATM    5  C4  UNL     1      41.145  25.698  55.465  1.00  0.00    -0.065 C 
BRANCH   5   6
HETATM    6  C5  UNL     1      42.386  26.415  55.770  1.00  0.00     0.114 C 
HETATM    7  C6  UNL     1      43.390  26.277  54.648  1.00  0.00     0.060 C 
HETATM    8  C7  UNL     1      42.897  25.889  57.072  1.00  0.00     0.060 C 
BRANCH   6   9
HETATM    9  O2  UNL     1      42.142  27.788  55.938  1.00  0.00    -0.378 OA
ATOM     10  H2  UNL     1      42.409  28.276  55.168  1.00  0.00     0.211 HD
ENDBRANCH   6   9
ENDBRANCH   5   6
ENDBRANCH   1   4
BRANCH   1  11
HETATM   11  N1  UNL     1      37.809  25.425  54.933  1.00  0.00     0.154 N 
HETATM   12  C8  UNL     1      36.505  24.903  54.654  1.00  0.00     0.306 C 
HETATM   13  C9  UNL     1      35.610  25.913  55.383  1.00  0.00     0.200 C 
HETATM   14  O3  UNL     1      36.464  26.659  56.179  1.00  0.00    -0.361 OA
HETATM   15  C10 UNL     1      37.668  25.967  56.255  1.00  0.00     0.445 C 
ENDBRANCH   1  11
TORSDOF 5
ENDMDL
MODEL 4
REMARK VINA RESULT: -5.067485079      1.063      1.487
REMARK  5 active torsions:
REMARK  status: ('A' for Active; 'I' for Inactive)
REMARK    1  A    between atoms: O1_2  and  C2_3 
REMARK    2  A    between atoms: C2_3  and  C3_4 
REMARK    3  A    between atoms: C2_3  and  N1_11 
REMARK    4  A    between atoms: C4_5  and  C5_6 
REMARK    5  A    between atoms: C5_6  and  O2_9 
ROOT
HETATM    1  C2  UNL     1      37.669  25.208  54.624  1.00  0.00     0.443 C 
ENDROOT
BRANCH   1   2
HETATM    2  O1  UNL     1      37.443  25.645  53.338  1.00  0.00    -0.353 OA
HETATM    3  C1  UNL     1      37.263  24.546  52.473  1.00  0.00     0.205 C 
ENDBRANCH   1   2
BRANCH   1   4
HETATM    4  C3  UNL     1      38.986  25.747  55.033  1.00  0.00    -0.040 C 
HETATM    5  C4  UNL     1      40.066  26.167  55.365  1.00  0.00    -0.065 C 
BRANCH   5   6
HETATM    6  C5  UNL     1      41.388  26.665  55.754  1.00  0.00     0.114 C 
HETATM    7  C6  UNL     1      42.451  26.226  54.771  1.00  0.00     0.060 C 
HETATM    8  C7  UNL     1      41.653  26.188  57.145  1.00  0.00     0.060 C 
BRANCH   6   9
HETATM    9  O2  UNL     1      41.406  28.069  55.779  1.00  0.00    -0.378 OA
ATOM     10  H2  UNL     1      41.507  28.422  54.903  1.00  0.00     0.211 HD
ENDBRANCH   6   9
ENDBRANCH   5   6
ENDBRANCH   1   4
BRANCH   1  11
HETATM   11  N1  UNL     1      36.701  25.705  55.572  1.00  0.00     0.154 N 
HETATM   12  C8  UNL     1      37.067  26.959  56.158  1.00  0.00     0.306 C 
HETATM   13  C9  UNL     1      35.693  27.560  56.478  1.00  0.00     0.200 C 
HETATM   14  O3  UNL     1      34.775  26.765  55.811  1.00  0.00    -0.361 OA
HETATM   15  C10 UNL     1      35.483  26.013  54.878  1.00  0.00     0.445 C 
ENDBRANCH   1  11
TORSDOF 5
ENDMDL
MODEL 5
REMARK VINA RESULT: -5.056532381      1.706      2.482
REMARK  5 active torsions:
REMARK  status: ('A' for Active; 'I' for Inactive)
REMARK    1  A    between atoms: O1_2  and  C2_3 
REMARK    2  A    between atoms: C2_3  and  C3_4 
REMARK    3  A    between atoms: C2_3  and  N1_11 
REMARK    4  A    between atoms: C4_5  and  C5_6 
REMARK    5  A    between atoms: C5_6  and  O2_9 
ROOT
HETATM    1  C2  UNL     1      37.897  24.836  54.768  1.00  0.00     0.443 C 
ENDROOT
BRANCH   1   2
HETATM    2  O1  UNL     1      37.806  23.665  55.487  1.00  0.00    -0.353 OA
HETATM    3  C1  UNL     1      36.799  23.772  56.469  1.00  0.00     0.205 C 
ENDBRANCH   1   2
BRANCH   1   4
HETATM    4  C3  UNL     1      39.174  25.477  55.155  1.00  0.00    -0.040 C 
HETATM    5  C4  UNL     1      40.222  25.991  55.454  1.00  0.00    -0.065 C 
BRANCH   5   6
HETATM    6  C5  UNL     1      41.500  26.622  55.797  1.00  0.00     0.114 C 
HETATM    7  C6  UNL     1      42.572  26.272  54.789  1.00  0.00     0.060 C 
HETATM    8  C7  UNL     1      41.850  26.195  57.186  1.00  0.00     0.060 C 
BRANCH   6   9
HETATM    9  O2  UNL     1      41.381  28.021  55.803  1.00  0.00    -0.378 OA
ATOM     10  H2  UNL     1      42.189  28.430  55.514  1.00  0.00     0.211 HD
ENDBRANCH   6   9
ENDBRANCH   5   6
ENDBRANCH   1   4
BRANCH   1  11
HETATM   11  N1  UNL     1      37.951  24.625  53.341  1.00  0.00     0.154 N 
HETATM   12  C8  UNL     1      37.793  23.254  52.960  1.00  0.00     0.306 C 
HETATM   13  C9  UNL     1      37.180  23.394  51.561  1.00  0.00     0.200 C 
HETATM   14  O3  UNL     1      36.812  24.726  51.449  1.00  0.00    -0.361 OA
HETATM   15  C10 UNL     1      36.820  25.266  52.731  1.00  0.00     0.445 C 
ENDBRANCH   1  11
TORSDOF 5
ENDMDL
