MODEL 1
REMARK VINA RESULT: -5.552729929      0.000      0.000
REMARK  4 active torsions:
REMARK  status: ('A' for Active; 'I' for Inactive)
REMARK    1  A    between atoms: C2_2  and  C4_4 
REMARK    2  A    between atoms: C4_4  and  O1_5 
REMARK    3  A    between atoms: C4_4  and  C5_7 
REMARK    4  A    between atoms: C8_11  and  N1_12 
ROOT
HETATM    1  C5  UNL     1      41.072  25.596  55.748  1.00  0.00     0.078 C 
HETATM    2  C6  UNL     1      41.726  24.588  56.633  1.00  0.00     0.043 C 
HETATM    3  C7  UNL     1      40.130  26.409  56.617  1.00  0.00     0.212 C 
HETATM    4  O2  UNL     1      39.216  26.847  55.597  1.00  0.00    -0.320 OA
HETATM    5  C8  UNL     1      39.120  25.756  54.708  1.00  0.00     0.218 C 
HETATM    6  N2  UNL     1      40.173  25.032  54.784  1.00  0.00    -0.343 N 
ATOM      7  H2  UNL     1      40.346  24.185  54.243  1.00  0.00     0.164 HD
ENDROOT
BRANCH   1   8
HETATM    8  C4  UNL     1      42.029  26.586  55.128  1.00  0.00     0.151 C 
BRANCH   8   9
HETATM    9  C2  UNL     1      43.451  26.178  55.141  1.00  0.00     0.009 C 
HETATM   10  C1  UNL     1      44.368  26.937  56.008  1.00  0.00     0.012 C 
HETATM   11  C3  UNL     1      43.958  26.216  53.697  1.00  0.00     0.012 C 
ENDBRANCH   8   9
BRANCH   8  12
HETATM   12  O1  UNL     1      41.759  27.842  55.603  1.00  0.00    -0.393 OA
ATOM     13  H1  UNL     1      42.367  28.525  55.343  1.00  0.00     0.210 HD
ENDBRANCH   8  12
ENDBRANCH   1   8
BRANCH   5  14
HETATM   14  N1  UNL     1      38.008  25.507  53.857  1.00  0.00    -0.344 N 
HETATM   15  C9  UNL     1      36.497  25.505  53.773  1.00  0.00     0.146 A 
HETATM   16  C10 UNL     1      37.325  25.135  52.636  1.00  0.00     0.146 A 
ENDBRANCH   5  14
TORSDOF 4
ENDMDL
MODEL 2
REMARK VINA RESULT: -5.277180097      1.657      1.748
REMARK  4 active torsions:
REMARK  status: ('A' for Active; 'I' for Inactive)
REMARK    1  A    between atoms: C2_2  and  C4_4 
REMARK    2  A    between atoms: C4_4  and  O1_5 
REMARK    3  A    between atoms: C4_4  and  C5_7 
REMARK    4  A    between atoms: C8_11  and  N1_12 
ROOT
HETATM    1  C5  UNL     1      41.723  25.618  56.352  1.00  0.00     0.078 C 
HETATM    2  C6  UNL     1      42.214  25.470  57.753  1.00  0.00     0.043 C 
HETATM    3  C7  UNL     1      40.380  26.324  56.423  1.00  0.00     0.212 C 
HETATM    4  O2  UNL     1      39.824  25.856  55.182  1.00  0.00    -0.320 OA
HETATM    5  C8  UNL     1      40.290  24.531  55.056  1.00  0.00     0.218 C 
HETATM    6  N2  UNL     1      41.373  24.380  55.720  1.00  0.00    -0.343 N 
ATOM      7  H2  UNL     1      41.906  23.513  55.790  1.00  0.00     0.164 HD
ENDROOT
BRANCH   1   8
HETATM    8  C4  UNL     1      42.603  26.479  55.478  1.00  0.00     0.151 C 
BRANCH   8   9
HETATM    9  C2  UNL     1      44.025  26.073  55.424  1.00  0.00     0.009 C 
HETATM   10  C1  UNL     1      45.030  27.057  55.859  1.00  0.00     0.012 C 
HETATM   11  C3  UNL     1      44.326  25.627  53.991  1.00  0.00     0.012 C 
ENDBRANCH   8   9
BRANCH   8  12
HETATM   12  O1  UNL     1      42.365  27.800  55.749  1.00  0.00    -0.393 OA
ATOM     13  H1  UNL     1      42.755  28.139  56.546  1.00  0.00     0.210 HD
ENDBRANCH   8  12
ENDBRANCH   1   8
BRANCH   5  14
HETATM   14  N1  UNL     1      39.638  23.518  54.299  1.00  0.00    -0.344 N 
HETATM   15  C9  UNL     1      38.345  22.753  54.120  1.00  0.00     0.146 A 
HETATM   16  C10 UNL     1      39.505  22.498  53.281  1.00  0.00     0.146 A 
ENDBRANCH   5  14
TORSDOF 4
ENDMDL
MODEL 3
REMARK VINA RESULT: -5.093709302      1.359      1.623
REMARK  4 active torsions:
REMARK  status: ('A' for Active; 'I' for Inactive)
REMARK    1  A    between atoms: C2_2  and  C4_4 
REMARK    2  A    between atoms: C4_4  and  O1_5 
REMARK    3  A    between atoms: C4_4  and  C5_7 
REMARK    4  A    between atoms: C8_11  and  N1_12 
ROOT
HETATM    1  C5  UNL     1      41.443  25.606  55.844  1.00  0.00     0.078 C 
HETATM    2  C6  UNL     1      42.094  25.158  57.110  1.00  0.00     0.043 C 
HETATM    3  C7  UNL     1      40.991  27.040  56.058  1.00  0.00     0.212 C 
HETATM    4  O2  UNL     1      39.936  27.083  55.081  1.00  0.00    -0.320 OA
HETATM    5  C8  UNL     1      39.356  25.798  55.122  1.00  0.00     0.218 C 
HETATM    6  N2  UNL     1      40.205  24.944  55.557  1.00  0.00    -0.343 N 
ATOM      7  H2  UNL     1      40.028  23.948  55.680  1.00  0.00     0.164 HD
ENDROOT
BRANCH   1   8
HETATM    8  C4  UNL     1      42.369  25.634  54.651  1.00  0.00     0.151 C 
BRANCH   8   9
HETATM    9  C2  UNL     1      43.399  24.572  54.630  1.00  0.00     0.009 C 
HETATM   10  C1  UNL     1      44.666  24.868  53.939  1.00  0.00     0.012 C 
HETATM   11  C3  UNL     1      42.763  23.319  54.025  1.00  0.00     0.012 C 
ENDBRANCH   8   9
BRANCH   8  12
HETATM   12  O1  UNL     1      42.817  26.912  54.449  1.00  0.00    -0.393 OA
ATOM     13  H1  UNL     1      42.546  27.326  53.637  1.00  0.00     0.210 HD
ENDBRANCH   8  12
ENDBRANCH   1   8
BRANCH   5  14
HETATM   14  N1  UNL     1      38.019  25.507  54.735  1.00  0.00    -0.344 N 
HETATM   15  C9  UNL     1      37.086  25.337  53.555  1.00  0.00     0.146 A 
HETATM   16  C10 UNL     1      36.621  25.181  54.924  1.00  0.00     0.146 A 
ENDBRANCH   5  14
TORSDOF 4
ENDMDL
MODEL 4
REMARK VINA RESULT: -4.895563259      1.887      2.294
REMARK  4 active torsions:
REMARK  status: ('A' for Active; 'I' for Inactive)
REMARK    1  A    between atoms: C2_2  and  C4_4 
REMARK    2  A    between atoms: C4_4  and  O1_5 
REMARK    3  A    between atoms: C4_4  and  C5_7 
REMARK    4  A    between atoms: C8_11  and  N1_12 
ROOT
HETATM    1  C5  UNL     1      41.853  25.862  56.199  1.00  0.00     0.078 C 
HETATM    2  C6  UNL     1      42.718  25.409  57.328  1.00  0.00     0.043 C 
HETATM    3  C7  UNL     1      41.749  27.373  56.297  1.00  0.00     0.212 C 
HETATM    4  O2  UNL     1      40.502  27.550  55.603  1.00  0.00    -0.320 OA
HETATM    5  C8  UNL     1      39.723  26.433  55.973  1.00  0.00     0.218 C 
HETATM    6  N2  UNL     1      40.482  25.462  56.317  1.00  0.00    -0.343 N 
ATOM      7  H2  UNL     1      40.161  24.545  56.627  1.00  0.00     0.164 HD
ENDROOT
BRANCH   1   8
HETATM    8  C4  UNL     1      42.420  25.569  54.831  1.00  0.00     0.151 C 
BRANCH   8   9
HETATM    9  C2  UNL     1      43.126  24.274  54.707  1.00  0.00     0.009 C 
HETATM   10  C1  UNL     1      44.296  24.221  53.813  1.00  0.00     0.012 C 
HETATM   11  C3  UNL     1      42.099  23.226  54.274  1.00  0.00     0.012 C 
ENDBRANCH   8   9
BRANCH   8  12
HETATM   12  O1  UNL     1      43.095  26.668  54.370  1.00  0.00    -0.393 OA
ATOM     13  H1  UNL     1      43.648  26.530  53.610  1.00  0.00     0.210 HD
ENDBRANCH   8  12
ENDBRANCH   1   8
BRANCH   5  14
HETATM   14  N1  UNL     1      38.301  26.405  55.962  1.00  0.00    -0.344 N 
HETATM   15  C9  UNL     1      37.050  27.144  56.388  1.00  0.00     0.146 A 
HETATM   16  C10 UNL     1      36.983  25.882  55.668  1.00  0.00     0.146 A 
ENDBRANCH   5  14
TORSDOF 4
ENDMDL
MODEL 5
REMARK VINA RESULT: -4.818043234      2.344      6.083
REMARK  4 active torsions:
REMARK  status: ('A' for Active; 'I' for Inactive)
REMARK    1  A    between atoms: C2_2  and  C4_4 
REMARK    2  A    between atoms: C4_4  and  O1_5 
REMARK    3  A    between atoms: C4_4  and  C5_7 
REMARK    4  A    between atoms: C8_11  and  N1_12 
ROOT
HETATM    1  C5  UNL     1      36.890  24.856  55.457  1.00  0.00     0.078 C 
HETATM    2  C6  UNL     1      36.060  23.848  56.178  1.00  0.00     0.043 C 
HETATM    3  C7  UNL     1      37.683  24.108  54.400  1.00  0.00     0.212 C 
HETATM    4  O2  UNL     1      38.777  25.030  54.256  1.00  0.00    -0.320 OA
HETATM    5  C8  UNL     1      39.000  25.528  55.557  1.00  0.00     0.218 C 
HETATM    6  N2  UNL     1      37.931  25.434  56.254  1.00  0.00    -0.343 N 
ATOM      7  H2  UNL     1      37.835  25.725  57.227  1.00  0.00     0.164 HD
ENDROOT
BRANCH   1   8
HETATM    8  C4  UNL     1      36.088  25.900  54.717  1.00  0.00     0.151 C 
BRANCH   8   9
HETATM    9  C2  UNL     1      34.756  26.193  55.291  1.00  0.00     0.009 C 
HETATM   10  C1  UNL     1      33.618  26.278  54.360  1.00  0.00     0.012 C 
HETATM   11  C3  UNL     1      34.870  27.496  56.086  1.00  0.00     0.012 C 
ENDBRANCH   8   9
BRANCH   8  12
HETATM   12  O1  UNL     1      36.119  25.634  53.374  1.00  0.00    -0.393 OA
ATOM     13  H1  UNL     1      36.370  26.358  52.811  1.00  0.00     0.210 HD
ENDBRANCH   8  12
ENDBRANCH   1   8
BRANCH   5  14
HETATM   14  N1  UNL     1      40.240  26.054  56.015  1.00  0.00    -0.344 N 
HETATM   15  C9  UNL     1      41.400  26.960  55.662  1.00  0.00     0.146 A 
HETATM   16  C10 UNL     1      41.343  26.252  56.931  1.00  0.00     0.146 A 
ENDBRANCH   5  14
TORSDOF 4
ENDMDL
