MODEL 1
REMARK VINA RESULT: -5.972141572      0.000      0.000
REMARK  2 active torsions:
REMARK  status: ('A' for Active; 'I' for Inactive)
REMARK    1  A    between atoms: C2_3  and  C3_4 
REMARK    2  A    between atoms: C3_4  and  N2_5 
ROOT
HETATM    1  N1  UNL     1      39.862  27.705  56.087  1.00  0.00    -0.192 NA
HETATM    2  C1  UNL     1      39.644  26.585  55.798  1.00  0.00     0.135 C 
HETATM    3  C2  UNL     1      39.343  25.212  55.435  1.00  0.00     0.348 C 
HETATM    4  N3  UNL     1      38.016  24.953  56.032  1.00  0.00    -0.022 N 
ATOM      5  H31 UNL     1      37.898  25.197  57.015  1.00  0.00     0.282 HD
ATOM      6  H32 UNL     1      37.760  23.976  56.179  1.00  0.00     0.282 HD
HETATM    7  C9  UNL     1      37.212  25.712  55.056  1.00  0.00     0.264 C 
HETATM    8  C10 UNL     1      37.827  25.201  53.772  1.00  0.00     0.200 C 
HETATM    9  O1  UNL     1      39.154  25.071  54.072  1.00  0.00    -0.338 OA
ENDROOT
BRANCH   3  10
HETATM   10  C3  UNL     1      40.329  24.201  55.948  1.00  0.00     0.147 C 
BRANCH  10  11
HETATM   11  N2  UNL     1      41.639  24.698  55.906  1.00  0.00    -0.368 N 
HETATM   12  C4  UNL     1      42.487  24.389  54.833  1.00  0.00     0.063 C 
HETATM   13  C5  UNL     1      43.471  25.500  54.491  1.00  0.00     0.044 C 
HETATM   14  C6  UNL     1      43.232  26.702  55.405  1.00  0.00     0.007 C 
HETATM   15  C7  UNL     1      43.344  26.168  56.819  1.00  0.00     0.021 C 
HETATM   16  C8  UNL     1      42.225  25.204  57.085  1.00  0.00     0.127 C 
ENDBRANCH  10  11
ENDBRANCH   3  10
TORSDOF 2
ENDMDL
MODEL 2
REMARK VINA RESULT: -5.969132278      1.049      1.647
REMARK  2 active torsions:
REMARK  status: ('A' for Active; 'I' for Inactive)
REMARK    1  A    between atoms: C2_3  and  C3_4 
REMARK    2  A    between atoms: C3_4  and  N2_5 
ROOT
HETATM    1  N1  UNL     1      38.913  28.194  56.345  1.00  0.00    -0.192 NA
HETATM    2  C1  UNL     1      38.802  27.079  55.987  1.00  0.00     0.135 C 
HETATM    3  C2  UNL     1      38.630  25.706  55.545  1.00  0.00     0.348 C 
HETATM    4  N3  UNL     1      37.483  25.204  56.330  1.00  0.00    -0.022 N 
ATOM      5  H31 UNL     1      37.515  25.354  57.338  1.00  0.00     0.282 HD
ATOM      6  H32 UNL     1      37.394  24.192  56.420  1.00  0.00     0.282 HD
HETATM    7  C9  UNL     1      36.418  25.903  55.587  1.00  0.00     0.264 C 
HETATM    8  C10 UNL     1      36.852  25.588  54.171  1.00  0.00     0.200 C 
HETATM    9  O1  UNL     1      38.216  25.640  54.227  1.00  0.00    -0.338 OA
ENDROOT
BRANCH   3  10
HETATM   10  C3  UNL     1      39.823  24.823  55.779  1.00  0.00     0.147 C 
BRANCH  10  11
HETATM   11  N2  UNL     1      41.001  25.573  55.889  1.00  0.00    -0.368 N 
HETATM   12  C4  UNL     1      41.503  25.936  57.147  1.00  0.00     0.063 C 
HETATM   13  C5  UNL     1      43.023  26.013  57.201  1.00  0.00     0.044 C 
HETATM   14  C6  UNL     1      43.609  25.619  55.845  1.00  0.00     0.007 C 
HETATM   15  C7  UNL     1      42.962  26.547  54.836  1.00  0.00     0.021 C 
HETATM   16  C8  UNL     1      41.491  26.263  54.761  1.00  0.00     0.127 C 
ENDBRANCH  10  11
ENDBRANCH   3  10
TORSDOF 2
ENDMDL
MODEL 3
REMARK VINA RESULT: -5.892758253      1.612      4.663
REMARK  2 active torsions:
REMARK  status: ('A' for Active; 'I' for Inactive)
REMARK    1  A    between atoms: C2_3  and  C3_4 
REMARK    2  A    between atoms: C3_4  and  N2_5 
ROOT
HETATM    1  N1  UNL     1      39.106  27.784  56.137  1.00  0.00    -0.192 NA
HETATM    2  C1  UNL     1      39.795  26.882  55.827  1.00  0.00     0.135 C 
HETATM    3  C2  UNL     1      40.673  25.788  55.453  1.00  0.00     0.348 C 
HETATM    4  N3  UNL     1      41.829  26.444  54.806  1.00  0.00    -0.022 N 
ATOM      5  H31 UNL     1      41.621  27.127  54.077  1.00  0.00     0.282 HD
ATOM      6  H32 UNL     1      42.400  25.866  54.189  1.00  0.00     0.282 HD
HETATM    7  C9  UNL     1      42.474  26.952  56.030  1.00  0.00     0.264 C 
HETATM    8  C10 UNL     1      42.406  25.706  56.886  1.00  0.00     0.200 C 
HETATM    9  O1  UNL     1      41.200  25.151  56.562  1.00  0.00    -0.338 OA
ENDROOT
BRANCH   3  10
HETATM   10  C3  UNL     1      40.063  24.796  54.503  1.00  0.00     0.147 C 
BRANCH  10  11
HETATM   11  N2  UNL     1      38.683  24.672  54.710  1.00  0.00    -0.368 N 
HETATM   12  C4  UNL     1      38.175  23.718  55.602  1.00  0.00     0.063 C 
HETATM   13  C5  UNL     1      36.898  24.156  56.307  1.00  0.00     0.044 C 
HETATM   14  C6  UNL     1      36.529  25.574  55.872  1.00  0.00     0.007 C 
HETATM   15  C7  UNL     1      36.435  25.526  54.360  1.00  0.00     0.021 C 
HETATM   16  C8  UNL     1      37.790  25.245  53.779  1.00  0.00     0.127 C 
ENDBRANCH  10  11
ENDBRANCH   3  10
TORSDOF 2
ENDMDL
MODEL 4
REMARK VINA RESULT: -5.593667930      1.967      3.737
REMARK  2 active torsions:
REMARK  status: ('A' for Active; 'I' for Inactive)
REMARK    1  A    between atoms: C2_3  and  C3_4 
REMARK    2  A    between atoms: C3_4  and  N2_5 
ROOT
HETATM    1  N1  UNL     1      38.747  28.057  56.378  1.00  0.00    -0.192 NA
HETATM    2  C1  UNL     1      39.296  27.107  55.954  1.00  0.00     0.135 C 
HETATM    3  C2  UNL     1      40.004  25.949  55.437  1.00  0.00     0.348 C 
HETATM    4  N3  UNL     1      41.116  26.518  54.645  1.00  0.00    -0.022 N 
ATOM      5  H31 UNL     1      40.875  27.241  53.968  1.00  0.00     0.282 HD
ATOM      6  H32 UNL     1      41.538  25.911  53.942  1.00  0.00     0.282 HD
HETATM    7  C9  UNL     1      41.972  26.922  55.776  1.00  0.00     0.264 C 
HETATM    8  C10 UNL     1      41.904  25.659  56.607  1.00  0.00     0.200 C 
HETATM    9  O1  UNL     1      40.617  25.230  56.446  1.00  0.00    -0.338 OA
ENDROOT
BRANCH   3  10
HETATM   10  C3  UNL     1      39.175  25.051  54.563  1.00  0.00     0.147 C 
BRANCH  10  11
HETATM   11  N2  UNL     1      39.542  23.708  54.715  1.00  0.00    -0.368 N 
HETATM   12  C4  UNL     1      40.598  23.165  53.970  1.00  0.00     0.063 C 
HETATM   13  C5  UNL     1      41.374  22.081  54.706  1.00  0.00     0.044 C 
HETATM   14  C6  UNL     1      40.804  21.903  56.113  1.00  0.00     0.007 C 
HETATM   15  C7  UNL     1      39.329  21.609  55.922  1.00  0.00     0.021 C 
HETATM   16  C8  UNL     1      38.648  22.812  55.338  1.00  0.00     0.127 C 
ENDBRANCH  10  11
ENDBRANCH   3  10
TORSDOF 2
ENDMDL
MODEL 5
REMARK VINA RESULT: -5.531978587      1.849      4.787
REMARK  2 active torsions:
REMARK  status: ('A' for Active; 'I' for Inactive)
REMARK    1  A    between atoms: C2_3  and  C3_4 
REMARK    2  A    between atoms: C3_4  and  N2_5 
ROOT
HETATM    1  N1  UNL     1      42.542  25.461  58.246  1.00  0.00    -0.192 NA
HETATM    2  C1  UNL     1      42.485  25.799  57.120  1.00  0.00     0.135 C 
HETATM    3  C2  UNL     1      42.449  26.216  55.730  1.00  0.00     0.348 C 
HETATM    4  N3  UNL     1      43.528  27.220  55.616  1.00  0.00    -0.022 N 
ATOM      5  H31 UNL     1      43.538  27.966  56.312  1.00  0.00     0.282 HD
ATOM      6  H32 UNL     1      43.472  27.869  54.831  1.00  0.00     0.282 HD
HETATM    7  C9  UNL     1      44.666  26.284  55.626  1.00  0.00     0.264 C 
HETATM    8  C10 UNL     1      44.164  25.265  54.626  1.00  0.00     0.200 C 
HETATM    9  O1  UNL     1      42.823  25.194  54.877  1.00  0.00    -0.338 OA
ENDROOT
BRANCH   3  10
HETATM   10  C3  UNL     1      41.147  26.828  55.297  1.00  0.00     0.147 C 
BRANCH  10  11
HETATM   11  N2  UNL     1      40.097  25.903  55.370  1.00  0.00    -0.368 N 
HETATM   12  C4  UNL     1      39.052  26.077  56.287  1.00  0.00     0.063 C 
HETATM   13  C5  UNL     1      37.709  25.556  55.792  1.00  0.00     0.044 C 
HETATM   14  C6  UNL     1      37.858  25.010  54.372  1.00  0.00     0.007 C 
HETATM   15  C7  UNL     1      38.954  23.966  54.450  1.00  0.00     0.021 C 
HETATM   16  C8  UNL     1      40.258  24.627  54.789  1.00  0.00     0.127 C 
ENDBRANCH  10  11
ENDBRANCH   3  10
TORSDOF 2
ENDMDL
