MODEL 1
REMARK VINA RESULT: -5.932270000      0.000      0.000
REMARK  2 active torsions:
REMARK  status: ('A' for Active; 'I' for Inactive)
REMARK    1  A    between atoms: C3_3  and  N1_4 
REMARK    2  A    between atoms: N1_4  and  C4_6 
ROOT
HETATM    1  C1  UNL     1      36.012  25.198  51.711  1.00  0.00     0.014 C 
HETATM    2  C2  UNL     1      36.455  25.324  52.837  1.00  0.00    -0.098 C 
HETATM    3  C3  UNL     1      36.953  25.501  54.182  1.00  0.00     0.210 C 
ENDROOT
BRANCH   3   4
HETATM    4  N1  UNL     1      38.292  25.072  54.323  1.00  0.00    -0.385 N 
ATOM      5  H1  UNL     1      38.543  24.097  54.158  1.00  0.00     0.156 HD
BRANCH   4   6
HETATM    6  C4  UNL     1      39.280  26.011  54.694  1.00  0.00     0.244 C 
HETATM    7  C5  UNL     1      39.246  26.537  56.088  1.00  0.00     0.225 C 
HETATM    8  O1  UNL     1      40.577  26.935  56.312  1.00  0.00    -0.351 OA
HETATM    9  C6  UNL     1      41.305  25.974  55.658  1.00  0.00     0.170 C 
HETATM   10  C7  UNL     1      42.543  26.564  54.976  1.00  0.00     0.095 C 
HETATM   11  C10 UNL     1      41.803  24.966  56.656  1.00  0.00     0.095 C 
HETATM   12  O3  UNL     1      40.536  25.404  54.657  1.00  0.00    -0.329 OA
HETATM   13  C8  UNL     1      43.794  26.255  55.775  1.00  0.00     0.173 C 
HETATM   14  O2  UNL     1      43.622  26.489  57.137  1.00  0.00    -0.391 OA
HETATM   15  C9  UNL     1      42.628  25.706  57.690  1.00  0.00     0.173 C 
ENDBRANCH   4   6
ENDBRANCH   3   4
TORSDOF 2
ENDMDL
MODEL 2
REMARK VINA RESULT: -5.827835662      0.754      1.177
REMARK  2 active torsions:
REMARK  status: ('A' for Active; 'I' for Inactive)
REMARK    1  A    between atoms: C3_3  and  N1_4 
REMARK    2  A    between atoms: N1_4  and  C4_6 
ROOT
HETATM    1  C1  UNL     1      34.915  26.252  55.273  1.00  0.00     0.014 C 
HETATM    2  C2  UNL     1      35.871  25.875  54.623  1.00  0.00    -0.098 C 
HETATM    3  C3  UNL     1      36.983  25.420  53.820  1.00  0.00     0.210 C 
ENDROOT
BRANCH   3   4
HETATM    4  N1  UNL     1      38.091  25.028  54.604  1.00  0.00    -0.385 N 
ATOM      5  H1  UNL     1      38.165  24.072  54.953  1.00  0.00     0.156 HD
BRANCH   4   6
HETATM    6  C4  UNL     1      39.096  25.976  54.899  1.00  0.00     0.244 C 
HETATM    7  C5  UNL     1      39.150  26.519  56.286  1.00  0.00     0.225 C 
HETATM    8  O1  UNL     1      40.491  26.925  56.416  1.00  0.00    -0.351 OA
HETATM    9  C6  UNL     1      41.180  25.961  55.727  1.00  0.00     0.170 C 
HETATM   10  C7  UNL     1      42.366  26.550  54.958  1.00  0.00     0.095 C 
HETATM   11  C10 UNL     1      41.749  24.967  56.702  1.00  0.00     0.095 C 
HETATM   12  O3  UNL     1      40.350  25.375  54.785  1.00  0.00    -0.329 OA
HETATM   13  C8  UNL     1      43.670  26.257  55.676  1.00  0.00     0.173 C 
HETATM   14  O2  UNL     1      43.587  26.506  57.044  1.00  0.00    -0.391 OA
HETATM   15  C9  UNL     1      42.635  25.724  57.670  1.00  0.00     0.173 C 
ENDBRANCH   4   6
ENDBRANCH   3   4
TORSDOF 2
ENDMDL
MODEL 3
REMARK VINA RESULT: -5.797649967      2.194      5.722
REMARK  2 active torsions:
REMARK  status: ('A' for Active; 'I' for Inactive)
REMARK    1  A    between atoms: C3_3  and  N1_4 
REMARK    2  A    between atoms: N1_4  and  C4_6 
ROOT
HETATM    1  C1  UNL     1      44.887  26.467  55.650  1.00  0.00     0.014 C 
HETATM    2  C2  UNL     1      43.719  26.588  55.966  1.00  0.00    -0.098 C 
HETATM    3  C3  UNL     1      42.338  26.709  56.374  1.00  0.00     0.210 C 
ENDROOT
BRANCH   3   4
HETATM    4  N1  UNL     1      41.486  27.054  55.300  1.00  0.00    -0.385 N 
ATOM      5  H1  UNL     1      41.483  28.004  54.927  1.00  0.00     0.156 HD
BRANCH   4   6
HETATM    6  C4  UNL     1      40.639  26.067  54.749  1.00  0.00     0.244 C 
HETATM    7  C5  UNL     1      40.365  24.853  55.570  1.00  0.00     0.225 C 
HETATM    8  O1  UNL     1      39.134  24.398  55.064  1.00  0.00    -0.351 OA
HETATM    9  C6  UNL     1      38.455  25.559  54.798  1.00  0.00     0.170 C 
HETATM   10  C7  UNL     1      37.616  25.448  53.521  1.00  0.00     0.095 C 
HETATM   11  C10 UNL     1      37.495  25.840  55.921  1.00  0.00     0.095 C 
HETATM   12  O3  UNL     1      39.356  26.591  54.591  1.00  0.00    -0.329 OA
HETATM   13  C8  UNL     1      36.149  25.259  53.859  1.00  0.00     0.173 C 
HETATM   14  O2  UNL     1      35.955  24.305  54.855  1.00  0.00    -0.391 OA
HETATM   15  C9  UNL     1      36.567  24.649  56.045  1.00  0.00     0.173 C 
ENDBRANCH   4   6
ENDBRANCH   3   4
TORSDOF 2
ENDMDL
MODEL 4
REMARK VINA RESULT: -5.671915254      2.075      5.763
REMARK  2 active torsions:
REMARK  status: ('A' for Active; 'I' for Inactive)
REMARK    1  A    between atoms: C3_3  and  N1_4 
REMARK    2  A    between atoms: N1_4  and  C4_6 
ROOT
HETATM    1  C1  UNL     1      44.727  26.607  55.657  1.00  0.00     0.014 C 
HETATM    2  C2  UNL     1      43.856  26.282  56.440  1.00  0.00    -0.098 C 
HETATM    3  C3  UNL     1      42.847  25.897  57.400  1.00  0.00     0.210 C 
ENDROOT
BRANCH   3   4
HETATM    4  N1  UNL     1      41.731  25.278  56.793  1.00  0.00    -0.385 N 
ATOM      5  H1  UNL     1      41.685  24.262  56.711  1.00  0.00     0.156 HD
BRANCH   4   6
HETATM    6  C4  UNL     1      40.680  26.083  56.301  1.00  0.00     0.244 C 
HETATM    7  C5  UNL     1      40.654  26.369  54.838  1.00  0.00     0.225 C 
HETATM    8  O1  UNL     1      39.297  26.647  54.592  1.00  0.00    -0.351 OA
HETATM    9  C6  UNL     1      38.643  25.769  55.418  1.00  0.00     0.170 C 
HETATM   10  C7  UNL     1      37.385  26.395  56.030  1.00  0.00     0.095 C 
HETATM   11  C10 UNL     1      38.186  24.582  54.617  1.00  0.00     0.095 C 
HETATM   12  O3  UNL     1      39.465  25.420  56.476  1.00  0.00    -0.329 OA
HETATM   13  C8  UNL     1      36.139  25.885  55.331  1.00  0.00     0.173 C 
HETATM   14  O2  UNL     1      36.268  25.897  53.945  1.00  0.00    -0.391 OA
HETATM   15  C9  UNL     1      37.297  25.090  53.500  1.00  0.00     0.173 C 
ENDBRANCH   4   6
ENDBRANCH   3   4
TORSDOF 2
ENDMDL
MODEL 5
REMARK VINA RESULT: -5.614150245      1.335      1.856
REMARK  2 active torsions:
REMARK  status: ('A' for Active; 'I' for Inactive)
REMARK    1  A    between atoms: C3_3  and  N1_4 
REMARK    2  A    between atoms: N1_4  and  C4_6 
ROOT
HETATM    1  C1  UNL     1      36.717  22.757  56.786  1.00  0.00     0.014 C 
HETATM    2  C2  UNL     1      36.854  23.810  56.192  1.00  0.00    -0.098 C 
HETATM    3  C3  UNL     1      36.978  25.068  55.494  1.00  0.00     0.210 C 
ENDROOT
BRANCH   3   4
HETATM    4  N1  UNL     1      38.103  25.104  54.640  1.00  0.00    -0.385 N 
ATOM      5  H1  UNL     1      38.170  24.465  53.847  1.00  0.00     0.156 HD
BRANCH   4   6
HETATM    6  C4  UNL     1      39.133  26.035  54.897  1.00  0.00     0.244 C 
HETATM    7  C5  UNL     1      39.215  26.616  56.267  1.00  0.00     0.225 C 
HETATM    8  O1  UNL     1      40.567  26.994  56.372  1.00  0.00    -0.351 OA
HETATM    9  C6  UNL     1      41.225  25.992  55.705  1.00  0.00     0.170 C 
HETATM   10  C7  UNL     1      42.417  26.529  54.908  1.00  0.00     0.095 C 
HETATM   11  C10 UNL     1      41.780  25.014  56.703  1.00  0.00     0.095 C 
HETATM   12  O3  UNL     1      40.371  25.400  54.789  1.00  0.00    -0.329 OA
HETATM   13  C8  UNL     1      43.721  26.225  55.622  1.00  0.00     0.173 C 
HETATM   14  O2  UNL     1      43.658  26.516  56.983  1.00  0.00    -0.391 OA
HETATM   15  C9  UNL     1      42.694  25.777  57.640  1.00  0.00     0.173 C 
ENDBRANCH   4   6
ENDBRANCH   3   4
TORSDOF 2
ENDMDL
