MODEL 1
REMARK VINA RESULT: -4.838973576      0.000      0.000
REMARK  4 active torsions:
REMARK  status: ('A' for Active; 'I' for Inactive)
REMARK    1  A    between atoms: N1_2  and  C3_4 
REMARK    2  A    between atoms: C3_4  and  O1_6 
REMARK    3  A    between atoms: O1_6  and  C4_7 
REMARK    4  A    between atoms: C4_7  and  C5_8 
ROOT
HETATM    1  C5  UNL     1      40.707  26.556  55.505  1.00  0.00     0.171 C 
HETATM    2  C6  UNL     1      41.170  25.178  55.842  1.00  0.00     0.266 C 
HETATM    3  N2  UNL     1      41.981  25.273  57.054  1.00  0.00    -0.071 N 
ATOM      4  H21 UNL     1      42.133  24.367  57.497  1.00  0.00     0.277 HD
ATOM      5  H22 UNL     1      41.486  25.722  57.824  1.00  0.00     0.277 HD
HETATM    6  C7  UNL     1      43.230  25.951  56.714  1.00  0.00     0.258 C 
HETATM    7  C8  UNL     1      42.902  27.070  55.742  1.00  0.00     0.196 C 
HETATM    8  O2  UNL     1      41.603  27.496  56.011  1.00  0.00    -0.380 OA
ENDROOT
BRANCH   1   9
HETATM    9  C4  UNL     1      39.316  26.750  56.044  1.00  0.00     0.211 C 
BRANCH   9  10
HETATM   10  O1  UNL     1      38.324  26.329  55.130  1.00  0.00    -0.324 OA
BRANCH  10  11
HETATM   11  C3  UNL     1      37.141  25.732  55.513  1.00  0.00     0.211 C 
HETATM   12  S1  UNL     1      37.197  24.185  56.033  1.00  0.00    -0.033 SA
BRANCH  11  13
HETATM   13  N1  UNL     1      35.885  26.375  55.483  1.00  0.00    -0.361 N 
HETATM   14  C1  UNL     1      35.596  27.491  56.383  1.00  0.00     0.152 C 
HETATM   15  C2  UNL     1      34.834  25.973  54.577  1.00  0.00     0.152 C 
ENDBRANCH  11  13
ENDBRANCH  10  11
ENDBRANCH   9  10
ENDBRANCH   1   9
TORSDOF 4
ENDMDL
MODEL 2
REMARK VINA RESULT: -4.826735863      1.067      1.311
REMARK  4 active torsions:
REMARK  status: ('A' for Active; 'I' for Inactive)
REMARK    1  A    between atoms: N1_2  and  C3_4 
REMARK    2  A    between atoms: C3_4  and  O1_6 
REMARK    3  A    between atoms: O1_6  and  C4_7 
REMARK    4  A    between atoms: C4_7  and  C5_8 
ROOT
HETATM    1  C5  UNL     1      40.941  26.454  55.366  1.00  0.00     0.171 C 
HETATM    2  C6  UNL     1      41.402  25.082  55.729  1.00  0.00     0.266 C 
HETATM    3  N2  UNL     1      42.024  25.163  57.049  1.00  0.00    -0.071 N 
ATOM      4  H21 UNL     1      42.144  24.249  57.485  1.00  0.00     0.277 HD
ATOM      5  H22 UNL     1      41.406  25.570  57.751  1.00  0.00     0.277 HD
HETATM    6  C7  UNL     1      43.283  25.893  56.914  1.00  0.00     0.258 C 
HETATM    7  C8  UNL     1      43.058  27.031  55.935  1.00  0.00     0.196 C 
HETATM    8  O2  UNL     1      41.719  27.406  56.023  1.00  0.00    -0.380 OA
ENDROOT
BRANCH   1   9
HETATM    9  C4  UNL     1      39.481  26.584  55.701  1.00  0.00     0.211 C 
BRANCH   9  10
HETATM   10  O1  UNL     1      38.649  26.266  54.605  1.00  0.00    -0.324 OA
BRANCH  10  11
HETATM   11  C3  UNL     1      37.515  25.487  54.710  1.00  0.00     0.211 C 
HETATM   12  S1  UNL     1      37.391  24.483  55.991  1.00  0.00    -0.033 SA
BRANCH  11  13
HETATM   13  N1  UNL     1      36.455  25.505  53.778  1.00  0.00    -0.361 N 
HETATM   14  C1  UNL     1      35.092  25.820  54.203  1.00  0.00     0.152 C 
HETATM   15  C2  UNL     1      36.656  25.218  52.376  1.00  0.00     0.152 C 
ENDBRANCH  11  13
ENDBRANCH  10  11
ENDBRANCH   9  10
ENDBRANCH   1   9
TORSDOF 4
ENDMDL
MODEL 3
REMARK VINA RESULT: -4.744804781      3.187      5.928
REMARK  4 active torsions:
REMARK  status: ('A' for Active; 'I' for Inactive)
REMARK    1  A    between atoms: N1_2  and  C3_4 
REMARK    2  A    between atoms: C3_4  and  O1_6 
REMARK    3  A    between atoms: O1_6  and  C4_7 
REMARK    4  A    between atoms: C4_7  and  C5_8 
ROOT
HETATM    1  C5  UNL     1      40.419  26.550  56.342  1.00  0.00     0.171 C 
HETATM    2  C6  UNL     1      40.111  25.227  55.724  1.00  0.00     0.266 C 
HETATM    3  N2  UNL     1      39.255  25.473  54.565  1.00  0.00    -0.071 N 
ATOM      4  H21 UNL     1      39.197  24.668  53.942  1.00  0.00     0.277 HD
ATOM      5  H22 UNL     1      39.669  26.129  53.904  1.00  0.00     0.277 HD
HETATM    6  C7  UNL     1      37.947  25.908  55.050  1.00  0.00     0.258 C 
HETATM    7  C8  UNL     1      38.173  26.830  56.234  1.00  0.00     0.196 C 
HETATM    8  O2  UNL     1      39.403  27.458  56.052  1.00  0.00    -0.380 OA
ENDROOT
BRANCH   1   9
HETATM    9  C4  UNL     1      41.760  27.020  55.846  1.00  0.00     0.211 C 
BRANCH   9  10
HETATM   10  O1  UNL     1      42.248  26.225  54.785  1.00  0.00    -0.324 OA
BRANCH  10  11
HETATM   11  C3  UNL     1      43.534  25.729  54.734  1.00  0.00     0.211 C 
HETATM   12  S1  UNL     1      44.676  26.467  55.638  1.00  0.00    -0.033 SA
BRANCH  11  13
HETATM   13  N1  UNL     1      43.924  24.623  53.949  1.00  0.00    -0.361 N 
HETATM   14  C1  UNL     1      43.215  23.347  54.052  1.00  0.00     0.152 C 
HETATM   15  C2  UNL     1      45.025  24.689  53.016  1.00  0.00     0.152 C 
ENDBRANCH  11  13
ENDBRANCH  10  11
ENDBRANCH   9  10
ENDBRANCH   1   9
TORSDOF 4
ENDMDL
MODEL 4
REMARK VINA RESULT: -4.694572624      1.514      2.003
REMARK  4 active torsions:
REMARK  status: ('A' for Active; 'I' for Inactive)
REMARK    1  A    between atoms: N1_2  and  C3_4 
REMARK    2  A    between atoms: C3_4  and  O1_6 
REMARK    3  A    between atoms: O1_6  and  C4_7 
REMARK    4  A    between atoms: C4_7  and  C5_8 
ROOT
HETATM    1  C5  UNL     1      40.840  26.521  55.503  1.00  0.00     0.171 C 
HETATM    2  C6  UNL     1      41.299  25.162  55.914  1.00  0.00     0.266 C 
HETATM    3  N2  UNL     1      42.086  25.316  57.136  1.00  0.00    -0.071 N 
ATOM      4  H21 UNL     1      42.231  24.433  57.625  1.00  0.00     0.277 HD
ATOM      5  H22 UNL     1      41.576  25.800  57.874  1.00  0.00     0.277 HD
HETATM    6  C7  UNL     1      43.341  25.980  56.788  1.00  0.00     0.258 C 
HETATM    7  C8  UNL     1      43.029  27.050  55.757  1.00  0.00     0.196 C 
HETATM    8  O2  UNL     1      41.726  27.486  55.981  1.00  0.00    -0.380 OA
ENDROOT
BRANCH   1   9
HETATM    9  C4  UNL     1      39.439  26.737  56.006  1.00  0.00     0.211 C 
BRANCH   9  10
HETATM   10  O1  UNL     1      38.464  26.350  55.059  1.00  0.00    -0.324 OA
BRANCH  10  11
HETATM   11  C3  UNL     1      37.420  25.496  55.348  1.00  0.00     0.211 C 
HETATM   12  S1  UNL     1      35.942  26.147  55.590  1.00  0.00    -0.033 SA
BRANCH  11  13
HETATM   13  N1  UNL     1      37.550  24.094  55.447  1.00  0.00    -0.361 N 
HETATM   14  C1  UNL     1      36.841  23.350  56.488  1.00  0.00     0.152 C 
HETATM   15  C2  UNL     1      38.377  23.330  54.541  1.00  0.00     0.152 C 
ENDBRANCH  11  13
ENDBRANCH  10  11
ENDBRANCH   9  10
ENDBRANCH   1   9
TORSDOF 4
ENDMDL
MODEL 5
REMARK VINA RESULT: -4.601535744      1.552      1.916
REMARK  4 active torsions:
REMARK  status: ('A' for Active; 'I' for Inactive)
REMARK    1  A    between atoms: N1_2  and  C3_4 
REMARK    2  A    between atoms: C3_4  and  O1_6 
REMARK    3  A    between atoms: O1_6  and  C4_7 
REMARK    4  A    between atoms: C4_7  and  C5_8 
ROOT
HETATM    1  C5  UNL     1      40.649  26.128  56.036  1.00  0.00     0.171 C 
HETATM    2  C6  UNL     1      41.477  27.346  55.793  1.00  0.00     0.266 C 
HETATM    3  N2  UNL     1      42.803  26.897  55.374  1.00  0.00    -0.071 N 
ATOM      4  H21 UNL     1      43.355  27.642  54.951  1.00  0.00     0.277 HD
ATOM      5  H22 UNL     1      42.771  26.275  54.566  1.00  0.00     0.277 HD
HETATM    6  C7  UNL     1      43.464  26.290  56.527  1.00  0.00     0.258 C 
HETATM    7  C8  UNL     1      42.424  25.489  57.290  1.00  0.00     0.196 C 
HETATM    8  O2  UNL     1      41.470  25.054  56.374  1.00  0.00    -0.380 OA
ENDROOT
BRANCH   1   9
HETATM    9  C4  UNL     1      39.822  25.847  54.811  1.00  0.00     0.211 C 
BRANCH   9  10
HETATM   10  O1  UNL     1      38.489  26.293  54.950  1.00  0.00    -0.324 OA
BRANCH  10  11
HETATM   11  C3  UNL     1      37.394  25.459  54.862  1.00  0.00     0.211 C 
HETATM   12  S1  UNL     1      37.162  24.370  56.057  1.00  0.00    -0.033 SA
BRANCH  11  13
HETATM   13  N1  UNL     1      36.461  25.488  53.803  1.00  0.00    -0.361 N 
HETATM   14  C1  UNL     1      35.059  25.821  54.053  1.00  0.00     0.152 C 
HETATM   15  C2  UNL     1      36.834  25.195  52.439  1.00  0.00     0.152 C 
ENDBRANCH  11  13
ENDBRANCH  10  11
ENDBRANCH   9  10
ENDBRANCH   1   9
TORSDOF 4
ENDMDL
