MODEL 1
REMARK VINA RESULT: -6.380687565      0.000      0.000
REMARK  2 active torsions:
REMARK  status: ('A' for Active; 'I' for Inactive)
REMARK    1  A    between atoms: C2_2  and  C3_3 
REMARK    2  A    between atoms: C10_13  and  O4_14 
ROOT
HETATM    1  C3  UNL     1      42.933  25.185  55.418  1.00  0.00     0.131 C 
HETATM    2  O1  UNL     1      42.218  24.230  54.699  1.00  0.00    -0.377 OA
HETATM    3  C4  UNL     1      41.145  25.084  54.680  1.00  0.00     0.162 C 
HETATM    4  C5  UNL     1      40.208  24.936  55.849  1.00  0.00     0.186 C 
HETATM    5  O2  UNL     1      38.948  24.516  55.439  1.00  0.00    -0.345 OA
HETATM    6  C6  UNL     1      38.248  25.623  55.018  1.00  0.00     0.158 C 
HETATM    7  C7  UNL     1      37.013  25.871  55.891  1.00  0.00     0.078 C 
HETATM    8  C8  UNL     1      37.723  25.405  53.618  1.00  0.00     0.078 C 
HETATM    9  O3  UNL     1      39.071  26.725  55.121  1.00  0.00    -0.345 OA
HETATM   10  C9  UNL     1      39.918  26.404  56.187  1.00  0.00     0.186 C 
HETATM   11  C10 UNL     1      41.278  27.018  56.047  1.00  0.00     0.159 C 
HETATM   12  C11 UNL     1      42.015  26.283  54.979  1.00  0.00     0.077 C 
ENDROOT
BRANCH   1  13
HETATM   13  C2  UNL     1      44.362  25.296  54.873  1.00  0.00     0.028 C 
HETATM   14  C1  UNL     1      45.031  26.409  55.650  1.00  0.00     0.007 C 
ENDBRANCH   1  13
BRANCH  11  15
HETATM   15  O4  UNL     1      41.192  28.387  55.810  1.00  0.00    -0.392 OA
ATOM     16  H4  UNL     1      41.780  28.871  56.377  1.00  0.00     0.210 HD
ENDBRANCH  11  15
TORSDOF 2
ENDMDL
MODEL 2
REMARK VINA RESULT: -6.260943481      1.332      1.591
REMARK  2 active torsions:
REMARK  status: ('A' for Active; 'I' for Inactive)
REMARK    1  A    between atoms: C2_2  and  C3_3 
REMARK    2  A    between atoms: C10_13  and  O4_14 
ROOT
HETATM    1  C3  UNL     1      41.445  24.934  55.589  1.00  0.00     0.131 C 
HETATM    2  O1  UNL     1      40.929  24.071  54.624  1.00  0.00    -0.377 OA
HETATM    3  C4  UNL     1      39.815  24.869  54.544  1.00  0.00     0.162 C 
HETATM    4  C5  UNL     1      38.712  24.496  55.498  1.00  0.00     0.186 C 
HETATM    5  O2  UNL     1      37.570  24.088  54.818  1.00  0.00    -0.345 OA
HETATM    6  C6  UNL     1      36.872  25.215  54.449  1.00  0.00     0.158 C 
HETATM    7  C7  UNL     1      35.494  25.266  55.121  1.00  0.00     0.078 C 
HETATM    8  C8  UNL     1      36.601  25.196  52.963  1.00  0.00     0.078 C 
HETATM    9  O3  UNL     1      37.585  26.324  54.854  1.00  0.00    -0.345 OA
HETATM   10  C9  UNL     1      38.265  25.878  55.993  1.00  0.00     0.186 C 
HETATM   11  C10 UNL     1      39.583  26.568  56.183  1.00  0.00     0.159 C 
HETATM   12  C11 UNL     1      40.536  26.043  55.163  1.00  0.00     0.077 C 
ENDROOT
BRANCH   1  13
HETATM   13  C2  UNL     1      42.933  25.194  55.323  1.00  0.00     0.028 C 
HETATM   14  C1  UNL     1      43.366  26.251  56.314  1.00  0.00     0.007 C 
ENDBRANCH   1  13
BRANCH  11  15
HETATM   15  O4  UNL     1      39.438  27.951  56.139  1.00  0.00    -0.392 OA
ATOM     16  H4  UNL     1      40.280  28.381  56.046  1.00  0.00     0.210 HD
ENDBRANCH  11  15
TORSDOF 2
ENDMDL
MODEL 3
REMARK VINA RESULT: -6.023345261      1.131      2.488
REMARK  2 active torsions:
REMARK  status: ('A' for Active; 'I' for Inactive)
REMARK    1  A    between atoms: C2_2  and  C3_3 
REMARK    2  A    between atoms: C10_13  and  O4_14 
ROOT
HETATM    1  C3  UNL     1      42.730  26.201  55.887  1.00  0.00     0.131 C 
HETATM    2  O1  UNL     1      41.861  27.266  56.120  1.00  0.00    -0.377 OA
HETATM    3  C4  UNL     1      40.813  26.381  56.094  1.00  0.00     0.162 C 
HETATM    4  C5  UNL     1      40.213  26.163  54.731  1.00  0.00     0.186 C 
HETATM    5  O2  UNL     1      38.894  26.597  54.681  1.00  0.00    -0.345 OA
HETATM    6  C6  UNL     1      38.099  25.597  55.191  1.00  0.00     0.158 C 
HETATM    7  C7  UNL     1      37.130  25.056  54.133  1.00  0.00     0.078 C 
HETATM    8  C8  UNL     1      37.230  26.139  56.302  1.00  0.00     0.078 C 
HETATM    9  O3  UNL     1      38.910  24.558  55.598  1.00  0.00    -0.345 OA
HETATM   10  C9  UNL     1      40.008  24.642  54.735  1.00  0.00     0.186 C 
HETATM   11  C10 UNL     1      41.280  24.170  55.373  1.00  0.00     0.159 C 
HETATM   12  C11 UNL     1      41.720  25.202  56.356  1.00  0.00     0.077 C 
ENDROOT
BRANCH   1  13
HETATM   13  C2  UNL     1      43.968  26.323  56.785  1.00  0.00     0.028 C 
HETATM   14  C1  UNL     1      45.122  26.681  55.875  1.00  0.00     0.007 C 
ENDBRANCH   1  13
BRANCH  11  15
HETATM   15  O4  UNL     1      41.122  22.908  55.937  1.00  0.00    -0.392 OA
ATOM     16  H4  UNL     1      41.650  22.813  56.720  1.00  0.00     0.210 HD
ENDBRANCH  11  15
TORSDOF 2
ENDMDL
MODEL 4
REMARK VINA RESULT: -5.982792301      1.433      4.800
REMARK  2 active torsions:
REMARK  status: ('A' for Active; 'I' for Inactive)
REMARK    1  A    between atoms: C2_2  and  C3_3 
REMARK    2  A    between atoms: C10_13  and  O4_14 
ROOT
HETATM    1  C3  UNL     1      37.859  25.179  55.294  1.00  0.00     0.131 C 
HETATM    2  O1  UNL     1      38.646  24.128  55.761  1.00  0.00    -0.377 OA
HETATM    3  C4  UNL     1      39.531  25.049  56.263  1.00  0.00     0.162 C 
HETATM    4  C5  UNL     1      40.614  25.462  55.303  1.00  0.00     0.186 C 
HETATM    5  O2  UNL     1      41.871  25.088  55.765  1.00  0.00    -0.345 OA
HETATM    6  C6  UNL     1      42.296  26.046  56.657  1.00  0.00     0.158 C 
HETATM    7  C7  UNL     1      43.561  26.755  56.159  1.00  0.00     0.078 C 
HETATM    8  C8  UNL     1      42.678  25.401  57.969  1.00  0.00     0.078 C 
HETATM    9  O3  UNL     1      41.301  26.992  56.789  1.00  0.00    -0.345 OA
HETATM   10  C9  UNL     1      40.665  26.976  55.544  1.00  0.00     0.186 C 
HETATM   11  C10 UNL     1      39.207  27.314  55.637  1.00  0.00     0.159 C 
HETATM   12  C11 UNL     1      38.496  26.149  56.238  1.00  0.00     0.077 C 
ENDROOT
BRANCH   1  13
HETATM   13  C2  UNL     1      36.378  24.896  55.577  1.00  0.00     0.028 C 
HETATM   14  C1  UNL     1      35.674  26.235  55.552  1.00  0.00     0.007 C 
ENDBRANCH   1  13
BRANCH  11  15
HETATM   15  O4  UNL     1      39.009  28.500  56.337  1.00  0.00    -0.392 OA
ATOM     16  H4  UNL     1      39.637  28.591  57.043  1.00  0.00     0.210 HD
ENDBRANCH  11  15
TORSDOF 2
ENDMDL
MODEL 5
REMARK VINA RESULT: -5.874027476      1.290      5.015
REMARK  2 active torsions:
REMARK  status: ('A' for Active; 'I' for Inactive)
REMARK    1  A    between atoms: C2_2  and  C3_3 
REMARK    2  A    between atoms: C10_13  and  O4_14 
ROOT
HETATM    1  C3  UNL     1      38.987  25.850  55.781  1.00  0.00     0.131 C 
HETATM    2  O1  UNL     1      39.495  26.988  55.157  1.00  0.00    -0.377 OA
HETATM    3  C4  UNL     1      40.700  26.345  55.023  1.00  0.00     0.162 C 
HETATM    4  C5  UNL     1      41.641  26.536  56.182  1.00  0.00     0.186 C 
HETATM    5  O2  UNL     1      42.791  27.215  55.797  1.00  0.00    -0.345 OA
HETATM    6  C6  UNL     1      43.657  26.301  55.243  1.00  0.00     0.158 C 
HETATM    7  C7  UNL     1      44.950  26.188  56.059  1.00  0.00     0.078 C 
HETATM    8  C8  UNL     1      44.081  26.754  53.866  1.00  0.00     0.078 C 
HETATM    9  O3  UNL     1      43.045  25.064  55.241  1.00  0.00    -0.345 OA
HETATM   10  C9  UNL     1      42.197  25.116  56.352  1.00  0.00     0.186 C 
HETATM   11  C10 UNL     1      40.961  24.287  56.172  1.00  0.00     0.159 C 
HETATM   12  C11 UNL     1      40.065  24.987  55.206  1.00  0.00     0.077 C 
ENDROOT
BRANCH   1  13
HETATM   13  C2  UNL     1      37.579  25.543  55.255  1.00  0.00     0.028 C 
HETATM   14  C1  UNL     1      37.051  24.399  56.092  1.00  0.00     0.007 C 
ENDBRANCH   1  13
BRANCH  11  15
HETATM   15  O4  UNL     1      41.277  22.988  55.786  1.00  0.00    -0.392 OA
ATOM     16  H4  UNL     1      42.217  22.851  55.782  1.00  0.00     0.210 HD
ENDBRANCH  11  15
TORSDOF 2
ENDMDL
