MODEL 1
REMARK VINA RESULT: -8.313248530      0.000      0.000
REMARK  7 active torsions:
REMARK  status: ('A' for Active; 'I' for Inactive)
REMARK    1  A    between atoms: C4_4  and  C5_5 
REMARK    2  A    between atoms: C8_9  and  O1_10 
REMARK    3  A    between atoms: C9_12  and  N2_13 
REMARK       I    between atoms: N2_13  and  C10_15 
REMARK    4  A    between atoms: C10_15  and  C11_17 
REMARK    5  A    between atoms: C11_17  and  C12_18 
REMARK    6  A    between atoms: C11_17  and  C14_22 
REMARK    7  A    between atoms: C12_18  and  C13_19 
ROOT
HETATM    1  C5  UNL     1     -11.669  85.090  17.781  1.00  0.00    -0.008 C 
HETATM    2  C6  UNL     1     -12.256  85.443  16.645  1.00  0.00     0.090 C 
HETATM    3  C7  UNL     1     -13.630  85.181  16.396  1.00  0.00     0.087 C 
HETATM    4  N1  UNL     1     -14.766  84.971  16.169  1.00  0.00    -0.192 NA
ENDROOT
BRANCH   1   5
HETATM    5  C4  UNL     1     -12.387  84.402  18.869  1.00  0.00     0.048 C 
HETATM    6  C2  UNL     1     -12.405  85.223  20.135  1.00  0.00    -0.025 C 
HETATM    7  C1  UNL     1     -12.532  86.670  19.786  1.00  0.00     0.016 C 
HETATM    8  C3  UNL     1     -13.689  84.828  20.880  1.00  0.00     0.016 C 
HETATM    9  C23 UNL     1     -11.271  84.997  21.040  1.00  0.00     0.102 C 
HETATM   10  C20 UNL     1     -10.794  83.562  21.172  1.00  0.00     0.050 C 
HETATM   11  C22 UNL     1     -10.036  85.710  20.720  1.00  0.00     0.264 C 
HETATM   12  C9  UNL     1     -10.552  82.986  19.808  1.00  0.00     0.120 C 
HETATM   13  C21 UNL     1      -9.515  83.835  21.940  1.00  0.00     0.186 C 
HETATM   14  C8  UNL     1     -11.905  83.006  19.098  1.00  0.00     0.149 C 
HETATM   15  O5  UNL     1      -8.981  84.904  21.182  1.00  0.00    -0.321 OA
HETATM   16  O6  UNL     1      -9.803  86.810  20.158  1.00  0.00    -0.265 OA
BRANCH  12  17
HETATM   17  N2  UNL     1     -10.108  81.610  19.794  1.00  0.00    -0.353 N 
HETATM   18  C10 UNL     1      -9.200  81.158  18.808  1.00  0.00     0.223 C 
HETATM   19  O2  UNL     1      -8.755  81.925  17.944  1.00  0.00    -0.273 OA
ATOM     20  H2  UNL     1     -10.452  80.960  20.501  1.00  0.00     0.163 HD
BRANCH  18  21
HETATM   21  C11 UNL     1      -8.731  79.705  18.758  1.00  0.00     0.092 C 
BRANCH  21  22
HETATM   22  C12 UNL     1      -8.806  79.329  17.349  1.00  0.00     0.127 C 
BRANCH  22  23
HETATM   23  C13 UNL     1      -9.888  78.492  16.843  1.00  0.00     0.173 C 
HETATM   24  O3  UNL     1     -11.004  78.431  17.418  1.00  0.00    -0.648 OA
HETATM   25  O4  UNL     1      -9.780  77.698  15.697  1.00  0.00    -0.648 OA
ENDBRANCH  22  23
ENDBRANCH  21  22
BRANCH  21  26
HETATM   26  C14 UNL     1      -7.439  79.623  19.515  1.00  0.00    -0.001 C 
HETATM   27  C15 UNL     1      -6.233  80.200  18.895  1.00  0.00     0.011 C 
HETATM   28  C16 UNL     1      -5.416  81.182  19.634  1.00  0.00     0.079 C 
HETATM   29  C17 UNL     1      -5.378  80.809  21.100  1.00  0.00     0.243 C 
HETATM   30  F1  UNL     1      -4.575  81.707  21.793  1.00  0.00    -0.206 F 
HETATM   31  F2  UNL     1      -5.024  79.511  21.321  1.00  0.00    -0.206 F 
HETATM   32  C18 UNL     1      -6.821  81.015  21.552  1.00  0.00     0.079 C 
HETATM   33  C19 UNL     1      -7.615  79.898  20.990  1.00  0.00     0.011 C 
ENDBRANCH  21  26
ENDBRANCH  18  21
ENDBRANCH  12  17
BRANCH  14  34
HETATM   34  O1  UNL     1     -11.788  82.362  17.870  1.00  0.00    -0.393 OA
ATOM     35  H1  UNL     1     -12.657  82.171  17.538  1.00  0.00     0.210 HD
ENDBRANCH  14  34
ENDBRANCH   1   5
TORSDOF 7
ENDMDL
MODEL 2
REMARK VINA RESULT: -8.166118263      4.473      7.972
REMARK  7 active torsions:
REMARK  status: ('A' for Active; 'I' for Inactive)
REMARK    1  A    between atoms: C4_4  and  C5_5 
REMARK    2  A    between atoms: C8_9  and  O1_10 
REMARK    3  A    between atoms: C9_12  and  N2_13 
REMARK       I    between atoms: N2_13  and  C10_15 
REMARK    4  A    between atoms: C10_15  and  C11_17 
REMARK    5  A    between atoms: C11_17  and  C12_18 
REMARK    6  A    between atoms: C11_17  and  C14_22 
REMARK    7  A    between atoms: C12_18  and  C13_19 
ROOT
HETATM    1  C5  UNL     1      -8.869  80.122  14.947  1.00  0.00    -0.008 C 
HETATM    2  C6  UNL     1      -8.257  78.962  15.144  1.00  0.00     0.090 C 
HETATM    3  C7  UNL     1      -8.848  77.727  14.762  1.00  0.00     0.087 C 
HETATM    4  N1  UNL     1      -9.322  76.693  14.457  1.00  0.00    -0.192 NA
ENDROOT
BRANCH   1   5
HETATM    5  C4  UNL     1     -10.200  80.227  14.323  1.00  0.00     0.048 C 
HETATM    6  C2  UNL     1     -10.145  80.956  13.004  1.00  0.00    -0.025 C 
HETATM    7  C1  UNL     1      -8.876  80.604  12.296  1.00  0.00     0.016 C 
HETATM    8  C3  UNL     1     -11.298  80.394  12.159  1.00  0.00     0.016 C 
HETATM    9  C23 UNL     1     -10.315  82.411  13.088  1.00  0.00     0.102 C 
HETATM   10  C20 UNL     1     -11.338  82.909  14.093  1.00  0.00     0.050 C 
HETATM   11  C22 UNL     1      -9.126  83.182  13.444  1.00  0.00     0.264 C 
HETATM   12  C9  UNL     1     -11.067  82.293  15.434  1.00  0.00     0.120 C 
HETATM   13  C21 UNL     1     -10.991  84.384  14.032  1.00  0.00     0.186 C 
HETATM   14  C8  UNL     1     -11.236  80.786  15.244  1.00  0.00     0.149 C 
HETATM   15  O5  UNL     1      -9.581  84.322  14.128  1.00  0.00    -0.321 OA
HETATM   16  O6  UNL     1      -7.897  82.999  13.252  1.00  0.00    -0.265 OA
BRANCH  12  17
HETATM   17  N2  UNL     1     -11.988  82.675  16.481  1.00  0.00    -0.353 N 
HETATM   18  C10 UNL     1     -11.543  83.443  17.583  1.00  0.00     0.223 C 
HETATM   19  O2  UNL     1     -10.367  83.816  17.673  1.00  0.00    -0.273 OA
ATOM     20  H2  UNL     1     -12.965  82.388  16.425  1.00  0.00     0.163 HD
BRANCH  18  21
HETATM   21  C11 UNL     1     -12.491  83.843  18.713  1.00  0.00     0.092 C 
BRANCH  21  22
HETATM   22  C12 UNL     1     -11.860  83.343  19.931  1.00  0.00     0.127 C 
BRANCH  22  23
HETATM   23  C13 UNL     1     -12.222  82.049  20.498  1.00  0.00     0.173 C 
HETATM   24  O3  UNL     1     -11.456  81.055  20.422  1.00  0.00    -0.648 OA
HETATM   25  O4  UNL     1     -13.428  81.805  21.163  1.00  0.00    -0.648 OA
ENDBRANCH  22  23
ENDBRANCH  21  22
BRANCH  21  26
HETATM   26  C14 UNL     1     -12.805  85.299  18.543  1.00  0.00    -0.001 C 
HETATM   27  C15 UNL     1     -13.989  85.666  17.747  1.00  0.00     0.011 C 
HETATM   28  C16 UNL     1     -15.014  86.565  18.314  1.00  0.00     0.079 C 
HETATM   29  C17 UNL     1     -14.346  87.624  19.164  1.00  0.00     0.243 C 
HETATM   30  F1  UNL     1     -15.304  88.498  19.664  1.00  0.00    -0.206 F 
HETATM   31  F2  UNL     1     -13.330  88.271  18.525  1.00  0.00    -0.206 F 
HETATM   32  C18 UNL     1     -13.773  86.826  20.331  1.00  0.00     0.079 C 
HETATM   33  C19 UNL     1     -12.599  86.086  19.816  1.00  0.00     0.011 C 
ENDBRANCH  21  26
ENDBRANCH  18  21
ENDBRANCH  12  17
BRANCH  14  34
HETATM   34  O1  UNL     1     -11.130  80.155  16.480  1.00  0.00    -0.393 OA
ATOM     35  H1  UNL     1     -11.481  79.275  16.408  1.00  0.00     0.210 HD
ENDBRANCH  14  34
ENDBRANCH   1   5
TORSDOF 7
ENDMDL
MODEL 3
REMARK VINA RESULT: -8.127045094      4.425      7.725
REMARK  7 active torsions:
REMARK  status: ('A' for Active; 'I' for Inactive)
REMARK    1  A    between atoms: C4_4  and  C5_5 
REMARK    2  A    between atoms: C8_9  and  O1_10 
REMARK    3  A    between atoms: C9_12  and  N2_13 
REMARK       I    between atoms: N2_13  and  C10_15 
REMARK    4  A    between atoms: C10_15  and  C11_17 
REMARK    5  A    between atoms: C11_17  and  C12_18 
REMARK    6  A    between atoms: C11_17  and  C14_22 
REMARK    7  A    between atoms: C12_18  and  C13_19 
ROOT
HETATM    1  C5  UNL     1      -8.892  80.236  14.858  1.00  0.00    -0.008 C 
HETATM    2  C6  UNL     1      -8.263  79.078  15.006  1.00  0.00     0.090 C 
HETATM    3  C7  UNL     1      -8.873  77.842  14.664  1.00  0.00     0.087 C 
HETATM    4  N1  UNL     1      -9.363  76.806  14.390  1.00  0.00    -0.192 NA
ENDROOT
BRANCH   1   5
HETATM    5  C4  UNL     1     -10.265  80.336  14.333  1.00  0.00     0.048 C 
HETATM    6  C2  UNL     1     -10.316  81.105  13.036  1.00  0.00    -0.025 C 
HETATM    7  C1  UNL     1      -9.095  80.798  12.231  1.00  0.00     0.016 C 
HETATM    8  C3  UNL     1     -11.517  80.548  12.257  1.00  0.00     0.016 C 
HETATM    9  C23 UNL     1     -10.502  82.554  13.178  1.00  0.00     0.102 C 
HETATM   10  C20 UNL     1     -11.459  83.004  14.266  1.00  0.00     0.050 C 
HETATM   11  C22 UNL     1      -9.303  83.334  13.473  1.00  0.00     0.264 C 
HETATM   12  C9  UNL     1     -11.084  82.352  15.565  1.00  0.00     0.120 C 
HETATM   13  C21 UNL     1     -11.141  84.485  14.228  1.00  0.00     0.186 C 
HETATM   14  C8  UNL     1     -11.243  80.849  15.341  1.00  0.00     0.149 C 
HETATM   15  O5  UNL     1      -9.726  84.446  14.222  1.00  0.00    -0.321 OA
HETATM   16  O6  UNL     1      -8.088  83.179  13.189  1.00  0.00    -0.265 OA
BRANCH  12  17
HETATM   17  N2  UNL     1     -11.935  82.686  16.686  1.00  0.00    -0.353 N 
HETATM   18  C10 UNL     1     -11.384  83.244  17.863  1.00  0.00     0.223 C 
HETATM   19  O2  UNL     1     -10.172  83.471  17.961  1.00  0.00    -0.273 OA
ATOM     20  H2  UNL     1     -12.939  82.518  16.626  1.00  0.00     0.163 HD
BRANCH  18  21
HETATM   21  C11 UNL     1     -12.258  83.587  19.069  1.00  0.00     0.092 C 
BRANCH  21  22
HETATM   22  C12 UNL     1     -11.565  83.006  20.217  1.00  0.00     0.127 C 
BRANCH  22  23
HETATM   23  C13 UNL     1     -11.604  81.572  20.481  1.00  0.00     0.173 C 
HETATM   24  O3  UNL     1     -10.594  80.841  20.318  1.00  0.00    -0.648 OA
HETATM   25  O4  UNL     1     -12.744  80.898  20.929  1.00  0.00    -0.648 OA
ENDBRANCH  22  23
ENDBRANCH  21  22
BRANCH  21  26
HETATM   26  C14 UNL     1     -12.556  85.054  19.005  1.00  0.00    -0.001 C 
HETATM   27  C15 UNL     1     -11.700  85.902  18.157  1.00  0.00     0.011 C 
HETATM   28  C16 UNL     1     -12.304  86.780  17.136  1.00  0.00     0.079 C 
HETATM   29  C17 UNL     1     -13.606  87.347  17.660  1.00  0.00     0.243 C 
HETATM   30  F1  UNL     1     -14.156  88.208  16.718  1.00  0.00    -0.206 F 
HETATM   31  F2  UNL     1     -13.491  87.922  18.890  1.00  0.00    -0.206 F 
HETATM   32  C18 UNL     1     -14.505  86.120  17.766  1.00  0.00     0.079 C 
HETATM   33  C19 UNL     1     -14.039  85.339  18.935  1.00  0.00     0.011 C 
ENDBRANCH  21  26
ENDBRANCH  18  21
ENDBRANCH  12  17
BRANCH  14  34
HETATM   34  O1  UNL     1     -11.040  80.182  16.546  1.00  0.00    -0.393 OA
ATOM     35  H1  UNL     1     -11.757  79.576  16.688  1.00  0.00     0.210 HD
ENDBRANCH  14  34
ENDBRANCH   1   5
TORSDOF 7
ENDMDL
MODEL 4
REMARK VINA RESULT: -8.013615807      4.712      8.660
REMARK  7 active torsions:
REMARK  status: ('A' for Active; 'I' for Inactive)
REMARK    1  A    between atoms: C4_4  and  C5_5 
REMARK    2  A    between atoms: C8_9  and  O1_10 
REMARK    3  A    between atoms: C9_12  and  N2_13 
REMARK       I    between atoms: N2_13  and  C10_15 
REMARK    4  A    between atoms: C10_15  and  C11_17 
REMARK    5  A    between atoms: C11_17  and  C12_18 
REMARK    6  A    between atoms: C11_17  and  C14_22 
REMARK    7  A    between atoms: C12_18  and  C13_19 
ROOT
HETATM    1  C5  UNL     1      -8.464  81.522  16.394  1.00  0.00    -0.008 C 
HETATM    2  C6  UNL     1      -7.658  80.854  17.208  1.00  0.00     0.090 C 
HETATM    3  C7  UNL     1      -7.930  79.517  17.604  1.00  0.00     0.087 C 
HETATM    4  N1  UNL     1      -8.139  78.410  17.946  1.00  0.00    -0.192 NA
ENDROOT
BRANCH   1   5
HETATM    5  C4  UNL     1      -9.697  80.938  15.836  1.00  0.00     0.048 C 
HETATM    6  C2  UNL     1      -9.715  80.999  14.329  1.00  0.00    -0.025 C 
HETATM    7  C1  UNL     1      -8.333  80.776  13.808  1.00  0.00     0.016 C 
HETATM    8  C3  UNL     1     -10.566  79.807  13.865  1.00  0.00     0.016 C 
HETATM    9  C23 UNL     1     -10.302  82.220  13.762  1.00  0.00     0.102 C 
HETATM   10  C20 UNL     1     -11.523  82.771  14.475  1.00  0.00     0.050 C 
HETATM   11  C22 UNL     1      -9.425  83.387  13.694  1.00  0.00     0.264 C 
HETATM   12  C9  UNL     1     -11.228  82.912  15.939  1.00  0.00     0.120 C 
HETATM   13  C21 UNL     1     -11.607  84.100  13.751  1.00  0.00     0.186 C 
HETATM   14  C8  UNL     1     -10.940  81.500  16.448  1.00  0.00     0.149 C 
HETATM   15  O5  UNL     1     -10.256  84.515  13.814  1.00  0.00    -0.321 OA
HETATM   16  O6  UNL     1      -8.182  83.519  13.560  1.00  0.00    -0.265 OA
BRANCH  12  17
HETATM   17  N2  UNL     1     -12.324  83.414  16.739  1.00  0.00    -0.353 N 
HETATM   18  C10 UNL     1     -12.301  84.737  17.238  1.00  0.00     0.223 C 
HETATM   19  O2  UNL     1     -11.357  85.500  16.995  1.00  0.00    -0.273 OA
ATOM     20  H2  UNL     1     -13.118  82.809  16.945  1.00  0.00     0.163 HD
BRANCH  18  21
HETATM   21  C11 UNL     1     -13.436  85.286  18.101  1.00  0.00     0.092 C 
BRANCH  21  22
HETATM   22  C12 UNL     1     -12.839  85.507  19.416  1.00  0.00     0.127 C 
BRANCH  22  23
HETATM   23  C13 UNL     1     -12.200  84.423  20.153  1.00  0.00     0.173 C 
HETATM   24  O3  UNL     1     -11.358  84.645  21.059  1.00  0.00    -0.648 OA
HETATM   25  O4  UNL     1     -12.461  83.070  19.919  1.00  0.00    -0.648 OA
ENDBRANCH  22  23
ENDBRANCH  21  22
BRANCH  21  26
HETATM   26  C14 UNL     1     -14.078  86.408  17.342  1.00  0.00    -0.001 C 
HETATM   27  C15 UNL     1     -15.108  86.072  16.344  1.00  0.00     0.011 C 
HETATM   28  C16 UNL     1     -16.434  86.717  16.399  1.00  0.00     0.079 C 
HETATM   29  C17 UNL     1     -16.278  88.159  16.832  1.00  0.00     0.243 C 
HETATM   30  F1  UNL     1     -17.520  88.783  16.845  1.00  0.00    -0.206 F 
HETATM   31  F2  UNL     1     -15.353  88.848  16.105  1.00  0.00    -0.206 F 
HETATM   32  C18 UNL     1     -15.791  88.041  18.274  1.00  0.00     0.079 C 
HETATM   33  C19 UNL     1     -14.378  87.601  18.219  1.00  0.00     0.011 C 
ENDBRANCH  21  26
ENDBRANCH  18  21
ENDBRANCH  12  17
BRANCH  14  34
HETATM   34  O1  UNL     1     -10.788  81.534  17.831  1.00  0.00    -0.393 OA
ATOM     35  H1  UNL     1     -10.119  82.171  18.051  1.00  0.00     0.210 HD
ENDBRANCH  14  34
ENDBRANCH   1   5
TORSDOF 7
ENDMDL
MODEL 5
REMARK VINA RESULT: -8.001778806      4.014      5.686
REMARK  7 active torsions:
REMARK  status: ('A' for Active; 'I' for Inactive)
REMARK    1  A    between atoms: C4_4  and  C5_5 
REMARK    2  A    between atoms: C8_9  and  O1_10 
REMARK    3  A    between atoms: C9_12  and  N2_13 
REMARK       I    between atoms: N2_13  and  C10_15 
REMARK    4  A    between atoms: C10_15  and  C11_17 
REMARK    5  A    between atoms: C11_17  and  C12_18 
REMARK    6  A    between atoms: C11_17  and  C14_22 
REMARK    7  A    between atoms: C12_18  and  C13_19 
ROOT
HETATM    1  C5  UNL     1     -12.130  84.272  20.424  1.00  0.00    -0.008 C 
HETATM    2  C6  UNL     1     -13.381  83.983  20.759  1.00  0.00     0.090 C 
HETATM    3  C7  UNL     1     -13.771  82.674  21.148  1.00  0.00     0.087 C 
HETATM    4  N1  UNL     1     -14.115  81.594  21.470  1.00  0.00    -0.192 NA
ENDROOT
BRANCH   1   5
HETATM    5  C4  UNL     1     -11.051  83.269  20.428  1.00  0.00     0.048 C 
HETATM    6  C2  UNL     1      -9.812  83.780  21.121  1.00  0.00    -0.025 C 
HETATM    7  C1  UNL     1     -10.210  84.636  22.279  1.00  0.00     0.016 C 
HETATM    8  C3  UNL     1      -9.108  82.544  21.699  1.00  0.00     0.016 C 
HETATM    9  C23 UNL     1      -8.857  84.479  20.253  1.00  0.00     0.102 C 
HETATM   10  C20 UNL     1      -8.663  83.898  18.864  1.00  0.00     0.050 C 
HETATM   11  C22 UNL     1      -9.149  85.882  19.967  1.00  0.00     0.264 C 
HETATM   12  C9  UNL     1      -9.998  83.717  18.205  1.00  0.00     0.120 C 
HETATM   13  C21 UNL     1      -7.853  85.035  18.272  1.00  0.00     0.186 C 
HETATM   14  C8  UNL     1     -10.761  82.715  19.070  1.00  0.00     0.149 C 
HETATM   15  O5  UNL     1      -8.622  86.146  18.692  1.00  0.00    -0.321 OA
HETATM   16  O6  UNL     1      -9.734  86.785  20.618  1.00  0.00    -0.265 OA
BRANCH  12  17
HETATM   17  N2  UNL     1      -9.953  83.151  16.875  1.00  0.00    -0.353 N 
HETATM   18  C10 UNL     1     -10.575  83.813  15.791  1.00  0.00     0.223 C 
HETATM   19  O2  UNL     1     -11.159  84.893  15.947  1.00  0.00    -0.273 OA
ATOM     20  H2  UNL     1      -9.469  82.267  16.718  1.00  0.00     0.163 HD
BRANCH  18  21
HETATM   21  C11 UNL     1     -10.559  83.227  14.380  1.00  0.00     0.092 C 
BRANCH  21  22
HETATM   22  C12 UNL     1     -11.964  83.130  13.993  1.00  0.00     0.127 C 
BRANCH  22  23
HETATM   23  C13 UNL     1     -12.632  81.839  13.875  1.00  0.00     0.173 C 
HETATM   24  O3  UNL     1     -12.097  80.868  13.282  1.00  0.00    -0.648 OA
HETATM   25  O4  UNL     1     -13.901  81.573  14.398  1.00  0.00    -0.648 OA
ENDBRANCH  22  23
ENDBRANCH  21  22
BRANCH  21  26
HETATM   26  C14 UNL     1      -9.585  84.028  13.570  1.00  0.00    -0.001 C 
HETATM   27  C15 UNL     1      -9.923  85.430  13.264  1.00  0.00     0.011 C 
HETATM   28  C16 UNL     1      -8.971  86.510  13.585  1.00  0.00     0.079 C 
HETATM   29  C17 UNL     1      -7.557  86.029  13.341  1.00  0.00     0.243 C 
HETATM   30  F1  UNL     1      -6.659  87.057  13.601  1.00  0.00    -0.206 F 
HETATM   31  F2  UNL     1      -7.377  85.476  12.108  1.00  0.00    -0.206 F 
HETATM   32  C18 UNL     1      -7.366  84.950  14.403  1.00  0.00     0.079 C 
HETATM   33  C19 UNL     1      -8.151  83.772  13.970  1.00  0.00     0.011 C 
ENDBRANCH  21  26
ENDBRANCH  18  21
ENDBRANCH  12  17
BRANCH  14  34
HETATM   34  O1  UNL     1     -11.964  82.394  18.447  1.00  0.00    -0.393 OA
ATOM     35  H1  UNL     1     -12.613  83.050  18.674  1.00  0.00     0.210 HD
ENDBRANCH  14  34
ENDBRANCH   1   5
TORSDOF 7
ENDMDL
