MODEL 1
REMARK VINA RESULT: -8.033429551      0.000      0.000
REMARK  7 active torsions:
REMARK  status: ('A' for Active; 'I' for Inactive)
REMARK    1  A    between atoms: C1_2  and  C2_3 
REMARK    2  A    between atoms: C3_4  and  C4_5 
REMARK    3  A    between atoms: C7_8  and  C8_9 
REMARK    4  A    between atoms: C8_9  and  N2_10 
REMARK    5  A    between atoms: N2_10  and  S1_12 
REMARK    6  A    between atoms: S1_12  and  C9_15 
REMARK    7  A    between atoms: N3_24  and  O4_26 
ROOT
HETATM    1  C8  UNL     1     -14.015  82.278  14.454  1.00  0.00     0.197 C 
ENDROOT
BRANCH   1   2
HETATM    2  C7  UNL     1     -12.748  81.797  13.828  1.00  0.00     0.072 A 
HETATM    3  C6  UNL     1     -11.467  82.248  14.148  1.00  0.00     0.037 A 
HETATM    4  C5  UNL     1     -10.565  81.565  13.356  1.00  0.00     0.040 A 
HETATM    5  C4  UNL     1     -11.334  80.729  12.591  1.00  0.00     0.075 A 
HETATM    6  O3  UNL     1     -12.594  80.891  12.893  1.00  0.00    -0.313 OA
BRANCH   5   7
HETATM    7  C3  UNL     1     -10.766  79.801  11.587  1.00  0.00     0.040 C 
HETATM    8  C2  UNL     1     -10.158  78.729  12.043  1.00  0.00     0.049 C 
BRANCH   8   9
HETATM    9  C1  UNL     1      -9.560  77.742  11.210  1.00  0.00     0.135 C 
HETATM   10  N1  UNL     1      -8.908  78.219   9.994  1.00  0.00    -0.081 NA
HETATM   11  N3  UNL     1      -9.540  76.511  11.423  1.00  0.00    -0.255 N 
ATOM     12  H3  UNL     1      -9.053  75.998  10.689  1.00  0.00     0.195 HD
BRANCH  11  13
HETATM   13  O4  UNL     1      -9.999  75.719  12.369  1.00  0.00    -0.288 OA
ATOM     14  H4  UNL     1      -9.704  74.913  12.775  1.00  0.00     0.244 HD
ENDBRANCH  11  13
ENDBRANCH   8   9
ENDBRANCH   5   7
ENDBRANCH   1   2
BRANCH   1  15
HETATM   15  N2  UNL     1     -13.680  83.397  15.293  1.00  0.00    -0.309 N 
ATOM     16  H2  UNL     1     -12.761  83.527  15.716  1.00  0.00     0.172 HD
BRANCH  15  17
HETATM   17  S1  UNL     1     -14.980  84.490  15.510  1.00  0.00     0.259 S 
HETATM   18  O1  UNL     1     -16.182  83.666  15.946  1.00  0.00    -0.201 OA
HETATM   19  O2  UNL     1     -15.353  85.181  14.254  1.00  0.00    -0.201 OA
BRANCH  17  20
HETATM   20  C9  UNL     1     -14.682  85.647  16.774  1.00  0.00     0.082 A 
HETATM   21  C10 UNL     1     -13.549  85.529  17.553  1.00  0.00     0.044 A 
HETATM   22  C11 UNL     1     -13.265  86.428  18.576  1.00  0.00     0.013 A 
HETATM   23 BR1  UNL     1     -11.658  86.174  19.605  1.00  0.00    -0.051 Br
HETATM   24  C12 UNL     1     -14.115  87.474  18.846  1.00  0.00     0.038 A 
HETATM   25  C13 UNL     1     -15.250  87.605  18.076  1.00  0.00     0.013 A 
HETATM   26 BR2  UNL     1     -16.413  89.061  18.468  1.00  0.00    -0.051 Br
HETATM   27  C14 UNL     1     -15.523  86.704  17.059  1.00  0.00     0.044 A 
ENDBRANCH  17  20
ENDBRANCH  15  17
ENDBRANCH   1  15
TORSDOF 7
ENDMDL
MODEL 2
REMARK VINA RESULT: -7.866018334      5.036      8.962
REMARK  7 active torsions:
REMARK  status: ('A' for Active; 'I' for Inactive)
REMARK    1  A    between atoms: C1_2  and  C2_3 
REMARK    2  A    between atoms: C3_4  and  C4_5 
REMARK    3  A    between atoms: C7_8  and  C8_9 
REMARK    4  A    between atoms: C8_9  and  N2_10 
REMARK    5  A    between atoms: N2_10  and  S1_12 
REMARK    6  A    between atoms: S1_12  and  C9_15 
REMARK    7  A    between atoms: N3_24  and  O4_26 
ROOT
HETATM    1  C8  UNL     1      -9.406  79.812  19.212  1.00  0.00     0.197 C 
ENDROOT
BRANCH   1   2
HETATM    2  C7  UNL     1      -9.939  81.013  19.920  1.00  0.00     0.072 A 
HETATM    3  C6  UNL     1      -9.329  81.649  21.002  1.00  0.00     0.037 A 
HETATM    4  C5  UNL     1     -10.125  82.715  21.373  1.00  0.00     0.040 A 
HETATM    5  C4  UNL     1     -11.182  82.683  20.503  1.00  0.00     0.075 A 
HETATM    6  O3  UNL     1     -11.039  81.683  19.675  1.00  0.00    -0.313 OA
BRANCH   5   7
HETATM    7  C3  UNL     1     -12.293  83.660  20.542  1.00  0.00     0.040 C 
HETATM    8  C2  UNL     1     -12.753  84.085  19.387  1.00  0.00     0.049 C 
BRANCH   8   9
HETATM    9  C1  UNL     1     -13.815  85.023  19.252  1.00  0.00     0.135 C 
HETATM   10  N1  UNL     1     -13.466  86.332  18.707  1.00  0.00    -0.081 NA
HETATM   11  N3  UNL     1     -15.012  84.831  19.555  1.00  0.00    -0.255 N 
ATOM     12  H3  UNL     1     -15.595  85.648  19.369  1.00  0.00     0.195 HD
BRANCH  11  13
HETATM   13  O4  UNL     1     -15.699  83.827  20.055  1.00  0.00    -0.288 OA
ATOM     14  H4  UNL     1     -16.618  83.655  20.219  1.00  0.00     0.244 HD
ENDBRANCH  11  13
ENDBRANCH   8   9
ENDBRANCH   5   7
ENDBRANCH   1   2
BRANCH   1  15
HETATM   15  N2  UNL     1      -9.122  80.204  17.858  1.00  0.00    -0.309 N 
ATOM     16  H2  UNL     1      -8.576  81.030  17.615  1.00  0.00     0.172 HD
BRANCH  15  17
HETATM   17  S1  UNL     1      -9.794  79.143  16.693  1.00  0.00     0.259 S 
HETATM   18  O1  UNL     1     -10.881  78.345  17.398  1.00  0.00    -0.201 OA
HETATM   19  O2  UNL     1      -8.802  78.173  16.175  1.00  0.00    -0.201 OA
BRANCH  17  20
HETATM   20  C9  UNL     1     -10.563  79.985  15.380  1.00  0.00     0.082 A 
HETATM   21  C10 UNL     1     -10.303  79.603  14.080  1.00  0.00     0.044 A 
HETATM   22  C11 UNL     1     -10.892  80.243  12.995  1.00  0.00     0.013 A 
HETATM   23 BR1  UNL     1     -10.462  79.632  11.221  1.00  0.00    -0.051 Br
HETATM   24  C12 UNL     1     -11.763  81.289  13.186  1.00  0.00     0.038 A 
HETATM   25  C13 UNL     1     -12.033  81.681  14.479  1.00  0.00     0.013 A 
HETATM   26 BR2  UNL     1     -13.242  83.133  14.721  1.00  0.00    -0.051 Br
HETATM   27  C14 UNL     1     -11.440  81.037  15.553  1.00  0.00     0.044 A 
ENDBRANCH  17  20
ENDBRANCH  15  17
ENDBRANCH   1  15
TORSDOF 7
ENDMDL
MODEL 3
REMARK VINA RESULT: -7.805895896      3.678      5.516
REMARK  7 active torsions:
REMARK  status: ('A' for Active; 'I' for Inactive)
REMARK    1  A    between atoms: C1_2  and  C2_3 
REMARK    2  A    between atoms: C3_4  and  C4_5 
REMARK    3  A    between atoms: C7_8  and  C8_9 
REMARK    4  A    between atoms: C8_9  and  N2_10 
REMARK    5  A    between atoms: N2_10  and  S1_12 
REMARK    6  A    between atoms: S1_12  and  C9_15 
REMARK    7  A    between atoms: N3_24  and  O4_26 
ROOT
HETATM    1  C8  UNL     1     -15.816  87.176  17.217  1.00  0.00     0.197 C 
ENDROOT
BRANCH   1   2
HETATM    2  C7  UNL     1     -15.352  86.033  16.377  1.00  0.00     0.072 A 
HETATM    3  C6  UNL     1     -16.128  85.353  15.439  1.00  0.00     0.037 A 
HETATM    4  C5  UNL     1     -15.345  84.367  14.873  1.00  0.00     0.040 A 
HETATM    5  C4  UNL     1     -14.128  84.489  15.488  1.00  0.00     0.075 A 
HETATM    6  O3  UNL     1     -14.170  85.466  16.354  1.00  0.00    -0.313 OA
BRANCH   5   7
HETATM    7  C3  UNL     1     -12.973  83.616  15.179  1.00  0.00     0.040 C 
HETATM    8  C2  UNL     1     -13.241  82.380  14.821  1.00  0.00     0.049 C 
BRANCH   8   9
HETATM    9  C1  UNL     1     -12.246  81.416  14.493  1.00  0.00     0.135 C 
HETATM   10  N1  UNL     1     -12.161  81.016  13.091  1.00  0.00    -0.081 NA
HETATM   11  N3  UNL     1     -11.442  80.885  15.288  1.00  0.00    -0.255 N 
ATOM     12  H3  UNL     1     -10.818  80.224  14.825  1.00  0.00     0.195 HD
BRANCH  11  13
HETATM   13  O4  UNL     1     -11.209  80.976  16.579  1.00  0.00    -0.288 OA
ATOM     14  H4  UNL     1     -10.475  81.255  17.113  1.00  0.00     0.244 HD
ENDBRANCH  11  13
ENDBRANCH   8   9
ENDBRANCH   5   7
ENDBRANCH   1   2
BRANCH   1  15
HETATM   15  N2  UNL     1     -15.637  86.797  18.593  1.00  0.00    -0.309 N 
ATOM     16  H2  UNL     1     -16.329  86.269  19.125  1.00  0.00     0.172 HD
BRANCH  15  17
HETATM   17  S1  UNL     1     -14.145  87.323  19.249  1.00  0.00     0.259 S 
HETATM   18  O1  UNL     1     -14.474  88.182  20.461  1.00  0.00    -0.201 OA
HETATM   19  O2  UNL     1     -13.380  88.170  18.306  1.00  0.00    -0.201 OA
BRANCH  17  20
HETATM   20  C9  UNL     1     -13.160  86.009  19.821  1.00  0.00     0.082 A 
HETATM   21  C10 UNL     1     -13.759  84.827  20.207  1.00  0.00     0.044 A 
HETATM   22  C11 UNL     1     -13.017  83.746  20.671  1.00  0.00     0.013 A 
HETATM   23 BR1  UNL     1     -13.949  82.141  21.184  1.00  0.00    -0.051 Br
HETATM   24  C12 UNL     1     -11.648  83.823  20.762  1.00  0.00     0.038 A 
HETATM   25  C13 UNL     1     -11.036  84.997  20.380  1.00  0.00     0.013 A 
HETATM   26 BR2  UNL     1      -9.138  85.081  20.514  1.00  0.00    -0.051 Br
HETATM   27  C14 UNL     1     -11.785  86.068  19.919  1.00  0.00     0.044 A 
ENDBRANCH  17  20
ENDBRANCH  15  17
ENDBRANCH   1  15
TORSDOF 7
ENDMDL
MODEL 4
REMARK VINA RESULT: -7.784079992      4.997      9.101
REMARK  7 active torsions:
REMARK  status: ('A' for Active; 'I' for Inactive)
REMARK    1  A    between atoms: C1_2  and  C2_3 
REMARK    2  A    between atoms: C3_4  and  C4_5 
REMARK    3  A    between atoms: C7_8  and  C8_9 
REMARK    4  A    between atoms: C8_9  and  N2_10 
REMARK    5  A    between atoms: N2_10  and  S1_12 
REMARK    6  A    between atoms: S1_12  and  C9_15 
REMARK    7  A    between atoms: N3_24  and  O4_26 
ROOT
HETATM    1  C8  UNL     1      -9.383  79.949  19.212  1.00  0.00     0.197 C 
ENDROOT
BRANCH   1   2
HETATM    2  C7  UNL     1      -9.974  81.136  19.896  1.00  0.00     0.072 A 
HETATM    3  C6  UNL     1      -9.391  81.829  20.958  1.00  0.00     0.037 A 
HETATM    4  C5  UNL     1     -10.240  82.859  21.312  1.00  0.00     0.040 A 
HETATM    5  C4  UNL     1     -11.300  82.750  20.452  1.00  0.00     0.075 A 
HETATM    6  O3  UNL     1     -11.110  81.740  19.646  1.00  0.00    -0.313 OA
BRANCH   5   7
HETATM    7  C3  UNL     1     -12.462  83.667  20.479  1.00  0.00     0.040 C 
HETATM    8  C2  UNL     1     -12.818  84.209  19.337  1.00  0.00     0.049 C 
BRANCH   8   9
HETATM    9  C1  UNL     1     -13.911  85.110  19.193  1.00  0.00     0.135 C 
HETATM   10  N1  UNL     1     -13.610  86.415  18.612  1.00  0.00    -0.081 NA
HETATM   11  N3  UNL     1     -15.097  84.889  19.515  1.00  0.00    -0.255 N 
ATOM     12  H3  UNL     1     -15.707  85.682  19.317  1.00  0.00     0.195 HD
BRANCH  11  13
HETATM   13  O4  UNL     1     -15.747  83.877  20.048  1.00  0.00    -0.288 OA
ATOM     14  H4  UNL     1     -16.620  83.514  19.959  1.00  0.00     0.244 HD
ENDBRANCH  11  13
ENDBRANCH   8   9
ENDBRANCH   5   7
ENDBRANCH   1   2
BRANCH   1  15
HETATM   15  N2  UNL     1      -9.127  80.325  17.847  1.00  0.00    -0.309 N 
ATOM     16  H2  UNL     1      -8.636  81.178  17.582  1.00  0.00     0.172 HD
BRANCH  15  17
HETATM   17  S1  UNL     1      -9.732  79.195  16.711  1.00  0.00     0.259 S 
HETATM   18  O1  UNL     1     -10.835  78.414  17.410  1.00  0.00    -0.201 OA
HETATM   19  O2  UNL     1      -8.704  78.218  16.284  1.00  0.00    -0.201 OA
BRANCH  17  20
HETATM   20  C9  UNL     1     -10.459  79.956  15.327  1.00  0.00     0.082 A 
HETATM   21  C10 UNL     1     -11.340  81.002  15.509  1.00  0.00     0.044 A 
HETATM   22  C11 UNL     1     -11.949  81.644  14.436  1.00  0.00     0.013 A 
HETATM   23 BR1  UNL     1     -13.162  83.094  14.797  1.00  0.00    -0.051 Br
HETATM   24  C12 UNL     1     -11.688  81.251  13.145  1.00  0.00     0.038 A 
HETATM   25  C13 UNL     1     -10.811  80.208  12.947  1.00  0.00     0.013 A 
HETATM   26 BR2  UNL     1     -10.466  79.679  11.150  1.00  0.00    -0.051 Br
HETATM   27  C14 UNL     1     -10.210  79.575  14.024  1.00  0.00     0.044 A 
ENDBRANCH  17  20
ENDBRANCH  15  17
ENDBRANCH   1  15
TORSDOF 7
ENDMDL
MODEL 5
REMARK VINA RESULT: -7.620380426      5.542      9.192
REMARK  7 active torsions:
REMARK  status: ('A' for Active; 'I' for Inactive)
REMARK    1  A    between atoms: C1_2  and  C2_3 
REMARK    2  A    between atoms: C3_4  and  C4_5 
REMARK    3  A    between atoms: C7_8  and  C8_9 
REMARK    4  A    between atoms: C8_9  and  N2_10 
REMARK    5  A    between atoms: N2_10  and  S1_12 
REMARK    6  A    between atoms: S1_12  and  C9_15 
REMARK    7  A    between atoms: N3_24  and  O4_26 
ROOT
HETATM    1  C8  UNL     1      -8.584  78.977  18.647  1.00  0.00     0.197 C 
ENDROOT
BRANCH   1   2
HETATM    2  C7  UNL     1      -9.056  80.061  19.557  1.00  0.00     0.072 A 
HETATM    3  C6  UNL     1      -8.314  80.623  20.596  1.00  0.00     0.037 A 
HETATM    4  C5  UNL     1      -9.093  81.590  21.201  1.00  0.00     0.040 A 
HETATM    5  C4  UNL     1     -10.273  81.575  20.505  1.00  0.00     0.075 A 
HETATM    6  O3  UNL     1     -10.214  80.676  19.560  1.00  0.00    -0.313 OA
BRANCH   5   7
HETATM    7  C3  UNL     1     -11.411  82.466  20.823  1.00  0.00     0.040 C 
HETATM    8  C2  UNL     1     -12.617  81.972  20.658  1.00  0.00     0.049 C 
BRANCH   8   9
HETATM    9  C1  UNL     1     -13.814  82.699  20.918  1.00  0.00     0.135 C 
HETATM   10  N1  UNL     1     -14.607  82.264  22.064  1.00  0.00    -0.081 NA
HETATM   11  N3  UNL     1     -14.246  83.669  20.260  1.00  0.00    -0.255 N 
ATOM     12  H3  UNL     1     -15.123  84.031  20.633  1.00  0.00     0.195 HD
BRANCH  11  13
HETATM   13  O4  UNL     1     -13.839  84.334  19.200  1.00  0.00    -0.288 OA
ATOM     14  H4  UNL     1     -13.617  84.105  18.305  1.00  0.00     0.244 HD
ENDBRANCH  11  13
ENDBRANCH   8   9
ENDBRANCH   5   7
ENDBRANCH   1   2
BRANCH   1  15
HETATM   15  N2  UNL     1      -8.676  79.476  17.301  1.00  0.00    -0.309 N 
ATOM     16  H2  UNL     1      -8.082  80.220  16.937  1.00  0.00     0.172 HD
BRANCH  15  17
HETATM   17  S1  UNL     1      -9.884  78.694  16.373  1.00  0.00     0.259 S 
HETATM   18  O1  UNL     1     -11.075  78.473  17.294  1.00  0.00    -0.201 OA
HETATM   19  O2  UNL     1      -9.451  77.364  15.887  1.00  0.00    -0.201 OA
BRANCH  17  20
HETATM   20  C9  UNL     1     -10.452  79.669  15.049  1.00  0.00     0.082 A 
HETATM   21  C10 UNL     1     -11.281  80.744  15.301  1.00  0.00     0.044 A 
HETATM   22  C11 UNL     1     -11.762  81.554  14.278  1.00  0.00     0.013 A 
HETATM   23 BR1  UNL     1     -12.912  83.029  14.736  1.00  0.00    -0.051 Br
HETATM   24  C12 UNL     1     -11.423  81.307  12.969  1.00  0.00     0.038 A 
HETATM   25  C13 UNL     1     -10.597  80.237  12.703  1.00  0.00     0.013 A 
HETATM   26 BR2  UNL     1     -10.141  79.912  10.882  1.00  0.00    -0.051 Br
HETATM   27  C14 UNL     1     -10.123  79.436  13.730  1.00  0.00     0.044 A 
ENDBRANCH  17  20
ENDBRANCH  15  17
ENDBRANCH   1  15
TORSDOF 7
ENDMDL
