MODEL 1
REMARK VINA RESULT: -8.325305732      0.000      0.000
REMARK  10 active torsions:
REMARK  status: ('A' for Active; 'I' for Inactive)
REMARK    1  A    between atoms: O1_2  and  C2_3 
REMARK    2  A    between atoms: C3_4  and  O2_5 
REMARK    3  A    between atoms: C4_7  and  C5_8 
REMARK    4  A    between atoms: C5_8  and  O3_9 
REMARK    5  A    between atoms: C7_12  and  C8_13 
REMARK    6  A    between atoms: C8_13  and  O4_14 
REMARK    7  A    between atoms: C8_13  and  C9_16 
REMARK    8  A    between atoms: C10_17  and  C11_18 
REMARK    9  A    between atoms: C12_19  and  C13_20 
REMARK   10  A    between atoms: C26_35  and  O5_36 
ROOT
HETATM    1  C9  UNL     1     -10.401  82.303  14.279  1.00  0.00     0.036 C 
HETATM    2  C10 UNL     1     -11.098  83.485  13.607  1.00  0.00     0.077 C 
HETATM    3  C19 UNL     1     -10.034  84.538  13.574  1.00  0.00     0.010 C 
HETATM    4  C20 UNL     1      -9.697  84.904  15.001  1.00  0.00     0.007 C 
HETATM    5  C21 UNL     1      -8.907  83.713  15.561  1.00  0.00     0.006 C 
HETATM    6  C22 UNL     1      -8.962  82.719  14.412  1.00  0.00     0.002 C 
HETATM    7  C23 UNL     1      -8.828  83.660  13.240  1.00  0.00    -0.031 A 
HETATM    8  C24 UNL     1      -8.492  83.258  11.889  1.00  0.00     0.011 A 
HETATM    9  C25 UNL     1      -7.584  84.185  12.748  1.00  0.00     0.011 A 
ENDROOT
BRANCH   1  10
HETATM   10  C8  UNL     1     -10.643  81.104  13.462  1.00  0.00     0.130 C 
BRANCH  10  11
HETATM   11  C7  UNL     1      -9.531  80.517  12.688  1.00  0.00     0.047 C 
HETATM   12  C6  UNL     1     -10.208  79.770  11.514  1.00  0.00     0.019 C 
HETATM   13  C4  UNL     1      -9.199  79.066  10.673  1.00  0.00     0.041 C 
HETATM   14  C3  UNL     1      -7.780  79.305  11.054  1.00  0.00     0.155 C 
HETATM   15  C2  UNL     1      -7.473  79.259  12.509  1.00  0.00     0.179 C 
HETATM   16  C26 UNL     1      -8.723  79.451  13.380  1.00  0.00     0.159 C 
BRANCH  13  17
HETATM   17  C5  UNL     1      -9.516  77.570  10.561  1.00  0.00     0.171 C 
BRANCH  17  18
HETATM   18  O3  UNL     1      -9.264  77.116   9.268  1.00  0.00    -0.400 OA
ATOM     19  H3  UNL     1      -9.222  76.167   9.253  1.00  0.00     0.209 HD
ENDBRANCH  17  18
ENDBRANCH  13  17
BRANCH  14  20
HETATM   20  O2  UNL     1      -7.002  78.331  10.382  1.00  0.00    -0.392 OA
ATOM     21  H2  UNL     1      -7.400  78.139   9.541  1.00  0.00     0.210 HD
ENDBRANCH  14  20
BRANCH  15  22
HETATM   22  O1  UNL     1      -6.786  78.116  12.835  1.00  0.00    -0.386 OA
HETATM   23  C1  UNL     1      -5.530  78.371  13.383  1.00  0.00     0.202 C 
ENDBRANCH  15  22
BRANCH  16  24
HETATM   24  O5  UNL     1      -8.344  79.728  14.664  1.00  0.00    -0.388 OA
HETATM   25  C27 UNL     1      -8.702  78.688  15.547  1.00  0.00     0.202 C 
ENDBRANCH  16  24
ENDBRANCH  10  11
BRANCH  10  26
HETATM   26  O4  UNL     1     -11.231  80.111  14.242  1.00  0.00    -0.395 OA
ATOM     27  H4  UNL     1     -10.938  80.206  15.141  1.00  0.00     0.210 HD
ENDBRANCH  10  26
ENDBRANCH   1  10
BRANCH   2  28
HETATM   28  C11 UNL     1     -12.212  83.998  14.400  1.00  0.00    -0.095 C 
HETATM   29  C12 UNL     1     -13.140  84.430  15.038  1.00  0.00    -0.063 C 
BRANCH  29  30
HETATM   30  C13 UNL     1     -14.245  84.970  15.815  1.00  0.00     0.056 A 
HETATM   31  C14 UNL     1     -13.997  85.274  17.134  1.00  0.00     0.027 A 
HETATM   32  C15 UNL     1     -15.044  85.787  17.873  1.00  0.00     0.044 A 
HETATM   33  C16 UNL     1     -16.297  85.996  17.337  1.00  0.00     0.119 A 
HETATM   34  F1  UNL     1     -17.315  86.500  18.075  1.00  0.00    -0.206 F 
HETATM   35  C17 UNL     1     -16.532  85.688  16.015  1.00  0.00     0.086 A 
HETATM   36  C18 UNL     1     -15.485  85.167  15.246  1.00  0.00     0.138 A 
HETATM   37  F2  UNL     1     -15.721  84.866  13.949  1.00  0.00    -0.204 F 
ENDBRANCH  29  30
ENDBRANCH   2  28
TORSDOF 10
ENDMDL
MODEL 2
REMARK VINA RESULT: -8.279433462      3.089      5.072
REMARK  10 active torsions:
REMARK  status: ('A' for Active; 'I' for Inactive)
REMARK    1  A    between atoms: O1_2  and  C2_3 
REMARK    2  A    between atoms: C3_4  and  O2_5 
REMARK    3  A    between atoms: C4_7  and  C5_8 
REMARK    4  A    between atoms: C5_8  and  O3_9 
REMARK    5  A    between atoms: C7_12  and  C8_13 
REMARK    6  A    between atoms: C8_13  and  O4_14 
REMARK    7  A    between atoms: C8_13  and  C9_16 
REMARK    8  A    between atoms: C10_17  and  C11_18 
REMARK    9  A    between atoms: C12_19  and  C13_20 
REMARK   10  A    between atoms: C26_35  and  O5_36 
ROOT
HETATM    1  C9  UNL     1     -11.062  83.104  18.292  1.00  0.00     0.036 C 
HETATM    2  C10 UNL     1     -11.059  84.582  18.680  1.00  0.00     0.077 C 
HETATM    3  C19 UNL     1     -11.161  84.545  20.173  1.00  0.00     0.010 C 
HETATM    4  C20 UNL     1     -12.497  83.938  20.533  1.00  0.00     0.007 C 
HETATM    5  C21 UNL     1     -12.374  82.441  20.216  1.00  0.00     0.006 C 
HETATM    6  C22 UNL     1     -10.990  82.355  19.595  1.00  0.00     0.002 C 
HETATM    7  C23 UNL     1     -10.250  83.351  20.454  1.00  0.00    -0.031 A 
HETATM    8  C24 UNL     1      -8.807  83.459  20.541  1.00  0.00     0.011 A 
HETATM    9  C25 UNL     1      -9.702  83.065  21.752  1.00  0.00     0.011 A 
ENDROOT
BRANCH   1  10
HETATM   10  C8  UNL     1      -9.945  82.872  17.363  1.00  0.00     0.130 C 
BRANCH  10  11
HETATM   11  C7  UNL     1     -10.226  82.359  16.007  1.00  0.00     0.047 C 
HETATM   12  C6  UNL     1     -11.618  82.929  15.641  1.00  0.00     0.019 C 
HETATM   13  C4  UNL     1     -12.067  82.436  14.308  1.00  0.00     0.041 C 
HETATM   14  C3  UNL     1     -11.072  81.610  13.572  1.00  0.00     0.155 C 
HETATM   15  C2  UNL     1     -10.349  80.582  14.370  1.00  0.00     0.179 C 
HETATM   16  C26 UNL     1     -10.399  80.868  15.877  1.00  0.00     0.159 C 
BRANCH  13  17
HETATM   17  C5  UNL     1     -13.429  81.739  14.404  1.00  0.00     0.171 C 
BRANCH  17  18
HETATM   18  O3  UNL     1     -14.412  82.647  14.793  1.00  0.00    -0.400 OA
ATOM     19  H3  UNL     1     -14.502  83.336  14.145  1.00  0.00     0.209 HD
ENDBRANCH  17  18
ENDBRANCH  13  17
BRANCH  14  20
HETATM   20  O2  UNL     1     -11.764  80.975  12.512  1.00  0.00    -0.392 OA
ATOM     21  H2  UNL     1     -12.700  81.055  12.658  1.00  0.00     0.210 HD
ENDBRANCH  14  20
BRANCH  15  22
HETATM   22  O1  UNL     1     -10.793  79.318  14.067  1.00  0.00    -0.386 OA
HETATM   23  C1  UNL     1      -9.792  78.499  13.549  1.00  0.00     0.202 C 
ENDBRANCH  15  22
BRANCH  16  24
HETATM   24  O5  UNL     1      -9.464  80.101  16.517  1.00  0.00    -0.388 OA
HETATM   25  C27 UNL     1     -10.066  79.113  17.323  1.00  0.00     0.202 C 
ENDBRANCH  16  24
ENDBRANCH  10  11
BRANCH  10  26
HETATM   26  O4  UNL     1      -9.166  84.022  17.264  1.00  0.00    -0.395 OA
ATOM     27  H4  UNL     1      -9.609  84.652  16.707  1.00  0.00     0.210 HD
ENDBRANCH  10  26
ENDBRANCH   1  10
BRANCH   2  28
HETATM   28  C11 UNL     1     -12.227  85.294  18.167  1.00  0.00    -0.095 C 
HETATM   29  C12 UNL     1     -13.180  85.886  17.727  1.00  0.00    -0.063 C 
BRANCH  29  30
HETATM   30  C13 UNL     1     -14.325  86.620  17.210  1.00  0.00     0.056 A 
HETATM   31  C14 UNL     1     -14.219  87.990  17.148  1.00  0.00     0.027 A 
HETATM   32  C15 UNL     1     -15.303  88.688  16.657  1.00  0.00     0.044 A 
HETATM   33  C16 UNL     1     -16.459  88.063  16.239  1.00  0.00     0.119 A 
HETATM   34  F1  UNL     1     -17.516  88.762  15.759  1.00  0.00    -0.206 F 
HETATM   35  C17 UNL     1     -16.553  86.690  16.305  1.00  0.00     0.086 A 
HETATM   36  C18 UNL     1     -15.465  85.961  16.800  1.00  0.00     0.138 A 
HETATM   37  F2  UNL     1     -15.562  84.614  16.863  1.00  0.00    -0.204 F 
ENDBRANCH  29  30
ENDBRANCH   2  28
TORSDOF 10
ENDMDL
MODEL 3
REMARK VINA RESULT: -8.273874163      3.416      5.792
REMARK  10 active torsions:
REMARK  status: ('A' for Active; 'I' for Inactive)
REMARK    1  A    between atoms: O1_2  and  C2_3 
REMARK    2  A    between atoms: C3_4  and  O2_5 
REMARK    3  A    between atoms: C4_7  and  C5_8 
REMARK    4  A    between atoms: C5_8  and  O3_9 
REMARK    5  A    between atoms: C7_12  and  C8_13 
REMARK    6  A    between atoms: C8_13  and  O4_14 
REMARK    7  A    between atoms: C8_13  and  C9_16 
REMARK    8  A    between atoms: C10_17  and  C11_18 
REMARK    9  A    between atoms: C12_19  and  C13_20 
REMARK   10  A    between atoms: C26_35  and  O5_36 
ROOT
HETATM    1  C9  UNL     1      -9.851  80.887  15.470  1.00  0.00     0.036 C 
HETATM    2  C10 UNL     1     -11.213  80.677  14.810  1.00  0.00     0.077 C 
HETATM    3  C19 UNL     1     -10.881  80.605  13.352  1.00  0.00     0.010 C 
HETATM    4  C20 UNL     1     -10.328  81.949  12.935  1.00  0.00     0.007 C 
HETATM    5  C21 UNL     1      -8.923  82.029  13.546  1.00  0.00     0.006 C 
HETATM    6  C22 UNL     1      -8.849  80.746  14.357  1.00  0.00     0.002 C 
HETATM    7  C23 UNL     1      -9.583  79.805  13.432  1.00  0.00    -0.031 A 
HETATM    8  C24 UNL     1      -9.549  78.359  13.525  1.00  0.00     0.011 A 
HETATM    9  C25 UNL     1      -8.993  79.143  12.300  1.00  0.00     0.011 A 
ENDROOT
BRANCH   1  10
HETATM   10  C8  UNL     1      -9.720  79.920  16.570  1.00  0.00     0.130 C 
BRANCH  10  11
HETATM   11  C7  UNL     1      -8.917  80.277  17.757  1.00  0.00     0.047 C 
HETATM   12  C6  UNL     1      -8.114  78.999  18.099  1.00  0.00     0.019 C 
HETATM   13  C4  UNL     1      -7.297  79.192  19.330  1.00  0.00     0.041 C 
HETATM   14  C3  UNL     1      -7.329  80.565  19.902  1.00  0.00     0.155 C 
HETATM   15  C2  UNL     1      -8.664  81.218  19.971  1.00  0.00     0.179 C 
HETATM   16  C26 UNL     1      -9.682  80.574  19.020  1.00  0.00     0.159 C 
BRANCH  13  17
HETATM   17  C5  UNL     1      -7.620  78.126  20.384  1.00  0.00     0.171 C 
BRANCH  17  18
HETATM   18  O3  UNL     1      -8.931  78.269  20.833  1.00  0.00    -0.400 OA
ATOM     19  H3  UNL     1      -9.042  77.839  21.672  1.00  0.00     0.209 HD
ENDBRANCH  17  18
ENDBRANCH  13  17
BRANCH  14  20
HETATM   20  O2  UNL     1      -6.782  80.483  21.205  1.00  0.00    -0.392 OA
ATOM     21  H2  UNL     1      -5.836  80.558  21.153  1.00  0.00     0.210 HD
ENDBRANCH  14  20
BRANCH  15  22
HETATM   22  O1  UNL     1      -9.124  81.270  21.264  1.00  0.00    -0.386 OA
HETATM   23  C1  UNL     1      -9.153  82.564  21.781  1.00  0.00     0.202 C 
ENDBRANCH  15  22
BRANCH  16  24
HETATM   24  O5  UNL     1     -10.763  81.401  18.882  1.00  0.00    -0.388 OA
HETATM   25  C27 UNL     1     -10.376  82.702  18.497  1.00  0.00     0.202 C 
ENDBRANCH  16  24
ENDBRANCH  10  11
BRANCH  10  26
HETATM   26  O4  UNL     1     -10.982  79.499  16.982  1.00  0.00    -0.395 OA
ATOM     27  H4  UNL     1     -11.055  78.560  16.854  1.00  0.00     0.210 HD
ENDBRANCH  10  26
ENDBRANCH   1  10
BRANCH   2  28
HETATM   28  C11 UNL     1     -12.111  81.811  15.012  1.00  0.00    -0.095 C 
HETATM   29  C12 UNL     1     -12.854  82.742  15.199  1.00  0.00    -0.063 C 
BRANCH  29  30
HETATM   30  C13 UNL     1     -13.769  83.852  15.414  1.00  0.00     0.056 A 
HETATM   31  C14 UNL     1     -14.908  83.887  14.645  1.00  0.00     0.027 A 
HETATM   32  C15 UNL     1     -15.778  84.940  14.848  1.00  0.00     0.044 A 
HETATM   33  C16 UNL     1     -15.539  85.930  15.777  1.00  0.00     0.119 A 
HETATM   34  F1  UNL     1     -16.402  86.956  15.966  1.00  0.00    -0.206 F 
HETATM   35  C17 UNL     1     -14.394  85.883  16.543  1.00  0.00     0.086 A 
HETATM   36  C18 UNL     1     -13.497  84.825  16.354  1.00  0.00     0.138 A 
HETATM   37  F2  UNL     1     -12.375  84.784  17.106  1.00  0.00    -0.204 F 
ENDBRANCH  29  30
ENDBRANCH   2  28
TORSDOF 10
ENDMDL
MODEL 4
REMARK VINA RESULT: -8.221883896      5.572      9.295
REMARK  10 active torsions:
REMARK  status: ('A' for Active; 'I' for Inactive)
REMARK    1  A    between atoms: O1_2  and  C2_3 
REMARK    2  A    between atoms: C3_4  and  O2_5 
REMARK    3  A    between atoms: C4_7  and  C5_8 
REMARK    4  A    between atoms: C5_8  and  O3_9 
REMARK    5  A    between atoms: C7_12  and  C8_13 
REMARK    6  A    between atoms: C8_13  and  O4_14 
REMARK    7  A    between atoms: C8_13  and  C9_16 
REMARK    8  A    between atoms: C10_17  and  C11_18 
REMARK    9  A    between atoms: C12_19  and  C13_20 
REMARK   10  A    between atoms: C26_35  and  O5_36 
ROOT
HETATM    1  C9  UNL     1      -8.628  80.710  19.617  1.00  0.00     0.036 C 
HETATM    2  C10 UNL     1      -9.038  79.365  19.018  1.00  0.00     0.077 C 
HETATM    3  C19 UNL     1      -7.778  78.561  19.086  1.00  0.00     0.010 C 
HETATM    4  C20 UNL     1      -6.758  79.217  18.184  1.00  0.00     0.007 C 
HETATM    5  C21 UNL     1      -6.322  80.497  18.910  1.00  0.00     0.006 C 
HETATM    6  C22 UNL     1      -7.230  80.503  20.129  1.00  0.00     0.002 C 
HETATM    7  C23 UNL     1      -7.259  79.027  20.446  1.00  0.00    -0.031 A 
HETATM    8  C24 UNL     1      -7.706  78.458  21.701  1.00  0.00     0.011 A 
HETATM    9  C25 UNL     1      -6.244  78.327  21.184  1.00  0.00     0.011 A 
ENDROOT
BRANCH   1  10
HETATM   10  C8  UNL     1      -9.628  81.085  20.629  1.00  0.00     0.130 C 
BRANCH  10  11
HETATM   11  C7  UNL     1     -10.043  82.497  20.749  1.00  0.00     0.047 C 
HETATM   12  C6  UNL     1      -9.844  83.097  19.336  1.00  0.00     0.019 C 
HETATM   13  C4  UNL     1     -10.165  84.552  19.320  1.00  0.00     0.041 C 
HETATM   14  C3  UNL     1     -10.701  85.095  20.598  1.00  0.00     0.155 C 
HETATM   15  C2  UNL     1     -10.011  84.655  21.841  1.00  0.00     0.179 C 
HETATM   16  C26 UNL     1      -9.196  83.371  21.637  1.00  0.00     0.159 C 
BRANCH  13  17
HETATM   17  C5  UNL     1      -8.981  85.376  18.800  1.00  0.00     0.171 C 
BRANCH  17  18
HETATM   18  O3  UNL     1      -9.436  86.459  18.051  1.00  0.00    -0.400 OA
ATOM     19  H3  UNL     1      -8.716  87.041  17.840  1.00  0.00     0.209 HD
ENDBRANCH  17  18
ENDBRANCH  13  17
BRANCH  14  20
HETATM   20  O2  UNL     1     -10.640  86.506  20.505  1.00  0.00    -0.392 OA
ATOM     21  H2  UNL     1     -11.510  86.847  20.332  1.00  0.00     0.210 HD
ENDBRANCH  14  20
BRANCH  15  22
HETATM   22  O1  UNL     1      -9.255  85.671  22.373  1.00  0.00    -0.386 OA
HETATM   23  C1  UNL     1      -9.672  86.052  23.647  1.00  0.00     0.202 C 
ENDBRANCH  15  22
BRANCH  16  24
HETATM   24  O5  UNL     1      -8.866  82.843  22.855  1.00  0.00    -0.388 OA
HETATM   25  C27 UNL     1      -7.474  82.874  23.075  1.00  0.00     0.202 C 
ENDBRANCH  16  24
ENDBRANCH  10  11
BRANCH  10  26
HETATM   26  O4  UNL     1     -10.760  80.286  20.494  1.00  0.00    -0.395 OA
ATOM     27  H4  UNL     1     -11.083  80.351  19.603  1.00  0.00     0.210 HD
ENDBRANCH  10  26
ENDBRANCH   1  10
BRANCH   2  28
HETATM   28  C11 UNL     1      -9.426  79.476  17.614  1.00  0.00    -0.095 C 
HETATM   29  C12 UNL     1      -9.748  79.547  16.454  1.00  0.00    -0.063 C 
BRANCH  29  30
HETATM   30  C13 UNL     1     -10.113  79.634  15.049  1.00  0.00     0.056 A 
HETATM   31  C14 UNL     1     -10.894  80.700  14.666  1.00  0.00     0.027 A 
HETATM   32  C15 UNL     1     -11.240  80.785  13.333  1.00  0.00     0.044 A 
HETATM   33  C16 UNL     1     -10.834  79.853  12.401  1.00  0.00     0.119 A 
HETATM   34  F1  UNL     1     -11.182  79.950  11.095  1.00  0.00    -0.206 F 
HETATM   35  C17 UNL     1     -10.052  78.790  12.797  1.00  0.00     0.086 A 
HETATM   36  C18 UNL     1      -9.688  78.684  14.144  1.00  0.00     0.138 A 
HETATM   37  F2  UNL     1      -8.921  77.639  14.528  1.00  0.00    -0.204 F 
ENDBRANCH  29  30
ENDBRANCH   2  28
TORSDOF 10
ENDMDL
MODEL 5
REMARK VINA RESULT: -8.194199390      5.102      9.332
REMARK  10 active torsions:
REMARK  status: ('A' for Active; 'I' for Inactive)
REMARK    1  A    between atoms: O1_2  and  C2_3 
REMARK    2  A    between atoms: C3_4  and  O2_5 
REMARK    3  A    between atoms: C4_7  and  C5_8 
REMARK    4  A    between atoms: C5_8  and  O3_9 
REMARK    5  A    between atoms: C7_12  and  C8_13 
REMARK    6  A    between atoms: C8_13  and  O4_14 
REMARK    7  A    between atoms: C8_13  and  C9_16 
REMARK    8  A    between atoms: C10_17  and  C11_18 
REMARK    9  A    between atoms: C12_19  and  C13_20 
REMARK   10  A    between atoms: C26_35  and  O5_36 
ROOT
HETATM    1  C9  UNL     1     -11.214  84.262  15.657  1.00  0.00     0.036 C 
HETATM    2  C10 UNL     1     -11.238  84.461  14.142  1.00  0.00     0.077 C 
HETATM    3  C19 UNL     1     -11.864  83.197  13.639  1.00  0.00     0.010 C 
HETATM    4  C20 UNL     1     -10.936  82.052  13.977  1.00  0.00     0.007 C 
HETATM    5  C21 UNL     1     -11.058  81.851  15.493  1.00  0.00     0.006 C 
HETATM    6  C22 UNL     1     -11.979  82.989  15.898  1.00  0.00     0.002 C 
HETATM    7  C23 UNL     1     -12.924  82.998  14.721  1.00  0.00    -0.031 A 
HETATM    8  C24 UNL     1     -14.212  83.661  14.699  1.00  0.00     0.011 A 
HETATM    9  C25 UNL     1     -14.051  82.119  14.569  1.00  0.00     0.011 A 
ENDROOT
BRANCH   1  10
HETATM   10  C8  UNL     1     -11.772  85.469  16.286  1.00  0.00     0.130 C 
BRANCH  10  11
HETATM   11  C7  UNL     1     -12.236  85.407  17.687  1.00  0.00     0.047 C 
HETATM   12  C6  UNL     1     -13.575  86.184  17.701  1.00  0.00     0.019 C 
HETATM   13  C4  UNL     1     -14.135  86.262  19.080  1.00  0.00     0.041 C 
HETATM   14  C3  UNL     1     -13.378  85.506  20.114  1.00  0.00     0.155 C 
HETATM   15  C2  UNL     1     -11.896  85.635  20.070  1.00  0.00     0.179 C 
HETATM   16  C26 UNL     1     -11.389  86.122  18.706  1.00  0.00     0.159 C 
BRANCH  13  17
HETATM   17  C5  UNL     1     -14.379  87.716  19.499  1.00  0.00     0.171 C 
BRANCH  17  18
HETATM   18  O3  UNL     1     -13.864  88.589  18.543  1.00  0.00    -0.400 OA
ATOM     19  H3  UNL     1     -14.181  89.472  18.697  1.00  0.00     0.209 HD
ENDBRANCH  17  18
ENDBRANCH  13  17
BRANCH  14  20
HETATM   20  O2  UNL     1     -13.847  85.946  21.375  1.00  0.00    -0.392 OA
ATOM     21  H2  UNL     1     -14.391  86.716  21.255  1.00  0.00     0.210 HD
ENDBRANCH  14  20
BRANCH  15  22
HETATM   22  O1  UNL     1     -11.436  86.415  21.103  1.00  0.00    -0.386 OA
HETATM   23  C1  UNL     1     -10.537  85.748  21.933  1.00  0.00     0.202 C 
ENDBRANCH  15  22
BRANCH  16  24
HETATM   24  O5  UNL     1     -10.041  85.907  18.618  1.00  0.00    -0.388 OA
HETATM   25  C27 UNL     1      -9.713  84.557  18.857  1.00  0.00     0.202 C 
ENDBRANCH  16  24
ENDBRANCH  10  11
BRANCH  10  26
HETATM   26  O4  UNL     1     -10.881  86.530  16.147  1.00  0.00    -0.395 OA
ATOM     27  H4  UNL     1     -10.014  86.247  16.416  1.00  0.00     0.210 HD
ENDBRANCH  10  26
ENDBRANCH   1  10
BRANCH   2  28
HETATM   28  C11 UNL     1      -9.897  84.556  13.571  1.00  0.00    -0.095 C 
HETATM   29  C12 UNL     1      -8.789  84.654  13.106  1.00  0.00    -0.063 C 
BRANCH  29  30
HETATM   30  C13 UNL     1      -7.462  84.775  12.522  1.00  0.00     0.056 A 
HETATM   31  C14 UNL     1      -7.038  83.753  11.706  1.00  0.00     0.027 A 
HETATM   32  C15 UNL     1      -5.779  83.866  11.150  1.00  0.00     0.044 A 
HETATM   33  C16 UNL     1      -4.960  84.949  11.387  1.00  0.00     0.119 A 
HETATM   34  F1  UNL     1      -3.727  85.047  10.835  1.00  0.00    -0.206 F 
HETATM   35  C17 UNL     1      -5.396  85.968  12.207  1.00  0.00     0.086 A 
HETATM   36  C18 UNL     1      -6.669  85.874  12.781  1.00  0.00     0.138 A 
HETATM   37  F2  UNL     1      -7.093  86.875  13.585  1.00  0.00    -0.204 F 
ENDBRANCH  29  30
ENDBRANCH   2  28
TORSDOF 10
ENDMDL
