MODEL 1
REMARK VINA RESULT: -8.736504094      0.000      0.000
REMARK  8 active torsions:
REMARK  status: ('A' for Active; 'I' for Inactive)
REMARK    1  A    between atoms: C2_2  and  C5_5 
REMARK    2  A    between atoms: C6_6  and  C7_7 
REMARK    3  A    between atoms: C9_9  and  C10_10 
REMARK       I    between atoms: C10_10  and  N1_12 
REMARK    4  A    between atoms: C11_14  and  C12_15 
REMARK    5  A    between atoms: C11_14  and  C13_18 
REMARK       I    between atoms: C13_18  and  N3_20 
REMARK    6  A    between atoms: N3_20  and  C14_21 
REMARK    7  A    between atoms: C14_21  and  C15_22 
REMARK    8  A    between atoms: C15_22  and  C18_25 
ROOT
HETATM    1  C10 UNL     1     -11.455  80.988  13.624  1.00  0.00     0.258 C 
HETATM    2  O1  UNL     1     -12.519  80.938  12.883  1.00  0.00    -0.267 OA
HETATM    3  N1  UNL     1     -10.789  79.876  13.909  1.00  0.00    -0.313 N 
ATOM      4  H1  UNL     1     -10.729  79.384  13.018  1.00  0.00     0.169 HD
HETATM    5  C11 UNL     1     -10.208  79.137  14.700  1.00  0.00     0.184 C 
ENDROOT
BRANCH   1   6
HETATM    6  C9  UNL     1     -11.118  82.345  14.067  1.00  0.00     0.055 A 
HETATM    7  C8  UNL     1     -11.988  82.906  15.004  1.00  0.00     0.041 A 
HETATM    8  C7  UNL     1     -11.699  84.186  15.441  1.00  0.00     0.040 A 
HETATM    9  C21 UNL     1     -10.598  84.853  14.958  1.00  0.00     0.054 A 
HETATM   10  C20 UNL     1      -9.727  84.289  14.019  1.00  0.00     0.050 A 
HETATM   11 CL2  UNL     1     -10.305  86.479  15.558  1.00  0.00    -0.083 Cl
HETATM   12  C19 UNL     1     -10.025  83.006  13.588  1.00  0.00     0.051 A 
HETATM   13 CL1  UNL     1      -8.987  82.235  12.416  1.00  0.00    -0.083 Cl
BRANCH   8  14
HETATM   14  C6  UNL     1     -12.599  84.732  16.413  1.00  0.00    -0.064 C 
HETATM   15  C5  UNL     1     -13.352  85.223  17.238  1.00  0.00    -0.092 C 
BRANCH  15  16
HETATM   16  C2  UNL     1     -14.239  85.844  18.231  1.00  0.00     0.013 C 
HETATM   17  C1  UNL     1     -15.692  85.588  17.943  1.00  0.00     0.028 C 
HETATM   18  C3  UNL     1     -13.909  85.174  19.567  1.00  0.00     0.028 C 
HETATM   19  C4  UNL     1     -13.964  87.327  18.298  1.00  0.00     0.028 C 
ENDBRANCH  15  16
ENDBRANCH   8  14
ENDBRANCH   1   6
BRANCH   5  20
HETATM   20  C12 UNL     1     -10.006  79.386  16.121  1.00  0.00     0.288 C 
HETATM   21  N2  UNL     1     -10.713  78.690  17.142  1.00  0.00    -0.056 NA
HETATM   22  O2  UNL     1      -9.180  80.245  16.513  1.00  0.00    -0.269 OA
ENDBRANCH   5  20
BRANCH   5  23
HETATM   23  C13 UNL     1      -9.726  77.812  14.183  1.00  0.00     0.347 C 
HETATM   24  O3  UNL     1      -9.156  77.148  15.135  1.00  0.00    -0.249 OA
HETATM   25  N3  UNL     1      -9.855  77.346  12.903  1.00  0.00    -0.381 NA
BRANCH  25  26
HETATM   26  C14 UNL     1      -9.983  76.887  11.640  1.00  0.00     0.179 C 
BRANCH  26  27
HETATM   27  C15 UNL     1      -9.489  77.741  10.475  1.00  0.00     0.086 C 
HETATM   28  C16 UNL     1     -10.047  79.161  10.631  1.00  0.00     0.033 C 
HETATM   29  C17 UNL     1     -10.080  77.156   9.212  1.00  0.00     0.033 C 
BRANCH  27  30
HETATM   30  C18 UNL     1      -8.035  77.768  10.349  1.00  0.00     0.187 C 
HETATM   31  O4  UNL     1      -7.390  76.712  10.206  1.00  0.00    -0.647 OA
HETATM   32  O5  UNL     1      -7.363  78.977  10.390  1.00  0.00    -0.647 OA
ENDBRANCH  27  30
ENDBRANCH  26  27
ENDBRANCH  25  26
ENDBRANCH   5  23
TORSDOF 8
ENDMDL
MODEL 2
REMARK VINA RESULT: -8.673428970      1.030      1.461
REMARK  8 active torsions:
REMARK  status: ('A' for Active; 'I' for Inactive)
REMARK    1  A    between atoms: C2_2  and  C5_5 
REMARK    2  A    between atoms: C6_6  and  C7_7 
REMARK    3  A    between atoms: C9_9  and  C10_10 
REMARK       I    between atoms: C10_10  and  N1_12 
REMARK    4  A    between atoms: C11_14  and  C12_15 
REMARK    5  A    between atoms: C11_14  and  C13_18 
REMARK       I    between atoms: C13_18  and  N3_20 
REMARK    6  A    between atoms: N3_20  and  C14_21 
REMARK    7  A    between atoms: C14_21  and  C15_22 
REMARK    8  A    between atoms: C15_22  and  C18_25 
ROOT
HETATM    1  C10 UNL     1     -11.405  80.926  13.755  1.00  0.00     0.258 C 
HETATM    2  O1  UNL     1     -12.400  80.897  12.922  1.00  0.00    -0.267 OA
HETATM    3  N1  UNL     1     -10.706  79.824  13.998  1.00  0.00    -0.313 N 
ATOM      4  H1  UNL     1     -10.546  79.422  13.074  1.00  0.00     0.169 HD
HETATM    5  C11 UNL     1     -10.154  79.042  14.767  1.00  0.00     0.184 C 
ENDROOT
BRANCH   1   6
HETATM    6  C9  UNL     1     -11.181  82.250  14.346  1.00  0.00     0.055 A 
HETATM    7  C8  UNL     1     -12.321  82.897  14.827  1.00  0.00     0.041 A 
HETATM    8  C7  UNL     1     -12.143  84.148  15.389  1.00  0.00     0.040 A 
HETATM    9  C21 UNL     1     -10.888  84.707  15.458  1.00  0.00     0.054 A 
HETATM   10  C20 UNL     1      -9.746  84.057  14.975  1.00  0.00     0.050 A 
HETATM   11 CL2  UNL     1     -10.748  86.303  16.179  1.00  0.00    -0.083 Cl
HETATM   12  C19 UNL     1      -9.936  82.804  14.414  1.00  0.00     0.051 A 
HETATM   13 CL1  UNL     1      -8.560  81.931  13.788  1.00  0.00    -0.083 Cl
BRANCH   8  14
HETATM   14  C6  UNL     1     -13.326  84.782  15.888  1.00  0.00    -0.064 C 
HETATM   15  C5  UNL     1     -14.347  85.317  16.288  1.00  0.00    -0.092 C 
BRANCH  15  16
HETATM   16  C2  UNL     1     -15.590  85.960  16.735  1.00  0.00     0.013 C 
HETATM   17  C1  UNL     1     -15.589  87.444  16.493  1.00  0.00     0.028 C 
HETATM   18  C3  UNL     1     -16.708  85.355  15.882  1.00  0.00     0.028 C 
HETATM   19  C4  UNL     1     -15.817  85.661  18.198  1.00  0.00     0.028 C 
ENDBRANCH  15  16
ENDBRANCH   8  14
ENDBRANCH   1   6
BRANCH   5  20
HETATM   20  C12 UNL     1     -10.086  79.166  16.217  1.00  0.00     0.288 C 
HETATM   21  N2  UNL     1      -9.178  80.036  16.883  1.00  0.00    -0.056 NA
HETATM   22  O2  UNL     1     -10.844  78.494  16.957  1.00  0.00    -0.269 OA
ENDBRANCH   5  20
BRANCH   5  23
HETATM   23  C13 UNL     1      -9.561  77.795  14.179  1.00  0.00     0.347 C 
HETATM   24  O3  UNL     1      -8.817  77.204  15.056  1.00  0.00    -0.249 OA
HETATM   25  N3  UNL     1      -9.756  77.326  12.909  1.00  0.00    -0.381 NA
BRANCH  25  26
HETATM   26  C14 UNL     1      -9.950  76.863  11.654  1.00  0.00     0.179 C 
BRANCH  26  27
HETATM   27  C15 UNL     1      -9.528  77.720  10.463  1.00  0.00     0.086 C 
HETATM   28  C16 UNL     1     -10.153  79.113  10.608  1.00  0.00     0.033 C 
HETATM   29  C17 UNL     1     -10.119  77.083   9.226  1.00  0.00     0.033 C 
BRANCH  27  30
HETATM   30  C18 UNL     1      -8.081  77.817  10.300  1.00  0.00     0.187 C 
HETATM   31  O4  UNL     1      -7.519  78.928  10.261  1.00  0.00    -0.647 OA
HETATM   32  O5  UNL     1      -7.323  76.665  10.186  1.00  0.00    -0.647 OA
ENDBRANCH  27  30
ENDBRANCH  26  27
ENDBRANCH  25  26
ENDBRANCH   5  23
TORSDOF 8
ENDMDL
MODEL 3
REMARK VINA RESULT: -8.344634464      5.718      9.917
REMARK  8 active torsions:
REMARK  status: ('A' for Active; 'I' for Inactive)
REMARK    1  A    between atoms: C2_2  and  C5_5 
REMARK    2  A    between atoms: C6_6  and  C7_7 
REMARK    3  A    between atoms: C9_9  and  C10_10 
REMARK       I    between atoms: C10_10  and  N1_12 
REMARK    4  A    between atoms: C11_14  and  C12_15 
REMARK    5  A    between atoms: C11_14  and  C13_18 
REMARK       I    between atoms: C13_18  and  N3_20 
REMARK    6  A    between atoms: N3_20  and  C14_21 
REMARK    7  A    between atoms: C14_21  and  C15_22 
REMARK    8  A    between atoms: C15_22  and  C18_25 
ROOT
HETATM    1  C10 UNL     1     -12.324  83.315  20.094  1.00  0.00     0.258 C 
HETATM    2  O1  UNL     1     -13.276  82.773  20.790  1.00  0.00    -0.267 OA
HETATM    3  N1  UNL     1     -12.579  83.817  18.892  1.00  0.00    -0.313 N 
ATOM      4  H1  UNL     1     -13.440  84.349  19.021  1.00  0.00     0.169 HD
HETATM    5  C11 UNL     1     -12.307  83.968  17.704  1.00  0.00     0.184 C 
ENDROOT
BRANCH   1   6
HETATM    6  C9  UNL     1     -11.023  83.294  20.773  1.00  0.00     0.055 A 
HETATM    7  C8  UNL     1     -10.339  82.079  20.728  1.00  0.00     0.041 A 
HETATM    8  C7  UNL     1      -9.110  82.026  21.360  1.00  0.00     0.040 A 
HETATM    9  C21 UNL     1      -8.609  83.137  21.998  1.00  0.00     0.054 A 
HETATM   10  C20 UNL     1      -9.297  84.355  22.043  1.00  0.00     0.050 A 
HETATM   11 CL2  UNL     1      -7.045  82.986  22.784  1.00  0.00    -0.083 Cl
HETATM   12  C19 UNL     1     -10.527  84.397  21.405  1.00  0.00     0.051 A 
HETATM   13 CL1  UNL     1     -11.446  85.880  21.419  1.00  0.00    -0.083 Cl
BRANCH   8  14
HETATM   14  C6  UNL     1      -8.422  80.772  21.284  1.00  0.00    -0.064 C 
HETATM   15  C5  UNL     1      -7.832  79.709  21.192  1.00  0.00    -0.092 C 
BRANCH  15  16
HETATM   16  C2  UNL     1      -7.122  78.431  21.044  1.00  0.00     0.013 C 
HETATM   17  C1  UNL     1      -5.651  78.554  21.331  1.00  0.00     0.028 C 
HETATM   18  C3  UNL     1      -7.720  77.493  22.096  1.00  0.00     0.028 C 
HETATM   19  C4  UNL     1      -7.348  77.883  19.655  1.00  0.00     0.028 C 
ENDBRANCH  15  16
ENDBRANCH   8  14
ENDBRANCH   1   6
BRANCH   5  20
HETATM   20  C12 UNL     1     -11.155  83.411  17.007  1.00  0.00     0.288 C 
HETATM   21  N2  UNL     1      -9.961  84.146  16.764  1.00  0.00    -0.056 NA
HETATM   22  O2  UNL     1     -11.169  82.230  16.583  1.00  0.00    -0.269 OA
ENDBRANCH   5  20
BRANCH   5  23
HETATM   23  C13 UNL     1     -13.289  84.728  16.860  1.00  0.00     0.347 C 
HETATM   24  O3  UNL     1     -12.984  84.606  15.610  1.00  0.00    -0.249 OA
HETATM   25  N3  UNL     1     -14.358  85.452  17.314  1.00  0.00    -0.381 NA
BRANCH  25  26
HETATM   26  C14 UNL     1     -15.413  86.166  17.763  1.00  0.00     0.179 C 
BRANCH  26  27
HETATM   27  C15 UNL     1     -15.248  87.658  18.043  1.00  0.00     0.086 C 
HETATM   28  C16 UNL     1     -16.606  88.238  18.454  1.00  0.00     0.033 C 
HETATM   29  C17 UNL     1     -14.849  88.312  16.740  1.00  0.00     0.033 C 
BRANCH  27  30
HETATM   30  C18 UNL     1     -14.233  87.951  19.050  1.00  0.00     0.187 C 
HETATM   31  O4  UNL     1     -13.021  87.848  18.780  1.00  0.00    -0.647 OA
HETATM   32  O5  UNL     1     -14.617  88.347  20.319  1.00  0.00    -0.647 OA
ENDBRANCH  27  30
ENDBRANCH  26  27
ENDBRANCH  25  26
ENDBRANCH   5  23
TORSDOF 8
ENDMDL
MODEL 4
REMARK VINA RESULT: -8.296288408      1.267      1.718
REMARK  8 active torsions:
REMARK  status: ('A' for Active; 'I' for Inactive)
REMARK    1  A    between atoms: C2_2  and  C5_5 
REMARK    2  A    between atoms: C6_6  and  C7_7 
REMARK    3  A    between atoms: C9_9  and  C10_10 
REMARK       I    between atoms: C10_10  and  N1_12 
REMARK    4  A    between atoms: C11_14  and  C12_15 
REMARK    5  A    between atoms: C11_14  and  C13_18 
REMARK       I    between atoms: C13_18  and  N3_20 
REMARK    6  A    between atoms: N3_20  and  C14_21 
REMARK    7  A    between atoms: C14_21  and  C15_22 
REMARK    8  A    between atoms: C15_22  and  C18_25 
ROOT
HETATM    1  C10 UNL     1     -11.112  80.668  13.989  1.00  0.00     0.258 C 
HETATM    2  O1  UNL     1     -12.178  80.818  13.264  1.00  0.00    -0.267 OA
HETATM    3  N1  UNL     1     -10.558  79.469  14.120  1.00  0.00    -0.313 N 
ATOM      4  H1  UNL     1     -10.550  79.093  13.172  1.00  0.00     0.169 HD
HETATM    5  C11 UNL     1     -10.050  78.582  14.800  1.00  0.00     0.184 C 
ENDROOT
BRANCH   1   6
HETATM    6  C9  UNL     1     -10.642  81.918  14.597  1.00  0.00     0.055 A 
HETATM    7  C8  UNL     1     -11.224  82.248  15.821  1.00  0.00     0.041 A 
HETATM    8  C7  UNL     1     -10.803  83.422  16.420  1.00  0.00     0.040 A 
HETATM    9  C21 UNL     1      -9.853  84.210  15.814  1.00  0.00     0.054 A 
HETATM   10  C20 UNL     1      -9.271  83.877  14.585  1.00  0.00     0.050 A 
HETATM   11 CL2  UNL     1      -9.378  85.689  16.635  1.00  0.00    -0.083 Cl
HETATM   12  C19 UNL     1      -9.699  82.698  13.994  1.00  0.00     0.051 A 
HETATM   13 CL1  UNL     1      -9.021  82.216  12.460  1.00  0.00    -0.083 Cl
BRANCH   8  14
HETATM   14  C6  UNL     1     -11.405  83.729  17.684  1.00  0.00    -0.064 C 
HETATM   15  C5  UNL     1     -11.943  83.985  18.748  1.00  0.00    -0.092 C 
BRANCH  15  16
HETATM   16  C2  UNL     1     -12.624  84.294  20.012  1.00  0.00     0.013 C 
HETATM   17  C1  UNL     1     -11.811  85.197  20.898  1.00  0.00     0.028 C 
HETATM   18  C3  UNL     1     -13.899  85.050  19.630  1.00  0.00     0.028 C 
HETATM   19  C4  UNL     1     -12.963  83.010  20.732  1.00  0.00     0.028 C 
ENDBRANCH  15  16
ENDBRANCH   8  14
ENDBRANCH   1   6
BRANCH   5  20
HETATM   20  C12 UNL     1      -9.821  78.625  16.238  1.00  0.00     0.288 C 
HETATM   21  N2  UNL     1      -8.546  78.880  16.817  1.00  0.00    -0.056 NA
HETATM   22  O2  UNL     1     -10.761  78.435  17.046  1.00  0.00    -0.269 OA
ENDBRANCH   5  20
BRANCH   5  23
HETATM   23  C13 UNL     1      -9.703  77.293  14.111  1.00  0.00     0.347 C 
HETATM   24  O3  UNL     1      -9.191  76.464  14.960  1.00  0.00    -0.249 OA
HETATM   25  N3  UNL     1      -9.888  77.008  12.786  1.00  0.00    -0.381 NA
BRANCH  25  26
HETATM   26  C14 UNL     1     -10.072  76.727  11.478  1.00  0.00     0.179 C 
BRANCH  26  27
HETATM   27  C15 UNL     1      -9.551  77.697  10.420  1.00  0.00     0.086 C 
HETATM   28  C16 UNL     1     -10.159  79.082  10.676  1.00  0.00     0.033 C 
HETATM   29  C17 UNL     1     -10.066  77.214   9.083  1.00  0.00     0.033 C 
BRANCH  27  30
HETATM   30  C18 UNL     1      -8.095  77.773  10.366  1.00  0.00     0.187 C 
HETATM   31  O4  UNL     1      -7.408  76.740  10.255  1.00  0.00    -0.647 OA
HETATM   32  O5  UNL     1      -7.467  79.004  10.442  1.00  0.00    -0.647 OA
ENDBRANCH  27  30
ENDBRANCH  26  27
ENDBRANCH  25  26
ENDBRANCH   5  23
TORSDOF 8
ENDMDL
MODEL 5
REMARK VINA RESULT: -8.235207307      2.055      4.151
REMARK  8 active torsions:
REMARK  status: ('A' for Active; 'I' for Inactive)
REMARK    1  A    between atoms: C2_2  and  C5_5 
REMARK    2  A    between atoms: C6_6  and  C7_7 
REMARK    3  A    between atoms: C9_9  and  C10_10 
REMARK       I    between atoms: C10_10  and  N1_12 
REMARK    4  A    between atoms: C11_14  and  C12_15 
REMARK    5  A    between atoms: C11_14  and  C13_18 
REMARK       I    between atoms: C13_18  and  N3_20 
REMARK    6  A    between atoms: N3_20  and  C14_21 
REMARK    7  A    between atoms: C14_21  and  C15_22 
REMARK    8  A    between atoms: C15_22  and  C18_25 
ROOT
HETATM    1  C10 UNL     1     -11.521  81.058  13.612  1.00  0.00     0.258 C 
HETATM    2  O1  UNL     1     -12.485  80.967  12.748  1.00  0.00    -0.267 OA
HETATM    3  N1  UNL     1     -10.800  79.986  13.921  1.00  0.00    -0.313 N 
ATOM      4  H1  UNL     1     -10.598  79.553  13.020  1.00  0.00     0.169 HD
HETATM    5  C11 UNL     1     -10.253  79.251  14.738  1.00  0.00     0.184 C 
ENDROOT
BRANCH   1   6
HETATM    6  C9  UNL     1     -11.353  82.409  14.156  1.00  0.00     0.055 A 
HETATM    7  C8  UNL     1     -10.070  82.947  14.049  1.00  0.00     0.041 A 
HETATM    8  C7  UNL     1      -9.878  84.220  14.554  1.00  0.00     0.040 A 
HETATM    9  C21 UNL     1     -10.922  84.903  15.133  1.00  0.00     0.054 A 
HETATM   10  C20 UNL     1     -12.208  84.362  15.241  1.00  0.00     0.050 A 
HETATM   11 CL2  UNL     1     -10.594  86.511  15.759  1.00  0.00    -0.083 Cl
HETATM   12  C19 UNL     1     -12.390  83.086  14.730  1.00  0.00     0.051 A 
HETATM   13 CL1  UNL     1     -13.966  82.342  14.828  1.00  0.00    -0.083 Cl
BRANCH   8  14
HETATM   14  C6  UNL     1      -8.556  84.754  14.417  1.00  0.00    -0.064 C 
HETATM   15  C5  UNL     1      -7.439  85.223  14.275  1.00  0.00    -0.092 C 
BRANCH  15  16
HETATM   16  C2  UNL     1      -6.103  85.800  14.072  1.00  0.00     0.013 C 
HETATM   17  C1  UNL     1      -5.482  86.279  15.355  1.00  0.00     0.028 C 
HETATM   18  C3  UNL     1      -5.231  84.662  13.535  1.00  0.00     0.028 C 
HETATM   19  C4  UNL     1      -6.184  86.926  13.069  1.00  0.00     0.028 C 
ENDBRANCH  15  16
ENDBRANCH   8  14
ENDBRANCH   1   6
BRANCH   5  20
HETATM   20  C12 UNL     1     -10.238  79.433  16.184  1.00  0.00     0.288 C 
HETATM   21  N2  UNL     1      -9.528  80.484  16.829  1.00  0.00    -0.056 NA
HETATM   22  O2  UNL     1     -10.865  78.651  16.938  1.00  0.00    -0.269 OA
ENDBRANCH   5  20
BRANCH   5  23
HETATM   23  C13 UNL     1      -9.606  78.000  14.220  1.00  0.00     0.347 C 
HETATM   24  O3  UNL     1      -8.855  77.481  15.134  1.00  0.00    -0.249 OA
HETATM   25  N3  UNL     1      -9.766  77.462  12.972  1.00  0.00    -0.381 NA
BRANCH  25  26
HETATM   26  C14 UNL     1      -9.924  76.932  11.740  1.00  0.00     0.179 C 
BRANCH  26  27
HETATM   27  C15 UNL     1      -9.517  77.745  10.513  1.00  0.00     0.086 C 
HETATM   28  C16 UNL     1     -10.141  79.142  10.615  1.00  0.00     0.033 C 
HETATM   29  C17 UNL     1     -10.124  77.064   9.307  1.00  0.00     0.033 C 
BRANCH  27  30
HETATM   30  C18 UNL     1      -8.072  77.836  10.328  1.00  0.00     0.187 C 
HETATM   31  O4  UNL     1      -7.502  78.943  10.312  1.00  0.00    -0.647 OA
HETATM   32  O5  UNL     1      -7.326  76.682  10.168  1.00  0.00    -0.647 OA
ENDBRANCH  27  30
ENDBRANCH  26  27
ENDBRANCH  25  26
ENDBRANCH   5  23
TORSDOF 8
ENDMDL
