MODEL 1
REMARK VINA RESULT: -6.251008564      0.000      0.000
REMARK  10 active torsions:
REMARK  status: ('A' for Active; 'I' for Inactive)
REMARK       I    between atoms: C2_2  and  N1_4 
REMARK    1  A    between atoms: N1_4  and  C3_6 
REMARK    2  A    between atoms: C7_13  and  S1_14 
REMARK    3  A    between atoms: S1_14  and  N3_15 
REMARK    4  A    between atoms: N4_21  and  C10_22 
REMARK    5  A    between atoms: C10_22  and  C11_23 
REMARK    6  A    between atoms: C11_23  and  C12_24 
REMARK    7  A    between atoms: C12_24  and  C13_25 
REMARK    8  A    between atoms: C13_25  and  C14_26 
REMARK    9  A    between atoms: C14_26  and  O2_27 
REMARK   10  A    between atoms: O2_27  and  N5_28 
ROOT
HETATM    1  C3  UNL     1     -12.381  84.425  17.123  1.00  0.00     0.688 A 
HETATM    2  N2  UNL     1     -11.637  83.792  18.021  1.00  0.00    -0.189 N 
ATOM      3  H2  UNL     1     -11.451  84.115  18.970  1.00  0.00     0.184 HD
HETATM    4  C4  UNL     1     -11.170  82.662  17.479  1.00  0.00     0.079 A 
HETATM    5  C5  UNL     1     -10.364  81.651  17.949  1.00  0.00     0.053 A 
HETATM    6  C6  UNL     1     -10.041  80.579  17.129  1.00  0.00     0.033 A 
HETATM    7 BR1  UNL     1      -8.934  79.165  17.743  1.00  0.00    -0.050 Br
HETATM    8  C7  UNL     1     -10.520  80.511  15.839  1.00  0.00     0.058 A 
HETATM    9  C8  UNL     1     -11.324  81.540  15.395  1.00  0.00     0.060 A 
HETATM   10 BR2  UNL     1     -11.967  81.444  13.618  1.00  0.00    -0.047 Br
HETATM   11  C9  UNL     1     -11.676  82.631  16.174  1.00  0.00     0.098 A 
HETATM   12  N4  UNL     1     -12.430  83.724  15.948  1.00  0.00    -0.179 N 
ENDROOT
BRANCH  12  13
HETATM   13  C10 UNL     1     -13.136  84.102  14.754  1.00  0.00     0.148 C 
BRANCH  13  14
HETATM   14  C11 UNL     1     -14.589  83.665  14.745  1.00  0.00     0.021 C 
BRANCH  14  15
HETATM   15  C12 UNL     1     -15.463  84.861  14.592  1.00  0.00     0.004 C 
BRANCH  15  16
HETATM   16  C13 UNL     1     -16.560  84.925  15.616  1.00  0.00     0.029 C 
BRANCH  16  17
HETATM   17  C14 UNL     1     -16.481  86.110  16.532  1.00  0.00     0.200 C 
BRANCH  17  18
HETATM   18  O2  UNL     1     -15.504  87.025  16.122  1.00  0.00    -0.287 OA
BRANCH  18  19
HETATM   19  N5  UNL     1     -16.054  88.221  15.870  1.00  0.00    -0.311 N 
ATOM     20  H52 UNL     1     -15.986  89.022  16.498  1.00  0.00     0.184 HD
ATOM     21  H51 UNL     1     -16.543  88.210  14.975  1.00  0.00     0.184 HD
ENDBRANCH  18  19
ENDBRANCH  17  18
ENDBRANCH  16  17
ENDBRANCH  15  16
ENDBRANCH  14  15
ENDBRANCH  13  14
ENDBRANCH  12  13
BRANCH   1  22
HETATM   22  N1  UNL     1     -12.994  85.542  17.287  1.00  0.00    -0.160 N 
HETATM   23  C2  UNL     1     -12.288  86.682  17.756  1.00  0.00     0.231 C 
HETATM   24  C1  UNL     1     -11.432  87.396  16.768  1.00  0.00     0.118 C 
HETATM   25  O1  UNL     1     -12.386  87.062  18.946  1.00  0.00    -0.273 OA
ATOM     26  H1  UNL     1     -13.991  85.611  17.079  1.00  0.00     0.187 HD
ENDBRANCH   1  22
BRANCH   8  27
HETATM   27  S1  UNL     1     -10.139  79.162  14.745  1.00  0.00    -0.019 SA
BRANCH  27  28
HETATM   28  N3  UNL     1      -8.724  79.451  13.780  1.00  0.00    -0.370 N 
ATOM     29  H32 UNL     1      -8.723  80.082  12.978  1.00  0.00     0.164 HD
ATOM     30  H31 UNL     1      -7.910  78.929  14.102  1.00  0.00     0.164 HD
ENDBRANCH  27  28
ENDBRANCH   8  27
TORSDOF 10
ENDMDL
MODEL 2
REMARK VINA RESULT: -6.158268402      4.130      7.012
REMARK  10 active torsions:
REMARK  status: ('A' for Active; 'I' for Inactive)
REMARK       I    between atoms: C2_2  and  N1_4 
REMARK    1  A    between atoms: N1_4  and  C3_6 
REMARK    2  A    between atoms: C7_13  and  S1_14 
REMARK    3  A    between atoms: S1_14  and  N3_15 
REMARK    4  A    between atoms: N4_21  and  C10_22 
REMARK    5  A    between atoms: C10_22  and  C11_23 
REMARK    6  A    between atoms: C11_23  and  C12_24 
REMARK    7  A    between atoms: C12_24  and  C13_25 
REMARK    8  A    between atoms: C13_25  and  C14_26 
REMARK    9  A    between atoms: C14_26  and  O2_27 
REMARK   10  A    between atoms: O2_27  and  N5_28 
ROOT
HETATM    1  C3  UNL     1     -12.604  82.694  15.483  1.00  0.00     0.688 A 
HETATM    2  N2  UNL     1     -13.775  83.158  15.067  1.00  0.00    -0.189 N 
ATOM      3  H2  UNL     1     -14.369  82.722  14.362  1.00  0.00     0.184 HD
HETATM    4  C4  UNL     1     -14.051  84.291  15.722  1.00  0.00     0.079 A 
HETATM    5  C5  UNL     1     -15.107  85.172  15.683  1.00  0.00     0.053 A 
HETATM    6  C6  UNL     1     -15.110  86.292  16.502  1.00  0.00     0.033 A 
HETATM    7 BR1  UNL     1     -16.550  87.529  16.478  1.00  0.00    -0.050 Br
HETATM    8  C7  UNL     1     -14.062  86.538  17.362  1.00  0.00     0.058 A 
HETATM    9  C8  UNL     1     -13.017  85.638  17.378  1.00  0.00     0.060 A 
HETATM   10 BR2  UNL     1     -11.577  85.989  18.553  1.00  0.00    -0.047 Br
HETATM   11  C9  UNL     1     -12.966  84.505  16.581  1.00  0.00     0.098 A 
HETATM   12  N4  UNL     1     -12.065  83.514  16.437  1.00  0.00    -0.179 N 
ENDROOT
BRANCH  12  13
HETATM   13  C10 UNL     1     -10.809  83.333  17.112  1.00  0.00     0.148 C 
BRANCH  13  14
HETATM   14  C11 UNL     1     -10.835  82.232  18.156  1.00  0.00     0.021 C 
BRANCH  14  15
HETATM   15  C12 UNL     1     -10.064  82.669  19.353  1.00  0.00     0.004 C 
BRANCH  15  16
HETATM   16  C13 UNL     1     -10.867  82.623  20.621  1.00  0.00     0.029 C 
BRANCH  16  17
HETATM   17  C14 UNL     1     -12.292  82.194  20.435  1.00  0.00     0.200 C 
BRANCH  17  18
HETATM   18  O2  UNL     1     -12.496  80.866  20.830  1.00  0.00    -0.287 OA
BRANCH  18  19
HETATM   19  N5  UNL     1     -13.789  80.652  21.111  1.00  0.00    -0.311 N 
ATOM     20  H52 UNL     1     -14.532  80.661  20.412  1.00  0.00     0.184 HD
ATOM     21  H51 UNL     1     -13.916  80.483  22.108  1.00  0.00     0.184 HD
ENDBRANCH  18  19
ENDBRANCH  17  18
ENDBRANCH  16  17
ENDBRANCH  15  16
ENDBRANCH  14  15
ENDBRANCH  13  14
ENDBRANCH  12  13
BRANCH   1  22
HETATM   22  N1  UNL     1     -12.016  81.626  15.079  1.00  0.00    -0.160 N 
HETATM   23  C2  UNL     1     -11.594  81.510  13.727  1.00  0.00     0.231 C 
HETATM   24  C1  UNL     1     -10.349  82.235  13.348  1.00  0.00     0.118 C 
HETATM   25  O1  UNL     1     -12.243  80.830  12.899  1.00  0.00    -0.273 OA
ATOM     26  H1  UNL     1     -11.852  80.858  15.730  1.00  0.00     0.187 HD
ENDBRANCH   1  22
BRANCH   8  27
HETATM   27  S1  UNL     1     -14.013  87.956  18.433  1.00  0.00    -0.019 SA
BRANCH  27  28
HETATM   28  N3  UNL     1     -14.663  87.635  20.012  1.00  0.00    -0.370 N 
ATOM     29  H32 UNL     1     -15.043  88.368  20.611  1.00  0.00     0.164 HD
ATOM     30  H31 UNL     1     -14.621  86.648  20.266  1.00  0.00     0.164 HD
ENDBRANCH  27  28
ENDBRANCH   8  27
TORSDOF 10
ENDMDL
MODEL 3
REMARK VINA RESULT: -6.060446260      4.216      6.440
REMARK  10 active torsions:
REMARK  status: ('A' for Active; 'I' for Inactive)
REMARK       I    between atoms: C2_2  and  N1_4 
REMARK    1  A    between atoms: N1_4  and  C3_6 
REMARK    2  A    between atoms: C7_13  and  S1_14 
REMARK    3  A    between atoms: S1_14  and  N3_15 
REMARK    4  A    between atoms: N4_21  and  C10_22 
REMARK    5  A    between atoms: C10_22  and  C11_23 
REMARK    6  A    between atoms: C11_23  and  C12_24 
REMARK    7  A    between atoms: C12_24  and  C13_25 
REMARK    8  A    between atoms: C13_25  and  C14_26 
REMARK    9  A    between atoms: C14_26  and  O2_27 
REMARK   10  A    between atoms: O2_27  and  N5_28 
ROOT
HETATM    1  C3  UNL     1      -9.398  79.062  18.494  1.00  0.00     0.688 A 
HETATM    2  N2  UNL     1      -9.546  78.476  17.314  1.00  0.00    -0.189 N 
ATOM      3  H2  UNL     1      -9.358  77.494  17.112  1.00  0.00     0.184 HD
HETATM    4  C4  UNL     1      -9.981  79.380  16.431  1.00  0.00     0.079 A 
HETATM    5  C5  UNL     1     -10.293  79.321  15.092  1.00  0.00     0.053 A 
HETATM    6  C6  UNL     1     -10.729  80.458  14.427  1.00  0.00     0.033 A 
HETATM    7 BR1  UNL     1     -11.170  80.414  12.581  1.00  0.00    -0.050 Br
HETATM    8  C7  UNL     1     -10.857  81.657  15.093  1.00  0.00     0.058 A 
HETATM    9  C8  UNL     1     -10.537  81.686  16.434  1.00  0.00     0.060 A 
HETATM   10 BR2  UNL     1     -10.704  83.340  17.338  1.00  0.00    -0.047 Br
HETATM   11  C9  UNL     1     -10.098  80.580  17.144  1.00  0.00     0.098 A 
HETATM   12  N4  UNL     1      -9.737  80.387  18.427  1.00  0.00    -0.179 N 
ENDROOT
BRANCH  12  13
HETATM   13  C10 UNL     1      -9.699  81.337  19.505  1.00  0.00     0.148 C 
BRANCH  13  14
HETATM   14  C11 UNL     1     -10.896  81.248  20.434  1.00  0.00     0.021 C 
BRANCH  14  15
HETATM   15  C12 UNL     1     -11.290  82.618  20.863  1.00  0.00     0.004 C 
BRANCH  15  16
HETATM   16  C13 UNL     1     -12.730  82.936  20.576  1.00  0.00     0.029 C 
BRANCH  16  17
HETATM   17  C14 UNL     1     -13.703  81.935  21.123  1.00  0.00     0.200 C 
BRANCH  17  18
HETATM   18  O2  UNL     1     -14.692  82.540  21.910  1.00  0.00    -0.287 OA
BRANCH  18  19
HETATM   19  N5  UNL     1     -15.343  83.478  21.209  1.00  0.00    -0.311 N 
ATOM     20  H52 UNL     1     -15.381  84.462  21.473  1.00  0.00     0.184 HD
ATOM     21  H51 UNL     1     -15.788  83.068  20.387  1.00  0.00     0.184 HD
ENDBRANCH  18  19
ENDBRANCH  17  18
ENDBRANCH  16  17
ENDBRANCH  15  16
ENDBRANCH  14  15
ENDBRANCH  13  14
ENDBRANCH  12  13
BRANCH   1  22
HETATM   22  N1  UNL     1      -8.998  78.507  19.581  1.00  0.00    -0.160 N 
HETATM   23  C2  UNL     1      -7.624  78.188  19.757  1.00  0.00     0.231 C 
HETATM   24  C1  UNL     1      -6.712  79.315  20.099  1.00  0.00     0.118 C 
HETATM   25  O1  UNL     1      -7.208  77.014  19.628  1.00  0.00    -0.273 OA
ATOM     26  H1  UNL     1      -9.668  78.293  20.320  1.00  0.00     0.187 HD
ENDBRANCH   1  22
BRANCH   8  27
HETATM   27  S1  UNL     1     -11.412  83.144  14.292  1.00  0.00    -0.019 SA
BRANCH  27  28
HETATM   28  N3  UNL     1     -13.102  83.458  14.541  1.00  0.00    -0.370 N 
ATOM     29  H32 UNL     1     -13.459  84.379  14.795  1.00  0.00     0.164 HD
ATOM     30  H31 UNL     1     -13.684  82.632  14.407  1.00  0.00     0.164 HD
ENDBRANCH  27  28
ENDBRANCH   8  27
TORSDOF 10
ENDMDL
MODEL 4
REMARK VINA RESULT: -5.941033382      4.956      7.762
REMARK  10 active torsions:
REMARK  status: ('A' for Active; 'I' for Inactive)
REMARK       I    between atoms: C2_2  and  N1_4 
REMARK    1  A    between atoms: N1_4  and  C3_6 
REMARK    2  A    between atoms: C7_13  and  S1_14 
REMARK    3  A    between atoms: S1_14  and  N3_15 
REMARK    4  A    between atoms: N4_21  and  C10_22 
REMARK    5  A    between atoms: C10_22  and  C11_23 
REMARK    6  A    between atoms: C11_23  and  C12_24 
REMARK    7  A    between atoms: C12_24  and  C13_25 
REMARK    8  A    between atoms: C13_25  and  C14_26 
REMARK    9  A    between atoms: C14_26  and  O2_27 
REMARK   10  A    between atoms: O2_27  and  N5_28 
ROOT
HETATM    1  C3  UNL     1      -9.262  79.365  19.429  1.00  0.00     0.688 A 
HETATM    2  N2  UNL     1      -9.725  80.072  20.452  1.00  0.00    -0.189 N 
ATOM      3  H2  UNL     1      -9.687  79.793  21.431  1.00  0.00     0.184 HD
HETATM    4  C4  UNL     1     -10.250  81.212  19.989  1.00  0.00     0.079 A 
HETATM    5  C5  UNL     1     -10.857  82.288  20.596  1.00  0.00     0.053 A 
HETATM    6  C6  UNL     1     -11.314  83.352  19.831  1.00  0.00     0.033 A 
HETATM    7 BR1  UNL     1     -12.155  84.854  20.632  1.00  0.00    -0.050 Br
HETATM    8  C7  UNL     1     -11.168  83.348  18.462  1.00  0.00     0.058 A 
HETATM    9  C8  UNL     1     -10.556  82.257  17.882  1.00  0.00     0.060 A 
HETATM   10 BR2  UNL     1     -10.370  82.255  15.999  1.00  0.00    -0.047 Br
HETATM   11  C9  UNL     1     -10.082  81.170  18.600  1.00  0.00     0.098 A 
HETATM   12  N4  UNL     1      -9.468  80.024  18.247  1.00  0.00    -0.179 N 
ENDROOT
BRANCH  12  13
HETATM   13  C10 UNL     1      -9.103  79.564  16.935  1.00  0.00     0.148 C 
BRANCH  13  14
HETATM   14  C11 UNL     1     -10.116  78.615  16.321  1.00  0.00     0.021 C 
BRANCH  14  15
HETATM   15  C12 UNL     1      -9.629  78.171  14.985  1.00  0.00     0.004 C 
BRANCH  15  16
HETATM   16  C13 UNL     1     -10.064  79.077  13.868  1.00  0.00     0.029 C 
BRANCH  16  17
HETATM   17  C14 UNL     1     -10.037  78.441  12.511  1.00  0.00     0.200 C 
BRANCH  17  18
HETATM   18  O2  UNL     1      -9.240  77.289  12.488  1.00  0.00    -0.287 OA
BRANCH  18  19
HETATM   19  N5  UNL     1      -9.870  76.294  11.848  1.00  0.00    -0.311 N 
ATOM     20  H52 UNL     1     -10.834  76.019  12.033  1.00  0.00     0.184 HD
ATOM     21  H51 UNL     1      -9.252  75.862  11.161  1.00  0.00     0.184 HD
ENDBRANCH  18  19
ENDBRANCH  17  18
ENDBRANCH  16  17
ENDBRANCH  15  16
ENDBRANCH  14  15
ENDBRANCH  13  14
ENDBRANCH  12  13
BRANCH   1  22
HETATM   22  N1  UNL     1      -8.690  78.216  19.488  1.00  0.00    -0.160 N 
HETATM   23  C2  UNL     1      -7.284  78.128  19.671  1.00  0.00     0.231 C 
HETATM   24  C1  UNL     1      -6.770  78.359  21.050  1.00  0.00     0.118 C 
HETATM   25  O1  UNL     1      -6.520  77.867  18.713  1.00  0.00    -0.273 OA
ATOM     26  H1  UNL     1      -9.246  77.366  19.404  1.00  0.00     0.187 HD
ENDBRANCH   1  22
BRANCH   8  27
HETATM   27  S1  UNL     1     -11.734  84.684  17.433  1.00  0.00    -0.019 SA
BRANCH  27  28
HETATM   28  N3  UNL     1     -13.425  84.576  17.053  1.00  0.00    -0.370 N 
ATOM     29  H32 UNL     1     -13.919  83.686  16.984  1.00  0.00     0.164 HD
ATOM     30  H31 UNL     1     -13.859  85.487  16.909  1.00  0.00     0.164 HD
ENDBRANCH  27  28
ENDBRANCH   8  27
TORSDOF 10
ENDMDL
MODEL 5
REMARK VINA RESULT: -5.902665781      4.295      7.420
REMARK  10 active torsions:
REMARK  status: ('A' for Active; 'I' for Inactive)
REMARK       I    between atoms: C2_2  and  N1_4 
REMARK    1  A    between atoms: N1_4  and  C3_6 
REMARK    2  A    between atoms: C7_13  and  S1_14 
REMARK    3  A    between atoms: S1_14  and  N3_15 
REMARK    4  A    between atoms: N4_21  and  C10_22 
REMARK    5  A    between atoms: C10_22  and  C11_23 
REMARK    6  A    between atoms: C11_23  and  C12_24 
REMARK    7  A    between atoms: C12_24  and  C13_25 
REMARK    8  A    between atoms: C13_25  and  C14_26 
REMARK    9  A    between atoms: C14_26  and  O2_27 
REMARK   10  A    between atoms: O2_27  and  N5_28 
ROOT
HETATM    1  C3  UNL     1     -12.645  82.709  15.465  1.00  0.00     0.688 A 
HETATM    2  N2  UNL     1     -13.822  83.169  15.062  1.00  0.00    -0.189 N 
ATOM      3  H2  UNL     1     -14.426  82.727  14.369  1.00  0.00     0.184 HD
HETATM    4  C4  UNL     1     -14.088  84.308  15.711  1.00  0.00     0.079 A 
HETATM    5  C5  UNL     1     -15.145  85.188  15.681  1.00  0.00     0.053 A 
HETATM    6  C6  UNL     1     -15.137  86.315  16.491  1.00  0.00     0.033 A 
HETATM    7 BR1  UNL     1     -16.577  87.552  16.477  1.00  0.00    -0.050 Br
HETATM    8  C7  UNL     1     -14.077  86.568  17.333  1.00  0.00     0.058 A 
HETATM    9  C8  UNL     1     -13.032  85.668  17.342  1.00  0.00     0.060 A 
HETATM   10 BR2  UNL     1     -11.574  86.029  18.493  1.00  0.00    -0.047 Br
HETATM   11  C9  UNL     1     -12.992  84.528  16.553  1.00  0.00     0.098 A 
HETATM   12  N4  UNL     1     -12.092  83.537  16.404  1.00  0.00    -0.179 N 
ENDROOT
BRANCH  12  13
HETATM   13  C10 UNL     1     -10.827  83.362  17.063  1.00  0.00     0.148 C 
BRANCH  13  14
HETATM   14  C11 UNL     1     -10.760  82.117  17.927  1.00  0.00     0.021 C 
BRANCH  14  15
HETATM   15  C12 UNL     1     -11.350  82.411  19.263  1.00  0.00     0.004 C 
BRANCH  15  16
HETATM   16  C13 UNL     1     -10.803  81.537  20.355  1.00  0.00     0.029 C 
BRANCH  16  17
HETATM   17  C14 UNL     1      -9.652  80.673  19.936  1.00  0.00     0.200 C 
BRANCH  17  18
HETATM   18  O2  UNL     1     -10.024  79.328  19.811  1.00  0.00    -0.287 OA
BRANCH  18  19
HETATM   19  N5  UNL     1      -9.161  78.538  20.464  1.00  0.00    -0.311 N 
ATOM     20  H52 UNL     1      -8.653  78.821  21.302  1.00  0.00     0.184 HD
ATOM     21  H51 UNL     1      -9.091  77.629  20.008  1.00  0.00     0.184 HD
ENDBRANCH  18  19
ENDBRANCH  17  18
ENDBRANCH  16  17
ENDBRANCH  15  16
ENDBRANCH  14  15
ENDBRANCH  13  14
ENDBRANCH  12  13
BRANCH   1  22
HETATM   22  N1  UNL     1     -12.062  81.637  15.061  1.00  0.00    -0.160 N 
HETATM   23  C2  UNL     1     -11.645  81.517  13.708  1.00  0.00     0.231 C 
HETATM   24  C1  UNL     1     -10.398  82.236  13.324  1.00  0.00     0.118 C 
HETATM   25  O1  UNL     1     -12.300  80.838  12.884  1.00  0.00    -0.273 OA
ATOM     26  H1  UNL     1     -11.899  80.870  15.713  1.00  0.00     0.187 HD
ENDBRANCH   1  22
BRANCH   8  27
HETATM   27  S1  UNL     1     -14.013  87.994  18.392  1.00  0.00    -0.019 SA
BRANCH  27  28
HETATM   28  N3  UNL     1     -14.686  87.700  19.966  1.00  0.00    -0.370 N 
ATOM     29  H32 UNL     1     -15.322  86.926  20.157  1.00  0.00     0.164 HD
ATOM     30  H31 UNL     1     -14.379  88.378  20.663  1.00  0.00     0.164 HD
ENDBRANCH  27  28
ENDBRANCH   8  27
TORSDOF 10
ENDMDL
