MODEL 1
REMARK VINA RESULT: -6.305147029      0.000      0.000
REMARK  5 active torsions:
REMARK  status: ('A' for Active; 'I' for Inactive)
REMARK    1  A    between atoms: C2_2  and  C3_3 
REMARK    2  A    between atoms: C3_3  and  N1_4 
REMARK    3  A    between atoms: N1_4  and  C4_6 
REMARK    4  A    between atoms: C7_13  and  C8_14 
REMARK    5  A    between atoms: C11_19  and  N5_20 
ROOT
HETATM    1  C4  UNL     1      -0.478   2.726  82.459  1.00  0.00     0.116 A 
HETATM    2  N2  UNL     1      -0.340   1.393  82.394  1.00  0.00    -0.338 N 
ATOM      3  H2  UNL     1       0.108   1.003  81.565  1.00  0.00     0.168 HD
HETATM    4  C5  UNL     1      -0.752   0.530  83.346  1.00  0.00     0.182 A 
HETATM    5  N3  UNL     1      -1.343   0.998  84.447  1.00  0.00    -0.350 N 
ATOM      6  H3  UNL     1      -1.658   0.358  85.177  1.00  0.00     0.166 HD
HETATM    7  C6  UNL     1      -1.520   2.329  84.583  1.00  0.00     0.071 A 
HETATM    8  C7  UNL     1      -2.152   2.790  85.729  1.00  0.00     0.043 A 
HETATM    9  N4  UNL     1      -2.339   4.108  85.853  1.00  0.00    -0.343 N 
ATOM     10  H4  UNL     1      -2.804   4.464  86.689  1.00  0.00     0.167 HD
HETATM   11  C11 UNL     1      -1.932   4.992  84.901  1.00  0.00     0.117 A 
HETATM   12  C12 UNL     1      -1.299   4.572  83.753  1.00  0.00     0.070 A 
HETATM   13 BR1  UNL     1      -0.738   5.823  82.419  1.00  0.00    -0.046 Br
HETATM   14  C13 UNL     1      -1.094   3.208  83.601  1.00  0.00     0.058 A 
ENDROOT
BRANCH   1  15
HETATM   15  N1  UNL     1      -0.063   3.529  81.542  1.00  0.00    -0.376 N 
ATOM     16  H1  UNL     1      -0.587   4.394  81.411  1.00  0.00     0.161 HD
BRANCH  15  17
HETATM   17  C3  UNL     1       1.056   3.319  80.698  1.00  0.00     0.121 C 
BRANCH  17  18
HETATM   18  C2  UNL     1       2.405   3.369  81.347  1.00  0.00     0.015 C 
HETATM   19  C1  UNL     1       2.900   4.768  81.633  1.00  0.00     0.006 C 
ENDBRANCH  17  18
ENDBRANCH  15  17
ENDBRANCH   1  15
BRANCH   8  20
HETATM   20  C8  UNL     1      -2.582   1.815  86.793  1.00  0.00     0.038 A 
HETATM   21  C9  UNL     1      -3.996   1.815  87.282  1.00  0.00     0.011 A 
HETATM   22  C10 UNL     1      -2.890   2.415  88.121  1.00  0.00     0.011 A 
ENDBRANCH   8  20
BRANCH  11  23
HETATM   23  N5  UNL     1      -2.138   6.247  85.067  1.00  0.00    -0.384 N 
ATOM     24  H52 UNL     1      -2.768   6.546  85.811  1.00  0.00     0.157 HD
ATOM     25  H51 UNL     1      -1.672   6.921  84.459  1.00  0.00     0.157 HD
ENDBRANCH  11  23
TORSDOF 5
ENDMDL
MODEL 2
REMARK VINA RESULT: -6.104104474      2.048      3.930
REMARK  5 active torsions:
REMARK  status: ('A' for Active; 'I' for Inactive)
REMARK    1  A    between atoms: C2_2  and  C3_3 
REMARK    2  A    between atoms: C3_3  and  N1_4 
REMARK    3  A    between atoms: N1_4  and  C4_6 
REMARK    4  A    between atoms: C7_13  and  C8_14 
REMARK    5  A    between atoms: C11_19  and  N5_20 
ROOT
HETATM    1  C4  UNL     1      -1.735   5.534  83.356  1.00  0.00     0.116 A 
HETATM    2  N2  UNL     1      -2.294   6.472  84.135  1.00  0.00    -0.338 N 
ATOM      3  H2  UNL     1      -2.353   7.421  83.766  1.00  0.00     0.168 HD
HETATM    4  C5  UNL     1      -2.784   6.252  85.373  1.00  0.00     0.182 A 
HETATM    5  N3  UNL     1      -2.727   5.025  85.894  1.00  0.00    -0.350 N 
ATOM      6  H3  UNL     1      -3.096   4.842  86.828  1.00  0.00     0.166 HD
HETATM    7  C6  UNL     1      -2.176   4.028  85.171  1.00  0.00     0.071 A 
HETATM    8  C7  UNL     1      -2.113   2.765  85.741  1.00  0.00     0.043 A 
HETATM    9  N4  UNL     1      -1.551   1.783  85.027  1.00  0.00    -0.343 N 
ATOM     10  H4  UNL     1      -1.496   0.848  85.432  1.00  0.00     0.167 HD
HETATM   11  C11 UNL     1      -1.051   1.989  83.778  1.00  0.00     0.117 A 
HETATM   12  C12 UNL     1      -1.098   3.228  83.179  1.00  0.00     0.070 A 
HETATM   13 BR1  UNL     1      -0.384   3.506  81.425  1.00  0.00    -0.046 Br
HETATM   14  C13 UNL     1      -1.675   4.262  83.901  1.00  0.00     0.058 A 
ENDROOT
BRANCH   1  15
HETATM   15  N1  UNL     1      -1.288   5.768  82.172  1.00  0.00    -0.376 N 
ATOM     16  H1  UNL     1      -0.946   4.968  81.638  1.00  0.00     0.161 HD
BRANCH  15  17
HETATM   17  C3  UNL     1      -1.228   7.037  81.541  1.00  0.00     0.121 C 
BRANCH  17  18
HETATM   18  C2  UNL     1      -2.402   7.421  80.694  1.00  0.00     0.015 C 
HETATM   19  C1  UNL     1      -3.323   8.431  81.338  1.00  0.00     0.006 C 
ENDBRANCH  17  18
ENDBRANCH  15  17
ENDBRANCH   1  15
BRANCH   8  20
HETATM   20  C8  UNL     1      -2.688   2.531  87.113  1.00  0.00     0.038 A 
HETATM   21  C9  UNL     1      -2.810   1.138  87.646  1.00  0.00     0.011 A 
HETATM   22  C10 UNL     1      -4.027   1.879  87.141  1.00  0.00     0.011 A 
ENDBRANCH   8  20
BRANCH  11  23
HETATM   23  N5  UNL     1      -0.520   1.014  83.135  1.00  0.00    -0.384 N 
ATOM     24  H52 UNL     1       0.049   0.341  83.649  1.00  0.00     0.157 HD
ATOM     25  H51 UNL     1      -0.675   0.926  82.131  1.00  0.00     0.157 HD
ENDBRANCH  11  23
TORSDOF 5
ENDMDL
MODEL 3
REMARK VINA RESULT: -5.956686675      2.697      4.526
REMARK  5 active torsions:
REMARK  status: ('A' for Active; 'I' for Inactive)
REMARK    1  A    between atoms: C2_2  and  C3_3 
REMARK    2  A    between atoms: C3_3  and  N1_4 
REMARK    3  A    between atoms: N1_4  and  C4_6 
REMARK    4  A    between atoms: C7_13  and  C8_14 
REMARK    5  A    between atoms: C11_19  and  N5_20 
ROOT
HETATM    1  C4  UNL     1       1.376   5.629  83.224  1.00  0.00     0.116 A 
HETATM    2  N2  UNL     1       2.451   5.329  82.480  1.00  0.00    -0.338 N 
ATOM      3  H2  UNL     1       3.214   6.006  82.455  1.00  0.00     0.168 HD
HETATM    4  C5  UNL     1       2.598   4.195  81.763  1.00  0.00     0.182 A 
HETATM    5  N3  UNL     1       1.624   3.282  81.769  1.00  0.00    -0.350 N 
ATOM      6  H3  UNL     1       1.721   2.419  81.234  1.00  0.00     0.166 HD
HETATM    7  C6  UNL     1       0.509   3.515  82.493  1.00  0.00     0.071 A 
HETATM    8  C7  UNL     1      -0.495   2.560  82.470  1.00  0.00     0.043 A 
HETATM    9  N4  UNL     1      -1.606   2.801  83.176  1.00  0.00    -0.343 N 
ATOM     10  H4  UNL     1      -2.355   2.109  83.168  1.00  0.00     0.167 HD
HETATM   11  C11 UNL     1      -1.771   3.940  83.903  1.00  0.00     0.117 A 
HETATM   12  C12 UNL     1      -0.794   4.910  83.951  1.00  0.00     0.070 A 
HETATM   13 BR1  UNL     1      -1.040   6.510  84.971  1.00  0.00    -0.046 Br
HETATM   14  C13 UNL     1       0.366   4.682  83.226  1.00  0.00     0.058 A 
ENDROOT
BRANCH   1  15
HETATM   15  N1  UNL     1       1.268   6.713  83.911  1.00  0.00    -0.376 N 
ATOM     16  H1  UNL     1       0.596   6.710  84.679  1.00  0.00     0.161 HD
BRANCH  15  17
HETATM   17  C3  UNL     1       1.998   7.909  83.697  1.00  0.00     0.121 C 
BRANCH  17  18
HETATM   18  C2  UNL     1       1.395   9.169  84.239  1.00  0.00     0.015 C 
HETATM   19  C1  UNL     1       1.688   9.414  85.701  1.00  0.00     0.006 C 
ENDBRANCH  17  18
ENDBRANCH  15  17
ENDBRANCH   1  15
BRANCH   8  20
HETATM   20  C8  UNL     1      -0.305   1.289  81.685  1.00  0.00     0.038 A 
HETATM   21  C9  UNL     1      -1.475   0.641  81.012  1.00  0.00     0.011 A 
HETATM   22  C10 UNL     1      -0.907   0.068  82.291  1.00  0.00     0.011 A 
ENDBRANCH   8  20
BRANCH  11  23
HETATM   23  N5  UNL     1      -2.856   4.125  84.560  1.00  0.00    -0.384 N 
ATOM     24  H52 UNL     1      -2.861   3.932  85.562  1.00  0.00     0.157 HD
ATOM     25  H51 UNL     1      -3.689   4.461  84.078  1.00  0.00     0.157 HD
ENDBRANCH  11  23
TORSDOF 5
ENDMDL
MODEL 4
REMARK VINA RESULT: -5.903807563      2.671      4.983
REMARK  5 active torsions:
REMARK  status: ('A' for Active; 'I' for Inactive)
REMARK    1  A    between atoms: C2_2  and  C3_3 
REMARK    2  A    between atoms: C3_3  and  N1_4 
REMARK    3  A    between atoms: N1_4  and  C4_6 
REMARK    4  A    between atoms: C7_13  and  C8_14 
REMARK    5  A    between atoms: C11_19  and  N5_20 
ROOT
HETATM    1  C4  UNL     1      -0.074   5.654  84.015  1.00  0.00     0.116 A 
HETATM    2  N2  UNL     1      -1.188   5.516  84.750  1.00  0.00    -0.338 N 
ATOM      3  H2  UNL     1      -1.427   6.271  85.393  1.00  0.00     0.168 HD
HETATM    4  C5  UNL     1      -2.015   4.452  84.701  1.00  0.00     0.182 A 
HETATM    5  N3  UNL     1      -1.739   3.442  83.873  1.00  0.00    -0.350 N 
ATOM      6  H3  UNL     1      -2.356   2.631  83.823  1.00  0.00     0.166 HD
HETATM    7  C6  UNL     1      -0.634   3.507  83.102  1.00  0.00     0.071 A 
HETATM    8  C7  UNL     1      -0.360   2.438  82.262  1.00  0.00     0.043 A 
HETATM    9  N4  UNL     1       0.746   2.499  81.511  1.00  0.00    -0.343 N 
ATOM     10  H4  UNL     1       0.963   1.721  80.889  1.00  0.00     0.167 HD
HETATM   11  C11 UNL     1       1.592   3.565  81.550  1.00  0.00     0.117 A 
HETATM   12  C12 UNL     1       1.351   4.645  82.369  1.00  0.00     0.070 A 
HETATM   13 BR1  UNL     1       2.551   6.134  82.421  1.00  0.00    -0.046 Br
HETATM   14  C13 UNL     1       0.211   4.604  83.158  1.00  0.00     0.058 A 
ENDROOT
BRANCH   1  15
HETATM   15  N1  UNL     1       0.690   6.688  84.070  1.00  0.00    -0.376 N 
ATOM     16  H1  UNL     1       1.582   6.633  83.577  1.00  0.00     0.161 HD
BRANCH  15  17
HETATM   17  C3  UNL     1       0.406   7.897  84.755  1.00  0.00     0.121 C 
BRANCH  17  18
HETATM   18  C2  UNL     1       1.381   9.018  84.570  1.00  0.00     0.015 C 
HETATM   19  C1  UNL     1       1.916   9.589  85.863  1.00  0.00     0.006 C 
ENDBRANCH  17  18
ENDBRANCH  15  17
ENDBRANCH   1  15
BRANCH   8  20
HETATM   20  C8  UNL     1      -1.307   1.269  82.201  1.00  0.00     0.038 A 
HETATM   21  C9  UNL     1      -0.785  -0.104  81.913  1.00  0.00     0.011 A 
HETATM   22  C10 UNL     1      -1.511   0.684  80.846  1.00  0.00     0.011 A 
ENDBRANCH   8  20
BRANCH  11  23
HETATM   23  N5  UNL     1       2.640   3.574  80.812  1.00  0.00    -0.384 N 
ATOM     24  H52 UNL     1       2.703   4.258  80.058  1.00  0.00     0.157 HD
ATOM     25  H51 UNL     1       3.389   2.905  80.988  1.00  0.00     0.157 HD
ENDBRANCH  11  23
TORSDOF 5
ENDMDL
MODEL 5
REMARK VINA RESULT: -5.895404046      2.354      4.680
REMARK  5 active torsions:
REMARK  status: ('A' for Active; 'I' for Inactive)
REMARK    1  A    between atoms: C2_2  and  C3_3 
REMARK    2  A    between atoms: C3_3  and  N1_4 
REMARK    3  A    between atoms: N1_4  and  C4_6 
REMARK    4  A    between atoms: C7_13  and  C8_14 
REMARK    5  A    between atoms: C11_19  and  N5_20 
ROOT
HETATM    1  C4  UNL     1      -1.237   4.502  83.129  1.00  0.00     0.116 A 
HETATM    2  N2  UNL     1      -1.097   4.875  81.847  1.00  0.00    -0.338 N 
ATOM      3  H2  UNL     1      -1.160   5.870  81.634  1.00  0.00     0.168 HD
HETATM    4  C5  UNL     1      -0.880   4.028  80.820  1.00  0.00     0.182 A 
HETATM    5  N3  UNL     1      -0.791   2.717  81.055  1.00  0.00    -0.350 N 
ATOM      6  H3  UNL     1      -0.625   2.065  80.288  1.00  0.00     0.166 HD
HETATM    7  C6  UNL     1      -0.924   2.266  82.319  1.00  0.00     0.071 A 
HETATM    8  C7  UNL     1      -0.845   0.898  82.536  1.00  0.00     0.043 A 
HETATM    9  N4  UNL     1      -0.993   0.453  83.789  1.00  0.00    -0.343 N 
ATOM     10  H4  UNL     1      -0.938  -0.550  83.965  1.00  0.00     0.167 HD
HETATM   11  C11 UNL     1      -1.214   1.294  84.837  1.00  0.00     0.117 A 
HETATM   12  C12 UNL     1      -1.296   2.657  84.660  1.00  0.00     0.070 A 
HETATM   13 BR1  UNL     1      -1.615   3.828  86.140  1.00  0.00    -0.046 Br
HETATM   14  C13 UNL     1      -1.147   3.142  83.369  1.00  0.00     0.058 A 
ENDROOT
BRANCH   1  15
HETATM   15  N1  UNL     1      -1.429   5.333  84.093  1.00  0.00    -0.376 N 
ATOM     16  H1  UNL     1      -1.942   4.990  84.906  1.00  0.00     0.161 HD
BRANCH  15  17
HETATM   17  C3  UNL     1      -0.993   6.682  84.128  1.00  0.00     0.121 C 
BRANCH  17  18
HETATM   18  C2  UNL     1       0.460   6.910  84.415  1.00  0.00     0.015 C 
HETATM   19  C1  UNL     1       0.797   8.332  84.800  1.00  0.00     0.006 C 
ENDBRANCH  17  18
ENDBRANCH  15  17
ENDBRANCH   1  15
BRANCH   8  20
HETATM   20  C8  UNL     1      -0.576  -0.031  81.382  1.00  0.00     0.038 A 
HETATM   21  C9  UNL     1      -0.061  -1.413  81.636  1.00  0.00     0.011 A 
HETATM   22  C10 UNL     1       0.860  -0.329  81.123  1.00  0.00     0.011 A 
ENDBRANCH   8  20
BRANCH  11  23
HETATM   23  N5  UNL     1      -1.351   0.816  86.019  1.00  0.00    -0.384 N 
ATOM     24  H52 UNL     1      -0.641   1.029  86.719  1.00  0.00     0.157 HD
ATOM     25  H51 UNL     1      -2.162   0.238  86.240  1.00  0.00     0.157 HD
ENDBRANCH  11  23
TORSDOF 5
ENDMDL
