MODEL 1
REMARK VINA RESULT: -5.528144470      0.000      0.000
REMARK  1 active torsions:
REMARK  status: ('A' for Active; 'I' for Inactive)
REMARK    1  A    between atoms: C3_3  and  O1_4 
ROOT
HETATM    1  C1  UNL     1      -0.129   1.368  81.850  1.00  0.00     0.017 C 
HETATM    2  C2  UNL     1      -0.308   2.508  81.560  1.00  0.00    -0.058 C 
HETATM    3  C3  UNL     1      -0.514   3.921  81.221  1.00  0.00     0.206 C 
HETATM    4  C4  UNL     1      -0.615   4.709  82.483  1.00  0.00     0.059 C 
HETATM    5  C5  UNL     1       0.263   5.737  82.664  1.00  0.00     0.094 C 
HETATM    6  N1  UNL     1       1.106   5.822  81.537  1.00  0.00    -0.340 N 
HETATM    7  C6  UNL     1       2.510   5.688  81.514  1.00  0.00     0.184 C 
HETATM    8  N2  UNL     1       2.809   4.637  80.748  1.00  0.00    -0.352 N 
ATOM      9  H2  UNL     1       3.781   4.368  80.592  1.00  0.00     0.166 HD
HETATM   10  C7  UNL     1       1.702   3.870  80.128  1.00  0.00     0.157 C 
HETATM   11  N3  UNL     1       0.382   4.312  80.206  1.00  0.00    -0.215 NA
HETATM   12  C8  UNL     1       0.439   5.840  80.246  1.00  0.00     0.231 C 
ENDROOT
BRANCH   3  13
HETATM   13  O1  UNL     1      -1.814   4.030  80.653  1.00  0.00    -0.361 OA
ATOM     14  H1  UNL     1      -2.225   4.793  81.040  1.00  0.00     0.213 HD
ENDBRANCH   3  13
TORSDOF 1
ENDMDL
MODEL 2
REMARK VINA RESULT: -5.458470477      1.686      3.648
REMARK  1 active torsions:
REMARK  status: ('A' for Active; 'I' for Inactive)
REMARK    1  A    between atoms: C3_3  and  O1_4 
ROOT
HETATM    1  C1  UNL     1       2.546   6.532  81.852  1.00  0.00     0.017 C 
HETATM    2  C2  UNL     1       1.764   5.828  81.296  1.00  0.00    -0.058 C 
HETATM    3  C3  UNL     1       0.810   4.941  80.620  1.00  0.00     0.206 C 
HETATM    4  C4  UNL     1       1.538   3.732  80.137  1.00  0.00     0.059 C 
HETATM    5  C5  UNL     1       1.101   2.513  80.563  1.00  0.00     0.094 C 
HETATM    6  N1  UNL     1      -0.013   2.697  81.408  1.00  0.00    -0.340 N 
HETATM    7  C6  UNL     1      -0.125   2.316  82.761  1.00  0.00     0.184 C 
HETATM    8  N2  UNL     1      -0.317   3.421  83.483  1.00  0.00    -0.352 N 
ATOM      9  H2  UNL     1      -0.431   3.368  84.496  1.00  0.00     0.166 HD
HETATM   10  C7  UNL     1      -0.362   4.729  82.785  1.00  0.00     0.157 C 
HETATM   11  N3  UNL     1      -0.360   4.807  81.393  1.00  0.00    -0.215 NA
HETATM   12  C8  UNL     1      -1.069   3.549  80.888  1.00  0.00     0.231 C 
ENDROOT
BRANCH   3  13
HETATM   13  O1  UNL     1       0.410   5.593  79.420  1.00  0.00    -0.361 OA
ATOM     14  H1  UNL     1       1.184   6.004  79.054  1.00  0.00     0.213 HD
ENDBRANCH   3  13
TORSDOF 1
ENDMDL
MODEL 3
REMARK VINA RESULT: -5.034483643      1.697      3.602
REMARK  1 active torsions:
REMARK  status: ('A' for Active; 'I' for Inactive)
REMARK    1  A    between atoms: C3_3  and  O1_4 
ROOT
HETATM    1  C1  UNL     1       1.075   7.360  82.749  1.00  0.00     0.017 C 
HETATM    2  C2  UNL     1       0.570   6.599  81.986  1.00  0.00    -0.058 C 
HETATM    3  C3  UNL     1      -0.035   5.645  81.048  1.00  0.00     0.206 C 
HETATM    4  C4  UNL     1       1.049   5.003  80.250  1.00  0.00     0.059 C 
HETATM    5  C5  UNL     1       1.143   3.644  80.281  1.00  0.00     0.094 C 
HETATM    6  N1  UNL     1       0.120   3.134  81.108  1.00  0.00    -0.340 N 
HETATM    7  C6  UNL     1       0.279   2.371  82.283  1.00  0.00     0.184 C 
HETATM    8  N2  UNL     1      -0.251   3.061  83.295  1.00  0.00    -0.352 N 
ATOM      9  H2  UNL     1      -0.246   2.681  84.242  1.00  0.00     0.166 HD
HETATM   10  C7  UNL     1      -0.846   4.390  83.016  1.00  0.00     0.157 C 
HETATM   11  N3  UNL     1      -0.995   4.857  81.710  1.00  0.00    -0.215 NA
HETATM   12  C8  UNL     1      -1.220   3.624  80.833  1.00  0.00     0.231 C 
ENDROOT
BRANCH   3  13
HETATM   13  O1  UNL     1      -0.755   6.406  80.085  1.00  0.00    -0.361 OA
ATOM     14  H1  UNL     1      -1.535   5.910  79.864  1.00  0.00     0.213 HD
ENDBRANCH   3  13
TORSDOF 1
ENDMDL
MODEL 4
REMARK VINA RESULT: -4.976320325      1.935      2.613
REMARK  1 active torsions:
REMARK  status: ('A' for Active; 'I' for Inactive)
REMARK    1  A    between atoms: C3_3  and  O1_4 
ROOT
HETATM    1  C1  UNL     1      -0.479   3.615  85.703  1.00  0.00     0.017 C 
HETATM    2  C2  UNL     1      -0.613   4.249  84.705  1.00  0.00    -0.058 C 
HETATM    3  C3  UNL     1      -0.756   5.033  83.473  1.00  0.00     0.206 C 
HETATM    4  C4  UNL     1       0.239   6.145  83.493  1.00  0.00     0.059 C 
HETATM    5  C5  UNL     1       1.124   6.225  82.459  1.00  0.00     0.094 C 
HETATM    6  N1  UNL     1       0.867   5.175  81.554  1.00  0.00    -0.340 N 
HETATM    7  C6  UNL     1       1.750   4.142  81.176  1.00  0.00     0.184 C 
HETATM    8  N2  UNL     1       1.206   2.982  81.544  1.00  0.00    -0.352 N 
ATOM      9  H2  UNL     1       1.684   2.100  81.357  1.00  0.00     0.166 HD
HETATM   10  C7  UNL     1      -0.109   2.997  82.231  1.00  0.00     0.157 C 
HETATM   11  N3  UNL     1      -0.844   4.175  82.359  1.00  0.00    -0.215 NA
HETATM   12  C8  UNL     1      -0.516   5.027  81.131  1.00  0.00     0.231 C 
ENDROOT
BRANCH   3  13
HETATM   13  O1  UNL     1      -2.009   5.704  83.546  1.00  0.00    -0.361 OA
ATOM     14  H1  UNL     1      -2.604   5.248  82.963  1.00  0.00     0.213 HD
ENDBRANCH   3  13
TORSDOF 1
ENDMDL
MODEL 5
REMARK VINA RESULT: -4.916110917      3.727      5.007
REMARK  1 active torsions:
REMARK  status: ('A' for Active; 'I' for Inactive)
REMARK    1  A    between atoms: C3_3  and  O1_4 
ROOT
HETATM    1  C1  UNL     1      -2.932   3.371  86.846  1.00  0.00     0.017 C 
HETATM    2  C2  UNL     1      -1.924   3.732  86.325  1.00  0.00    -0.058 C 
HETATM    3  C3  UNL     1      -0.693   4.177  85.662  1.00  0.00     0.206 C 
HETATM    4  C4  UNL     1      -0.601   3.519  84.327  1.00  0.00     0.059 C 
HETATM    5  C5  UNL     1      -0.499   4.319  83.229  1.00  0.00     0.094 C 
HETATM    6  N1  UNL     1      -0.496   5.667  83.643  1.00  0.00    -0.340 N 
HETATM    7  C6  UNL     1      -1.428   6.666  83.293  1.00  0.00     0.184 C 
HETATM    8  N2  UNL     1      -2.021   7.084  84.413  1.00  0.00    -0.352 N 
ATOM      9  H2  UNL     1      -2.731   7.816  84.383  1.00  0.00     0.166 HD
HETATM   10  C7  UNL     1      -1.628   6.464  85.701  1.00  0.00     0.157 C 
HETATM   11  N3  UNL     1      -0.557   5.574  85.779  1.00  0.00    -0.215 NA
HETATM   12  C8  UNL     1       0.442   6.002  84.702  1.00  0.00     0.231 C 
ENDROOT
BRANCH   3  13
HETATM   13  O1  UNL     1       0.398   3.620  86.387  1.00  0.00    -0.361 OA
ATOM     14  H1  UNL     1       0.235   2.687  86.463  1.00  0.00     0.213 HD
ENDBRANCH   3  13
TORSDOF 1
ENDMDL
