MODEL 1
REMARK VINA RESULT: -5.178429483      0.000      0.000
REMARK  2 active torsions:
REMARK  status: ('A' for Active; 'I' for Inactive)
REMARK    1  A    between atoms: C2_2  and  N2_7 
REMARK    2  A    between atoms: N1_3  and  O1_5 
ROOT
HETATM    1  N2  UNL     1      -0.448   5.006  84.220  1.00  0.00    -0.318 N 
HETATM    2  C3  UNL     1      -0.465   3.948  83.224  1.00  0.00     0.402 C 
HETATM    3  N3  UNL     1      -0.876   4.574  81.977  1.00  0.00     0.129 N 
HETATM    4  C4  UNL     1      -1.067   3.541  80.982  1.00  0.00     0.314 C 
HETATM    5  C5  UNL     1       0.156   5.508  81.608  1.00  0.00     0.545 C 
HETATM    6  N4  UNL     1       0.208   6.591  82.529  1.00  0.00     0.129 N 
HETATM    7  C6  UNL     1       1.374   7.436  82.258  1.00  0.00     0.314 C 
HETATM    8  C7  UNL     1       0.340   6.163  83.910  1.00  0.00     0.402 C 
ENDROOT
BRANCH   1   9
HETATM    9  C2  UNL     1      -1.155   4.934  85.434  1.00  0.00     0.098 C 
HETATM   10  C1  UNL     1      -2.347   5.751  85.722  1.00  0.00     0.091 C 
HETATM   11  N1  UNL     1      -0.731   4.107  86.337  1.00  0.00    -0.257 N 
ATOM     12  H1  UNL     1      -1.235   4.046  87.221  1.00  0.00     0.195 HD
BRANCH  11  13
HETATM   13  O1  UNL     1       0.371   3.311  86.149  1.00  0.00    -0.288 OA
ATOM     14  H1  UNL     1       0.983   3.111  86.848  1.00  0.00     0.244 HD
ENDBRANCH  11  13
ENDBRANCH   1   9
TORSDOF 2
ENDMDL
MODEL 2
REMARK VINA RESULT: -5.097011828      1.540      2.847
REMARK  2 active torsions:
REMARK  status: ('A' for Active; 'I' for Inactive)
REMARK    1  A    between atoms: C2_2  and  N2_7 
REMARK    2  A    between atoms: N1_3  and  O1_5 
ROOT
HETATM    1  N2  UNL     1      -1.595   5.074  85.093  1.00  0.00    -0.318 N 
HETATM    2  C3  UNL     1      -1.922   6.488  85.160  1.00  0.00     0.402 C 
HETATM    3  N3  UNL     1      -0.713   7.200  84.777  1.00  0.00     0.129 N 
HETATM    4  C4  UNL     1      -0.929   8.617  84.980  1.00  0.00     0.314 C 
HETATM    5  C5  UNL     1      -0.444   6.876  83.401  1.00  0.00     0.545 C 
HETATM    6  N4  UNL     1      -0.086   5.506  83.266  1.00  0.00     0.129 N 
HETATM    7  C6  UNL     1       0.004   5.138  81.851  1.00  0.00     0.314 C 
HETATM    8  C7  UNL     1      -1.058   4.600  83.851  1.00  0.00     0.402 C 
ENDROOT
BRANCH   1   9
HETATM    9  C2  UNL     1      -1.781   4.187  86.170  1.00  0.00     0.098 C 
HETATM   10  C1  UNL     1      -3.105   3.874  86.736  1.00  0.00     0.091 C 
HETATM   11  N1  UNL     1      -0.733   3.626  86.683  1.00  0.00    -0.257 N 
ATOM     12  H1  UNL     1      -0.854   2.982  87.465  1.00  0.00     0.195 HD
BRANCH  11  13
HETATM   13  O1  UNL     1       0.536   3.865  86.216  1.00  0.00    -0.288 OA
ATOM     14  H1  UNL     1       0.728   3.978  85.292  1.00  0.00     0.244 HD
ENDBRANCH  11  13
ENDBRANCH   1   9
TORSDOF 2
ENDMDL
MODEL 3
REMARK VINA RESULT: -5.083225605      1.191      2.609
REMARK  2 active torsions:
REMARK  status: ('A' for Active; 'I' for Inactive)
REMARK    1  A    between atoms: C2_2  and  N2_7 
REMARK    2  A    between atoms: N1_3  and  O1_5 
ROOT
HETATM    1  N2  UNL     1      -1.002   5.428  84.858  1.00  0.00    -0.318 N 
HETATM    2  C3  UNL     1      -0.280   6.689  84.826  1.00  0.00     0.402 C 
HETATM    3  N3  UNL     1       0.964   6.424  84.119  1.00  0.00     0.129 N 
HETATM    4  C4  UNL     1       1.799   7.604  84.195  1.00  0.00     0.314 C 
HETATM    5  C5  UNL     1       0.620   6.081  82.765  1.00  0.00     0.545 C 
HETATM    6  N4  UNL     1      -0.066   4.835  82.719  1.00  0.00     0.129 N 
HETATM    7  C6  UNL     1      -0.575   4.582  81.368  1.00  0.00     0.314 C 
HETATM    8  C7  UNL     1      -1.223   4.787  83.595  1.00  0.00     0.402 C 
ENDROOT
BRANCH   1   9
HETATM    9  C2  UNL     1      -1.472   4.839  86.045  1.00  0.00     0.098 C 
HETATM   10  C1  UNL     1      -2.724   5.247  86.707  1.00  0.00     0.091 C 
HETATM   11  N1  UNL     1      -0.763   3.894  86.577  1.00  0.00    -0.257 N 
ATOM     12  H1  UNL     1      -1.093   3.459  87.438  1.00  0.00     0.195 HD
BRANCH  11  13
HETATM   13  O1  UNL     1       0.415   3.455  86.025  1.00  0.00    -0.288 OA
ATOM     14  H1  UNL     1       0.573   3.458  85.088  1.00  0.00     0.244 HD
ENDBRANCH  11  13
ENDBRANCH   1   9
TORSDOF 2
ENDMDL
MODEL 4
REMARK VINA RESULT: -4.998440896      2.365      4.102
REMARK  2 active torsions:
REMARK  status: ('A' for Active; 'I' for Inactive)
REMARK    1  A    between atoms: C2_2  and  N2_7 
REMARK    2  A    between atoms: N1_3  and  O1_5 
ROOT
HETATM    1  N2  UNL     1      -0.063   4.079  82.001  1.00  0.00    -0.318 N 
HETATM    2  C3  UNL     1       0.925   5.010  81.483  1.00  0.00     0.402 C 
HETATM    3  N3  UNL     1       0.290   6.319  81.491  1.00  0.00     0.129 N 
HETATM    4  C4  UNL     1       1.170   7.263  80.835  1.00  0.00     0.314 C 
HETATM    5  C5  UNL     1       0.040   6.664  82.865  1.00  0.00     0.545 C 
HETATM    6  N4  UNL     1      -0.946   5.807  83.429  1.00  0.00     0.129 N 
HETATM    7  C6  UNL     1      -1.061   6.040  84.871  1.00  0.00     0.314 C 
HETATM    8  C7  UNL     1      -0.633   4.398  83.278  1.00  0.00     0.402 C 
ENDROOT
BRANCH   1   9
HETATM    9  C2  UNL     1      -0.465   2.920  81.314  1.00  0.00     0.098 C 
HETATM   10  C1  UNL     1       0.125   1.592  81.561  1.00  0.00     0.091 C 
HETATM   11  N1  UNL     1      -1.397   3.034  80.421  1.00  0.00    -0.257 N 
ATOM     12  H1  UNL     1      -1.696   2.200  79.916  1.00  0.00     0.195 HD
BRANCH  11  13
HETATM   13  O1  UNL     1      -1.997   4.234  80.130  1.00  0.00    -0.288 OA
ATOM     14  H1  UNL     1      -2.642   4.328  79.438  1.00  0.00     0.244 HD
ENDBRANCH  11  13
ENDBRANCH   1   9
TORSDOF 2
ENDMDL
MODEL 5
REMARK VINA RESULT: -4.888805354      3.371      4.231
REMARK  2 active torsions:
REMARK  status: ('A' for Active; 'I' for Inactive)
REMARK    1  A    between atoms: C2_2  and  N2_7 
REMARK    2  A    between atoms: N1_3  and  O1_5 
ROOT
HETATM    1  N2  UNL     1       0.698   4.102  81.117  1.00  0.00    -0.318 N 
HETATM    2  C3  UNL     1       1.810   4.152  80.183  1.00  0.00     0.402 C 
HETATM    3  N3  UNL     1       1.740   5.456  79.541  1.00  0.00     0.129 N 
HETATM    4  C4  UNL     1       2.727   5.504  78.484  1.00  0.00     0.314 C 
HETATM    5  C5  UNL     1       1.975   6.446  80.559  1.00  0.00     0.545 C 
HETATM    6  N4  UNL     1       0.904   6.472  81.495  1.00  0.00     0.129 N 
HETATM    7  C6  UNL     1       1.234   7.344  82.625  1.00  0.00     0.314 C 
HETATM    8  C7  UNL     1       0.614   5.171  82.069  1.00  0.00     0.402 C 
ENDROOT
BRANCH   1   9
HETATM    9  C2  UNL     1      -0.265   3.076  81.115  1.00  0.00     0.098 C 
HETATM   10  C1  UNL     1      -0.039   1.758  81.735  1.00  0.00     0.091 C 
HETATM   11  N1  UNL     1      -1.400   3.309  80.536  1.00  0.00    -0.257 N 
ATOM     12  H1  UNL     1      -2.106   2.573  80.527  1.00  0.00     0.195 HD
BRANCH  11  13
HETATM   13  O1  UNL     1      -1.690   4.509  79.935  1.00  0.00    -0.288 OA
ATOM     14  H1  UNL     1      -2.209   4.570  79.141  1.00  0.00     0.244 HD
ENDBRANCH  11  13
ENDBRANCH   1   9
TORSDOF 2
ENDMDL
