MODEL 1
REMARK VINA RESULT: -7.890947312      0.000      0.000
REMARK  6 active torsions:
REMARK  status: ('A' for Active; 'I' for Inactive)
REMARK    1  A    between atoms: C2_2  and  N1_4 
REMARK    2  A    between atoms: C5_6  and  C6_7 
REMARK    3  A    between atoms: C6_7  and  C8_15 
REMARK    4  A    between atoms: N2_8  and  N3_10 
REMARK    5  A    between atoms: N3_10  and  C7_12 
REMARK    6  A    between atoms: C14_24  and  N5_25 
ROOT
HETATM    1  C6  UNL     1     -24.359   6.219  10.375  1.00  0.00     0.080 C 
HETATM    2  N2  UNL     1     -25.036   7.311  10.272  1.00  0.00    -0.297 N 
ATOM      3  H2  UNL     1     -25.962   7.261  10.697  1.00  0.00     0.187 HD
ENDROOT
BRANCH   1   4
HETATM    4  C5  UNL     1     -23.041   6.232   9.795  1.00  0.00     0.053 A 
HETATM    5  C4  UNL     1     -21.894   6.776  10.327  1.00  0.00     0.115 A 
HETATM    6  N1  UNL     1     -20.829   6.851   9.587  1.00  0.00    -0.332 N 
HETATM    7  C14 UNL     1     -20.889   6.394   8.330  1.00  0.00     0.145 A 
HETATM    8  S2  UNL     1     -22.479   5.850   8.198  1.00  0.00    -0.051 SA
BRANCH   6   9
HETATM    9  C2  UNL     1     -19.545   7.423  10.110  1.00  0.00     0.083 C 
HETATM   10  C1  UNL     1     -18.905   8.296   9.092  1.00  0.00     0.032 C 
HETATM   11  C3  UNL     1     -19.785   8.152  11.382  1.00  0.00     0.032 C 
ENDBRANCH   6   9
BRANCH   7  12
HETATM   12  N5  UNL     1     -19.906   6.394   7.447  1.00  0.00    -0.379 N 
ATOM     13  H52 UNL     1     -19.096   5.782   7.359  1.00  0.00     0.158 HD
ATOM     14  H51 UNL     1     -19.793   7.041   6.667  1.00  0.00     0.158 HD
ENDBRANCH   7  12
ENDBRANCH   1   4
BRANCH   1  15
HETATM   15  C8  UNL     1     -25.003   5.121  11.036  1.00  0.00     0.037 A 
HETATM   16  C9  UNL     1     -24.964   5.100  12.465  1.00  0.00     0.048 A 
HETATM   17 CL1  UNL     1     -24.237   6.451  13.298  1.00  0.00    -0.083 Cl
HETATM   18  C10 UNL     1     -25.463   4.095  13.231  1.00  0.00     0.025 A 
HETATM   19  C11 UNL     1     -26.045   3.024  12.592  1.00  0.00     0.003 A 
HETATM   20  C12 UNL     1     -26.113   2.981  11.217  1.00  0.00     0.025 A 
HETATM   21  C13 UNL     1     -25.584   4.039  10.446  1.00  0.00     0.048 A 
HETATM   22 CL2  UNL     1     -25.590   3.827   8.719  1.00  0.00    -0.083 Cl
ENDBRANCH   1  15
BRANCH   2  23
HETATM   23  N3  UNL     1     -24.758   8.512   9.707  1.00  0.00    -0.278 N 
ATOM     24  H3  UNL     1     -25.022   8.667   8.734  1.00  0.00     0.189 HD
BRANCH  23  25
HETATM   25  C7  UNL     1     -24.120   9.558  10.407  1.00  0.00     0.199 C 
HETATM   26  N4  UNL     1     -24.654   9.967  11.657  1.00  0.00    -0.068 NA
HETATM   27  S1  UNL     1     -22.797  10.272   9.800  1.00  0.00    -0.043 SA
ENDBRANCH  23  25
ENDBRANCH   2  23
TORSDOF 6
ENDMDL
MODEL 2
REMARK VINA RESULT: -7.770110264      0.243      1.894
REMARK  6 active torsions:
REMARK  status: ('A' for Active; 'I' for Inactive)
REMARK    1  A    between atoms: C2_2  and  N1_4 
REMARK    2  A    between atoms: C5_6  and  C6_7 
REMARK    3  A    between atoms: C6_7  and  C8_15 
REMARK    4  A    between atoms: N2_8  and  N3_10 
REMARK    5  A    between atoms: N3_10  and  C7_12 
REMARK    6  A    between atoms: C14_24  and  N5_25 
ROOT
HETATM    1  C6  UNL     1     -24.296   6.166  10.371  1.00  0.00     0.080 C 
HETATM    2  N2  UNL     1     -25.021   7.216  10.197  1.00  0.00    -0.297 N 
ATOM      3  H2  UNL     1     -25.952   7.145  10.608  1.00  0.00     0.187 HD
ENDROOT
BRANCH   1   4
HETATM    4  C5  UNL     1     -22.969   6.211   9.813  1.00  0.00     0.053 A 
HETATM    5  C4  UNL     1     -21.841   6.769  10.371  1.00  0.00     0.115 A 
HETATM    6  N1  UNL     1     -20.766   6.874   9.650  1.00  0.00    -0.332 N 
HETATM    7  C14 UNL     1     -20.797   6.433   8.387  1.00  0.00     0.145 A 
HETATM    8  S2  UNL     1     -22.373   5.861   8.220  1.00  0.00    -0.051 SA
BRANCH   6   9
HETATM    9  C2  UNL     1     -19.501   7.462  10.202  1.00  0.00     0.083 C 
HETATM   10  C1  UNL     1     -18.859   8.358   9.205  1.00  0.00     0.032 C 
HETATM   11  C3  UNL     1     -19.777   8.173  11.478  1.00  0.00     0.032 C 
ENDBRANCH   6   9
BRANCH   7  12
HETATM   12  N5  UNL     1     -19.799   6.463   7.520  1.00  0.00    -0.379 N 
ATOM     13  H52 UNL     1     -18.792   6.409   7.667  1.00  0.00     0.158 HD
ATOM     14  H51 UNL     1     -19.880   6.550   6.507  1.00  0.00     0.158 HD
ENDBRANCH   7  12
ENDBRANCH   1   4
BRANCH   1  15
HETATM   15  C8  UNL     1     -24.900   5.074  11.078  1.00  0.00     0.037 A 
HETATM   16  C9  UNL     1     -25.521   4.050  10.299  1.00  0.00     0.048 A 
HETATM   17 CL1  UNL     1     -25.410   4.145   8.559  1.00  0.00    -0.083 Cl
HETATM   18  C10 UNL     1     -26.196   2.993  10.820  1.00  0.00     0.025 A 
HETATM   19  C11 UNL     1     -26.290   2.898  12.189  1.00  0.00     0.003 A 
HETATM   20  C12 UNL     1     -25.715   3.853  12.999  1.00  0.00     0.025 A 
HETATM   21  C13 UNL     1     -25.022   4.943  12.429  1.00  0.00     0.048 A 
HETATM   22 CL2  UNL     1     -24.453   6.168  13.526  1.00  0.00    -0.083 Cl
ENDBRANCH   1  15
BRANCH   2  23
HETATM   23  N3  UNL     1     -24.789   8.398   9.574  1.00  0.00    -0.278 N 
ATOM     24  H3  UNL     1     -25.059   8.495   8.595  1.00  0.00     0.189 HD
BRANCH  23  25
HETATM   25  C7  UNL     1     -24.192   9.501  10.220  1.00  0.00     0.199 C 
HETATM   26  N4  UNL     1     -24.833  10.053  11.360  1.00  0.00    -0.068 NA
HETATM   27  S1  UNL     1     -22.795  10.120   9.676  1.00  0.00    -0.043 SA
ENDBRANCH  23  25
ENDBRANCH   2  23
TORSDOF 6
ENDMDL
MODEL 3
REMARK VINA RESULT: -7.426406771      2.708      6.297
REMARK  6 active torsions:
REMARK  status: ('A' for Active; 'I' for Inactive)
REMARK    1  A    between atoms: C2_2  and  N1_4 
REMARK    2  A    between atoms: C5_6  and  C6_7 
REMARK    3  A    between atoms: C6_7  and  C8_15 
REMARK    4  A    between atoms: N2_8  and  N3_10 
REMARK    5  A    between atoms: N3_10  and  C7_12 
REMARK    6  A    between atoms: C14_24  and  N5_25 
ROOT
HETATM    1  C6  UNL     1     -23.275   7.468  10.643  1.00  0.00     0.080 C 
HETATM    2  N2  UNL     1     -23.572   7.275   9.405  1.00  0.00    -0.297 N 
ATOM      3  H2  UNL     1     -23.165   7.963   8.772  1.00  0.00     0.187 HD
ENDROOT
BRANCH   1   4
HETATM    4  C5  UNL     1     -23.822   6.523  11.582  1.00  0.00     0.053 A 
HETATM    5  C4  UNL     1     -24.592   5.414  11.308  1.00  0.00     0.115 A 
HETATM    6  N1  UNL     1     -25.145   4.771  12.291  1.00  0.00    -0.332 N 
HETATM    7  C14 UNL     1     -24.944   5.213  13.539  1.00  0.00     0.145 A 
HETATM    8  S2  UNL     1     -23.956   6.559  13.312  1.00  0.00    -0.051 SA
BRANCH   6   9
HETATM    9  C2  UNL     1     -25.986   3.551  12.060  1.00  0.00     0.083 C 
HETATM   10  C1  UNL     1     -26.139   3.286  10.606  1.00  0.00     0.032 C 
HETATM   11  C3  UNL     1     -25.405   2.382  12.770  1.00  0.00     0.032 C 
ENDBRANCH   6   9
BRANCH   7  12
HETATM   12  N5  UNL     1     -25.430   4.682  14.648  1.00  0.00    -0.379 N 
ATOM     13  H52 UNL     1     -24.974   4.128  15.371  1.00  0.00     0.158 HD
ATOM     14  H51 UNL     1     -26.393   4.745  14.977  1.00  0.00     0.158 HD
ENDBRANCH   7  12
ENDBRANCH   1   4
BRANCH   1  15
HETATM   15  C8  UNL     1     -22.457   8.607  10.940  1.00  0.00     0.037 A 
HETATM   16  C9  UNL     1     -23.121   9.852  11.171  1.00  0.00     0.048 A 
HETATM   17 CL1  UNL     1     -24.867   9.874  11.180  1.00  0.00    -0.083 Cl
HETATM   18  C10 UNL     1     -22.485  11.031  11.392  1.00  0.00     0.025 A 
HETATM   19  C11 UNL     1     -21.109  11.033  11.395  1.00  0.00     0.003 A 
HETATM   20  C12 UNL     1     -20.406   9.868  11.176  1.00  0.00     0.025 A 
HETATM   21  C13 UNL     1     -21.095   8.657  10.947  1.00  0.00     0.048 A 
HETATM   22 CL2  UNL     1     -20.124   7.270  10.543  1.00  0.00    -0.083 Cl
ENDBRANCH   1  15
BRANCH   2  23
HETATM   23  N3  UNL     1     -24.321   6.334   8.777  1.00  0.00    -0.278 N 
ATOM     24  H3  UNL     1     -25.268   6.160   9.114  1.00  0.00     0.189 HD
BRANCH  23  25
HETATM   25  C7  UNL     1     -23.848   5.586   7.679  1.00  0.00     0.199 C 
HETATM   26  N4  UNL     1     -22.530   5.824   7.208  1.00  0.00    -0.068 NA
HETATM   27  S1  UNL     1     -24.788   4.468   6.973  1.00  0.00    -0.043 SA
ENDBRANCH  23  25
ENDBRANCH   2  23
TORSDOF 6
ENDMDL
MODEL 4
REMARK VINA RESULT: -7.401691475      1.883      3.722
REMARK  6 active torsions:
REMARK  status: ('A' for Active; 'I' for Inactive)
REMARK    1  A    between atoms: C2_2  and  N1_4 
REMARK    2  A    between atoms: C5_6  and  C6_7 
REMARK    3  A    between atoms: C6_7  and  C8_15 
REMARK    4  A    between atoms: N2_8  and  N3_10 
REMARK    5  A    between atoms: N3_10  and  C7_12 
REMARK    6  A    between atoms: C14_24  and  N5_25 
ROOT
HETATM    1  C6  UNL     1     -23.407   6.615  10.050  1.00  0.00     0.080 C 
HETATM    2  N2  UNL     1     -22.436   6.178   9.325  1.00  0.00    -0.297 N 
ATOM      3  H2  UNL     1     -22.442   5.166   9.196  1.00  0.00     0.187 HD
ENDROOT
BRANCH   1   4
HETATM    4  C5  UNL     1     -23.450   8.038  10.263  1.00  0.00     0.053 A 
HETATM    5  C4  UNL     1     -22.388   8.890  10.471  1.00  0.00     0.115 A 
HETATM    6  N1  UNL     1     -22.623  10.118  10.820  1.00  0.00    -0.332 N 
HETATM    7  C14 UNL     1     -23.895  10.511  10.964  1.00  0.00     0.145 A 
HETATM    8  S2  UNL     1     -24.768   9.117  10.598  1.00  0.00    -0.051 SA
BRANCH   6   9
HETATM    9  C2  UNL     1     -21.511  11.098  11.052  1.00  0.00     0.083 C 
HETATM   10  C1  UNL     1     -21.742  11.869  12.301  1.00  0.00     0.032 C 
HETATM   11  C3  UNL     1     -20.202  10.395  11.078  1.00  0.00     0.032 C 
ENDBRANCH   6   9
BRANCH   7  12
HETATM   12  N5  UNL     1     -24.310  11.717  11.312  1.00  0.00    -0.379 N 
ATOM     13  H52 UNL     1     -24.075  12.633  10.932  1.00  0.00     0.158 HD
ATOM     14  H51 UNL     1     -24.969  11.938  12.058  1.00  0.00     0.158 HD
ENDBRANCH   7  12
ENDBRANCH   1   4
BRANCH   1  15
HETATM   15  C8  UNL     1     -24.314   5.634  10.572  1.00  0.00     0.037 A 
HETATM   16  C9  UNL     1     -24.399   5.509  11.993  1.00  0.00     0.048 A 
HETATM   17 CL1  UNL     1     -23.482   6.617  12.983  1.00  0.00    -0.083 Cl
HETATM   18  C10 UNL     1     -25.154   4.582  12.637  1.00  0.00     0.025 A 
HETATM   19  C11 UNL     1     -25.888   3.703  11.874  1.00  0.00     0.003 A 
HETATM   20  C12 UNL     1     -25.850   3.768  10.498  1.00  0.00     0.025 A 
HETATM   21  C13 UNL     1     -25.054   4.741   9.856  1.00  0.00     0.048 A 
HETATM   22 CL2  UNL     1     -24.961   4.654   8.120  1.00  0.00    -0.083 Cl
ENDBRANCH   1  15
BRANCH   2  23
HETATM   23  N3  UNL     1     -21.406   6.801   8.700  1.00  0.00    -0.278 N 
ATOM     24  H3  UNL     1     -21.591   7.290   7.824  1.00  0.00     0.189 HD
BRANCH  23  25
HETATM   25  C7  UNL     1     -20.089   6.801   9.207  1.00  0.00     0.199 C 
HETATM   26  N4  UNL     1     -19.770   5.922  10.275  1.00  0.00    -0.068 NA
HETATM   27  S1  UNL     1     -18.961   7.781   8.577  1.00  0.00    -0.043 SA
ENDBRANCH  23  25
ENDBRANCH   2  23
TORSDOF 6
ENDMDL
MODEL 5
REMARK VINA RESULT: -7.363180339      2.123      3.557
REMARK  6 active torsions:
REMARK  status: ('A' for Active; 'I' for Inactive)
REMARK    1  A    between atoms: C2_2  and  N1_4 
REMARK    2  A    between atoms: C5_6  and  C6_7 
REMARK    3  A    between atoms: C6_7  and  C8_15 
REMARK    4  A    between atoms: N2_8  and  N3_10 
REMARK    5  A    between atoms: N3_10  and  C7_12 
REMARK    6  A    between atoms: C14_24  and  N5_25 
ROOT
HETATM    1  C6  UNL     1     -24.302   5.927  11.095  1.00  0.00     0.080 C 
HETATM    2  N2  UNL     1     -24.810   5.961   9.912  1.00  0.00    -0.297 N 
ATOM      3  H2  UNL     1     -25.597   5.325   9.784  1.00  0.00     0.187 HD
ENDROOT
BRANCH   1   4
HETATM    4  C5  UNL     1     -23.188   6.808  11.333  1.00  0.00     0.053 A 
HETATM    5  C4  UNL     1     -23.149   8.175  11.173  1.00  0.00     0.115 A 
HETATM    6  N1  UNL     1     -22.008   8.789  11.267  1.00  0.00    -0.332 N 
HETATM    7  C14 UNL     1     -20.910   8.064  11.516  1.00  0.00     0.145 A 
HETATM    8  S2  UNL     1     -21.506   6.491  11.620  1.00  0.00    -0.051 SA
BRANCH   6   9
HETATM    9  C2  UNL     1     -21.899  10.277  11.114  1.00  0.00     0.083 C 
HETATM   10  C1  UNL     1     -21.683  10.644   9.690  1.00  0.00     0.032 C 
HETATM   11  C3  UNL     1     -23.104  10.943  11.673  1.00  0.00     0.032 C 
ENDBRANCH   6   9
BRANCH   7  12
HETATM   12  N5  UNL     1     -19.677   8.525  11.641  1.00  0.00    -0.379 N 
ATOM     13  H52 UNL     1     -19.270   9.414  11.352  1.00  0.00     0.158 HD
ATOM     14  H51 UNL     1     -18.890   8.039  12.071  1.00  0.00     0.158 HD
ENDBRANCH   7  12
ENDBRANCH   1   4
BRANCH   1  15
HETATM   15  C8  UNL     1     -24.890   5.006  12.023  1.00  0.00     0.037 A 
HETATM   16  C9  UNL     1     -25.591   3.884  11.481  1.00  0.00     0.048 A 
HETATM   17 CL1  UNL     1     -25.591   3.661   9.749  1.00  0.00    -0.083 Cl
HETATM   18  C10 UNL     1     -26.261   2.966  12.224  1.00  0.00     0.025 A 
HETATM   19  C11 UNL     1     -26.267   3.122  13.591  1.00  0.00     0.003 A 
HETATM   20  C12 UNL     1     -25.613   4.183  14.179  1.00  0.00     0.025 A 
HETATM   21  C13 UNL     1     -24.927   5.123  13.380  1.00  0.00     0.048 A 
HETATM   22 CL2  UNL     1     -24.253   6.502  14.201  1.00  0.00    -0.083 Cl
ENDBRANCH   1  15
BRANCH   2  23
HETATM   23  N3  UNL     1     -24.503   6.678   8.802  1.00  0.00    -0.278 N 
ATOM     24  H3  UNL     1     -24.851   7.634   8.727  1.00  0.00     0.189 HD
BRANCH  23  25
HETATM   25  C7  UNL     1     -23.725   6.159   7.746  1.00  0.00     0.199 C 
HETATM   26  N4  UNL     1     -24.386   5.557   6.643  1.00  0.00    -0.068 NA
HETATM   27  S1  UNL     1     -22.106   6.256   7.786  1.00  0.00    -0.043 SA
ENDBRANCH  23  25
ENDBRANCH   2  23
TORSDOF 6
ENDMDL
