MODEL 1
REMARK VINA RESULT: -8.276425121      0.000      0.000
REMARK  7 active torsions:
REMARK  status: ('A' for Active; 'I' for Inactive)
REMARK    1  A    between atoms: N1_2  and  C3_4 
REMARK    2  A    between atoms: C5_8  and  C6_9 
REMARK    3  A    between atoms: C10_13  and  C11_14 
REMARK    4  A    between atoms: C11_14  and  C12_15 
REMARK    5  A    between atoms: C12_15  and  N3_16 
REMARK       I    between atoms: N3_16  and  C13_18 
REMARK    6  A    between atoms: C13_18  and  C14_20 
REMARK    7  A    between atoms: C16_25  and  N4_26 
ROOT
HETATM    1  C3  UNL     1     -25.795   3.380  14.030  1.00  0.00     0.681 A 
HETATM    2  N2  UNL     1     -25.184   4.481  13.581  1.00  0.00    -0.190 N 
ATOM      3  H2  UNL     1     -24.808   5.143  14.259  1.00  0.00     0.184 HD
HETATM    4  C4  UNL     1     -25.044   4.758  12.236  1.00  0.00     0.078 A 
HETATM    5  C5  UNL     1     -24.443   5.852  11.627  1.00  0.00    -0.009 A 
HETATM    6  C10 UNL     1     -24.439   5.883  10.288  1.00  0.00    -0.006 A 
HETATM    7  S1  UNL     1     -25.266   4.412   9.857  1.00  0.00    -0.088 SA
HETATM    8  C15 UNL     1     -25.572   3.829  11.416  1.00  0.00     0.077 A 
HETATM    9  C16 UNL     1     -26.213   2.675  11.897  1.00  0.00     0.134 A 
HETATM   10  N5  UNL     1     -26.335   2.433  13.206  1.00  0.00    -0.176 N 
ATOM     11  H5  UNL     1     -26.799   1.598  13.565  1.00  0.00     0.186 HD
ENDROOT
BRANCH   6  12
HETATM   12  C11 UNL     1     -23.861   6.763   9.234  1.00  0.00     0.066 C 
BRANCH  12  13
HETATM   13  C12 UNL     1     -22.488   6.220   8.900  1.00  0.00     0.128 C 
BRANCH  13  14
HETATM   14  N3  UNL     1     -21.457   7.194   9.051  1.00  0.00    -0.358 N 
HETATM   15  C13 UNL     1     -20.249   6.883   9.687  1.00  0.00     0.250 C 
HETATM   16  O1  UNL     1     -19.925   5.790  10.182  1.00  0.00    -0.271 OA
ATOM     17  H3  UNL     1     -21.602   8.136   8.688  1.00  0.00     0.162 HD
BRANCH  15  18
HETATM   18  C14 UNL     1     -19.227   7.980   9.789  1.00  0.00     0.269 C 
HETATM   19 CL1  UNL     1     -20.150   9.485  10.122  1.00  0.00    -0.098 Cl
HETATM   20 CL2  UNL     1     -18.279   8.096   8.320  1.00  0.00    -0.098 Cl
ENDBRANCH  15  18
ENDBRANCH  13  14
ENDBRANCH  12  13
ENDBRANCH   6  12
BRANCH   5  21
HETATM   21  C6  UNL     1     -23.909   6.917  12.562  1.00  0.00    -0.021 C 
HETATM   22  C7  UNL     1     -24.306   6.882  13.949  1.00  0.00     0.019 C 
HETATM   23  C8  UNL     1     -22.364   6.835  12.519  1.00  0.00     0.019 C 
HETATM   24  C9  UNL     1     -24.262   8.250  11.890  1.00  0.00     0.019 C 
ENDBRANCH   5  21
BRANCH   9  25
HETATM   25  N4  UNL     1     -26.688   1.855  11.043  1.00  0.00    -0.384 N 
ATOM     26  H42 UNL     1     -26.281   1.790  10.110  1.00  0.00     0.157 HD
ATOM     27  H41 UNL     1     -27.476   1.272  11.326  1.00  0.00     0.157 HD
ENDBRANCH   9  25
BRANCH   1  28
HETATM   28  N1  UNL     1     -25.910   3.111  15.419  1.00  0.00    -0.226 N 
HETATM   29  C1  UNL     1     -26.084   4.219  16.319  1.00  0.00     0.168 C 
HETATM   30  C2  UNL     1     -25.858   1.778  15.938  1.00  0.00     0.168 C 
ENDBRANCH   1  28
TORSDOF 7
ENDMDL
MODEL 2
REMARK VINA RESULT: -8.270385175      4.086      8.102
REMARK  7 active torsions:
REMARK  status: ('A' for Active; 'I' for Inactive)
REMARK    1  A    between atoms: N1_2  and  C3_4 
REMARK    2  A    between atoms: C5_8  and  C6_9 
REMARK    3  A    between atoms: C10_13  and  C11_14 
REMARK    4  A    between atoms: C11_14  and  C12_15 
REMARK    5  A    between atoms: C12_15  and  N3_16 
REMARK       I    between atoms: N3_16  and  C13_18 
REMARK    6  A    between atoms: C13_18  and  C14_20 
REMARK    7  A    between atoms: C16_25  and  N4_26 
ROOT
HETATM    1  C3  UNL     1     -18.086   9.715  11.039  1.00  0.00     0.681 A 
HETATM    2  N2  UNL     1     -19.014   8.914  10.505  1.00  0.00    -0.190 N 
ATOM      3  H2  UNL     1     -18.729   7.999  10.158  1.00  0.00     0.184 HD
HETATM    4  C4  UNL     1     -20.341   9.278  10.405  1.00  0.00     0.078 A 
HETATM    5  C5  UNL     1     -21.406   8.561   9.876  1.00  0.00    -0.009 A 
HETATM    6  C10 UNL     1     -22.610   9.145   9.898  1.00  0.00    -0.006 A 
HETATM    7  S1  UNL     1     -22.287  10.688  10.640  1.00  0.00    -0.088 SA
HETATM    8  C15 UNL     1     -20.623  10.503  10.888  1.00  0.00     0.077 A 
HETATM    9  C16 UNL     1     -19.642  11.338  11.447  1.00  0.00     0.134 A 
HETATM   10  N5  UNL     1     -18.362  10.960  11.531  1.00  0.00    -0.176 N 
ATOM     11  H5  UNL     1     -17.642  11.558  11.935  1.00  0.00     0.186 HD
ENDROOT
BRANCH   6  12
HETATM   12  C11 UNL     1     -24.004   8.753   9.546  1.00  0.00     0.066 C 
BRANCH  12  13
HETATM   13  C12 UNL     1     -24.669   8.272  10.818  1.00  0.00     0.128 C 
BRANCH  13  14
HETATM   14  N3  UNL     1     -24.738   6.850  10.904  1.00  0.00    -0.358 N 
HETATM   15  C13 UNL     1     -24.672   6.191  12.138  1.00  0.00     0.250 C 
HETATM   16  O1  UNL     1     -24.548   6.714  13.258  1.00  0.00    -0.271 OA
ATOM     17  H3  UNL     1     -24.837   6.302  10.049  1.00  0.00     0.162 HD
BRANCH  15  18
HETATM   18  C14 UNL     1     -24.758   4.691  12.117  1.00  0.00     0.269 C 
HETATM   19 CL1  UNL     1     -25.750   4.274  10.678  1.00  0.00    -0.098 Cl
HETATM   20 CL2  UNL     1     -25.456   4.080  13.603  1.00  0.00    -0.098 Cl
ENDBRANCH  15  18
ENDBRANCH  13  14
ENDBRANCH  12  13
ENDBRANCH   6  12
BRANCH   5  21
HETATM   21  C6  UNL     1     -21.061   7.211   9.281  1.00  0.00    -0.021 C 
HETATM   22  C7  UNL     1     -19.760   7.029   8.686  1.00  0.00     0.019 C 
HETATM   23  C8  UNL     1     -21.209   6.160  10.407  1.00  0.00     0.019 C 
HETATM   24  C9  UNL     1     -22.198   6.909   8.296  1.00  0.00     0.019 C 
ENDBRANCH   5  21
BRANCH   9  25
HETATM   25  N4  UNL     1     -20.004  12.485  11.873  1.00  0.00    -0.384 N 
ATOM     26  H42 UNL     1     -20.236  12.619  12.857  1.00  0.00     0.157 HD
ATOM     27  H41 UNL     1     -20.047  13.253  11.202  1.00  0.00     0.157 HD
ENDBRANCH   9  25
BRANCH   1  28
HETATM   28  N1  UNL     1     -16.730   9.309  11.147  1.00  0.00    -0.226 N 
HETATM   29  C1  UNL     1     -15.977   9.109   9.938  1.00  0.00     0.168 C 
HETATM   30  C2  UNL     1     -16.102   9.097  12.415  1.00  0.00     0.168 C 
ENDBRANCH   1  28
TORSDOF 7
ENDMDL
MODEL 3
REMARK VINA RESULT: -8.165326740      4.515      7.906
REMARK  7 active torsions:
REMARK  status: ('A' for Active; 'I' for Inactive)
REMARK    1  A    between atoms: N1_2  and  C3_4 
REMARK    2  A    between atoms: C5_8  and  C6_9 
REMARK    3  A    between atoms: C10_13  and  C11_14 
REMARK    4  A    between atoms: C11_14  and  C12_15 
REMARK    5  A    between atoms: C12_15  and  N3_16 
REMARK       I    between atoms: N3_16  and  C13_18 
REMARK    6  A    between atoms: C13_18  and  C14_20 
REMARK    7  A    between atoms: C16_25  and  N4_26 
ROOT
HETATM    1  C3  UNL     1     -20.522  11.329  11.740  1.00  0.00     0.681 A 
HETATM    2  N2  UNL     1     -20.651  10.089  11.257  1.00  0.00    -0.190 N 
ATOM      3  H2  UNL     1     -19.808   9.569  11.013  1.00  0.00     0.184 HD
HETATM    4  C4  UNL     1     -21.878   9.485  11.078  1.00  0.00     0.078 A 
HETATM    5  C5  UNL     1     -22.165   8.218  10.588  1.00  0.00    -0.009 A 
HETATM    6  C10 UNL     1     -23.456   7.867  10.512  1.00  0.00    -0.006 A 
HETATM    7  S1  UNL     1     -24.284   9.279  11.107  1.00  0.00    -0.088 SA
HETATM    8  C15 UNL     1     -22.933  10.247  11.427  1.00  0.00     0.077 A 
HETATM    9  C16 UNL     1     -22.788  11.550  11.932  1.00  0.00     0.134 A 
HETATM   10  N5  UNL     1     -21.586  12.110  12.096  1.00  0.00    -0.176 N 
ATOM     11  H5  UNL     1     -21.469  13.055  12.461  1.00  0.00     0.186 HD
ENDROOT
BRANCH   6  12
HETATM   12  C11 UNL     1     -24.218   6.638  10.155  1.00  0.00     0.066 C 
BRANCH  12  13
HETATM   13  C12 UNL     1     -24.717   6.028  11.448  1.00  0.00     0.128 C 
BRANCH  13  14
HETATM   14  N3  UNL     1     -25.362   4.771  11.255  1.00  0.00    -0.358 N 
HETATM   15  C13 UNL     1     -25.483   3.847  12.299  1.00  0.00     0.250 C 
HETATM   16  O1  UNL     1     -25.071   3.978  13.465  1.00  0.00    -0.271 OA
ATOM     17  H3  UNL     1     -25.743   4.540  10.337  1.00  0.00     0.162 HD
BRANCH  15  18
HETATM   18  C14 UNL     1     -26.184   2.554  11.991  1.00  0.00     0.269 C 
HETATM   19 CL1  UNL     1     -26.603   2.624  10.245  1.00  0.00    -0.098 Cl
HETATM   20 CL2  UNL     1     -27.598   2.348  13.004  1.00  0.00    -0.098 Cl
ENDBRANCH  15  18
ENDBRANCH  13  14
ENDBRANCH  12  13
ENDBRANCH   6  12
BRANCH   5  21
HETATM   21  C6  UNL     1     -20.973   7.397  10.142  1.00  0.00    -0.021 C 
HETATM   22  C7  UNL     1     -19.655   7.971  10.261  1.00  0.00     0.019 C 
HETATM   23  C8  UNL     1     -20.984   6.085  10.962  1.00  0.00     0.019 C 
HETATM   24  C9  UNL     1     -21.297   6.975   8.703  1.00  0.00     0.019 C 
ENDBRANCH   5  21
BRANCH   9  25
HETATM   25  N4  UNL     1     -23.846  12.197  12.229  1.00  0.00    -0.384 N 
ATOM     26  H42 UNL     1     -24.702  11.699  12.478  1.00  0.00     0.157 HD
ATOM     27  H41 UNL     1     -23.804  13.216  12.215  1.00  0.00     0.157 HD
ENDBRANCH   9  25
BRANCH   1  28
HETATM   28  N1  UNL     1     -19.245  11.920  11.932  1.00  0.00    -0.226 N 
HETATM   29  C1  UNL     1     -19.183  13.313  12.287  1.00  0.00     0.168 C 
HETATM   30  C2  UNL     1     -18.035  11.172  11.784  1.00  0.00     0.168 C 
ENDBRANCH   1  28
TORSDOF 7
ENDMDL
MODEL 4
REMARK VINA RESULT: -8.082066139      4.165      8.025
REMARK  7 active torsions:
REMARK  status: ('A' for Active; 'I' for Inactive)
REMARK    1  A    between atoms: N1_2  and  C3_4 
REMARK    2  A    between atoms: C5_8  and  C6_9 
REMARK    3  A    between atoms: C10_13  and  C11_14 
REMARK    4  A    between atoms: C11_14  and  C12_15 
REMARK    5  A    between atoms: C12_15  and  N3_16 
REMARK       I    between atoms: N3_16  and  C13_18 
REMARK    6  A    between atoms: C13_18  and  C14_20 
REMARK    7  A    between atoms: C16_25  and  N4_26 
ROOT
HETATM    1  C3  UNL     1     -19.025  10.042  11.052  1.00  0.00     0.681 A 
HETATM    2  N2  UNL     1     -19.612   8.942  10.568  1.00  0.00    -0.190 N 
ATOM      3  H2  UNL     1     -19.023   8.189  10.214  1.00  0.00     0.184 HD
HETATM    4  C4  UNL     1     -20.982   8.787  10.528  1.00  0.00     0.078 A 
HETATM    5  C5  UNL     1     -21.727   7.715  10.056  1.00  0.00    -0.009 A 
HETATM    6  C10 UNL     1     -23.060   7.813  10.131  1.00  0.00    -0.006 A 
HETATM    7  S1  UNL     1     -23.301   9.383  10.846  1.00  0.00    -0.088 SA
HETATM    8  C15 UNL     1     -21.678   9.832  11.016  1.00  0.00     0.077 A 
HETATM    9  C16 UNL     1     -21.053  10.984  11.522  1.00  0.00     0.134 A 
HETATM   10  N5  UNL     1     -19.722  11.108  11.548  1.00  0.00    -0.176 N 
ATOM     11  H5  UNL     1     -19.258  11.940  11.913  1.00  0.00     0.186 HD
ENDROOT
BRANCH   6  12
HETATM   12  C11 UNL     1     -24.223   6.925   9.848  1.00  0.00     0.066 C 
BRANCH  12  13
HETATM   13  C12 UNL     1     -24.640   6.300  11.163  1.00  0.00     0.128 C 
BRANCH  13  14
HETATM   14  N3  UNL     1     -25.203   4.999  11.004  1.00  0.00    -0.358 N 
HETATM   15  C13 UNL     1     -25.372   4.141  12.097  1.00  0.00     0.250 C 
HETATM   16  O1  UNL     1     -25.074   4.372  13.281  1.00  0.00    -0.271 OA
ATOM     17  H3  UNL     1     -25.487   4.688  10.075  1.00  0.00     0.162 HD
BRANCH  15  18
HETATM   18  C14 UNL     1     -25.979   2.794  11.821  1.00  0.00     0.269 C 
HETATM   19 CL1  UNL     1     -26.387   2.786  10.072  1.00  0.00    -0.098 Cl
HETATM   20 CL2  UNL     1     -27.383   2.517  12.831  1.00  0.00    -0.098 Cl
ENDBRANCH  15  18
ENDBRANCH  13  14
ENDBRANCH  12  13
ENDBRANCH   6  12
BRANCH   5  21
HETATM   21  C6  UNL     1     -20.932   6.574   9.454  1.00  0.00    -0.021 C 
HETATM   22  C7  UNL     1     -20.463   5.523  10.324  1.00  0.00     0.019 C 
HETATM   23  C8  UNL     1     -21.819   5.917   8.369  1.00  0.00     0.019 C 
HETATM   24  C9  UNL     1     -19.788   7.248   8.686  1.00  0.00     0.019 C 
ENDBRANCH   5  21
BRANCH   9  25
HETATM   25  N4  UNL     1     -21.796  11.926  11.957  1.00  0.00    -0.384 N 
ATOM     26  H42 UNL     1     -22.492  11.740  12.680  1.00  0.00     0.157 HD
ATOM     27  H41 UNL     1     -21.666  12.858  11.564  1.00  0.00     0.157 HD
ENDBRANCH   9  25
BRANCH   1  28
HETATM   28  N1  UNL     1     -17.612  10.169  11.098  1.00  0.00    -0.226 N 
HETATM   29  C1  UNL     1     -16.816   9.240  10.340  1.00  0.00     0.168 C 
HETATM   30  C2  UNL     1     -16.968  11.186  11.870  1.00  0.00     0.168 C 
ENDBRANCH   1  28
TORSDOF 7
ENDMDL
MODEL 5
REMARK VINA RESULT: -8.070629060      1.197      1.436
REMARK  7 active torsions:
REMARK  status: ('A' for Active; 'I' for Inactive)
REMARK    1  A    between atoms: N1_2  and  C3_4 
REMARK    2  A    between atoms: C5_8  and  C6_9 
REMARK    3  A    between atoms: C10_13  and  C11_14 
REMARK    4  A    between atoms: C11_14  and  C12_15 
REMARK    5  A    between atoms: C12_15  and  N3_16 
REMARK       I    between atoms: N3_16  and  C13_18 
REMARK    6  A    between atoms: C13_18  and  C14_20 
REMARK    7  A    between atoms: C16_25  and  N4_26 
ROOT
HETATM    1  C3  UNL     1     -26.068   3.028  12.959  1.00  0.00     0.681 A 
HETATM    2  N2  UNL     1     -25.398   4.174  12.799  1.00  0.00    -0.190 N 
ATOM      3  H2  UNL     1     -25.092   4.682  13.629  1.00  0.00     0.184 HD
HETATM    4  C4  UNL     1     -25.105   4.696  11.556  1.00  0.00     0.078 A 
HETATM    5  C5  UNL     1     -24.428   5.866  11.238  1.00  0.00    -0.009 A 
HETATM    6  C10 UNL     1     -24.274   6.151   9.938  1.00  0.00    -0.006 A 
HETATM    7  S1  UNL     1     -25.063   4.816   9.145  1.00  0.00    -0.088 SA
HETATM    8  C15 UNL     1     -25.549   3.958  10.521  1.00  0.00     0.077 A 
HETATM    9  C16 UNL     1     -26.252   2.755  10.698  1.00  0.00     0.134 A 
HETATM   10  N5  UNL     1     -26.523   2.273  11.915  1.00  0.00    -0.176 N 
ATOM     11  H5  UNL     1     -27.033   1.401  12.055  1.00  0.00     0.186 HD
ENDROOT
BRANCH   6  12
HETATM   12  C11 UNL     1     -23.571   7.196   9.141  1.00  0.00     0.066 C 
BRANCH  12  13
HETATM   13  C12 UNL     1     -22.087   6.917   9.246  1.00  0.00     0.128 C 
BRANCH  13  14
HETATM   14  N3  UNL     1     -21.321   8.091   9.510  1.00  0.00    -0.358 N 
HETATM   15  C13 UNL     1     -20.035   8.013  10.059  1.00  0.00     0.250 C 
HETATM   16  O1  UNL     1     -19.420   6.982  10.378  1.00  0.00    -0.271 OA
ATOM     17  H3  UNL     1     -21.717   9.006   9.294  1.00  0.00     0.162 HD
BRANCH  15  18
HETATM   18  C14 UNL     1     -19.312   9.310  10.293  1.00  0.00     0.269 C 
HETATM   19 CL1  UNL     1     -17.900   8.907  11.329  1.00  0.00    -0.098 Cl
HETATM   20 CL2  UNL     1     -20.365  10.493  11.040  1.00  0.00    -0.098 Cl
ENDBRANCH  15  18
ENDBRANCH  13  14
ENDBRANCH  12  13
ENDBRANCH   6  12
BRANCH   5  21
HETATM   21  C6  UNL     1     -23.990   6.715  12.412  1.00  0.00    -0.021 C 
HETATM   22  C7  UNL     1     -24.525   6.419  13.719  1.00  0.00     0.019 C 
HETATM   23  C8  UNL     1     -22.448   6.611  12.507  1.00  0.00     0.019 C 
HETATM   24  C9  UNL     1     -24.270   8.162  11.984  1.00  0.00     0.019 C 
ENDBRANCH   5  21
BRANCH   9  25
HETATM   25  N4  UNL     1     -26.638   2.129   9.656  1.00  0.00    -0.384 N 
ATOM     26  H42 UNL     1     -26.422   2.492   8.727  1.00  0.00     0.157 HD
ATOM     27  H41 UNL     1     -27.159   1.261   9.785  1.00  0.00     0.157 HD
ENDBRANCH   9  25
BRANCH   1  28
HETATM   28  N1  UNL     1     -26.340   2.503  14.250  1.00  0.00    -0.226 N 
HETATM   29  C1  UNL     1     -27.628   2.764  14.837  1.00  0.00     0.168 C 
HETATM   30  C2  UNL     1     -25.377   1.729  14.971  1.00  0.00     0.168 C 
ENDBRANCH   1  28
TORSDOF 7
ENDMDL
