MODEL 1
REMARK VINA RESULT: -8.575891527      0.000      0.000
REMARK  6 active torsions:
REMARK  status: ('A' for Active; 'I' for Inactive)
REMARK    1  A    between atoms: N1_1  and  C1_4 
REMARK    2  A    between atoms: C2_7  and  N3_8 
REMARK    3  A    between atoms: N4_11  and  C3_12 
REMARK    4  A    between atoms: C8_18  and  C9_19 
REMARK    5  A    between atoms: N5_23  and  C11_24 
REMARK    6  A    between atoms: C11_24  and  C12_25 
ROOT
HETATM    1  C1  UNL     1     -21.830   9.906  11.064  1.00  0.00     0.695 A 
HETATM    2  N2  UNL     1     -23.138   9.932  10.781  1.00  0.00    -0.022 N 
ATOM      3  H2  UNL     1     -23.612  10.825  10.646  1.00  0.00     0.203 HD
HETATM    4  C2  UNL     1     -23.829   8.781  10.673  1.00  0.00     0.699 A 
HETATM    5  N4  UNL     1     -23.241   7.586  10.847  1.00  0.00    -0.119 N 
HETATM    6  C10 UNL     1     -21.922   7.553  11.132  1.00  0.00     0.216 A 
HETATM    7  S1  UNL     1     -21.249   6.078  11.335  1.00  0.00    -0.039 SA
HETATM    8  N5  UNL     1     -21.221   8.704  11.239  1.00  0.00    -0.152 N 
ENDROOT
BRANCH   5   9
HETATM    9  C3  UNL     1     -24.008   6.396  10.739  1.00  0.00     0.088 A 
HETATM   10  C4  UNL     1     -24.584   5.865  11.908  1.00  0.00     0.062 A 
HETATM   11 CL1  UNL     1     -24.253   6.684  13.421  1.00  0.00    -0.082 Cl
HETATM   12  C5  UNL     1     -25.374   4.740  11.836  1.00  0.00     0.026 A 
HETATM   13  C6  UNL     1     -25.630   4.098  10.643  1.00  0.00     0.002 A 
HETATM   14  C7  UNL     1     -25.070   4.613   9.506  1.00  0.00     0.011 A 
HETATM   15  C8  UNL     1     -24.250   5.774   9.558  1.00  0.00    -0.015 A 
BRANCH  15  16
HETATM   16  C9  UNL     1     -23.649   6.209   8.293  1.00  0.00     0.155 C 
HETATM   17 CL2  UNL     1     -24.452   5.404   6.895  1.00  0.00    -0.125 Cl
ENDBRANCH  15  16
ENDBRANCH   5   9
BRANCH   4  18
HETATM   18  N3  UNL     1     -25.095   8.859  10.350  1.00  0.00    -0.233 N 
ATOM     19  H32 UNL     1     -25.376   8.945   9.373  1.00  0.00     0.174 HD
ATOM     20  H31 UNL     1     -25.778   8.864  11.106  1.00  0.00     0.174 HD
ENDBRANCH   4  18
BRANCH   8  21
HETATM   21  C11 UNL     1     -19.825   8.683  11.606  1.00  0.00     0.188 C 
BRANCH  21  22
HETATM   22  C12 UNL     1     -18.845   8.625  10.536  1.00  0.00    -0.039 A 
HETATM   23  C13 UNL     1     -17.547   9.087  10.797  1.00  0.00     0.009 A 
HETATM   24  C14 UNL     1     -16.580   9.058   9.820  1.00  0.00     0.001 A 
HETATM   25  C15 UNL     1     -16.849   8.575   8.558  1.00  0.00     0.000 A 
HETATM   26  C16 UNL     1     -18.105   8.120   8.285  1.00  0.00     0.001 A 
HETATM   27  C17 UNL     1     -19.080   8.155   9.286  1.00  0.00     0.009 A 
ENDBRANCH  21  22
ENDBRANCH   8  21
BRANCH   1  28
HETATM   28  N1  UNL     1     -21.118  10.963  11.185  1.00  0.00    -0.234 N 
ATOM     29  H12 UNL     1     -21.601  11.857  11.275  1.00  0.00     0.174 HD
ATOM     30  H11 UNL     1     -20.098  10.951  11.191  1.00  0.00     0.174 HD
ENDBRANCH   1  28
TORSDOF 6
ENDMDL
MODEL 2
REMARK VINA RESULT: -8.416048139      0.838      2.350
REMARK  6 active torsions:
REMARK  status: ('A' for Active; 'I' for Inactive)
REMARK    1  A    between atoms: N1_1  and  C1_4 
REMARK    2  A    between atoms: C2_7  and  N3_8 
REMARK    3  A    between atoms: N4_11  and  C3_12 
REMARK    4  A    between atoms: C8_18  and  C9_19 
REMARK    5  A    between atoms: N5_23  and  C11_24 
REMARK    6  A    between atoms: C11_24  and  C12_25 
ROOT
HETATM    1  C1  UNL     1     -21.252  10.112  10.667  1.00  0.00     0.695 A 
HETATM    2  N2  UNL     1     -22.546  10.237  10.352  1.00  0.00    -0.022 N 
ATOM      3  H2  UNL     1     -22.940  11.161  10.171  1.00  0.00     0.203 HD
HETATM    4  C2  UNL     1     -23.331   9.145  10.276  1.00  0.00     0.699 A 
HETATM    5  N4  UNL     1     -22.850   7.913  10.511  1.00  0.00    -0.119 N 
HETATM    6  C10 UNL     1     -21.545   7.781  10.827  1.00  0.00     0.216 A 
HETATM    7  S1  UNL     1     -21.004   6.264  11.104  1.00  0.00    -0.039 SA
HETATM    8  N5  UNL     1     -20.751   8.872  10.904  1.00  0.00    -0.152 N 
ENDROOT
BRANCH   5   9
HETATM    9  C3  UNL     1     -23.715   6.788  10.433  1.00  0.00     0.088 A 
HETATM   10  C4  UNL     1     -23.861   6.144   9.192  1.00  0.00     0.062 A 
HETATM   11 CL1  UNL     1     -23.009   6.822   7.818  1.00  0.00    -0.082 Cl
HETATM   12  C5  UNL     1     -24.651   5.022   9.087  1.00  0.00     0.026 A 
HETATM   13  C6  UNL     1     -25.321   4.492  10.171  1.00  0.00     0.002 A 
HETATM   14  C7  UNL     1     -25.180   5.120  11.379  1.00  0.00     0.011 A 
HETATM   15  C8  UNL     1     -24.368   6.280  11.508  1.00  0.00    -0.015 A 
BRANCH  15  16
HETATM   16  C9  UNL     1     -24.333   6.911  12.831  1.00  0.00     0.155 C 
HETATM   17 CL2  UNL     1     -24.762   5.723  14.117  1.00  0.00    -0.125 Cl
ENDBRANCH  15  16
ENDBRANCH   5   9
BRANCH   4  18
HETATM   18  N3  UNL     1     -24.579   9.316   9.920  1.00  0.00    -0.233 N 
ATOM     19  H32 UNL     1     -25.070  10.180  10.149  1.00  0.00     0.174 HD
ATOM     20  H31 UNL     1     -25.045   8.547   9.439  1.00  0.00     0.174 HD
ENDBRANCH   4  18
BRANCH   8  21
HETATM   21  C11 UNL     1     -19.369   8.748  11.303  1.00  0.00     0.188 C 
BRANCH  21  22
HETATM   22  C12 UNL     1     -18.365   8.689  10.256  1.00  0.00    -0.039 A 
HETATM   23  C13 UNL     1     -17.071   9.144  10.548  1.00  0.00     0.009 A 
HETATM   24  C14 UNL     1     -16.081   9.114   9.594  1.00  0.00     0.001 A 
HETATM   25  C15 UNL     1     -16.324   8.635   8.325  1.00  0.00     0.000 A 
HETATM   26  C16 UNL     1     -17.575   8.186   8.021  1.00  0.00     0.001 A 
HETATM   27  C17 UNL     1     -18.572   8.223   9.000  1.00  0.00     0.009 A 
ENDBRANCH  21  22
ENDBRANCH   8  21
BRANCH   1  28
HETATM   28  N1  UNL     1     -20.454  11.110  10.761  1.00  0.00    -0.234 N 
ATOM     29  H12 UNL     1     -20.667  11.828  11.454  1.00  0.00     0.174 HD
ATOM     30  H11 UNL     1     -19.625  11.219  10.177  1.00  0.00     0.174 HD
ENDBRANCH   1  28
TORSDOF 6
ENDMDL
MODEL 3
REMARK VINA RESULT: -8.174417850      0.713      2.526
REMARK  6 active torsions:
REMARK  status: ('A' for Active; 'I' for Inactive)
REMARK    1  A    between atoms: N1_1  and  C1_4 
REMARK    2  A    between atoms: C2_7  and  N3_8 
REMARK    3  A    between atoms: N4_11  and  C3_12 
REMARK    4  A    between atoms: C8_18  and  C9_19 
REMARK    5  A    between atoms: N5_23  and  C11_24 
REMARK    6  A    between atoms: C11_24  and  C12_25 
ROOT
HETATM    1  C1  UNL     1     -21.510  10.013  10.970  1.00  0.00     0.695 A 
HETATM    2  N2  UNL     1     -22.826  10.110  10.742  1.00  0.00    -0.022 N 
ATOM      3  H2  UNL     1     -23.251  11.026  10.597  1.00  0.00     0.203 HD
HETATM    4  C2  UNL     1     -23.588   9.000  10.705  1.00  0.00     0.699 A 
HETATM    5  N4  UNL     1     -23.065   7.778  10.895  1.00  0.00    -0.119 N 
HETATM    6  C10 UNL     1     -21.739   7.673  11.123  1.00  0.00     0.216 A 
HETATM    7  S1  UNL     1     -21.147   6.167  11.349  1.00  0.00    -0.039 SA
HETATM    8  N5  UNL     1     -20.966   8.782  11.160  1.00  0.00    -0.152 N 
ENDROOT
BRANCH   5   9
HETATM    9  C3  UNL     1     -23.907   6.634  10.862  1.00  0.00     0.088 A 
HETATM   10  C4  UNL     1     -24.165   6.031   9.618  1.00  0.00     0.062 A 
HETATM   11 CL1  UNL     1     -23.474   6.782   8.192  1.00  0.00    -0.082 Cl
HETATM   12  C5  UNL     1     -24.936   4.893   9.551  1.00  0.00     0.026 A 
HETATM   13  C6  UNL     1     -25.478   4.307  10.676  1.00  0.00     0.002 A 
HETATM   14  C7  UNL     1     -25.229   4.893  11.887  1.00  0.00     0.011 A 
HETATM   15  C8  UNL     1     -24.434   6.070  11.978  1.00  0.00    -0.015 A 
BRANCH  15  16
HETATM   16  C9  UNL     1     -24.279   6.653  13.314  1.00  0.00     0.155 C 
HETATM   17 CL2  UNL     1     -24.966   5.561  14.571  1.00  0.00    -0.125 Cl
ENDBRANCH  15  16
ENDBRANCH   5   9
BRANCH   4  18
HETATM   18  N3  UNL     1     -24.861   9.145  10.434  1.00  0.00    -0.233 N 
ATOM     19  H32 UNL     1     -25.454   9.727  11.026  1.00  0.00     0.174 HD
ATOM     20  H31 UNL     1     -25.237   8.633   9.636  1.00  0.00     0.174 HD
ENDBRANCH   4  18
BRANCH   8  21
HETATM   21  C11 UNL     1     -19.559   8.687  11.466  1.00  0.00     0.188 C 
BRANCH  21  22
HETATM   22  C12 UNL     1     -18.628   8.611  10.355  1.00  0.00    -0.039 A 
HETATM   23  C13 UNL     1     -19.092   8.110   9.131  1.00  0.00     0.009 A 
HETATM   24  C14 UNL     1     -18.254   8.013   8.045  1.00  0.00     0.001 A 
HETATM   25  C15 UNL     1     -16.935   8.406   8.121  1.00  0.00     0.000 A 
HETATM   26  C16 UNL     1     -16.465   8.898   9.302  1.00  0.00     0.001 A 
HETATM   27  C17 UNL     1     -17.327   8.990  10.398  1.00  0.00     0.009 A 
ENDBRANCH  21  22
ENDBRANCH   8  21
BRANCH   1  28
HETATM   28  N1  UNL     1     -20.731  11.027  11.023  1.00  0.00    -0.234 N 
ATOM     29  H12 UNL     1     -20.915  11.734  11.734  1.00  0.00     0.174 HD
ATOM     30  H11 UNL     1     -19.944  11.161  10.387  1.00  0.00     0.174 HD
ENDBRANCH   1  28
TORSDOF 6
ENDMDL
MODEL 4
REMARK VINA RESULT: -8.033745283      2.160      6.395
REMARK  6 active torsions:
REMARK  status: ('A' for Active; 'I' for Inactive)
REMARK    1  A    between atoms: N1_1  and  C1_4 
REMARK    2  A    between atoms: C2_7  and  N3_8 
REMARK    3  A    between atoms: N4_11  and  C3_12 
REMARK    4  A    between atoms: C8_18  and  C9_19 
REMARK    5  A    between atoms: N5_23  and  C11_24 
REMARK    6  A    between atoms: C11_24  and  C12_25 
ROOT
HETATM    1  C1  UNL     1     -24.077   9.673  11.179  1.00  0.00     0.695 A 
HETATM    2  N2  UNL     1     -23.452  10.439  10.277  1.00  0.00    -0.022 N 
ATOM      3  H2  UNL     1     -23.940  11.228   9.853  1.00  0.00     0.203 HD
HETATM    4  C2  UNL     1     -22.179  10.169   9.927  1.00  0.00     0.699 A 
HETATM    5  N4  UNL     1     -21.505   9.138  10.461  1.00  0.00    -0.119 N 
HETATM    6  C10 UNL     1     -22.129   8.362  11.372  1.00  0.00     0.216 A 
HETATM    7  S1  UNL     1     -21.270   7.119  11.994  1.00  0.00    -0.039 SA
HETATM    8  N5  UNL     1     -23.406   8.628  11.729  1.00  0.00    -0.152 N 
ENDROOT
BRANCH   5   9
HETATM    9  C3  UNL     1     -20.168   8.879  10.054  1.00  0.00     0.088 A 
HETATM   10  C4  UNL     1     -19.955   7.961   9.010  1.00  0.00     0.062 A 
HETATM   11 CL1  UNL     1     -21.358   7.159   8.333  1.00  0.00    -0.082 Cl
HETATM   12  C5  UNL     1     -18.678   7.720   8.556  1.00  0.00     0.026 A 
HETATM   13  C6  UNL     1     -17.576   8.353   9.093  1.00  0.00     0.002 A 
HETATM   14  C7  UNL     1     -17.784   9.245  10.110  1.00  0.00     0.011 A 
HETATM   15  C8  UNL     1     -19.095   9.508  10.594  1.00  0.00    -0.015 A 
BRANCH  15  16
HETATM   16  C9  UNL     1     -19.201  10.434  11.726  1.00  0.00     0.155 C 
HETATM   17 CL2  UNL     1     -17.704  11.423  11.886  1.00  0.00    -0.125 Cl
ENDBRANCH  15  16
ENDBRANCH   5   9
BRANCH   4  18
HETATM   18  N3  UNL     1     -21.599  10.976   9.075  1.00  0.00    -0.233 N 
ATOM     19  H32 UNL     1     -21.056  10.603   8.295  1.00  0.00     0.174 HD
ATOM     20  H31 UNL     1     -21.681  11.979   9.240  1.00  0.00     0.174 HD
ENDBRANCH   4  18
BRANCH   8  21
HETATM   21  C11 UNL     1     -24.104   7.767  12.655  1.00  0.00     0.188 C 
BRANCH  21  22
HETATM   22  C12 UNL     1     -24.590   6.493  12.160  1.00  0.00    -0.039 A 
HETATM   23  C13 UNL     1     -24.822   5.464  13.084  1.00  0.00     0.009 A 
HETATM   24  C14 UNL     1     -25.281   4.236  12.670  1.00  0.00     0.001 A 
HETATM   25  C15 UNL     1     -25.529   3.974  11.340  1.00  0.00     0.000 A 
HETATM   26  C16 UNL     1     -25.311   4.962  10.426  1.00  0.00     0.001 A 
HETATM   27  C17 UNL     1     -24.844   6.206  10.859  1.00  0.00     0.009 A 
ENDBRANCH  21  22
ENDBRANCH   8  21
BRANCH   1  28
HETATM   28  N1  UNL     1     -25.286   9.872  11.550  1.00  0.00    -0.234 N 
ATOM     29  H12 UNL     1     -25.762   9.121  12.050  1.00  0.00     0.174 HD
ATOM     30  H11 UNL     1     -25.791  10.739  11.366  1.00  0.00     0.174 HD
ENDBRANCH   1  28
TORSDOF 6
ENDMDL
MODEL 5
REMARK VINA RESULT: -7.937641361      2.001      6.037
REMARK  6 active torsions:
REMARK  status: ('A' for Active; 'I' for Inactive)
REMARK    1  A    between atoms: N1_1  and  C1_4 
REMARK    2  A    between atoms: C2_7  and  N3_8 
REMARK    3  A    between atoms: N4_11  and  C3_12 
REMARK    4  A    between atoms: C8_18  and  C9_19 
REMARK    5  A    between atoms: N5_23  and  C11_24 
REMARK    6  A    between atoms: C11_24  and  C12_25 
ROOT
HETATM    1  C1  UNL     1     -23.966   9.833  10.964  1.00  0.00     0.695 A 
HETATM    2  N2  UNL     1     -23.305  10.573  10.066  1.00  0.00    -0.022 N 
ATOM      3  H2  UNL     1     -23.790  11.312   9.558  1.00  0.00     0.203 HD
HETATM    4  C2  UNL     1     -21.998  10.342   9.833  1.00  0.00     0.699 A 
HETATM    5  N4  UNL     1     -21.326   9.377  10.480  1.00  0.00    -0.119 N 
HETATM    6  C10 UNL     1     -21.987   8.629  11.388  1.00  0.00     0.216 A 
HETATM    7  S1  UNL     1     -21.129   7.466  12.151  1.00  0.00    -0.039 SA
HETATM    8  N5  UNL     1     -23.298   8.855  11.629  1.00  0.00    -0.152 N 
ENDROOT
BRANCH   5   9
HETATM    9  C3  UNL     1     -19.951   9.157  10.195  1.00  0.00     0.088 A 
HETATM   10  C4  UNL     1     -18.997   9.943  10.864  1.00  0.00     0.062 A 
HETATM   11 CL1  UNL     1     -19.585  11.182  11.956  1.00  0.00    -0.082 Cl
HETATM   12  C5  UNL     1     -17.655   9.728  10.650  1.00  0.00     0.026 A 
HETATM   13  C6  UNL     1     -17.196   8.752   9.789  1.00  0.00     0.002 A 
HETATM   14  C7  UNL     1     -18.124   7.987   9.137  1.00  0.00     0.011 A 
HETATM   15  C8  UNL     1     -19.516   8.194   9.343  1.00  0.00    -0.015 A 
BRANCH  15  16
HETATM   16  C9  UNL     1     -20.427   7.363   8.549  1.00  0.00     0.155 C 
HETATM   17 CL2  UNL     1     -20.524   5.697   9.227  1.00  0.00    -0.125 Cl
ENDBRANCH  15  16
ENDBRANCH   5   9
BRANCH   4  18
HETATM   18  N3  UNL     1     -21.386  11.123   8.979  1.00  0.00    -0.233 N 
ATOM     19  H32 UNL     1     -21.666  11.140   7.998  1.00  0.00     0.174 HD
ATOM     20  H31 UNL     1     -20.604  11.681   9.323  1.00  0.00     0.174 HD
ENDBRANCH   4  18
BRANCH   8  21
HETATM   21  C11 UNL     1     -24.030   8.020  12.551  1.00  0.00     0.188 C 
BRANCH  21  22
HETATM   22  C12 UNL     1     -24.496   6.730  12.073  1.00  0.00    -0.039 A 
HETATM   23  C13 UNL     1     -24.753   5.725  13.016  1.00  0.00     0.009 A 
HETATM   24  C14 UNL     1     -25.194   4.484  12.619  1.00  0.00     0.001 A 
HETATM   25  C15 UNL     1     -25.398   4.187  11.289  1.00  0.00     0.000 A 
HETATM   26  C16 UNL     1     -25.154   5.152  10.357  1.00  0.00     0.001 A 
HETATM   27  C17 UNL     1     -24.706   6.409  10.773  1.00  0.00     0.009 A 
ENDBRANCH  21  22
ENDBRANCH   8  21
BRANCH   1  28
HETATM   28  N1  UNL     1     -25.209   9.997  11.228  1.00  0.00    -0.234 N 
ATOM     29  H12 UNL     1     -25.630  10.899  11.004  1.00  0.00     0.174 HD
ATOM     30  H11 UNL     1     -25.789   9.274  11.654  1.00  0.00     0.174 HD
ENDBRANCH   1  28
TORSDOF 6
ENDMDL
