MODEL 1
REMARK VINA RESULT: -8.589957764      0.000      0.000
REMARK  7 active torsions:
REMARK  status: ('A' for Active; 'I' for Inactive)
REMARK    1  A    between atoms: C2_2  and  C4_5 
REMARK    2  A    between atoms: C6_7  and  C7_8 
REMARK    3  A    between atoms: C9_11  and  N1_12 
REMARK    4  A    between atoms: N1_12  and  C10_14 
REMARK    5  A    between atoms: C10_14  and  C11_15 
REMARK    6  A    between atoms: C11_15  and  O1_16 
REMARK    7  A    between atoms: C14_23  and  C16_25 
ROOT
HETATM    1  C7  UNL     1     -25.243   4.494  12.182  1.00  0.00     0.051 A 
HETATM    2  C8  UNL     1     -25.812   3.674  11.234  1.00  0.00     0.083 A 
HETATM    3  S1  UNL     1     -26.473   2.414  12.154  1.00  0.00    -0.064 SA
HETATM    4  C9  UNL     1     -25.996   2.982  13.718  1.00  0.00     0.148 A 
HETATM    5  N3  UNL     1     -25.357   4.106  13.430  1.00  0.00    -0.335 N 
ATOM      6  H3  UNL     1     -24.955   4.670  14.178  1.00  0.00     0.168 HD
ENDROOT
BRANCH   4   7
HETATM    7  N1  UNL     1     -26.226   2.417  14.852  1.00  0.00    -0.347 N 
ATOM      8  H1  UNL     1     -26.743   1.543  14.758  1.00  0.00     0.167 HD
BRANCH   7   9
HETATM    9  C10 UNL     1     -25.934   2.723  16.170  1.00  0.00     0.103 C 
BRANCH   9  10
HETATM   10  C11 UNL     1     -27.178   3.268  16.827  1.00  0.00     0.125 C 
HETATM   11  C12 UNL     1     -28.399   3.193  15.917  1.00  0.00     0.073 C 
HETATM   12  C13 UNL     1     -29.524   3.394  16.913  1.00  0.00     0.236 C 
HETATM   13  N2  UNL     1     -28.991   3.176  18.215  1.00  0.00    -0.062 N 
HETATM   14  C14 UNL     1     -27.658   2.562  18.032  1.00  0.00     0.170 C 
ATOM     15  H22 UNL     1     -28.970   4.020  18.789  1.00  0.00     0.278 HD
ATOM     16  H21 UNL     1     -29.607   2.628  18.815  1.00  0.00     0.278 HD
HETATM   17  C15 UNL     1     -27.921   1.086  17.795  1.00  0.00     0.051 C 
BRANCH  10  18
HETATM   18  O1  UNL     1     -27.030   4.624  17.142  1.00  0.00    -0.382 OA
ATOM     19  H1  UNL     1     -27.832   5.105  16.973  1.00  0.00     0.211 HD
ENDBRANCH  10  18
BRANCH  14  20
HETATM   20  C16 UNL     1     -26.844   2.707  19.282  1.00  0.00     0.156 C 
HETATM   21 CL1  UNL     1     -25.917   1.185  19.560  1.00  0.00    -0.128 Cl
ENDBRANCH  14  20
ENDBRANCH   9  10
ENDBRANCH   7   9
ENDBRANCH   4   7
BRANCH   1  22
HETATM   22  C6  UNL     1     -24.590   5.785  11.738  1.00  0.00    -0.001 A 
HETATM   23  C5  UNL     1     -24.806   6.364  10.533  1.00  0.00     0.032 A 
HETATM   24  C4  UNL     1     -24.189   7.550  10.281  1.00  0.00     0.022 A 
HETATM   25  S2  UNL     1     -23.314   7.852  11.712  1.00  0.00    -0.102 SA
HETATM   26  C17 UNL     1     -23.754   6.469  12.592  1.00  0.00     0.064 A 
BRANCH  24  27
HETATM   27  C2  UNL     1     -24.256   8.384   9.019  1.00  0.00     0.129 C 
HETATM   28  C1  UNL     1     -23.981   7.419   7.880  1.00  0.00     0.057 C 
HETATM   29  C3  UNL     1     -23.193   9.445   9.131  1.00  0.00     0.057 C 
HETATM   30  F1  UNL     1     -25.510   8.925   8.949  1.00  0.00    -0.238 F 
ENDBRANCH  24  27
ENDBRANCH   1  22
TORSDOF 7
ENDMDL
MODEL 2
REMARK VINA RESULT: -8.535514727      1.213      1.553
REMARK  7 active torsions:
REMARK  status: ('A' for Active; 'I' for Inactive)
REMARK    1  A    between atoms: C2_2  and  C4_5 
REMARK    2  A    between atoms: C6_7  and  C7_8 
REMARK    3  A    between atoms: C9_11  and  N1_12 
REMARK    4  A    between atoms: N1_12  and  C10_14 
REMARK    5  A    between atoms: C10_14  and  C11_15 
REMARK    6  A    between atoms: C11_15  and  O1_16 
REMARK    7  A    between atoms: C14_23  and  C16_25 
ROOT
HETATM    1  C7  UNL     1     -25.288   4.563  11.698  1.00  0.00     0.051 A 
HETATM    2  C8  UNL     1     -25.983   3.515  11.139  1.00  0.00     0.083 A 
HETATM    3  S1  UNL     1     -26.436   2.587  12.483  1.00  0.00    -0.064 SA
HETATM    4  C9  UNL     1     -25.717   3.574  13.710  1.00  0.00     0.148 A 
HETATM    5  N3  UNL     1     -25.174   4.555  13.005  1.00  0.00    -0.335 N 
ATOM      6  H3  UNL     1     -24.669   5.304  13.477  1.00  0.00     0.168 HD
ENDROOT
BRANCH   4   7
HETATM    7  N1  UNL     1     -25.731   3.366  14.981  1.00  0.00    -0.347 N 
ATOM      8  H1  UNL     1     -25.165   4.040  15.496  1.00  0.00     0.167 HD
BRANCH   7   9
HETATM    9  C10 UNL     1     -26.338   2.437  15.809  1.00  0.00     0.103 C 
BRANCH   9  10
HETATM   10  C11 UNL     1     -27.446   3.121  16.570  1.00  0.00     0.125 C 
HETATM   11  C12 UNL     1     -28.744   3.193  15.775  1.00  0.00     0.073 C 
HETATM   12  C13 UNL     1     -29.744   3.519  16.866  1.00  0.00     0.236 C 
HETATM   13  N2  UNL     1     -29.125   3.235  18.117  1.00  0.00    -0.062 N 
HETATM   14  C14 UNL     1     -27.895   2.471  17.819  1.00  0.00     0.170 C 
ATOM     15  H22 UNL     1     -28.955   4.069  18.680  1.00  0.00     0.278 HD
ATOM     16  H21 UNL     1     -29.745   2.761  18.773  1.00  0.00     0.278 HD
HETATM   17  C15 UNL     1     -28.348   1.036  17.616  1.00  0.00     0.051 C 
BRANCH  10  18
HETATM   18  O1  UNL     1     -27.113   4.449  16.863  1.00  0.00    -0.382 OA
ATOM     19  H1  UNL     1     -27.306   4.659  17.769  1.00  0.00     0.211 HD
ENDBRANCH  10  18
BRANCH  14  20
HETATM   20  C16 UNL     1     -26.961   2.515  18.990  1.00  0.00     0.156 C 
HETATM   21 CL1  UNL     1     -26.075   0.947  19.095  1.00  0.00    -0.128 Cl
ENDBRANCH  14  20
ENDBRANCH   9  10
ENDBRANCH   7   9
ENDBRANCH   4   7
BRANCH   1  22
HETATM   22  C6  UNL     1     -24.763   5.658  10.794  1.00  0.00    -0.001 A 
HETATM   23  C5  UNL     1     -24.500   6.919  11.211  1.00  0.00     0.032 A 
HETATM   24  C4  UNL     1     -23.987   7.792  10.303  1.00  0.00     0.022 A 
HETATM   25  S2  UNL     1     -23.876   6.861   8.880  1.00  0.00    -0.102 SA
HETATM   26  C17 UNL     1     -24.481   5.390   9.473  1.00  0.00     0.064 A 
BRANCH  24  27
HETATM   27  C2  UNL     1     -23.623   9.247  10.512  1.00  0.00     0.129 C 
HETATM   28  C1  UNL     1     -22.343   9.230  11.328  1.00  0.00     0.057 C 
HETATM   29  C3  UNL     1     -24.762   9.887  11.260  1.00  0.00     0.057 C 
HETATM   30  F1  UNL     1     -23.445   9.809   9.278  1.00  0.00    -0.238 F 
ENDBRANCH  24  27
ENDBRANCH   1  22
TORSDOF 7
ENDMDL
MODEL 3
REMARK VINA RESULT: -8.527123203      1.221      1.410
REMARK  7 active torsions:
REMARK  status: ('A' for Active; 'I' for Inactive)
REMARK    1  A    between atoms: C2_2  and  C4_5 
REMARK    2  A    between atoms: C6_7  and  C7_8 
REMARK    3  A    between atoms: C9_11  and  N1_12 
REMARK    4  A    between atoms: N1_12  and  C10_14 
REMARK    5  A    between atoms: C10_14  and  C11_15 
REMARK    6  A    between atoms: C11_15  and  O1_16 
REMARK    7  A    between atoms: C14_23  and  C16_25 
ROOT
HETATM    1  C7  UNL     1     -25.235   4.543  12.255  1.00  0.00     0.051 A 
HETATM    2  C8  UNL     1     -25.804   3.554  11.484  1.00  0.00     0.083 A 
HETATM    3  S1  UNL     1     -26.372   2.445  12.632  1.00  0.00    -0.064 SA
HETATM    4  C9  UNL     1     -25.859   3.286  14.055  1.00  0.00     0.148 A 
HETATM    5  N3  UNL     1     -25.282   4.368  13.554  1.00  0.00    -0.335 N 
ATOM      6  H3  UNL     1     -24.876   5.065  14.178  1.00  0.00     0.168 HD
ENDROOT
BRANCH   4   7
HETATM    7  N1  UNL     1     -26.019   2.913  15.278  1.00  0.00    -0.347 N 
ATOM      8  H1  UNL     1     -25.310   3.298  15.902  1.00  0.00     0.167 HD
BRANCH   7   9
HETATM    9  C10 UNL     1     -26.931   2.109  15.939  1.00  0.00     0.103 C 
BRANCH   9  10
HETATM   10  C11 UNL     1     -27.922   2.992  16.655  1.00  0.00     0.125 C 
HETATM   11  C12 UNL     1     -29.107   3.374  15.775  1.00  0.00     0.073 C 
HETATM   12  C13 UNL     1     -30.096   3.874  16.809  1.00  0.00     0.236 C 
HETATM   13  N2  UNL     1     -29.654   3.419  18.084  1.00  0.00    -0.062 N 
HETATM   14  C14 UNL     1     -28.598   2.414  17.835  1.00  0.00     0.170 C 
ATOM     15  H22 UNL     1     -29.354   4.175  18.699  1.00  0.00     0.278 HD
ATOM     16  H21 UNL     1     -30.412   3.069  18.670  1.00  0.00     0.278 HD
HETATM   17  C15 UNL     1     -29.333   1.121  17.527  1.00  0.00     0.051 C 
BRANCH  10  18
HETATM   18  O1  UNL     1     -27.335   4.205  17.037  1.00  0.00    -0.382 OA
ATOM     19  H1  UNL     1     -27.971   4.910  17.035  1.00  0.00     0.211 HD
ENDBRANCH  10  18
BRANCH  14  20
HETATM   20  C16 UNL     1     -27.773   2.212  19.068  1.00  0.00     0.156 C 
HETATM   21 CL1  UNL     1     -28.692   1.181  20.229  1.00  0.00    -0.128 Cl
ENDBRANCH  14  20
ENDBRANCH   9  10
ENDBRANCH   7   9
ENDBRANCH   4   7
BRANCH   1  22
HETATM   22  C6  UNL     1     -24.657   5.763  11.570  1.00  0.00    -0.001 A 
HETATM   23  C5  UNL     1     -24.457   5.855  10.235  1.00  0.00     0.032 A 
HETATM   24  C4  UNL     1     -23.973   7.029   9.746  1.00  0.00     0.022 A 
HETATM   25  S2  UNL     1     -23.799   7.995  11.140  1.00  0.00    -0.102 SA
HETATM   26  C17 UNL     1     -24.344   6.886  12.304  1.00  0.00     0.064 A 
BRANCH  24  27
HETATM   27  C2  UNL     1     -23.653   7.378   8.308  1.00  0.00     0.129 C 
HETATM   28  C1  UNL     1     -24.499   8.597   7.989  1.00  0.00     0.057 C 
HETATM   29  C3  UNL     1     -24.034   6.188   7.466  1.00  0.00     0.057 C 
HETATM   30  F1  UNL     1     -22.313   7.643   8.237  1.00  0.00    -0.238 F 
ENDBRANCH  24  27
ENDBRANCH   1  22
TORSDOF 7
ENDMDL
MODEL 4
REMARK VINA RESULT: -8.417435847      1.290      1.620
REMARK  7 active torsions:
REMARK  status: ('A' for Active; 'I' for Inactive)
REMARK    1  A    between atoms: C2_2  and  C4_5 
REMARK    2  A    between atoms: C6_7  and  C7_8 
REMARK    3  A    between atoms: C9_11  and  N1_12 
REMARK    4  A    between atoms: N1_12  and  C10_14 
REMARK    5  A    between atoms: C10_14  and  C11_15 
REMARK    6  A    between atoms: C11_15  and  O1_16 
REMARK    7  A    between atoms: C14_23  and  C16_25 
ROOT
HETATM    1  C7  UNL     1     -25.297   4.636  11.866  1.00  0.00     0.051 A 
HETATM    2  C8  UNL     1     -25.820   3.837  10.875  1.00  0.00     0.083 A 
HETATM    3  S1  UNL     1     -26.388   2.485  11.724  1.00  0.00    -0.064 SA
HETATM    4  C9  UNL     1     -25.933   2.992  13.315  1.00  0.00     0.148 A 
HETATM    5  N3  UNL     1     -25.373   4.171  13.090  1.00  0.00    -0.335 N 
ATOM      6  H3  UNL     1     -25.000   4.716  13.867  1.00  0.00     0.168 HD
ENDROOT
BRANCH   4   7
HETATM    7  N1  UNL     1     -26.114   2.348  14.416  1.00  0.00    -0.347 N 
ATOM      8  H1  UNL     1     -25.331   1.736  14.647  1.00  0.00     0.167 HD
BRANCH   7   9
HETATM    9  C10 UNL     1     -27.126   2.295  15.358  1.00  0.00     0.103 C 
BRANCH   9  10
HETATM   10  C11 UNL     1     -26.518   2.448  16.731  1.00  0.00     0.125 C 
HETATM   11  C12 UNL     1     -27.427   3.203  17.693  1.00  0.00     0.073 C 
HETATM   12  C13 UNL     1     -26.798   2.860  19.028  1.00  0.00     0.236 C 
HETATM   13  N2  UNL     1     -25.941   1.741  18.826  1.00  0.00    -0.062 N 
HETATM   14  C14 UNL     1     -26.250   1.205  17.482  1.00  0.00     0.170 C 
ATOM     15  H22 UNL     1     -24.953   1.961  18.953  1.00  0.00     0.278 HD
ATOM     16  H21 UNL     1     -26.013   1.041  19.564  1.00  0.00     0.278 HD
HETATM   17  C15 UNL     1     -27.486   0.341  17.665  1.00  0.00     0.051 C 
BRANCH  10  18
HETATM   18  O1  UNL     1     -25.332   3.192  16.677  1.00  0.00    -0.382 OA
ATOM     19  H1  UNL     1     -24.633   2.692  16.271  1.00  0.00     0.211 HD
ENDBRANCH  10  18
BRANCH  14  20
HETATM   20  C16 UNL     1     -25.128   0.338  16.999  1.00  0.00     0.156 C 
HETATM   21 CL1  UNL     1     -23.910   0.164  18.318  1.00  0.00    -0.128 Cl
ENDBRANCH  14  20
ENDBRANCH   9  10
ENDBRANCH   7   9
ENDBRANCH   4   7
BRANCH   1  22
HETATM   22  C6  UNL     1     -24.735   5.991  11.493  1.00  0.00    -0.001 A 
HETATM   23  C5  UNL     1     -24.612   6.433  10.219  1.00  0.00     0.032 A 
HETATM   24  C4  UNL     1     -24.133   7.692  10.029  1.00  0.00     0.022 A 
HETATM   25  S2  UNL     1     -23.855   8.252  11.614  1.00  0.00    -0.102 SA
HETATM   26  C17 UNL     1     -24.353   6.878  12.476  1.00  0.00     0.064 A 
BRANCH  24  27
HETATM   27  C2  UNL     1     -23.891   8.408   8.716  1.00  0.00     0.129 C 
HETATM   28  C1  UNL     1     -23.289   7.365   7.792  1.00  0.00     0.057 C 
HETATM   29  C3  UNL     1     -22.935   9.537   8.995  1.00  0.00     0.057 C 
HETATM   30  F1  UNL     1     -25.100   8.863   8.267  1.00  0.00    -0.238 F 
ENDBRANCH  24  27
ENDBRANCH   1  22
TORSDOF 7
ENDMDL
MODEL 5
REMARK VINA RESULT: -8.345778688      1.723      2.215
REMARK  7 active torsions:
REMARK  status: ('A' for Active; 'I' for Inactive)
REMARK    1  A    between atoms: C2_2  and  C4_5 
REMARK    2  A    between atoms: C6_7  and  C7_8 
REMARK    3  A    between atoms: C9_11  and  N1_12 
REMARK    4  A    between atoms: N1_12  and  C10_14 
REMARK    5  A    between atoms: C10_14  and  C11_15 
REMARK    6  A    between atoms: C11_15  and  O1_16 
REMARK    7  A    between atoms: C14_23  and  C16_25 
ROOT
HETATM    1  C7  UNL     1     -25.253   4.565  11.136  1.00  0.00     0.051 A 
HETATM    2  C8  UNL     1     -25.962   3.634  10.412  1.00  0.00     0.083 A 
HETATM    3  S1  UNL     1     -26.516   2.558  11.597  1.00  0.00    -0.064 SA
HETATM    4  C9  UNL     1     -25.818   3.339  12.976  1.00  0.00     0.148 A 
HETATM    5  N3  UNL     1     -25.203   4.378  12.433  1.00  0.00    -0.335 N 
ATOM      6  H3  UNL     1     -24.691   5.033  13.023  1.00  0.00     0.168 HD
ENDROOT
BRANCH   4   7
HETATM    7  N1  UNL     1     -25.902   2.964  14.205  1.00  0.00    -0.347 N 
ATOM      8  H1  UNL     1     -24.990   2.900  14.659  1.00  0.00     0.167 HD
BRANCH   7   9
HETATM    9  C10 UNL     1     -26.943   2.626  15.052  1.00  0.00     0.103 C 
BRANCH   9  10
HETATM   10  C11 UNL     1     -26.449   2.691  16.476  1.00  0.00     0.125 C 
HETATM   11  C12 UNL     1     -27.338   3.553  17.364  1.00  0.00     0.073 C 
HETATM   12  C13 UNL     1     -26.883   3.124  18.745  1.00  0.00     0.236 C 
HETATM   13  N2  UNL     1     -26.163   1.903  18.602  1.00  0.00    -0.062 N 
HETATM   14  C14 UNL     1     -26.414   1.420  17.227  1.00  0.00     0.170 C 
ATOM     15  H22 UNL     1     -25.171   1.993  18.822  1.00  0.00     0.278 HD
ATOM     16  H21 UNL     1     -26.392   1.215  19.319  1.00  0.00     0.278 HD
HETATM   17  C15 UNL     1     -27.762   0.723  17.282  1.00  0.00     0.051 C 
BRANCH  10  18
HETATM   18  O1  UNL     1     -25.177   3.274  16.542  1.00  0.00    -0.382 OA
ATOM     19  H1  UNL     1     -25.132   3.919  17.239  1.00  0.00     0.211 HD
ENDBRANCH  10  18
BRANCH  14  20
HETATM   20  C16 UNL     1     -25.374   0.417  16.832  1.00  0.00     0.156 C 
HETATM   21 CL1  UNL     1     -24.133   0.311  18.139  1.00  0.00    -0.128 Cl
ENDBRANCH  14  20
ENDBRANCH   9  10
ENDBRANCH   7   9
ENDBRANCH   4   7
BRANCH   1  22
HETATM   22  C6  UNL     1     -24.642   5.745  10.411  1.00  0.00    -0.001 A 
HETATM   23  C5  UNL     1     -24.442   6.958  10.979  1.00  0.00     0.032 A 
HETATM   24  C4  UNL     1     -23.840   7.918  10.226  1.00  0.00     0.022 A 
HETATM   25  S2  UNL     1     -23.556   7.134   8.740  1.00  0.00    -0.102 SA
HETATM   26  C17 UNL     1     -24.208   5.611   9.111  1.00  0.00     0.064 A 
BRANCH  24  27
HETATM   27  C2  UNL     1     -23.519   9.345  10.619  1.00  0.00     0.129 C 
HETATM   28  C1  UNL     1     -22.247   9.261  11.442  1.00  0.00     0.057 C 
HETATM   29  C3  UNL     1     -24.683   9.856  11.426  1.00  0.00     0.057 C 
HETATM   30  F1  UNL     1     -23.346  10.060   9.466  1.00  0.00    -0.238 F 
ENDBRANCH  24  27
ENDBRANCH   1  22
TORSDOF 7
ENDMDL
