MODEL 1
REMARK VINA RESULT: -9.042123599      0.000      0.000
REMARK  6 active torsions:
REMARK  status: ('A' for Active; 'I' for Inactive)
REMARK    1  A    between atoms: S1_2  and  C2_3 
REMARK    2  A    between atoms: C5_6  and  C6_7 
REMARK    3  A    between atoms: N1_8  and  N2_10 
REMARK    4  A    between atoms: N2_10  and  C7_12 
REMARK    5  A    between atoms: C8_15  and  N4_16 
REMARK    6  A    between atoms: N5_19  and  C9_20 
ROOT
HETATM    1  C7  UNL     1     -26.178   2.860  15.034  1.00  0.00     0.726 A 
HETATM    2  N3  UNL     1     -25.593   3.307  16.156  1.00  0.00    -0.018 N 
ATOM      3  H3  UNL     1     -24.600   3.490  16.300  1.00  0.00     0.203 HD
HETATM    4  C8  UNL     1     -26.595   3.465  17.060  1.00  0.00     0.712 A 
HETATM    5  N5  UNL     1     -27.772   3.125  16.511  1.00  0.00    -0.072 N 
HETATM    6  N6  UNL     1     -27.479   2.758  15.263  1.00  0.00    -0.109 N 
ATOM      7  H6  UNL     1     -28.164   2.441  14.577  1.00  0.00     0.207 HD
ENDROOT
BRANCH   1   8
HETATM    8  N2  UNL     1     -25.595   2.578  13.927  1.00  0.00    -0.131 N 
ATOM      9  H2  UNL     1     -25.307   1.616  13.752  1.00  0.00     0.205 HD
BRANCH   8  10
HETATM   10  N1  UNL     1     -25.342   3.543  12.954  1.00  0.00    -0.297 N 
HETATM   11  C6  UNL     1     -25.028   4.762  13.219  1.00  0.00     0.119 C 
ATOM     12  H1  UNL     1     -25.409   3.267  11.975  1.00  0.00     0.186 HD
BRANCH  11  13
HETATM   13  C5  UNL     1     -24.787   5.681  12.132  1.00  0.00    -0.019 A 
HETATM   14  C4  UNL     1     -24.436   6.982  12.415  1.00  0.00     0.014 A 
HETATM   15  C3  UNL     1     -24.204   7.866  11.385  1.00  0.00     0.019 A 
HETATM   16  C2  UNL     1     -24.317   7.476  10.080  1.00  0.00    -0.000 A 
HETATM   17  C16 UNL     1     -24.671   6.164   9.814  1.00  0.00     0.019 A 
HETATM   18  C15 UNL     1     -24.909   5.256  10.829  1.00  0.00     0.014 A 
BRANCH  16  19
HETATM   19  S1  UNL     1     -24.003   8.668   8.803  1.00  0.00    -0.134 SA
HETATM   20  C1  UNL     1     -22.675   9.809   9.254  1.00  0.00     0.095 C 
ENDBRANCH  16  19
ENDBRANCH  11  13
ENDBRANCH   8  10
ENDBRANCH   1   8
BRANCH   4  21
HETATM   21  N4  UNL     1     -26.423   3.888  18.282  1.00  0.00    -0.232 N 
ATOM     22  H42 UNL     1     -26.414   4.865  18.575  1.00  0.00     0.174 HD
ATOM     23  H41 UNL     1     -26.276   3.278  19.086  1.00  0.00     0.174 HD
ENDBRANCH   4  21
BRANCH   5  24
HETATM   24  C9  UNL     1     -29.057   3.153  17.134  1.00  0.00     0.077 A 
HETATM   25  C10 UNL     1     -29.980   4.143  16.865  1.00  0.00     0.034 A 
HETATM   26  C11 UNL     1     -31.210   4.163  17.468  1.00  0.00     0.028 A 
HETATM   27  C12 UNL     1     -31.575   3.187  18.372  1.00  0.00     0.055 A 
HETATM   28 CL1  UNL     1     -33.154   3.248  19.118  1.00  0.00    -0.083 Cl
HETATM   29  C13 UNL     1     -30.670   2.199  18.648  1.00  0.00     0.058 A 
HETATM   30 CL2  UNL     1     -31.145   0.957  19.803  1.00  0.00    -0.082 Cl
HETATM   31  C14 UNL     1     -29.430   2.178  18.042  1.00  0.00     0.057 A 
ENDBRANCH   5  24
TORSDOF 6
ENDMDL
MODEL 2
REMARK VINA RESULT: -8.905810831      1.046      1.565
REMARK  6 active torsions:
REMARK  status: ('A' for Active; 'I' for Inactive)
REMARK    1  A    between atoms: S1_2  and  C2_3 
REMARK    2  A    between atoms: C5_6  and  C6_7 
REMARK    3  A    between atoms: N1_8  and  N2_10 
REMARK    4  A    between atoms: N2_10  and  C7_12 
REMARK    5  A    between atoms: C8_15  and  N4_16 
REMARK    6  A    between atoms: N5_19  and  C9_20 
ROOT
HETATM    1  C7  UNL     1     -26.323   2.897  15.257  1.00  0.00     0.726 A 
HETATM    2  N3  UNL     1     -25.843   3.324  16.434  1.00  0.00    -0.018 N 
ATOM      3  H3  UNL     1     -24.917   3.712  16.616  1.00  0.00     0.203 HD
HETATM    4  C8  UNL     1     -26.843   3.135  17.335  1.00  0.00     0.712 A 
HETATM    5  N5  UNL     1     -27.917   2.604  16.729  1.00  0.00    -0.072 N 
HETATM    6  N6  UNL     1     -27.563   2.471  15.451  1.00  0.00    -0.109 N 
ATOM      7  H6  UNL     1     -28.166   2.092  14.720  1.00  0.00     0.207 HD
ENDROOT
BRANCH   1   8
HETATM    8  N2  UNL     1     -25.705   2.896  14.133  1.00  0.00    -0.131 N 
ATOM      9  H2  UNL     1     -25.473   2.003  13.699  1.00  0.00     0.205 HD
BRANCH   8  10
HETATM   10  N1  UNL     1     -25.340   4.075  13.485  1.00  0.00    -0.297 N 
HETATM   11  C6  UNL     1     -25.224   4.185  12.210  1.00  0.00     0.119 C 
ATOM     12  H1  UNL     1     -25.153   4.899  14.057  1.00  0.00     0.186 HD
BRANCH  11  13
HETATM   13  C5  UNL     1     -24.839   5.455  11.642  1.00  0.00    -0.019 A 
HETATM   14  C4  UNL     1     -24.563   6.512  12.479  1.00  0.00     0.014 A 
HETATM   15  C3  UNL     1     -24.195   7.728  11.947  1.00  0.00     0.019 A 
HETATM   16  C2  UNL     1     -24.098   7.906  10.595  1.00  0.00    -0.000 A 
HETATM   17  C16 UNL     1     -24.379   6.833   9.767  1.00  0.00     0.019 A 
HETATM   18  C15 UNL     1     -24.751   5.601  10.276  1.00  0.00     0.014 A 
BRANCH  16  19
HETATM   19  S1  UNL     1     -23.618   9.500   9.977  1.00  0.00    -0.134 SA
HETATM   20  C1  UNL     1     -23.453  10.717  11.303  1.00  0.00     0.095 C 
ENDBRANCH  16  19
ENDBRANCH  11  13
ENDBRANCH   8  10
ENDBRANCH   1   8
BRANCH   4  21
HETATM   21  N4  UNL     1     -26.757   3.432  18.602  1.00  0.00    -0.232 N 
ATOM     22  H42 UNL     1     -25.912   3.364  19.171  1.00  0.00     0.174 HD
ATOM     23  H41 UNL     1     -27.536   3.768  19.167  1.00  0.00     0.174 HD
ENDBRANCH   4  21
BRANCH   5  24
HETATM   24  C9  UNL     1     -29.165   2.259  17.330  1.00  0.00     0.077 A 
HETATM   25  C10 UNL     1     -29.526   0.949  17.571  1.00  0.00     0.034 A 
HETATM   26  C11 UNL     1     -30.726   0.627  18.147  1.00  0.00     0.028 A 
HETATM   27  C12 UNL     1     -31.626   1.607  18.510  1.00  0.00     0.055 A 
HETATM   28 CL1  UNL     1     -33.147   1.155  19.242  1.00  0.00    -0.083 Cl
HETATM   29  C13 UNL     1     -31.282   2.910  18.276  1.00  0.00     0.058 A 
HETATM   30 CL2  UNL     1     -32.438   4.155  18.744  1.00  0.00    -0.082 Cl
HETATM   31  C14 UNL     1     -30.074   3.236  17.696  1.00  0.00     0.057 A 
ENDBRANCH   5  24
TORSDOF 6
ENDMDL
MODEL 3
REMARK VINA RESULT: -8.870110342      1.041      1.843
REMARK  6 active torsions:
REMARK  status: ('A' for Active; 'I' for Inactive)
REMARK    1  A    between atoms: S1_2  and  C2_3 
REMARK    2  A    between atoms: C5_6  and  C6_7 
REMARK    3  A    between atoms: N1_8  and  N2_10 
REMARK    4  A    between atoms: N2_10  and  C7_12 
REMARK    5  A    between atoms: C8_15  and  N4_16 
REMARK    6  A    between atoms: N5_19  and  C9_20 
ROOT
HETATM    1  C7  UNL     1     -26.380   2.671  15.602  1.00  0.00     0.726 A 
HETATM    2  N3  UNL     1     -25.904   3.103  16.780  1.00  0.00    -0.018 N 
ATOM      3  H3  UNL     1     -24.972   3.473  16.968  1.00  0.00     0.203 HD
HETATM    4  C8  UNL     1     -26.918   2.946  17.671  1.00  0.00     0.712 A 
HETATM    5  N5  UNL     1     -27.996   2.430  17.060  1.00  0.00    -0.072 N 
HETATM    6  N6  UNL     1     -27.631   2.273  15.787  1.00  0.00    -0.109 N 
ATOM      7  H6  UNL     1     -28.233   1.898  15.054  1.00  0.00     0.207 HD
ENDROOT
BRANCH   1   8
HETATM    8  N2  UNL     1     -25.749   2.642  14.486  1.00  0.00    -0.131 N 
ATOM      9  H2  UNL     1     -25.504   1.739  14.082  1.00  0.00     0.205 HD
BRANCH   8  10
HETATM   10  N1  UNL     1     -25.389   3.805  13.807  1.00  0.00    -0.297 N 
HETATM   11  C6  UNL     1     -25.394   3.916  12.526  1.00  0.00     0.119 C 
ATOM     12  H1  UNL     1     -25.104   4.614  14.358  1.00  0.00     0.186 HD
BRANCH  11  13
HETATM   13  C5  UNL     1     -25.001   5.169  11.925  1.00  0.00    -0.019 A 
HETATM   14  C4  UNL     1     -25.009   5.290  10.554  1.00  0.00     0.014 A 
HETATM   15  C3  UNL     1     -24.635   6.480   9.971  1.00  0.00     0.019 A 
HETATM   16  C2  UNL     1     -24.254   7.550  10.732  1.00  0.00    -0.000 A 
HETATM   17  C16 UNL     1     -24.252   7.411  12.109  1.00  0.00     0.019 A 
HETATM   18  C15 UNL     1     -24.623   6.227  12.720  1.00  0.00     0.014 A 
BRANCH  16  19
HETATM   19  S1  UNL     1     -23.785   9.055   9.914  1.00  0.00    -0.134 SA
HETATM   20  C1  UNL     1     -23.681   8.846   8.121  1.00  0.00     0.095 C 
ENDBRANCH  16  19
ENDBRANCH  11  13
ENDBRANCH   8  10
ENDBRANCH   1   8
BRANCH   4  21
HETATM   21  N4  UNL     1     -26.841   3.258  18.935  1.00  0.00    -0.232 N 
ATOM     22  H42 UNL     1     -27.443   3.924  19.420  1.00  0.00     0.174 HD
ATOM     23  H41 UNL     1     -26.159   2.864  19.583  1.00  0.00     0.174 HD
ENDBRANCH   4  21
BRANCH   5  24
HETATM   24  C9  UNL     1     -29.259   2.120  17.650  1.00  0.00     0.077 A 
HETATM   25  C10 UNL     1     -29.637   0.823  17.932  1.00  0.00     0.034 A 
HETATM   26  C11 UNL     1     -30.850   0.534  18.498  1.00  0.00     0.028 A 
HETATM   27  C12 UNL     1     -31.747   1.535  18.809  1.00  0.00     0.055 A 
HETATM   28 CL1  UNL     1     -33.285   1.125  19.529  1.00  0.00    -0.083 Cl
HETATM   29  C13 UNL     1     -31.386   2.826  18.534  1.00  0.00     0.058 A 
HETATM   30 CL2  UNL     1     -32.537   4.098  18.935  1.00  0.00    -0.082 Cl
HETATM   31  C14 UNL     1     -30.164   3.119  17.964  1.00  0.00     0.057 A 
ENDBRANCH   5  24
TORSDOF 6
ENDMDL
MODEL 4
REMARK VINA RESULT: -8.681714226      7.633     11.596
REMARK  6 active torsions:
REMARK  status: ('A' for Active; 'I' for Inactive)
REMARK    1  A    between atoms: S1_2  and  C2_3 
REMARK    2  A    between atoms: C5_6  and  C6_7 
REMARK    3  A    between atoms: N1_8  and  N2_10 
REMARK    4  A    between atoms: N2_10  and  C7_12 
REMARK    5  A    between atoms: C8_15  and  N4_16 
REMARK    6  A    between atoms: N5_19  and  C9_20 
ROOT
HETATM    1  C7  UNL     1     -22.686  10.501  11.706  1.00  0.00     0.726 A 
HETATM    2  N3  UNL     1     -22.195  11.721  11.976  1.00  0.00    -0.018 N 
ATOM      3  H3  UNL     1     -22.713  12.530  12.317  1.00  0.00     0.203 HD
HETATM    4  C8  UNL     1     -20.865  11.655  11.702  1.00  0.00     0.712 A 
HETATM    5  N5  UNL     1     -20.540  10.425  11.274  1.00  0.00    -0.072 N 
HETATM    6  N6  UNL     1     -21.684   9.740  11.289  1.00  0.00    -0.109 N 
ATOM      7  H6  UNL     1     -21.776   8.762  11.017  1.00  0.00     0.207 HD
ENDROOT
BRANCH   1   8
HETATM    8  N2  UNL     1     -23.905  10.124  11.827  1.00  0.00    -0.131 N 
ATOM      9  H2  UNL     1     -24.648  10.810  11.702  1.00  0.00     0.205 HD
BRANCH   8  10
HETATM   10  N1  UNL     1     -24.248   8.806  12.125  1.00  0.00    -0.297 N 
HETATM   11  C6  UNL     1     -24.301   7.865  11.251  1.00  0.00     0.119 C 
ATOM     12  H1  UNL     1     -24.471   8.575  13.093  1.00  0.00     0.186 HD
BRANCH  11  13
HETATM   13  C5  UNL     1     -24.670   6.533  11.668  1.00  0.00    -0.019 A 
HETATM   14  C4  UNL     1     -24.602   6.200  13.001  1.00  0.00     0.014 A 
HETATM   15  C3  UNL     1     -24.950   4.932  13.409  1.00  0.00     0.019 A 
HETATM   16  C2  UNL     1     -25.365   3.991  12.509  1.00  0.00    -0.000 A 
HETATM   17  C16 UNL     1     -25.427   4.341  11.171  1.00  0.00     0.019 A 
HETATM   18  C15 UNL     1     -25.083   5.608  10.735  1.00  0.00     0.014 A 
BRANCH  16  19
HETATM   19  S1  UNL     1     -25.800   2.375  13.103  1.00  0.00    -0.134 SA
HETATM   20  C1  UNL     1     -25.784   2.293  14.909  1.00  0.00     0.095 C 
ENDBRANCH  16  19
ENDBRANCH  11  13
ENDBRANCH   8  10
ENDBRANCH   1   8
BRANCH   4  21
HETATM   21  N4  UNL     1     -20.036  12.653  11.841  1.00  0.00    -0.232 N 
ATOM     22  H42 UNL     1     -19.166  12.631  12.374  1.00  0.00     0.174 HD
ATOM     23  H41 UNL     1     -20.172  13.574  11.426  1.00  0.00     0.174 HD
ENDBRANCH   4  21
BRANCH   5  24
HETATM   24  C9  UNL     1     -19.248   9.957  10.888  1.00  0.00     0.077 A 
HETATM   25  C10 UNL     1     -19.078   8.973   9.936  1.00  0.00     0.034 A 
HETATM   26  C11 UNL     1     -17.835   8.530   9.572  1.00  0.00     0.028 A 
HETATM   27  C12 UNL     1     -16.696   9.054  10.149  1.00  0.00     0.055 A 
HETATM   28 CL1  UNL     1     -15.128   8.461   9.657  1.00  0.00    -0.083 Cl
HETATM   29  C13 UNL     1     -16.849  10.030  11.095  1.00  0.00     0.058 A 
HETATM   30 CL2  UNL     1     -15.389  10.694  11.825  1.00  0.00    -0.082 Cl
HETATM   31  C14 UNL     1     -18.101  10.477  11.462  1.00  0.00     0.057 A 
ENDBRANCH   5  24
TORSDOF 6
ENDMDL
MODEL 5
REMARK VINA RESULT: -8.626259816      5.909     10.159
REMARK  6 active torsions:
REMARK  status: ('A' for Active; 'I' for Inactive)
REMARK    1  A    between atoms: S1_2  and  C2_3 
REMARK    2  A    between atoms: C5_6  and  C6_7 
REMARK    3  A    between atoms: N1_8  and  N2_10 
REMARK    4  A    between atoms: N2_10  and  C7_12 
REMARK    5  A    between atoms: C8_15  and  N4_16 
REMARK    6  A    between atoms: N5_19  and  C9_20 
ROOT
HETATM    1  C7  UNL     1     -24.138   6.117  10.985  1.00  0.00     0.726 A 
HETATM    2  N3  UNL     1     -24.704   6.714   9.924  1.00  0.00    -0.018 N 
ATOM      3  H3  UNL     1     -25.399   6.315   9.294  1.00  0.00     0.203 HD
HETATM    4  C8  UNL     1     -24.160   7.958   9.863  1.00  0.00     0.712 A 
HETATM    5  N5  UNL     1     -23.279   8.128  10.861  1.00  0.00    -0.072 N 
HETATM    6  N6  UNL     1     -23.291   6.976  11.533  1.00  0.00    -0.109 N 
ATOM      7  H6  UNL     1     -22.724   6.782  12.359  1.00  0.00     0.207 HD
ENDROOT
BRANCH   1   8
HETATM    8  N2  UNL     1     -24.368   4.929  11.407  1.00  0.00    -0.131 N 
ATOM      9  H2  UNL     1     -23.978   4.139  10.893  1.00  0.00     0.205 HD
BRANCH   8  10
HETATM   10  N1  UNL     1     -25.132   4.679  12.545  1.00  0.00    -0.297 N 
HETATM   11  C6  UNL     1     -25.424   3.501  12.968  1.00  0.00     0.119 C 
ATOM     12  H1  UNL     1     -25.481   5.479  13.074  1.00  0.00     0.186 HD
BRANCH  11  13
HETATM   13  C5  UNL     1     -26.224   3.356  14.161  1.00  0.00    -0.019 A 
HETATM   14  C4  UNL     1     -27.435   2.707  14.086  1.00  0.00     0.014 A 
HETATM   15  C3  UNL     1     -28.206   2.564  15.218  1.00  0.00     0.019 A 
HETATM   16  C2  UNL     1     -27.790   3.058  16.422  1.00  0.00    -0.000 A 
HETATM   17  C16 UNL     1     -26.569   3.708  16.481  1.00  0.00     0.019 A 
HETATM   18  C15 UNL     1     -25.776   3.866  15.359  1.00  0.00     0.014 A 
BRANCH  16  19
HETATM   19  S1  UNL     1     -28.834   2.838  17.842  1.00  0.00    -0.134 SA
HETATM   20  C1  UNL     1     -30.463   3.585  17.604  1.00  0.00     0.095 C 
ENDBRANCH  16  19
ENDBRANCH  11  13
ENDBRANCH   8  10
ENDBRANCH   1   8
BRANCH   4  21
HETATM   21  N4  UNL     1     -24.460   8.847   8.958  1.00  0.00    -0.232 N 
ATOM     22  H42 UNL     1     -24.852   8.648   8.037  1.00  0.00     0.174 HD
ATOM     23  H41 UNL     1     -24.333   9.852   9.075  1.00  0.00     0.174 HD
ENDBRANCH   4  21
BRANCH   5  24
HETATM   24  C9  UNL     1     -22.501   9.293  11.140  1.00  0.00     0.077 A 
HETATM   25  C10 UNL     1     -21.180   9.401  10.757  1.00  0.00     0.034 A 
HETATM   26  C11 UNL     1     -20.441  10.521  11.029  1.00  0.00     0.028 A 
HETATM   27  C12 UNL     1     -20.994  11.592  11.699  1.00  0.00     0.055 A 
HETATM   28 CL1  UNL     1     -20.018  13.005  12.027  1.00  0.00    -0.083 Cl
HETATM   29  C13 UNL     1     -22.303  11.499  12.085  1.00  0.00     0.058 A 
HETATM   30 CL2  UNL     1     -23.002  12.872  12.941  1.00  0.00    -0.082 Cl
HETATM   31  C14 UNL     1     -23.049  10.371  11.813  1.00  0.00     0.057 A 
ENDBRANCH   5  24
TORSDOF 6
ENDMDL
