MODEL 1
REMARK VINA RESULT: -8.788546848      0.000      0.000
REMARK  10 active torsions:
REMARK  status: ('A' for Active; 'I' for Inactive)
REMARK    1  A    between atoms: C2_2  and  O1_3 
REMARK    2  A    between atoms: O1_3  and  C3_4 
REMARK    3  A    between atoms: C3_4  and  C4_6 
REMARK    4  A    between atoms: C6_11  and  C7_12 
REMARK    5  A    between atoms: C7_12  and  N2_13 
REMARK    6  A    between atoms: C7_12  and  C10_18 
REMARK       I    between atoms: N2_13  and  C8_15 
REMARK    7  A    between atoms: C15_25  and  C16_26 
REMARK    8  A    between atoms: C16_26  and  C17_27 
REMARK    9  A    between atoms: C18_28  and  C19_29 
REMARK   10  A    between atoms: C19_29  and  C20_30 
ROOT
HETATM    1  C4  UNL     1      19.896 -18.558  -3.420  1.00  0.00     0.203 C 
HETATM    2  N1  UNL     1      18.588 -18.003  -3.527  1.00  0.00    -0.345 N 
ATOM      3  H1  UNL     1      18.413 -17.192  -2.934  1.00  0.00     0.163 HD
HETATM    4  C5  UNL     1      17.509 -18.403  -4.321  1.00  0.00     0.229 C 
HETATM    5  O3  UNL     1      16.312 -18.222  -3.899  1.00  0.00    -0.273 OA
HETATM    6  C6  UNL     1      17.611 -19.046  -5.676  1.00  0.00     0.135 C 
HETATM    7  C13 UNL     1      17.783 -17.839  -6.618  1.00  0.00     0.128 C 
HETATM    8  S1  UNL     1      19.032 -18.070  -7.819  1.00  0.00     0.017 S 
HETATM    9  O5  UNL     1      20.225 -19.137  -7.400  1.00  0.00    -0.258 OA
HETATM   10  C14 UNL     1      19.632 -16.494  -8.358  1.00  0.00     0.125 C 
HETATM   11  C15 UNL     1      20.993 -16.150  -7.844  1.00  0.00     0.073 C 
HETATM   12  S2  UNL     1      21.548 -17.137  -6.456  1.00  0.00    -0.091 SA
HETATM   13  S3  UNL     1      20.855 -16.259  -4.644  1.00  0.00    -0.085 SA
HETATM   14  C27 UNL     1      21.003 -17.497  -3.340  1.00  0.00     0.041 C 
HETATM   15  C28 UNL     1      20.957 -16.864  -1.966  1.00  0.00     0.030 C 
HETATM   16  C29 UNL     1      22.309 -18.240  -3.563  1.00  0.00     0.030 C 
ENDROOT
BRANCH  11  17
HETATM   17  C16 UNL     1      21.096 -14.684  -7.439  1.00  0.00     0.043 C 
BRANCH  17  18
HETATM   18  C17 UNL     1      22.529 -14.329  -7.317  1.00  0.00    -0.029 C 
HETATM   19  C18 UNL     1      23.153 -13.704  -8.302  1.00  0.00    -0.030 C 
BRANCH  19  20
HETATM   20  C19 UNL     1      24.600 -13.348  -8.172  1.00  0.00     0.034 C 
BRANCH  20  21
HETATM   21  C20 UNL     1      25.186 -14.173  -7.047  1.00  0.00     0.023 C 
HETATM   22  C21 UNL     1      26.157 -13.451  -6.170  1.00  0.00     0.042 C 
HETATM   23  C22 UNL     1      27.104 -14.625  -6.300  1.00  0.00     0.155 C 
HETATM   24  O6  UNL     1      26.930 -15.636  -5.373  1.00  0.00    -0.348 OA
HETATM   25  C26 UNL     1      26.292 -15.107  -7.470  1.00  0.00     0.158 C 
HETATM   26  C23 UNL     1      26.731 -16.811  -6.106  1.00  0.00     0.158 C 
HETATM   27  C24 UNL     1      26.058 -17.879  -5.288  1.00  0.00     0.078 C 
HETATM   28  C25 UNL     1      28.066 -17.312  -6.587  1.00  0.00     0.078 C 
HETATM   29  O7  UNL     1      25.976 -16.440  -7.217  1.00  0.00    -0.348 OA
ENDBRANCH  20  21
ENDBRANCH  19  20
ENDBRANCH  17  18
ENDBRANCH  11  17
BRANCH   6  30
HETATM   30  C7  UNL     1      16.275 -19.669  -6.012  1.00  0.00     0.007 C 
BRANCH  30  31
HETATM   31  N2  UNL     1      16.019 -20.974  -5.508  1.00  0.00    -0.334 N 
HETATM   32  C8  UNL     1      15.101 -21.548  -4.658  1.00  0.00     0.217 C 
HETATM   33  C9  UNL     1      15.129 -23.039  -4.367  1.00  0.00     0.117 C 
HETATM   34  O4  UNL     1      14.199 -20.952  -4.066  1.00  0.00    -0.274 OA
ATOM     35  H2  UNL     1      16.685 -21.657  -5.866  1.00  0.00     0.168 HD
ENDBRANCH  30  31
BRANCH  30  36
HETATM   36  C10 UNL     1      15.823 -19.487  -7.418  1.00  0.00     0.024 C 
HETATM   37  C11 UNL     1      14.315 -19.265  -7.403  1.00  0.00     0.016 C 
HETATM   38  C12 UNL     1      16.174 -20.656  -8.310  1.00  0.00     0.016 C 
ENDBRANCH  30  36
ENDBRANCH   6  30
BRANCH   1  39
HETATM   39  C3  UNL     1      20.027 -19.310  -2.117  1.00  0.00     0.283 C 
HETATM   40  O2  UNL     1      19.773 -18.693  -1.058  1.00  0.00    -0.263 OA
BRANCH  39  41
HETATM   41  O1  UNL     1      20.407 -20.620  -2.033  1.00  0.00    -0.320 OA
BRANCH  41  42
HETATM   42  C2  UNL     1      19.714 -21.722  -2.534  1.00  0.00     0.174 C 
HETATM   43  C1  UNL     1      18.226 -21.477  -2.434  1.00  0.00     0.034 C 
ENDBRANCH  41  42
ENDBRANCH  39  41
ENDBRANCH   1  39
TORSDOF 10
ENDMDL
MODEL 2
REMARK VINA RESULT: -8.283091401      2.897     10.080
REMARK  10 active torsions:
REMARK  status: ('A' for Active; 'I' for Inactive)
REMARK    1  A    between atoms: C2_2  and  O1_3 
REMARK    2  A    between atoms: O1_3  and  C3_4 
REMARK    3  A    between atoms: C3_4  and  C4_6 
REMARK    4  A    between atoms: C6_11  and  C7_12 
REMARK    5  A    between atoms: C7_12  and  N2_13 
REMARK    6  A    between atoms: C7_12  and  C10_18 
REMARK       I    between atoms: N2_13  and  C8_15 
REMARK    7  A    between atoms: C15_25  and  C16_26 
REMARK    8  A    between atoms: C16_26  and  C17_27 
REMARK    9  A    between atoms: C18_28  and  C19_29 
REMARK   10  A    between atoms: C19_29  and  C20_30 
ROOT
HETATM    1  C4  UNL     1      20.694 -18.410  -3.716  1.00  0.00     0.203 C 
HETATM    2  N1  UNL     1      21.426 -18.882  -4.843  1.00  0.00    -0.345 N 
ATOM      3  H1  UNL     1      21.878 -19.787  -4.717  1.00  0.00     0.163 HD
HETATM    4  C5  UNL     1      21.617 -18.292  -6.097  1.00  0.00     0.229 C 
HETATM    5  O3  UNL     1      22.707 -18.507  -6.737  1.00  0.00    -0.273 OA
HETATM    6  C6  UNL     1      20.636 -17.397  -6.801  1.00  0.00     0.135 C 
HETATM    7  C13 UNL     1      19.684 -18.400  -7.483  1.00  0.00     0.128 C 
HETATM    8  S1  UNL     1      17.996 -17.983  -7.304  1.00  0.00     0.017 S 
HETATM    9  O5  UNL     1      17.632 -17.067  -5.975  1.00  0.00    -0.258 OA
HETATM   10  C14 UNL     1      17.007 -19.443  -7.465  1.00  0.00     0.125 C 
HETATM   11  C15 UNL     1      16.429 -19.934  -6.177  1.00  0.00     0.073 C 
HETATM   12  S2  UNL     1      17.192 -19.264  -4.702  1.00  0.00    -0.091 SA
HETATM   13  S3  UNL     1      18.875 -20.456  -4.174  1.00  0.00    -0.085 SA
HETATM   14  C27 UNL     1      19.881 -19.507  -3.014  1.00  0.00     0.041 C 
HETATM   15  C28 UNL     1      20.839 -20.398  -2.254  1.00  0.00     0.030 C 
HETATM   16  C29 UNL     1      18.932 -18.786  -2.073  1.00  0.00     0.030 C 
ENDROOT
BRANCH  11  17
HETATM   17  C16 UNL     1      16.478 -21.454  -6.072  1.00  0.00     0.043 C 
BRANCH  17  18
HETATM   18  C17 UNL     1      15.270 -21.915  -5.348  1.00  0.00    -0.029 C 
HETATM   19  C18 UNL     1      15.178 -23.164  -4.921  1.00  0.00    -0.030 C 
BRANCH  19  20
HETATM   20  C19 UNL     1      13.957 -23.624  -4.190  1.00  0.00     0.034 C 
BRANCH  20  21
HETATM   21  C20 UNL     1      12.746 -23.209  -4.998  1.00  0.00     0.023 C 
HETATM   22  C21 UNL     1      11.467 -23.879  -4.611  1.00  0.00     0.042 C 
HETATM   23  C22 UNL     1      11.207 -24.167  -6.074  1.00  0.00     0.155 C 
HETATM   24  O6  UNL     1      10.544 -23.171  -6.769  1.00  0.00    -0.348 OA
HETATM   25  C26 UNL     1      12.651 -23.859  -6.356  1.00  0.00     0.158 C 
HETATM   26  C23 UNL     1      11.359 -22.841  -7.857  1.00  0.00     0.158 C 
HETATM   27  C24 UNL     1      11.033 -21.483  -8.415  1.00  0.00     0.078 C 
HETATM   28  C25 UNL     1      11.178 -23.882  -8.929  1.00  0.00     0.078 C 
HETATM   29  O7  UNL     1      12.668 -22.921  -7.386  1.00  0.00    -0.348 OA
ENDBRANCH  20  21
ENDBRANCH  19  20
ENDBRANCH  17  18
ENDBRANCH  11  17
BRANCH   6  30
HETATM   30  C7  UNL     1      21.362 -16.669  -7.910  1.00  0.00     0.007 C 
BRANCH  30  31
HETATM   31  N2  UNL     1      22.650 -16.145  -7.611  1.00  0.00    -0.334 N 
HETATM   32  C8  UNL     1      23.198 -15.358  -6.624  1.00  0.00     0.217 C 
HETATM   33  C9  UNL     1      24.678 -15.017  -6.627  1.00  0.00     0.117 C 
HETATM   34  O4  UNL     1      22.585 -14.865  -5.675  1.00  0.00    -0.274 OA
ATOM     35  H2  UNL     1      23.343 -16.423  -8.305  1.00  0.00     0.168 HD
ENDBRANCH  30  31
BRANCH  30  36
HETATM   36  C10 UNL     1      20.525 -15.740  -8.716  1.00  0.00     0.024 C 
HETATM   37  C11 UNL     1      21.458 -14.872  -9.553  1.00  0.00     0.016 C 
HETATM   38  C12 UNL     1      19.617 -14.875  -7.872  1.00  0.00     0.016 C 
ENDBRANCH  30  36
ENDBRANCH   6  30
BRANCH   1  39
HETATM   39  C3  UNL     1      21.650 -17.937  -2.648  1.00  0.00     0.283 C 
HETATM   40  O2  UNL     1      21.358 -16.892  -2.021  1.00  0.00    -0.263 OA
BRANCH  39  41
HETATM   41  O1  UNL     1      22.812 -18.583  -2.331  1.00  0.00    -0.320 OA
BRANCH  41  42
HETATM   42  C2  UNL     1      24.094 -18.032  -2.309  1.00  0.00     0.174 C 
HETATM   43  C1  UNL     1      24.494 -17.616  -3.706  1.00  0.00     0.034 C 
ENDBRANCH  41  42
ENDBRANCH  39  41
ENDBRANCH   1  39
TORSDOF 10
ENDMDL
MODEL 3
REMARK VINA RESULT: -8.222341406      0.913      1.028
REMARK  10 active torsions:
REMARK  status: ('A' for Active; 'I' for Inactive)
REMARK    1  A    between atoms: C2_2  and  O1_3 
REMARK    2  A    between atoms: O1_3  and  C3_4 
REMARK    3  A    between atoms: C3_4  and  C4_6 
REMARK    4  A    between atoms: C6_11  and  C7_12 
REMARK    5  A    between atoms: C7_12  and  N2_13 
REMARK    6  A    between atoms: C7_12  and  C10_18 
REMARK       I    between atoms: N2_13  and  C8_15 
REMARK    7  A    between atoms: C15_25  and  C16_26 
REMARK    8  A    between atoms: C16_26  and  C17_27 
REMARK    9  A    between atoms: C18_28  and  C19_29 
REMARK   10  A    between atoms: C19_29  and  C20_30 
ROOT
HETATM    1  C4  UNL     1      19.878 -18.572  -3.405  1.00  0.00     0.203 C 
HETATM    2  N1  UNL     1      18.573 -18.010  -3.510  1.00  0.00    -0.345 N 
ATOM      3  H1  UNL     1      18.402 -17.200  -2.915  1.00  0.00     0.163 HD
HETATM    4  C5  UNL     1      17.492 -18.401  -4.306  1.00  0.00     0.229 C 
HETATM    5  O3  UNL     1      16.296 -18.215  -3.884  1.00  0.00    -0.273 OA
HETATM    6  C6  UNL     1      17.591 -19.040  -5.663  1.00  0.00     0.135 C 
HETATM    7  C13 UNL     1      17.770 -17.831  -6.601  1.00  0.00     0.128 C 
HETATM    8  S1  UNL     1      19.018 -18.065  -7.803  1.00  0.00     0.017 S 
HETATM    9  O5  UNL     1      20.205 -19.140  -7.387  1.00  0.00    -0.258 OA
HETATM   10  C14 UNL     1      19.626 -16.490  -8.337  1.00  0.00     0.125 C 
HETATM   11  C15 UNL     1      20.988 -16.155  -7.821  1.00  0.00     0.073 C 
HETATM   12  S2  UNL     1      21.538 -17.149  -6.436  1.00  0.00    -0.091 SA
HETATM   13  S3  UNL     1      20.850 -16.274  -4.622  1.00  0.00    -0.085 SA
HETATM   14  C27 UNL     1      20.991 -17.517  -3.321  1.00  0.00     0.041 C 
HETATM   15  C28 UNL     1      20.949 -16.888  -1.946  1.00  0.00     0.030 C 
HETATM   16  C29 UNL     1      22.293 -18.266  -3.547  1.00  0.00     0.030 C 
ENDROOT
BRANCH  11  17
HETATM   17  C16 UNL     1      21.099 -14.691  -7.411  1.00  0.00     0.043 C 
BRANCH  17  18
HETATM   18  C17 UNL     1      22.529 -14.303  -7.433  1.00  0.00    -0.029 C 
HETATM   19  C18 UNL     1      23.056 -13.735  -8.505  1.00  0.00    -0.030 C 
BRANCH  19  20
HETATM   20  C19 UNL     1      24.499 -13.344  -8.520  1.00  0.00     0.034 C 
BRANCH  20  21
HETATM   21  C20 UNL     1      25.005 -13.368  -7.093  1.00  0.00     0.023 C 
HETATM   22  C21 UNL     1      25.444 -12.046  -6.554  1.00  0.00     0.042 C 
HETATM   23  C22 UNL     1      26.710 -12.703  -6.048  1.00  0.00     0.155 C 
HETATM   24  O6  UNL     1      26.629 -13.258  -4.784  1.00  0.00    -0.348 OA
HETATM   25  C26 UNL     1      26.416 -13.877  -6.941  1.00  0.00     0.158 C 
HETATM   26  C23 UNL     1      27.001 -14.600  -4.918  1.00  0.00     0.158 C 
HETATM   27  C24 UNL     1      26.509 -15.440  -3.771  1.00  0.00     0.078 C 
HETATM   28  C25 UNL     1      28.502 -14.680  -4.993  1.00  0.00     0.078 C 
HETATM   29  O7  UNL     1      26.479 -15.016  -6.141  1.00  0.00    -0.348 OA
ENDBRANCH  20  21
ENDBRANCH  19  20
ENDBRANCH  17  18
ENDBRANCH  11  17
BRANCH   6  30
HETATM   30  C7  UNL     1      16.252 -19.655  -6.001  1.00  0.00     0.007 C 
BRANCH  30  31
HETATM   31  N2  UNL     1      15.974 -20.944  -5.470  1.00  0.00    -0.334 N 
HETATM   32  C8  UNL     1      15.008 -21.499  -4.661  1.00  0.00     0.217 C 
HETATM   33  C9  UNL     1      15.029 -22.978  -4.319  1.00  0.00     0.117 C 
HETATM   34  O4  UNL     1      14.066 -20.892  -4.148  1.00  0.00    -0.274 OA
ATOM     35  H2  UNL     1      16.666 -21.633  -5.763  1.00  0.00     0.168 HD
ENDBRANCH  30  31
BRANCH  30  36
HETATM   36  C10 UNL     1      15.819 -19.500  -7.417  1.00  0.00     0.024 C 
HETATM   37  C11 UNL     1      14.309 -19.295  -7.427  1.00  0.00     0.016 C 
HETATM   38  C12 UNL     1      16.197 -20.679  -8.285  1.00  0.00     0.016 C 
ENDBRANCH  30  36
ENDBRANCH   6  30
BRANCH   1  39
HETATM   39  C3  UNL     1      20.005 -19.329  -2.105  1.00  0.00     0.283 C 
HETATM   40  O2  UNL     1      19.773 -18.709  -1.042  1.00  0.00    -0.263 OA
BRANCH  39  41
HETATM   41  O1  UNL     1      20.360 -20.646  -2.027  1.00  0.00    -0.320 OA
BRANCH  41  42
HETATM   42  C2  UNL     1      19.665 -21.730  -2.565  1.00  0.00     0.174 C 
HETATM   43  C1  UNL     1      18.177 -21.478  -2.474  1.00  0.00     0.034 C 
ENDBRANCH  41  42
ENDBRANCH  39  41
ENDBRANCH   1  39
TORSDOF 10
ENDMDL
MODEL 4
REMARK VINA RESULT: -8.218108477      3.319     10.676
REMARK  10 active torsions:
REMARK  status: ('A' for Active; 'I' for Inactive)
REMARK    1  A    between atoms: C2_2  and  O1_3 
REMARK    2  A    between atoms: O1_3  and  C3_4 
REMARK    3  A    between atoms: C3_4  and  C4_6 
REMARK    4  A    between atoms: C6_11  and  C7_12 
REMARK    5  A    between atoms: C7_12  and  N2_13 
REMARK    6  A    between atoms: C7_12  and  C10_18 
REMARK       I    between atoms: N2_13  and  C8_15 
REMARK    7  A    between atoms: C15_25  and  C16_26 
REMARK    8  A    between atoms: C16_26  and  C17_27 
REMARK    9  A    between atoms: C18_28  and  C19_29 
REMARK   10  A    between atoms: C19_29  and  C20_30 
ROOT
HETATM    1  C4  UNL     1      20.421 -18.591  -3.551  1.00  0.00     0.203 C 
HETATM    2  N1  UNL     1      21.107 -18.987  -4.735  1.00  0.00    -0.345 N 
ATOM      3  H1  UNL     1      21.628 -19.860  -4.661  1.00  0.00     0.163 HD
HETATM    4  C5  UNL     1      21.174 -18.359  -5.983  1.00  0.00     0.229 C 
HETATM    5  O3  UNL     1      22.232 -18.483  -6.698  1.00  0.00    -0.273 OA
HETATM    6  C6  UNL     1      20.089 -17.521  -6.600  1.00  0.00     0.135 C 
HETATM    7  C13 UNL     1      19.167 -18.575  -7.244  1.00  0.00     0.128 C 
HETATM    8  S1  UNL     1      17.469 -18.282  -6.946  1.00  0.00     0.017 S 
HETATM    9  O5  UNL     1      17.131 -17.421  -5.575  1.00  0.00    -0.258 OA
HETATM   10  C14 UNL     1      16.575 -19.805  -7.081  1.00  0.00     0.125 C 
HETATM   11  C15 UNL     1      16.118 -20.362  -5.771  1.00  0.00     0.073 C 
HETATM   12  S2  UNL     1      16.929 -19.670  -4.331  1.00  0.00    -0.091 SA
HETATM   13  S3  UNL     1      18.721 -20.750  -3.943  1.00  0.00    -0.085 SA
HETATM   14  C27 UNL     1      19.734 -19.757  -2.827  1.00  0.00     0.041 C 
HETATM   15  C28 UNL     1      20.799 -20.594  -2.153  1.00  0.00     0.030 C 
HETATM   16  C29 UNL     1      18.801 -19.124  -1.809  1.00  0.00     0.030 C 
ENDROOT
BRANCH  11  17
HETATM   17  C16 UNL     1      16.279 -21.876  -5.708  1.00  0.00     0.043 C 
BRANCH  17  18
HETATM   18  C17 UNL     1      15.131 -22.441  -4.961  1.00  0.00    -0.029 C 
HETATM   19  C18 UNL     1      14.984 -23.751  -4.843  1.00  0.00    -0.030 C 
BRANCH  19  20
HETATM   20  C19 UNL     1      13.823 -24.315  -4.087  1.00  0.00     0.034 C 
BRANCH  20  21
HETATM   21  C20 UNL     1      12.690 -24.535  -5.066  1.00  0.00     0.023 C 
HETATM   22  C21 UNL     1      11.532 -23.603  -4.915  1.00  0.00     0.042 C 
HETATM   23  C22 UNL     1      10.601 -24.795  -4.976  1.00  0.00     0.155 C 
HETATM   24  O6  UNL     1      10.204 -25.177  -6.245  1.00  0.00    -0.348 OA
HETATM   25  C26 UNL     1      11.783 -25.688  -4.719  1.00  0.00     0.158 C 
HETATM   26  C23 UNL     1      10.556 -26.523  -6.379  1.00  0.00     0.158 C 
HETATM   27  C24 UNL     1      10.642 -26.944  -7.821  1.00  0.00     0.078 C 
HETATM   28  C25 UNL     1       9.530 -27.365  -5.670  1.00  0.00     0.078 C 
HETATM   29  O7  UNL     1      11.773 -26.664  -5.714  1.00  0.00    -0.348 OA
ENDBRANCH  20  21
ENDBRANCH  19  20
ENDBRANCH  17  18
ENDBRANCH  11  17
BRANCH   6  30
HETATM   30  C7  UNL     1      20.689 -16.721  -7.734  1.00  0.00     0.007 C 
BRANCH  30  31
HETATM   31  N2  UNL     1      22.080 -16.437  -7.667  1.00  0.00    -0.334 N 
HETATM   32  C8  UNL     1      22.899 -15.663  -6.877  1.00  0.00     0.217 C 
HETATM   33  C9  UNL     1      24.401 -15.632  -7.101  1.00  0.00     0.117 C 
HETATM   34  O4  UNL     1      22.529 -14.945  -5.945  1.00  0.00    -0.274 OA
ATOM     35  H2  UNL     1      22.604 -16.931  -8.388  1.00  0.00     0.168 HD
ENDBRANCH  30  31
BRANCH  30  36
HETATM   36  C10 UNL     1      19.876 -15.562  -8.195  1.00  0.00     0.024 C 
HETATM   37  C11 UNL     1      18.747 -16.097  -9.069  1.00  0.00     0.016 C 
HETATM   38  C12 UNL     1      20.686 -14.534  -8.952  1.00  0.00     0.016 C 
ENDBRANCH  30  36
ENDBRANCH   6  30
BRANCH   1  39
HETATM   39  C3  UNL     1      21.410 -18.074  -2.536  1.00  0.00     0.283 C 
HETATM   40  O2  UNL     1      21.139 -17.002  -1.947  1.00  0.00    -0.263 OA
BRANCH  39  41
HETATM   41  O1  UNL     1      22.581 -18.708  -2.226  1.00  0.00    -0.320 OA
BRANCH  41  42
HETATM   42  C2  UNL     1      23.862 -18.156  -2.256  1.00  0.00     0.174 C 
HETATM   43  C1  UNL     1      24.167 -17.650  -3.648  1.00  0.00     0.034 C 
ENDBRANCH  41  42
ENDBRANCH  39  41
ENDBRANCH   1  39
TORSDOF 10
ENDMDL
MODEL 5
REMARK VINA RESULT: -8.213820072      2.578      9.323
REMARK  10 active torsions:
REMARK  status: ('A' for Active; 'I' for Inactive)
REMARK    1  A    between atoms: C2_2  and  O1_3 
REMARK    2  A    between atoms: O1_3  and  C3_4 
REMARK    3  A    between atoms: C3_4  and  C4_6 
REMARK    4  A    between atoms: C6_11  and  C7_12 
REMARK    5  A    between atoms: C7_12  and  N2_13 
REMARK    6  A    between atoms: C7_12  and  C10_18 
REMARK       I    between atoms: N2_13  and  C8_15 
REMARK    7  A    between atoms: C15_25  and  C16_26 
REMARK    8  A    between atoms: C16_26  and  C17_27 
REMARK    9  A    between atoms: C18_28  and  C19_29 
REMARK   10  A    between atoms: C19_29  and  C20_30 
ROOT
HETATM    1  C4  UNL     1      22.556 -17.707  -3.487  1.00  0.00     0.203 C 
HETATM    2  N1  UNL     1      23.563 -18.018  -4.446  1.00  0.00    -0.345 N 
ATOM      3  H1  UNL     1      23.699 -19.013  -4.622  1.00  0.00     0.163 HD
HETATM    4  C5  UNL     1      24.391 -17.165  -5.182  1.00  0.00     0.229 C 
HETATM    5  O3  UNL     1      25.567 -17.555  -5.512  1.00  0.00    -0.273 OA
HETATM    6  C6  UNL     1      24.029 -15.783  -5.649  1.00  0.00     0.135 C 
HETATM    7  C13 UNL     1      23.248 -16.053  -6.950  1.00  0.00     0.128 C 
HETATM    8  S1  UNL     1      21.785 -15.105  -7.089  1.00  0.00     0.017 S 
HETATM    9  O5  UNL     1      21.120 -14.621  -5.654  1.00  0.00    -0.258 OA
HETATM   10  C14 UNL     1      20.650 -15.929  -8.169  1.00  0.00     0.125 C 
HETATM   11  C15 UNL     1      19.489 -16.560  -7.468  1.00  0.00     0.073 C 
HETATM   12  S2  UNL     1      19.696 -16.768  -5.701  1.00  0.00    -0.091 SA
HETATM   13  S3  UNL     1      20.680 -18.617  -5.319  1.00  0.00    -0.085 SA
HETATM   14  C27 UNL     1      21.296 -18.574  -3.624  1.00  0.00     0.041 C 
HETATM   15  C28 UNL     1      21.615 -19.963  -3.115  1.00  0.00     0.030 C 
HETATM   16  C29 UNL     1      20.234 -17.903  -2.771  1.00  0.00     0.030 C 
ENDROOT
BRANCH  11  17
HETATM   17  C16 UNL     1      19.139 -17.921  -8.056  1.00  0.00     0.043 C 
BRANCH  17  18
HETATM   18  C17 UNL     1      17.711 -18.202  -7.777  1.00  0.00    -0.029 C 
HETATM   19  C18 UNL     1      17.319 -19.420  -7.440  1.00  0.00    -0.030 C 
BRANCH  19  20
HETATM   20  C19 UNL     1      15.876 -19.697  -7.160  1.00  0.00     0.034 C 
BRANCH  20  21
HETATM   21  C20 UNL     1      15.799 -20.571  -5.926  1.00  0.00     0.023 C 
HETATM   22  C21 UNL     1      17.118 -21.016  -5.382  1.00  0.00     0.042 C 
HETATM   23  C22 UNL     1      16.576 -22.427  -5.299  1.00  0.00     0.155 C 
HETATM   24  O6  UNL     1      15.917 -22.744  -4.125  1.00  0.00    -0.348 OA
HETATM   25  C26 UNL     1      15.450 -22.011  -6.205  1.00  0.00     0.158 C 
HETATM   26  C23 UNL     1      14.643 -23.188  -4.495  1.00  0.00     0.158 C 
HETATM   27  C24 UNL     1      13.663 -23.106  -3.357  1.00  0.00     0.078 C 
HETATM   28  C25 UNL     1      14.746 -24.613  -4.969  1.00  0.00     0.078 C 
HETATM   29  O7  UNL     1      14.266 -22.394  -5.577  1.00  0.00    -0.348 OA
ENDBRANCH  20  21
ENDBRANCH  19  20
ENDBRANCH  17  18
ENDBRANCH  11  17
BRANCH   6  30
HETATM   30  C7  UNL     1      25.298 -15.065  -6.048  1.00  0.00     0.007 C 
BRANCH  30  31
HETATM   31  N2  UNL     1      25.869 -14.173  -5.099  1.00  0.00    -0.334 N 
HETATM   32  C8  UNL     1      26.385 -14.272  -3.827  1.00  0.00     0.217 C 
HETATM   33  C9  UNL     1      26.949 -13.056  -3.114  1.00  0.00     0.117 C 
HETATM   34  O4  UNL     1      26.445 -15.304  -3.155  1.00  0.00    -0.274 OA
ATOM     35  H2  UNL     1      25.905 -13.217  -5.451  1.00  0.00     0.168 HD
ENDBRANCH  30  31
BRANCH  30  36
HETATM   36  C10 UNL     1      25.318 -14.532  -7.438  1.00  0.00     0.024 C 
HETATM   37  C11 UNL     1      26.665 -14.884  -8.058  1.00  0.00     0.016 C 
HETATM   38  C12 UNL     1      25.083 -13.040  -7.503  1.00  0.00     0.016 C 
ENDBRANCH  30  36
ENDBRANCH   6  30
BRANCH   1  39
HETATM   39  C3  UNL     1      23.058 -18.024  -2.099  1.00  0.00     0.283 C 
HETATM   40  O2  UNL     1      22.448 -17.522  -1.127  1.00  0.00    -0.263 OA
BRANCH  39  41
HETATM   41  O1  UNL     1      24.137 -18.825  -1.847  1.00  0.00    -0.320 OA
BRANCH  41  42
HETATM   42  C2  UNL     1      25.412 -18.408  -1.463  1.00  0.00     0.174 C 
HETATM   43  C1  UNL     1      26.448 -19.044  -2.363  1.00  0.00     0.034 C 
ENDBRANCH  41  42
ENDBRANCH  39  41
ENDBRANCH   1  39
TORSDOF 10
ENDMDL
