MODEL 1
REMARK VINA RESULT: -5.763209464      0.000      0.000
REMARK  11 active torsions:
REMARK  status: ('A' for Active; 'I' for Inactive)
REMARK       I    between atoms: C2_2  and  N1_4 
REMARK    1  A    between atoms: N1_4  and  C3_6 
REMARK    2  A    between atoms: C4_7  and  O2_8 
REMARK       I    between atoms: N2_11  and  C6_13 
REMARK    3  A    between atoms: C6_13  and  C7_15 
REMARK    4  A    between atoms: C17_25  and  O4_26 
REMARK    5  A    between atoms: O4_26  and  C18_27 
REMARK    6  A    between atoms: C18_27  and  C19_29 
REMARK    7  A    between atoms: C19_29  and  N3_30 
REMARK    8  A    between atoms: C27_39  and  O7_40 
REMARK    9  A    between atoms: O7_40  and  C28_41 
REMARK   10  A    between atoms: C28_41  and  C29_43 
REMARK   11  A    between atoms: C31_45  and  C32_46 
ROOT
HETATM    1  C3  UNL     1      24.878 -17.803  -4.165  1.00  0.00     0.176 C 
HETATM    2  C4  UNL     1      25.157 -16.358  -4.241  1.00  0.00     0.196 C 
HETATM    3  C5  UNL     1      24.329 -15.569  -5.189  1.00  0.00     0.055 C 
HETATM    4  N2  UNL     1      24.755 -14.450  -5.541  1.00  0.00    -0.328 N 
ATOM      5  H2  UNL     1      24.104 -14.012  -6.192  1.00  0.00     0.168 HD
HETATM    6  C6  UNL     1      25.826 -13.638  -5.318  1.00  0.00     0.229 C 
HETATM    7  O3  UNL     1      26.503 -13.450  -4.276  1.00  0.00    -0.272 OA
HETATM    8  C11 UNL     1      23.003 -15.909  -5.780  1.00  0.00     0.102 C 
HETATM    9  C12 UNL     1      22.105 -14.760  -5.384  1.00  0.00     0.053 C 
HETATM   10  C13 UNL     1      23.002 -15.968  -7.268  1.00  0.00     0.071 C 
HETATM   11  C14 UNL     1      22.408 -17.273  -7.654  1.00  0.00    -0.018 C 
HETATM   12  C15 UNL     1      21.477 -18.139  -7.264  1.00  0.00    -0.058 C 
HETATM   13  C16 UNL     1      21.484 -19.278  -8.234  1.00  0.00     0.046 C 
HETATM   14  C17 UNL     1      20.490 -18.328  -6.237  1.00  0.00     0.166 C 
HETATM   15  C22 UNL     1      20.809 -18.270  -4.776  1.00  0.00     0.049 C 
HETATM   16  C23 UNL     1      21.072 -19.736  -4.437  1.00  0.00     0.016 C 
HETATM   17  C24 UNL     1      21.766 -17.273  -4.332  1.00  0.00     0.160 C 
HETATM   18  O6  UNL     1      22.641 -17.124  -5.370  1.00  0.00    -0.364 OA
HETATM   19  C25 UNL     1      22.590 -17.389  -3.115  1.00  0.00    -0.023 C 
HETATM   20  C26 UNL     1      21.822 -17.513  -1.837  1.00  0.00     0.049 C 
HETATM   21  C27 UNL     1      23.824 -18.247  -3.199  1.00  0.00     0.087 C 
ENDROOT
BRANCH  21  22
HETATM   22  O7  UNL     1      24.333 -18.700  -1.987  1.00  0.00    -0.277 OA
BRANCH  22  23
HETATM   23  C28 UNL     1      25.308 -18.190  -1.213  1.00  0.00     0.293 C 
HETATM   24  O8  UNL     1      25.116 -17.062  -0.759  1.00  0.00    -0.259 OA
BRANCH  23  25
HETATM   25  C29 UNL     1      26.526 -18.964  -0.945  1.00  0.00     0.010 C 
HETATM   26  C30 UNL     1      27.773 -18.251  -0.596  1.00  0.00     0.054 C 
HETATM   27  C31 UNL     1      26.505 -20.282  -1.017  1.00  0.00    -0.010 C 
BRANCH  27  28
HETATM   28  C32 UNL     1      27.755 -21.029  -0.746  1.00  0.00     0.001 C 
HETATM   29  C33 UNL     1      28.048 -21.960  -1.914  1.00  0.00     0.013 C 
HETATM   30  C34 UNL     1      27.580 -21.806   0.538  1.00  0.00     0.013 C 
ENDBRANCH  27  28
ENDBRANCH  23  25
ENDBRANCH  22  23
ENDBRANCH  21  22
BRANCH   1  31
HETATM   31  N1  UNL     1      26.171 -18.463  -3.898  1.00  0.00    -0.348 N 
HETATM   32  C2  UNL     1      27.054 -18.852  -4.920  1.00  0.00     0.214 C 
HETATM   33  C1  UNL     1      28.357 -19.517  -4.726  1.00  0.00     0.117 C 
HETATM   34  O1  UNL     1      26.673 -18.597  -6.113  1.00  0.00    -0.274 OA
ATOM     35  H1  UNL     1      26.435 -18.645  -2.930  1.00  0.00     0.163 HD
ENDBRANCH   1  31
BRANCH   2  36
HETATM   36  O2  UNL     1      26.475 -16.243  -4.774  1.00  0.00    -0.387 OA
ATOM     37  H2  UNL     1      26.930 -15.627  -4.210  1.00  0.00     0.210 HD
ENDBRANCH   2  36
BRANCH  14  38
HETATM   38  O4  UNL     1      19.387 -17.430  -6.459  1.00  0.00    -0.310 OA
BRANCH  38  39
HETATM   39  C18 UNL     1      18.071 -17.878  -6.473  1.00  0.00     0.288 C 
HETATM   40  O5  UNL     1      17.288 -17.453  -5.601  1.00  0.00    -0.263 OA
BRANCH  39  41
HETATM   41  C19 UNL     1      17.591 -18.859  -7.517  1.00  0.00     0.381 C 
BRANCH  41  42
HETATM   42  N3  UNL     1      16.886 -19.953  -6.890  1.00  0.00     0.089 N 
HETATM   43  C20 UNL     1      17.924 -20.897  -6.463  1.00  0.00     0.310 C 
HETATM   44  C21 UNL     1      16.049 -20.584  -7.916  1.00  0.00     0.310 C 
ENDBRANCH  41  42
ENDBRANCH  39  41
ENDBRANCH  38  39
ENDBRANCH  14  38
BRANCH   6  45
HETATM   45  C7  UNL     1      26.301 -12.810  -6.507  1.00  0.00     0.030 C 
HETATM   46  C8  UNL     1      25.214 -12.911  -7.584  1.00  0.00     0.025 C 
HETATM   47  C9  UNL     1      27.600 -13.317  -7.021  1.00  0.00     0.025 C 
HETATM   48  C10 UNL     1      26.406 -11.355  -6.167  1.00  0.00     0.025 C 
ENDBRANCH   6  45
TORSDOF 11
ENDMDL
MODEL 2
REMARK VINA RESULT: -5.738998387      0.756      1.149
REMARK  11 active torsions:
REMARK  status: ('A' for Active; 'I' for Inactive)
REMARK       I    between atoms: C2_2  and  N1_4 
REMARK    1  A    between atoms: N1_4  and  C3_6 
REMARK    2  A    between atoms: C4_7  and  O2_8 
REMARK       I    between atoms: N2_11  and  C6_13 
REMARK    3  A    between atoms: C6_13  and  C7_15 
REMARK    4  A    between atoms: C17_25  and  O4_26 
REMARK    5  A    between atoms: O4_26  and  C18_27 
REMARK    6  A    between atoms: C18_27  and  C19_29 
REMARK    7  A    between atoms: C19_29  and  N3_30 
REMARK    8  A    between atoms: C27_39  and  O7_40 
REMARK    9  A    between atoms: O7_40  and  C28_41 
REMARK   10  A    between atoms: C28_41  and  C29_43 
REMARK   11  A    between atoms: C31_45  and  C32_46 
ROOT
HETATM    1  C3  UNL     1      24.873 -17.816  -4.122  1.00  0.00     0.176 C 
HETATM    2  C4  UNL     1      25.159 -16.373  -4.207  1.00  0.00     0.196 C 
HETATM    3  C5  UNL     1      24.343 -15.587  -5.168  1.00  0.00     0.055 C 
HETATM    4  N2  UNL     1      24.778 -14.474  -5.525  1.00  0.00    -0.328 N 
ATOM      5  H2  UNL     1      24.135 -14.037  -6.186  1.00  0.00     0.168 HD
HETATM    6  C6  UNL     1      25.851 -13.666  -5.300  1.00  0.00     0.229 C 
HETATM    7  O3  UNL     1      26.520 -13.473  -4.253  1.00  0.00    -0.272 OA
HETATM    8  C11 UNL     1      23.021 -15.926  -5.767  1.00  0.00     0.102 C 
HETATM    9  C12 UNL     1      22.125 -14.769  -5.388  1.00  0.00     0.053 C 
HETATM   10  C13 UNL     1      23.032 -15.996  -7.255  1.00  0.00     0.071 C 
HETATM   11  C14 UNL     1      22.434 -17.301  -7.636  1.00  0.00    -0.018 C 
HETATM   12  C15 UNL     1      21.496 -18.159  -7.247  1.00  0.00    -0.058 C 
HETATM   13  C16 UNL     1      21.505 -19.306  -8.208  1.00  0.00     0.046 C 
HETATM   14  C17 UNL     1      20.499 -18.335  -6.227  1.00  0.00     0.166 C 
HETATM   15  C22 UNL     1      20.806 -18.267  -4.764  1.00  0.00     0.049 C 
HETATM   16  C23 UNL     1      21.058 -19.732  -4.411  1.00  0.00     0.016 C 
HETATM   17  C24 UNL     1      21.764 -17.272  -4.320  1.00  0.00     0.160 C 
HETATM   18  O6  UNL     1      22.649 -17.135  -5.351  1.00  0.00    -0.364 OA
HETATM   19  C25 UNL     1      22.577 -17.382  -3.095  1.00  0.00    -0.023 C 
HETATM   20  C26 UNL     1      21.798 -17.492  -1.822  1.00  0.00     0.049 C 
HETATM   21  C27 UNL     1      23.808 -18.247  -3.161  1.00  0.00     0.087 C 
ENDROOT
BRANCH  21  22
HETATM   22  O7  UNL     1      24.304 -18.694  -1.942  1.00  0.00    -0.277 OA
BRANCH  22  23
HETATM   23  C28 UNL     1      25.232 -18.149  -1.133  1.00  0.00     0.293 C 
HETATM   24  O8  UNL     1      25.226 -16.922  -1.039  1.00  0.00    -0.259 OA
BRANCH  23  25
HETATM   25  C29 UNL     1      26.187 -19.002  -0.418  1.00  0.00     0.010 C 
HETATM   26  C30 UNL     1      26.639 -20.264  -1.043  1.00  0.00     0.054 C 
HETATM   27  C31 UNL     1      26.637 -18.646   0.771  1.00  0.00    -0.010 C 
BRANCH  27  28
HETATM   28  C32 UNL     1      27.596 -19.535   1.466  1.00  0.00     0.001 C 
HETATM   29  C33 UNL     1      27.202 -19.654   2.931  1.00  0.00     0.013 C 
HETATM   30  C34 UNL     1      28.981 -18.951   1.321  1.00  0.00     0.013 C 
ENDBRANCH  27  28
ENDBRANCH  23  25
ENDBRANCH  22  23
ENDBRANCH  21  22
BRANCH   1  31
HETATM   31  N1  UNL     1      26.160 -18.481  -3.839  1.00  0.00    -0.348 N 
HETATM   32  C2  UNL     1      27.045 -18.891  -4.850  1.00  0.00     0.214 C 
HETATM   33  C1  UNL     1      28.342 -19.561  -4.641  1.00  0.00     0.117 C 
HETATM   34  O1  UNL     1      26.671 -18.651  -6.049  1.00  0.00    -0.274 OA
ATOM     35  H1  UNL     1      26.418 -18.650  -2.867  1.00  0.00     0.163 HD
ENDBRANCH   1  31
BRANCH   2  36
HETATM   36  O2  UNL     1      26.483 -16.270  -4.729  1.00  0.00    -0.387 OA
ATOM     37  H2  UNL     1      26.402 -16.397  -5.668  1.00  0.00     0.210 HD
ENDBRANCH   2  36
BRANCH  14  38
HETATM   38  O4  UNL     1      19.403 -17.433  -6.465  1.00  0.00    -0.310 OA
BRANCH  38  39
HETATM   39  C18 UNL     1      18.084 -17.872  -6.471  1.00  0.00     0.288 C 
HETATM   40  O5  UNL     1      17.313 -17.455  -5.583  1.00  0.00    -0.263 OA
BRANCH  39  41
HETATM   41  C19 UNL     1      17.584 -18.833  -7.523  1.00  0.00     0.381 C 
BRANCH  41  42
HETATM   42  N3  UNL     1      16.878 -19.931  -6.904  1.00  0.00     0.089 N 
HETATM   43  C20 UNL     1      17.916 -20.870  -6.465  1.00  0.00     0.310 C 
HETATM   44  C21 UNL     1      16.056 -20.567  -7.940  1.00  0.00     0.310 C 
ENDBRANCH  41  42
ENDBRANCH  39  41
ENDBRANCH  38  39
ENDBRANCH  14  38
BRANCH   6  45
HETATM   45  C7  UNL     1      26.340 -12.849  -6.491  1.00  0.00     0.030 C 
HETATM   46  C8  UNL     1      25.253 -12.936  -7.568  1.00  0.00     0.025 C 
HETATM   47  C9  UNL     1      27.632 -13.379  -7.002  1.00  0.00     0.025 C 
HETATM   48  C10 UNL     1      26.469 -11.395  -6.156  1.00  0.00     0.025 C 
ENDBRANCH   6  45
TORSDOF 11
ENDMDL
MODEL 3
REMARK VINA RESULT: -5.706072963      2.226      7.031
REMARK  11 active torsions:
REMARK  status: ('A' for Active; 'I' for Inactive)
REMARK       I    between atoms: C2_2  and  N1_4 
REMARK    1  A    between atoms: N1_4  and  C3_6 
REMARK    2  A    between atoms: C4_7  and  O2_8 
REMARK       I    between atoms: N2_11  and  C6_13 
REMARK    3  A    between atoms: C6_13  and  C7_15 
REMARK    4  A    between atoms: C17_25  and  O4_26 
REMARK    5  A    between atoms: O4_26  and  C18_27 
REMARK    6  A    between atoms: C18_27  and  C19_29 
REMARK    7  A    between atoms: C19_29  and  N3_30 
REMARK    8  A    between atoms: C27_39  and  O7_40 
REMARK    9  A    between atoms: O7_40  and  C28_41 
REMARK   10  A    between atoms: C28_41  and  C29_43 
REMARK   11  A    between atoms: C31_45  and  C32_46 
ROOT
HETATM    1  C3  UNL     1      26.778 -14.454  -3.949  1.00  0.00     0.176 C 
HETATM    2  C4  UNL     1      27.376 -15.575  -3.202  1.00  0.00     0.196 C 
HETATM    3  C5  UNL     1      26.568 -16.817  -3.103  1.00  0.00     0.055 C 
HETATM    4  N2  UNL     1      26.865 -17.635  -2.209  1.00  0.00    -0.328 N 
ATOM      5  H2  UNL     1      26.239 -18.439  -2.240  1.00  0.00     0.168 HD
HETATM    6  C6  UNL     1      27.774 -17.777  -1.203  1.00  0.00     0.229 C 
HETATM    7  O3  UNL     1      28.980 -17.431  -1.140  1.00  0.00    -0.272 OA
HETATM    8  C11 UNL     1      25.435 -17.267  -3.962  1.00  0.00     0.102 C 
HETATM    9  C12 UNL     1      25.868 -18.617  -4.485  1.00  0.00     0.053 C 
HETATM   10  C13 UNL     1      24.161 -17.478  -3.219  1.00  0.00     0.071 C 
HETATM   11  C14 UNL     1      23.107 -16.711  -3.931  1.00  0.00    -0.018 C 
HETATM   12  C15 UNL     1      22.747 -16.347  -5.158  1.00  0.00    -0.058 C 
HETATM   13  C16 UNL     1      21.496 -15.535  -5.040  1.00  0.00     0.046 C 
HETATM   14  C17 UNL     1      23.161 -16.479  -6.527  1.00  0.00     0.166 C 
HETATM   15  C22 UNL     1      24.533 -16.119  -7.005  1.00  0.00     0.049 C 
HETATM   16  C23 UNL     1      24.353 -14.674  -7.467  1.00  0.00     0.016 C 
HETATM   17  C24 UNL     1      25.655 -16.437  -6.141  1.00  0.00     0.160 C 
HETATM   18  O6  UNL     1      25.174 -16.326  -4.868  1.00  0.00    -0.364 OA
HETATM   19  C25 UNL     1      26.947 -15.727  -6.154  1.00  0.00    -0.023 C 
HETATM   20  C26 UNL     1      27.681 -15.767  -7.457  1.00  0.00     0.049 C 
HETATM   21  C27 UNL     1      27.017 -14.412  -5.426  1.00  0.00     0.087 C 
ENDROOT
BRANCH  21  22
HETATM   22  O7  UNL     1      28.054 -13.564  -5.799  1.00  0.00    -0.277 OA
BRANCH  22  23
HETATM   23  C28 UNL     1      28.047 -12.493  -6.612  1.00  0.00     0.293 C 
HETATM   24  O8  UNL     1      28.981 -12.400  -7.408  1.00  0.00    -0.259 OA
BRANCH  23  25
HETATM   25  C29 UNL     1      26.966 -11.503  -6.527  1.00  0.00     0.010 C 
HETATM   26  C30 UNL     1      25.802 -11.624  -7.430  1.00  0.00     0.054 C 
HETATM   27  C31 UNL     1      27.036 -10.516  -5.653  1.00  0.00    -0.010 C 
BRANCH  27  28
HETATM   28  C32 UNL     1      25.930  -9.533  -5.599  1.00  0.00     0.001 C 
HETATM   29  C33 UNL     1      26.473  -8.146  -5.914  1.00  0.00     0.013 C 
HETATM   30  C34 UNL     1      25.317  -9.577  -4.219  1.00  0.00     0.013 C 
ENDBRANCH  27  28
ENDBRANCH  23  25
ENDBRANCH  22  23
ENDBRANCH  21  22
BRANCH   1  31
HETATM   31  N1  UNL     1      27.240 -13.219  -3.288  1.00  0.00    -0.348 N 
HETATM   32  C2  UNL     1      26.497 -12.562  -2.292  1.00  0.00     0.214 C 
HETATM   33  C1  UNL     1      26.896 -11.325  -1.594  1.00  0.00     0.117 C 
HETATM   34  O1  UNL     1      25.382 -13.103  -1.982  1.00  0.00    -0.274 OA
ATOM     35  H1  UNL     1      28.139 -12.824  -3.566  1.00  0.00     0.163 HD
ENDBRANCH   1  31
BRANCH   2  36
HETATM   36  O2  UNL     1      27.475 -15.132  -1.849  1.00  0.00    -0.387 OA
ATOM     37  H2  UNL     1      27.140 -14.243  -1.842  1.00  0.00     0.210 HD
ENDBRANCH   2  36
BRANCH  14  38
HETATM   38  O4  UNL     1      22.900 -17.820  -6.981  1.00  0.00    -0.310 OA
BRANCH  38  39
HETATM   39  C18 UNL     1      21.851 -18.108  -7.847  1.00  0.00     0.288 C 
HETATM   40  O5  UNL     1      21.978 -19.062  -8.640  1.00  0.00    -0.263 OA
BRANCH  39  41
HETATM   41  C19 UNL     1      20.583 -17.288  -7.837  1.00  0.00     0.381 C 
BRANCH  41  42
HETATM   42  N3  UNL     1      19.446 -18.126  -7.535  1.00  0.00     0.089 N 
HETATM   43  C20 UNL     1      18.269 -17.263  -7.682  1.00  0.00     0.310 C 
HETATM   44  C21 UNL     1      19.567 -18.546  -6.135  1.00  0.00     0.310 C 
ENDBRANCH  41  42
ENDBRANCH  39  41
ENDBRANCH  38  39
ENDBRANCH  14  38
BRANCH   6  45
HETATM   45  C7  UNL     1      27.275 -18.469   0.061  1.00  0.00     0.030 C 
HETATM   46  C8  UNL     1      26.370 -19.622  -0.389  1.00  0.00     0.025 C 
HETATM   47  C9  UNL     1      26.527 -17.518   0.925  1.00  0.00     0.025 C 
HETATM   48  C10 UNL     1      28.393 -19.103   0.829  1.00  0.00     0.025 C 
ENDBRANCH   6  45
TORSDOF 11
ENDMDL
MODEL 4
REMARK VINA RESULT: -5.695759117      2.796      7.461
REMARK  11 active torsions:
REMARK  status: ('A' for Active; 'I' for Inactive)
REMARK       I    between atoms: C2_2  and  N1_4 
REMARK    1  A    between atoms: N1_4  and  C3_6 
REMARK    2  A    between atoms: C4_7  and  O2_8 
REMARK       I    between atoms: N2_11  and  C6_13 
REMARK    3  A    between atoms: C6_13  and  C7_15 
REMARK    4  A    between atoms: C17_25  and  O4_26 
REMARK    5  A    between atoms: O4_26  and  C18_27 
REMARK    6  A    between atoms: C18_27  and  C19_29 
REMARK    7  A    between atoms: C19_29  and  N3_30 
REMARK    8  A    between atoms: C27_39  and  O7_40 
REMARK    9  A    between atoms: O7_40  and  C28_41 
REMARK   10  A    between atoms: C28_41  and  C29_43 
REMARK   11  A    between atoms: C31_45  and  C32_46 
ROOT
HETATM    1  C3  UNL     1      25.179 -17.291  -4.700  1.00  0.00     0.176 C 
HETATM    2  C4  UNL     1      24.362 -17.264  -5.926  1.00  0.00     0.196 C 
HETATM    3  C5  UNL     1      24.367 -15.999  -6.704  1.00  0.00     0.055 C 
HETATM    4  N2  UNL     1      23.443 -15.813  -7.520  1.00  0.00    -0.328 N 
ATOM      5  H2  UNL     1      23.554 -14.913  -7.985  1.00  0.00     0.168 HD
HETATM    6  C6  UNL     1      22.328 -16.451  -7.977  1.00  0.00     0.229 C 
HETATM    7  O3  UNL     1      22.112 -17.674  -8.170  1.00  0.00    -0.272 OA
HETATM    8  C11 UNL     1      25.364 -14.890  -6.679  1.00  0.00     0.102 C 
HETATM    9  C12 UNL     1      25.828 -14.764  -8.112  1.00  0.00     0.053 C 
HETATM   10  C13 UNL     1      24.791 -13.571  -6.291  1.00  0.00     0.071 C 
HETATM   11  C14 UNL     1      25.632 -13.034  -5.191  1.00  0.00    -0.018 C 
HETATM   12  C15 UNL     1      26.895 -13.008  -4.776  1.00  0.00    -0.058 C 
HETATM   13  C16 UNL     1      26.938 -12.217  -3.507  1.00  0.00     0.046 C 
HETATM   14  C17 UNL     1      28.200 -13.482  -5.145  1.00  0.00     0.166 C 
HETATM   15  C22 UNL     1      28.498 -14.922  -5.425  1.00  0.00     0.049 C 
HETATM   16  C23 UNL     1      28.979 -15.430  -4.067  1.00  0.00     0.016 C 
HETATM   17  C24 UNL     1      27.497 -15.693  -6.139  1.00  0.00     0.160 C 
HETATM   18  O6  UNL     1      26.296 -15.161  -5.766  1.00  0.00    -0.364 OA
HETATM   19  C25 UNL     1      27.344 -17.156  -6.043  1.00  0.00    -0.023 C 
HETATM   20  C26 UNL     1      28.543 -17.950  -6.460  1.00  0.00     0.049 C 
HETATM   21  C27 UNL     1      26.614 -17.695  -4.843  1.00  0.00     0.087 C 
ENDROOT
BRANCH  21  22
HETATM   22  O7  UNL     1      26.850 -19.030  -4.534  1.00  0.00    -0.277 OA
BRANCH  22  23
HETATM   23  C28 UNL     1      27.496 -19.575  -3.487  1.00  0.00     0.293 C 
HETATM   24  O8  UNL     1      28.236 -18.827  -2.848  1.00  0.00    -0.259 OA
BRANCH  23  25
HETATM   25  C29 UNL     1      27.307 -20.991  -3.154  1.00  0.00     0.010 C 
HETATM   26  C30 UNL     1      27.552 -21.447  -1.769  1.00  0.00     0.054 C 
HETATM   27  C31 UNL     1      26.923 -21.848  -4.082  1.00  0.00    -0.010 C 
BRANCH  27  28
HETATM   28  C32 UNL     1      26.749 -23.271  -3.711  1.00  0.00     0.001 C 
HETATM   29  C33 UNL     1      28.114 -23.937  -3.614  1.00  0.00     0.013 C 
HETATM   30  C34 UNL     1      25.891 -23.937  -4.760  1.00  0.00     0.013 C 
ENDBRANCH  27  28
ENDBRANCH  23  25
ENDBRANCH  22  23
ENDBRANCH  21  22
BRANCH   1  31
HETATM   31  N1  UNL     1      24.464 -18.155  -3.741  1.00  0.00    -0.348 N 
HETATM   32  C2  UNL     1      24.508 -17.952  -2.351  1.00  0.00     0.214 C 
HETATM   33  C1  UNL     1      23.823 -18.777  -1.338  1.00  0.00     0.117 C 
HETATM   34  O1  UNL     1      25.211 -16.961  -1.955  1.00  0.00    -0.274 OA
ATOM     35  H1  UNL     1      23.914 -18.934  -4.103  1.00  0.00     0.163 HD
ENDBRANCH   1  31
BRANCH   2  36
HETATM   36  O2  UNL     1      23.008 -17.384  -5.493  1.00  0.00    -0.387 OA
ATOM     37  H2  UNL     1      22.483 -16.962  -6.164  1.00  0.00     0.210 HD
ENDBRANCH   2  36
BRANCH  14  38
HETATM   38  O4  UNL     1      28.683 -12.730  -6.273  1.00  0.00    -0.310 OA
BRANCH  38  39
HETATM   39  C18 UNL     1      28.160 -11.483  -6.598  1.00  0.00     0.288 C 
HETATM   40  O5  UNL     1      27.304 -11.413  -7.502  1.00  0.00    -0.263 OA
BRANCH  39  41
HETATM   41  C19 UNL     1      28.613 -10.235  -5.880  1.00  0.00     0.381 C 
BRANCH  41  42
HETATM   42  N3  UNL     1      27.758  -9.121  -6.221  1.00  0.00     0.089 N 
HETATM   43  C20 UNL     1      28.602  -8.195  -6.984  1.00  0.00     0.310 C 
HETATM   44  C21 UNL     1      27.347  -8.480  -4.967  1.00  0.00     0.310 C 
ENDBRANCH  41  42
ENDBRANCH  39  41
ENDBRANCH  38  39
ENDBRANCH  14  38
BRANCH   6  45
HETATM   45  C7  UNL     1      21.139 -15.562  -8.324  1.00  0.00     0.030 C 
HETATM   46  C8  UNL     1      20.038 -16.480  -8.865  1.00  0.00     0.025 C 
HETATM   47  C9  UNL     1      21.519 -14.541  -9.336  1.00  0.00     0.025 C 
HETATM   48  C10 UNL     1      20.562 -14.903  -7.109  1.00  0.00     0.025 C 
ENDBRANCH   6  45
TORSDOF 11
ENDMDL
MODEL 5
REMARK VINA RESULT: -5.010609406      0.915      1.701
REMARK  11 active torsions:
REMARK  status: ('A' for Active; 'I' for Inactive)
REMARK       I    between atoms: C2_2  and  N1_4 
REMARK    1  A    between atoms: N1_4  and  C3_6 
REMARK    2  A    between atoms: C4_7  and  O2_8 
REMARK       I    between atoms: N2_11  and  C6_13 
REMARK    3  A    between atoms: C6_13  and  C7_15 
REMARK    4  A    between atoms: C17_25  and  O4_26 
REMARK    5  A    between atoms: O4_26  and  C18_27 
REMARK    6  A    between atoms: C18_27  and  C19_29 
REMARK    7  A    between atoms: C19_29  and  N3_30 
REMARK    8  A    between atoms: C27_39  and  O7_40 
REMARK    9  A    between atoms: O7_40  and  C28_41 
REMARK   10  A    between atoms: C28_41  and  C29_43 
REMARK   11  A    between atoms: C31_45  and  C32_46 
ROOT
HETATM    1  C3  UNL     1      24.715 -17.385  -4.378  1.00  0.00     0.176 C 
HETATM    2  C4  UNL     1      24.912 -15.934  -4.540  1.00  0.00     0.196 C 
HETATM    3  C5  UNL     1      24.077 -15.258  -5.565  1.00  0.00     0.055 C 
HETATM    4  N2  UNL     1      24.451 -14.140  -5.975  1.00  0.00    -0.328 N 
ATOM      5  H2  UNL     1      23.802 -13.784  -6.676  1.00  0.00     0.168 HD
HETATM    6  C6  UNL     1      25.464 -13.252  -5.769  1.00  0.00     0.229 C 
HETATM    7  O3  UNL     1      26.087 -12.958  -4.718  1.00  0.00    -0.272 OA
HETATM    8  C11 UNL     1      22.797 -15.714  -6.179  1.00  0.00     0.102 C 
HETATM    9  C12 UNL     1      21.819 -14.599  -5.892  1.00  0.00     0.053 C 
HETATM   10  C13 UNL     1      22.858 -15.867  -7.659  1.00  0.00     0.071 C 
HETATM   11  C14 UNL     1      22.356 -17.228  -7.980  1.00  0.00    -0.018 C 
HETATM   12  C15 UNL     1      21.463 -18.122  -7.567  1.00  0.00    -0.058 C 
HETATM   13  C16 UNL     1      21.574 -19.318  -8.459  1.00  0.00     0.046 C 
HETATM   14  C17 UNL     1      20.449 -18.305  -6.565  1.00  0.00     0.166 C 
HETATM   15  C22 UNL     1      20.707 -18.135  -5.101  1.00  0.00     0.049 C 
HETATM   16  C23 UNL     1      21.040 -19.559  -4.657  1.00  0.00     0.016 C 
HETATM   17  C24 UNL     1      21.585 -17.056  -4.690  1.00  0.00     0.160 C 
HETATM   18  O6  UNL     1      22.490 -16.920  -5.704  1.00  0.00    -0.364 OA
HETATM   19  C25 UNL     1      22.367 -17.045  -3.440  1.00  0.00    -0.023 C 
HETATM   20  C26 UNL     1      21.558 -17.133  -2.183  1.00  0.00     0.049 C 
HETATM   21  C27 UNL     1      23.651 -17.830  -3.423  1.00  0.00     0.087 C 
ENDROOT
BRANCH  21  22
HETATM   22  O7  UNL     1      24.138 -18.174  -2.167  1.00  0.00    -0.277 OA
BRANCH  22  23
HETATM   23  C28 UNL     1      25.099 -19.050  -1.822  1.00  0.00     0.293 C 
HETATM   24  O8  UNL     1      25.149 -20.095  -2.471  1.00  0.00    -0.259 OA
BRANCH  23  25
HETATM   25  C29 UNL     1      26.022 -18.746  -0.723  1.00  0.00     0.010 C 
HETATM   26  C30 UNL     1      26.843 -19.832  -0.146  1.00  0.00     0.054 C 
HETATM   27  C31 UNL     1      26.117 -17.515  -0.256  1.00  0.00    -0.010 C 
BRANCH  27  28
HETATM   28  C32 UNL     1      27.055 -17.246   0.858  1.00  0.00     0.001 C 
HETATM   29  C33 UNL     1      26.267 -16.816   2.088  1.00  0.00     0.013 C 
HETATM   30  C34 UNL     1      28.017 -16.165   0.423  1.00  0.00     0.013 C 
ENDBRANCH  27  28
ENDBRANCH  23  25
ENDBRANCH  22  23
ENDBRANCH  21  22
BRANCH   1  31
HETATM   31  N1  UNL     1      26.033 -17.948  -4.024  1.00  0.00    -0.348 N 
HETATM   32  C2  UNL     1      26.925 -18.462  -4.980  1.00  0.00     0.214 C 
HETATM   33  C1  UNL     1      28.252 -19.040  -4.697  1.00  0.00     0.117 C 
HETATM   34  O1  UNL     1      26.529 -18.413  -6.194  1.00  0.00    -0.274 OA
ATOM     35  H1  UNL     1      26.307 -17.964  -3.042  1.00  0.00     0.163 HD
ENDBRANCH   1  31
BRANCH   2  36
HETATM   36  O2  UNL     1      26.241 -15.773  -5.032  1.00  0.00    -0.387 OA
ATOM     37  H2  UNL     1      26.154 -15.592  -5.961  1.00  0.00     0.210 HD
ENDBRANCH   2  36
BRANCH  14  38
HETATM   38  O4  UNL     1      19.305 -17.491  -6.884  1.00  0.00    -0.310 OA
BRANCH  38  39
HETATM   39  C18 UNL     1      18.006 -17.952  -6.701  1.00  0.00     0.288 C 
HETATM   40  O5  UNL     1      17.307 -17.426  -5.812  1.00  0.00    -0.263 OA
BRANCH  39  41
HETATM   41  C19 UNL     1      17.445 -19.065  -7.553  1.00  0.00     0.381 C 
BRANCH  41  42
HETATM   42  N3  UNL     1      16.887 -20.104  -6.718  1.00  0.00     0.089 N 
HETATM   43  C20 UNL     1      18.009 -20.990  -6.390  1.00  0.00     0.310 C 
HETATM   44  C21 UNL     1      15.908 -20.840  -7.525  1.00  0.00     0.310 C 
ENDBRANCH  41  42
ENDBRANCH  39  41
ENDBRANCH  38  39
ENDBRANCH  14  38
BRANCH   6  45
HETATM   45  C7  UNL     1      25.935 -12.474  -6.992  1.00  0.00     0.030 C 
HETATM   46  C8  UNL     1      25.098 -12.959  -8.180  1.00  0.00     0.025 C 
HETATM   47  C9  UNL     1      27.383 -12.702  -7.239  1.00  0.00     0.025 C 
HETATM   48  C10 UNL     1      25.652 -11.008  -6.864  1.00  0.00     0.025 C 
ENDBRANCH   6  45
TORSDOF 11
ENDMDL
