MODEL 1
REMARK VINA RESULT: -6.961603511      0.000      0.000
REMARK  12 active torsions:
REMARK  status: ('A' for Active; 'I' for Inactive)
REMARK    1  A    between atoms: O1_2  and  C2_3 
REMARK    2  A    between atoms: C2_3  and  C3_5 
REMARK    3  A    between atoms: C9_11  and  C10_12 
REMARK    4  A    between atoms: C10_12  and  O3_13 
REMARK    5  A    between atoms: C10_12  and  C11_15 
REMARK    6  A    between atoms: C11_15  and  C12_16 
REMARK    7  A    between atoms: C11_15  and  C20_26 
REMARK    8  A    between atoms: C12_16  and  C13_17 
REMARK    9  A    between atoms: C15_19  and  C16_20 
REMARK   10  A    between atoms: C24_31  and  C25_32 
REMARK       I    between atoms: C25_32  and  N1_34 
REMARK   11  A    between atoms: C26_36  and  C28_38 
REMARK   12  A    between atoms: C29_41  and  O10_42 
ROOT
HETATM    1  C3  UNL     1       7.344 -27.764 -12.475  1.00  0.00     0.106 C 
HETATM    2  C4  UNL     1       6.425 -29.011 -12.266  1.00  0.00     0.034 C 
HETATM    3  C5  UNL     1       8.422 -28.211 -13.370  1.00  0.00     0.038 C 
HETATM    4  C6  UNL     1       9.774 -28.322 -12.829  1.00  0.00    -0.026 C 
HETATM    5  C7  UNL     1      10.308 -29.752 -13.088  1.00  0.00     0.016 C 
HETATM    6  C8  UNL     1      10.083 -28.042 -11.442  1.00  0.00     0.031 C 
HETATM    7  C9  UNL     1       9.216 -26.938 -10.717  1.00  0.00     0.063 C 
HETATM    8  C23 UNL     1       7.887 -27.351 -11.188  1.00  0.00     0.157 C 
HETATM    9  O6  UNL     1       7.012 -27.372 -10.353  1.00  0.00    -0.296 OA
HETATM   10  C24 UNL     1       9.769 -25.642 -11.018  1.00  0.00     0.129 C 
HETATM   11  C29 UNL     1      10.356 -25.332 -12.400  1.00  0.00     0.163 C 
HETATM   12  C30 UNL     1      11.165 -26.441 -12.928  1.00  0.00    -0.034 A 
HETATM   13  C31 UNL     1      12.073 -27.392 -13.325  1.00  0.00    -0.064 A 
HETATM   14  C32 UNL     1      13.473 -27.899 -13.297  1.00  0.00     0.045 C 
HETATM   15  C33 UNL     1      10.692 -27.490 -13.744  1.00  0.00     0.013 A 
HETATM   16  C34 UNL     1      10.406 -27.416 -15.204  1.00  0.00     0.026 C 
ENDROOT
BRANCH   7  17
HETATM   17  C10 UNL     1       9.208 -27.270  -9.276  1.00  0.00     0.139 C 
BRANCH  17  18
HETATM   18  O3  UNL     1       8.323 -26.508  -8.673  1.00  0.00    -0.394 OA
ATOM     19  H3  UNL     1       8.774 -25.950  -8.051  1.00  0.00     0.210 HD
ENDBRANCH  17  18
BRANCH  17  20
HETATM   20  C11 UNL     1       9.846 -28.153  -8.277  1.00  0.00     0.021 C 
BRANCH  20  21
HETATM   21  C12 UNL     1       9.335 -27.649  -6.952  1.00  0.00     0.040 C 
BRANCH  21  22
HETATM   22  C13 UNL     1      10.032 -26.889  -5.966  1.00  0.00     0.133 C 
HETATM   23  C14 UNL     1      11.526 -26.818  -6.023  1.00  0.00     0.047 C 
HETATM   24  C15 UNL     1      11.870 -25.501  -5.374  1.00  0.00     0.091 C 
HETATM   25  C19 UNL     1      10.625 -24.732  -5.517  1.00  0.00     0.263 C 
HETATM   26  O4  UNL     1      10.454 -23.597  -4.991  1.00  0.00    -0.265 OA
HETATM   27  O5  UNL     1       9.747 -25.467  -6.294  1.00  0.00    -0.316 OA
BRANCH  24  28
HETATM   28  C16 UNL     1      12.379 -25.595  -3.983  1.00  0.00    -0.009 C 
HETATM   29  C17 UNL     1      11.707 -24.685  -2.989  1.00  0.00     0.010 C 
HETATM   30  C18 UNL     1      13.852 -25.247  -4.004  1.00  0.00     0.010 C 
ENDBRANCH  24  28
ENDBRANCH  21  22
ENDBRANCH  20  21
BRANCH  20  31
HETATM   31  C20 UNL     1       9.756 -29.623  -8.471  1.00  0.00    -0.016 C 
HETATM   32  C21 UNL     1       8.386 -30.176  -8.883  1.00  0.00     0.010 C 
HETATM   33  C22 UNL     1       9.896 -30.380  -7.118  1.00  0.00     0.010 C 
ENDBRANCH  20  31
ENDBRANCH  17  20
ENDBRANCH   7  17
BRANCH  10  34
HETATM   34  C25 UNL     1      10.988 -25.339 -10.219  1.00  0.00     0.230 C 
HETATM   35  O7  UNL     1      12.060 -25.920 -10.371  1.00  0.00    -0.273 OA
HETATM   36  N1  UNL     1      10.933 -24.337  -9.232  1.00  0.00    -0.325 N 
HETATM   37  C26 UNL     1      11.729 -23.374  -9.092  1.00  0.00     0.085 C 
ATOM     38  H1  UNL     1      10.169 -24.399  -8.559  1.00  0.00     0.169 HD
HETATM   39  C27 UNL     1      12.876 -23.168  -9.997  1.00  0.00     0.076 C 
BRANCH  37  40
HETATM   40  C28 UNL     1      11.544 -22.394  -8.003  1.00  0.00     0.222 C 
HETATM   41  O8  UNL     1      12.479 -22.081  -7.245  1.00  0.00    -0.643 OA
HETATM   42  O9  UNL     1      10.305 -21.825  -7.838  1.00  0.00    -0.643 OA
ENDBRANCH  37  40
ENDBRANCH  10  34
BRANCH   1  43
HETATM   43  C2  UNL     1       6.357 -26.846 -13.073  1.00  0.00     0.274 C 
HETATM   44  O2  UNL     1       5.269 -27.233 -13.508  1.00  0.00    -0.264 OA
BRANCH  43  45
HETATM   45  O1  UNL     1       6.676 -25.500 -13.143  1.00  0.00    -0.326 OA
HETATM   46  C1  UNL     1       6.030 -24.519 -12.358  1.00  0.00     0.213 C 
ENDBRANCH  43  45
ENDBRANCH   1  43
BRANCH  11  47
HETATM   47  O10 UNL     1       9.423 -24.960 -13.348  1.00  0.00    -0.390 OA
ATOM     48  H10 UNL     1       9.426 -25.494 -14.134  1.00  0.00     0.210 HD
ENDBRANCH  11  47
TORSDOF 12
ENDMDL
MODEL 2
REMARK VINA RESULT: -6.539230766     12.644     18.015
REMARK  12 active torsions:
REMARK  status: ('A' for Active; 'I' for Inactive)
REMARK    1  A    between atoms: O1_2  and  C2_3 
REMARK    2  A    between atoms: C2_3  and  C3_5 
REMARK    3  A    between atoms: C9_11  and  C10_12 
REMARK    4  A    between atoms: C10_12  and  O3_13 
REMARK    5  A    between atoms: C10_12  and  C11_15 
REMARK    6  A    between atoms: C11_15  and  C12_16 
REMARK    7  A    between atoms: C11_15  and  C20_26 
REMARK    8  A    between atoms: C12_16  and  C13_17 
REMARK    9  A    between atoms: C15_19  and  C16_20 
REMARK   10  A    between atoms: C24_31  and  C25_32 
REMARK       I    between atoms: C25_32  and  N1_34 
REMARK   11  A    between atoms: C26_36  and  C28_38 
REMARK   12  A    between atoms: C29_41  and  O10_42 
ROOT
HETATM    1  C3  UNL     1      26.544 -19.428  -2.781  1.00  0.00     0.106 C 
HETATM    2  C4  UNL     1      26.819 -20.014  -1.358  1.00  0.00     0.034 C 
HETATM    3  C5  UNL     1      27.406 -18.242  -2.896  1.00  0.00     0.038 C 
HETATM    4  C6  UNL     1      26.775 -16.925  -2.929  1.00  0.00    -0.026 C 
HETATM    5  C7  UNL     1      27.387 -16.042  -1.814  1.00  0.00     0.016 C 
HETATM    6  C8  UNL     1      25.342 -16.745  -2.819  1.00  0.00     0.031 C 
HETATM    7  C9  UNL     1      24.422 -17.885  -3.410  1.00  0.00     0.063 C 
HETATM    8  C23 UNL     1      25.140 -19.052  -2.879  1.00  0.00     0.157 C 
HETATM    9  O6  UNL     1      24.452 -19.923  -2.398  1.00  0.00    -0.296 OA
HETATM   10  C24 UNL     1      24.261 -17.664  -4.825  1.00  0.00     0.129 C 
HETATM   11  C29 UNL     1      25.414 -17.124  -5.680  1.00  0.00     0.163 C 
HETATM   12  C30 UNL     1      26.154 -16.045  -5.008  1.00  0.00    -0.034 A 
HETATM   13  C31 UNL     1      26.712 -14.915  -4.462  1.00  0.00    -0.064 A 
HETATM   14  C32 UNL     1      26.681 -13.434  -4.303  1.00  0.00     0.045 C 
HETATM   15  C33 UNL     1      27.292 -16.212  -4.192  1.00  0.00     0.013 A 
HETATM   16  C34 UNL     1      28.687 -16.456  -4.657  1.00  0.00     0.026 C 
ENDROOT
BRANCH   7  17
HETATM   17  C10 UNL     1      23.156 -17.862  -2.648  1.00  0.00     0.139 C 
BRANCH  17  18
HETATM   18  O3  UNL     1      23.408 -17.455  -1.424  1.00  0.00    -0.394 OA
ATOM     19  H3  UNL     1      22.859 -17.942  -0.822  1.00  0.00     0.210 HD
ENDBRANCH  17  18
BRANCH  17  20
HETATM   20  C11 UNL     1      21.710 -18.137  -2.777  1.00  0.00     0.021 C 
BRANCH  20  21
HETATM   21  C12 UNL     1      21.612 -19.088  -3.942  1.00  0.00     0.040 C 
BRANCH  21  22
HETATM   22  C13 UNL     1      20.614 -19.140  -4.961  1.00  0.00     0.133 C 
HETATM   23  C14 UNL     1      19.324 -19.845  -4.681  1.00  0.00     0.047 C 
HETATM   24  C15 UNL     1      18.318 -19.167  -5.576  1.00  0.00     0.091 C 
HETATM   25  C19 UNL     1      18.940 -17.861  -5.837  1.00  0.00     0.263 C 
HETATM   26  O4  UNL     1      18.465 -17.023  -6.653  1.00  0.00    -0.265 OA
HETATM   27  O5  UNL     1      20.076 -17.757  -5.053  1.00  0.00    -0.316 OA
BRANCH  24  28
HETATM   28  C16 UNL     1      17.944 -19.924  -6.797  1.00  0.00    -0.009 C 
HETATM   29  C17 UNL     1      16.590 -19.599  -7.367  1.00  0.00     0.010 C 
HETATM   30  C18 UNL     1      17.957 -21.397  -6.449  1.00  0.00     0.010 C 
ENDBRANCH  24  28
ENDBRANCH  21  22
ENDBRANCH  20  21
BRANCH  20  31
HETATM   31  C20 UNL     1      20.955 -18.546  -1.564  1.00  0.00    -0.016 C 
HETATM   32  C21 UNL     1      20.788 -20.054  -1.338  1.00  0.00     0.010 C 
HETATM   33  C22 UNL     1      19.448 -18.176  -1.685  1.00  0.00     0.010 C 
ENDBRANCH  20  31
ENDBRANCH  17  20
ENDBRANCH   7  17
BRANCH  10  34
HETATM   34  C25 UNL     1      23.277 -16.587  -5.127  1.00  0.00     0.230 C 
HETATM   35  O7  UNL     1      23.119 -15.595  -4.421  1.00  0.00    -0.273 OA
HETATM   36  N1  UNL     1      22.475 -16.691  -6.279  1.00  0.00    -0.325 N 
HETATM   37  C26 UNL     1      22.312 -15.814  -7.164  1.00  0.00     0.085 C 
ATOM     38  H1  UNL     1      21.974 -17.569  -6.410  1.00  0.00     0.169 HD
HETATM   39  C27 UNL     1      22.978 -14.499  -7.097  1.00  0.00     0.076 C 
BRANCH  37  40
HETATM   40  C28 UNL     1      21.435 -16.066  -8.326  1.00  0.00     0.222 C 
HETATM   41  O8  UNL     1      21.023 -15.138  -9.043  1.00  0.00    -0.643 OA
HETATM   42  O9  UNL     1      21.077 -17.362  -8.605  1.00  0.00    -0.643 OA
ENDBRANCH  37  40
ENDBRANCH  10  34
BRANCH   1  43
HETATM   43  C2  UNL     1      26.948 -20.592  -3.593  1.00  0.00     0.274 C 
HETATM   44  O2  UNL     1      27.039 -20.544  -4.822  1.00  0.00    -0.264 OA
BRANCH  43  45
HETATM   45  O1  UNL     1      27.232 -21.778  -2.936  1.00  0.00    -0.326 OA
HETATM   46  C1  UNL     1      27.150 -23.039  -3.568  1.00  0.00     0.213 C 
ENDBRANCH  43  45
ENDBRANCH   1  43
BRANCH  11  47
HETATM   47  O10 UNL     1      26.306 -18.086  -6.111  1.00  0.00    -0.390 OA
ATOM     48  H10 UNL     1      27.125 -17.740  -6.446  1.00  0.00     0.210 HD
ENDBRANCH  11  47
TORSDOF 12
ENDMDL
MODEL 3
REMARK VINA RESULT: -6.301787840     14.410     18.183
REMARK  12 active torsions:
REMARK  status: ('A' for Active; 'I' for Inactive)
REMARK    1  A    between atoms: O1_2  and  C2_3 
REMARK    2  A    between atoms: C2_3  and  C3_5 
REMARK    3  A    between atoms: C9_11  and  C10_12 
REMARK    4  A    between atoms: C10_12  and  O3_13 
REMARK    5  A    between atoms: C10_12  and  C11_15 
REMARK    6  A    between atoms: C11_15  and  C12_16 
REMARK    7  A    between atoms: C11_15  and  C20_26 
REMARK    8  A    between atoms: C12_16  and  C13_17 
REMARK    9  A    between atoms: C15_19  and  C16_20 
REMARK   10  A    between atoms: C24_31  and  C25_32 
REMARK       I    between atoms: C25_32  and  N1_34 
REMARK   11  A    between atoms: C26_36  and  C28_38 
REMARK   12  A    between atoms: C29_41  and  O10_42 
ROOT
HETATM    1  C3  UNL     1      21.511 -18.291  -3.503  1.00  0.00     0.106 C 
HETATM    2  C4  UNL     1      21.659 -19.770  -3.018  1.00  0.00     0.034 C 
HETATM    3  C5  UNL     1      20.608 -18.342  -4.662  1.00  0.00     0.038 C 
HETATM    4  C6  UNL     1      21.155 -18.050  -5.985  1.00  0.00    -0.026 C 
HETATM    5  C7  UNL     1      20.841 -19.231  -6.935  1.00  0.00     0.016 C 
HETATM    6  C8  UNL     1      22.556 -17.748  -6.198  1.00  0.00     0.031 C 
HETATM    7  C9  UNL     1      23.319 -17.001  -5.034  1.00  0.00     0.063 C 
HETATM    8  C23 UNL     1      22.819 -17.785  -3.897  1.00  0.00     0.157 C 
HETATM    9  O6  UNL     1      23.645 -18.113  -3.075  1.00  0.00    -0.296 OA
HETATM   10  C24 UNL     1      23.078 -15.586  -5.154  1.00  0.00     0.129 C 
HETATM   11  C29 UNL     1      21.715 -15.049  -5.610  1.00  0.00     0.163 C 
HETATM   12  C30 UNL     1      21.149 -15.828  -6.721  1.00  0.00    -0.034 A 
HETATM   13  C31 UNL     1      20.720 -16.432  -7.877  1.00  0.00    -0.064 A 
HETATM   14  C32 UNL     1      20.738 -16.479  -9.367  1.00  0.00     0.045 C 
HETATM   15  C33 UNL     1      20.285 -16.936  -6.594  1.00  0.00     0.013 A 
HETATM   16  C34 UNL     1      18.827 -16.892  -6.292  1.00  0.00     0.026 C 
ENDROOT
BRANCH   7  17
HETATM   17  C10 UNL     1      24.744 -17.380  -5.136  1.00  0.00     0.139 C 
BRANCH  17  18
HETATM   18  O3  UNL     1      24.977 -17.822  -6.351  1.00  0.00    -0.394 OA
ATOM     19  H3  UNL     1      25.246 -17.092  -6.896  1.00  0.00     0.210 HD
ENDBRANCH  17  18
BRANCH  17  20
HETATM   20  C11 UNL     1      25.996 -17.439  -4.352  1.00  0.00     0.021 C 
BRANCH  20  21
HETATM   21  C12 UNL     1      26.525 -18.829  -4.594  1.00  0.00     0.040 C 
BRANCH  21  22
HETATM   22  C13 UNL     1      26.633 -19.909  -3.668  1.00  0.00     0.133 C 
HETATM   23  C14 UNL     1      27.868 -20.754  -3.675  1.00  0.00     0.047 C 
HETATM   24  C15 UNL     1      27.982 -21.274  -2.264  1.00  0.00     0.091 C 
HETATM   25  C19 UNL     1      27.200 -20.298  -1.492  1.00  0.00     0.263 C 
HETATM   26  O4  UNL     1      26.945 -20.438  -0.264  1.00  0.00    -0.265 OA
HETATM   27  O5  UNL     1      26.830 -19.268  -2.341  1.00  0.00    -0.316 OA
BRANCH  24  28
HETATM   28  C16 UNL     1      27.564 -22.685  -2.074  1.00  0.00    -0.009 C 
HETATM   29  C17 UNL     1      28.429 -23.493  -1.144  1.00  0.00     0.010 C 
HETATM   30  C18 UNL     1      27.584 -23.361  -3.428  1.00  0.00     0.010 C 
ENDBRANCH  24  28
ENDBRANCH  21  22
ENDBRANCH  20  21
BRANCH  20  31
HETATM   31  C20 UNL     1      26.990 -16.347  -4.521  1.00  0.00    -0.016 C 
HETATM   32  C21 UNL     1      28.466 -16.763  -4.537  1.00  0.00     0.010 C 
HETATM   33  C22 UNL     1      27.038 -15.428  -3.265  1.00  0.00     0.010 C 
ENDBRANCH  20  31
ENDBRANCH  17  20
ENDBRANCH   7  17
BRANCH  10  34
HETATM   34  C25 UNL     1      23.899 -14.953  -6.223  1.00  0.00     0.230 C 
HETATM   35  O7  UNL     1      23.709 -15.136  -7.423  1.00  0.00    -0.273 OA
HETATM   36  N1  UNL     1      24.956 -14.096  -5.863  1.00  0.00    -0.325 N 
HETATM   37  C26 UNL     1      25.167 -12.936  -6.299  1.00  0.00     0.085 C 
ATOM     38  H1  UNL     1      25.621 -14.452  -5.176  1.00  0.00     0.169 HD
HETATM   39  C27 UNL     1      24.283 -12.301  -7.295  1.00  0.00     0.076 C 
BRANCH  37  40
HETATM   40  C28 UNL     1      26.323 -12.149  -5.825  1.00  0.00     0.222 C 
HETATM   41  O8  UNL     1      26.658 -12.143  -4.628  1.00  0.00    -0.643 OA
HETATM   42  O9  UNL     1      27.033 -11.413  -6.741  1.00  0.00    -0.643 OA
ENDBRANCH  37  40
ENDBRANCH  10  34
BRANCH   1  43
HETATM   43  C2  UNL     1      20.944 -17.701  -2.277  1.00  0.00     0.274 C 
HETATM   44  O2  UNL     1      21.068 -16.506  -1.996  1.00  0.00    -0.264 OA
BRANCH  43  45
HETATM   45  O1  UNL     1      20.247 -18.532  -1.414  1.00  0.00    -0.326 OA
HETATM   46  C1  UNL     1      18.868 -18.801  -1.562  1.00  0.00     0.213 C 
ENDBRANCH  43  45
ENDBRANCH   1  43
BRANCH  11  47
HETATM   47  O10 UNL     1      20.776 -14.945  -4.603  1.00  0.00    -0.390 OA
ATOM     48  H10 UNL     1      19.920 -15.294  -4.826  1.00  0.00     0.210 HD
ENDBRANCH  11  47
TORSDOF 12
ENDMDL
MODEL 4
REMARK VINA RESULT: -6.238994008     13.349     19.011
REMARK  12 active torsions:
REMARK  status: ('A' for Active; 'I' for Inactive)
REMARK    1  A    between atoms: O1_2  and  C2_3 
REMARK    2  A    between atoms: C2_3  and  C3_5 
REMARK    3  A    between atoms: C9_11  and  C10_12 
REMARK    4  A    between atoms: C10_12  and  O3_13 
REMARK    5  A    between atoms: C10_12  and  C11_15 
REMARK    6  A    between atoms: C11_15  and  C12_16 
REMARK    7  A    between atoms: C11_15  and  C20_26 
REMARK    8  A    between atoms: C12_16  and  C13_17 
REMARK    9  A    between atoms: C15_19  and  C16_20 
REMARK   10  A    between atoms: C24_31  and  C25_32 
REMARK       I    between atoms: C25_32  and  N1_34 
REMARK   11  A    between atoms: C26_36  and  C28_38 
REMARK   12  A    between atoms: C29_41  and  O10_42 
ROOT
HETATM    1  C3  UNL     1      27.404 -15.575  -3.357  1.00  0.00     0.106 C 
HETATM    2  C4  UNL     1      28.118 -14.621  -4.369  1.00  0.00     0.034 C 
HETATM    3  C5  UNL     1      28.108 -16.862  -3.459  1.00  0.00     0.038 C 
HETATM    4  C6  UNL     1      27.400 -17.997  -4.047  1.00  0.00    -0.026 C 
HETATM    5  C7  UNL     1      28.241 -18.568  -5.215  1.00  0.00     0.016 C 
HETATM    6  C8  UNL     1      26.050 -17.891  -4.561  1.00  0.00     0.031 C 
HETATM    7  C9  UNL     1      25.085 -16.861  -3.851  1.00  0.00     0.063 C 
HETATM    8  C23 UNL     1      26.008 -15.723  -3.745  1.00  0.00     0.157 C 
HETATM    9  O6  UNL     1      25.552 -14.643  -4.042  1.00  0.00    -0.296 OA
HETATM   10  C24 UNL     1      24.508 -17.491  -2.690  1.00  0.00     0.129 C 
HETATM   11  C29 UNL     1      25.324 -18.459  -1.825  1.00  0.00     0.163 C 
HETATM   12  C30 UNL     1      26.146 -19.375  -2.630  1.00  0.00    -0.034 A 
HETATM   13  C31 UNL     1      26.753 -20.349  -3.383  1.00  0.00    -0.064 A 
HETATM   14  C32 UNL     1      26.662 -21.676  -4.056  1.00  0.00     0.045 C 
HETATM   15  C33 UNL     1      27.480 -19.149  -3.030  1.00  0.00     0.013 A 
HETATM   16  C34 UNL     1      28.696 -19.302  -2.182  1.00  0.00     0.026 C 
ENDROOT
BRANCH   7  17
HETATM   17  C10 UNL     1      24.093 -16.430  -4.857  1.00  0.00     0.139 C 
BRANCH  17  18
HETATM   18  O3  UNL     1      23.063 -15.902  -4.236  1.00  0.00    -0.394 OA
ATOM     19  H3  UNL     1      22.270 -16.327  -4.542  1.00  0.00     0.210 HD
ENDBRANCH  17  18
BRANCH  17  20
HETATM   20  C11 UNL     1      23.850 -16.387  -6.315  1.00  0.00     0.021 C 
BRANCH  20  21
HETATM   21  C12 UNL     1      22.910 -17.536  -6.573  1.00  0.00     0.040 C 
BRANCH  21  22
HETATM   22  C13 UNL     1      21.485 -17.546  -6.505  1.00  0.00     0.133 C 
HETATM   23  C14 UNL     1      20.702 -17.982  -7.704  1.00  0.00     0.047 C 
HETATM   24  C15 UNL     1      19.413 -18.523  -7.139  1.00  0.00     0.091 C 
HETATM   25  C19 UNL     1      19.778 -18.861  -5.756  1.00  0.00     0.263 C 
HETATM   26  O4  UNL     1      18.936 -19.242  -4.896  1.00  0.00    -0.265 OA
HETATM   27  O5  UNL     1      21.143 -18.684  -5.611  1.00  0.00    -0.316 OA
BRANCH  24  28
HETATM   28  C16 UNL     1      18.240 -17.623  -7.263  1.00  0.00    -0.009 C 
HETATM   29  C17 UNL     1      16.925 -18.310  -7.516  1.00  0.00     0.010 C 
HETATM   30  C18 UNL     1      18.499 -16.681  -8.420  1.00  0.00     0.010 C 
ENDBRANCH  24  28
ENDBRANCH  21  22
ENDBRANCH  20  21
BRANCH  20  31
HETATM   31  C20 UNL     1      23.450 -15.094  -6.930  1.00  0.00    -0.016 C 
HETATM   32  C21 UNL     1      22.689 -15.176  -8.258  1.00  0.00     0.010 C 
HETATM   33  C22 UNL     1      24.691 -14.304  -7.438  1.00  0.00     0.010 C 
ENDBRANCH  20  31
ENDBRANCH  17  20
ENDBRANCH   7  17
BRANCH  10  34
HETATM   34  C25 UNL     1      23.404 -18.428  -3.036  1.00  0.00     0.230 C 
HETATM   35  O7  UNL     1      23.584 -19.530  -3.548  1.00  0.00    -0.273 OA
HETATM   36  N1  UNL     1      22.073 -18.052  -2.771  1.00  0.00    -0.325 N 
HETATM   37  C26 UNL     1      21.209 -18.726  -2.155  1.00  0.00     0.085 C 
ATOM     38  H1  UNL     1      21.779 -17.138  -3.113  1.00  0.00     0.169 HD
HETATM   39  C27 UNL     1      21.503 -20.064  -1.608  1.00  0.00     0.076 C 
BRANCH  37  40
HETATM   40  C28 UNL     1      19.845 -18.199  -1.950  1.00  0.00     0.222 C 
HETATM   41  O8  UNL     1      18.926 -18.921  -1.525  1.00  0.00    -0.643 OA
HETATM   42  O9  UNL     1      19.604 -16.879  -2.239  1.00  0.00    -0.643 OA
ENDBRANCH  37  40
ENDBRANCH  10  34
BRANCH   1  43
HETATM   43  C2  UNL     1      27.641 -14.814  -2.116  1.00  0.00     0.274 C 
HETATM   44  O2  UNL     1      28.573 -14.016  -1.994  1.00  0.00    -0.264 OA
BRANCH  43  45
HETATM   45  O1  UNL     1      26.776 -15.015  -1.052  1.00  0.00    -0.326 OA
HETATM   46  C1  UNL     1      27.054 -14.555   0.255  1.00  0.00     0.213 C 
ENDBRANCH  43  45
ENDBRANCH   1  43
BRANCH  11  47
HETATM   47  O10 UNL     1      26.122 -17.847  -0.878  1.00  0.00    -0.390 OA
ATOM     48  H10 UNL     1      25.914 -18.076   0.020  1.00  0.00     0.210 HD
ENDBRANCH  11  47
TORSDOF 12
ENDMDL
MODEL 5
REMARK VINA RESULT: -6.158809585      1.181      1.402
REMARK  12 active torsions:
REMARK  status: ('A' for Active; 'I' for Inactive)
REMARK    1  A    between atoms: O1_2  and  C2_3 
REMARK    2  A    between atoms: C2_3  and  C3_5 
REMARK    3  A    between atoms: C9_11  and  C10_12 
REMARK    4  A    between atoms: C10_12  and  O3_13 
REMARK    5  A    between atoms: C10_12  and  C11_15 
REMARK    6  A    between atoms: C11_15  and  C12_16 
REMARK    7  A    between atoms: C11_15  and  C20_26 
REMARK    8  A    between atoms: C12_16  and  C13_17 
REMARK    9  A    between atoms: C15_19  and  C16_20 
REMARK   10  A    between atoms: C24_31  and  C25_32 
REMARK       I    between atoms: C25_32  and  N1_34 
REMARK   11  A    between atoms: C26_36  and  C28_38 
REMARK   12  A    between atoms: C29_41  and  O10_42 
ROOT
HETATM    1  C3  UNL     1       7.357 -28.043 -11.799  1.00  0.00     0.106 C 
HETATM    2  C4  UNL     1       6.584 -29.354 -11.440  1.00  0.00     0.034 C 
HETATM    3  C5  UNL     1       8.385 -28.442 -12.773  1.00  0.00     0.038 C 
HETATM    4  C6  UNL     1       9.786 -28.399 -12.363  1.00  0.00    -0.026 C 
HETATM    5  C7  UNL     1      10.427 -29.788 -12.603  1.00  0.00     0.016 C 
HETATM    6  C8  UNL     1      10.195 -28.013 -11.028  1.00  0.00     0.031 C 
HETATM    7  C9  UNL     1       9.298 -26.952 -10.276  1.00  0.00     0.063 C 
HETATM    8  C23 UNL     1       7.976 -27.509 -10.594  1.00  0.00     0.157 C 
HETATM    9  O6  UNL     1       7.189 -27.560  -9.677  1.00  0.00    -0.296 OA
HETATM   10  C24 UNL     1       9.694 -25.631 -10.693  1.00  0.00     0.129 C 
HETATM   11  C29 UNL     1      10.118 -25.349 -12.140  1.00  0.00     0.163 C 
HETATM   12  C30 UNL     1      10.976 -26.410 -12.689  1.00  0.00    -0.034 A 
HETATM   13  C31 UNL     1      11.929 -27.296 -13.127  1.00  0.00    -0.064 A 
HETATM   14  C32 UNL     1      13.368 -27.673 -13.212  1.00  0.00     0.045 C 
HETATM   15  C33 UNL     1      10.531 -27.543 -13.403  1.00  0.00     0.013 A 
HETATM   16  C34 UNL     1      10.104 -27.579 -14.830  1.00  0.00     0.026 C 
ENDROOT
BRANCH   7  17
HETATM   17  C10 UNL     1       9.456 -27.199  -8.828  1.00  0.00     0.139 C 
BRANCH  17  18
HETATM   18  O3  UNL     1       8.428 -26.678  -8.196  1.00  0.00    -0.394 OA
ATOM     19  H3  UNL     1       7.801 -27.367  -8.013  1.00  0.00     0.210 HD
ENDBRANCH  17  18
BRANCH  17  20
HETATM   20  C11 UNL     1      10.363 -27.822  -7.840  1.00  0.00     0.021 C 
BRANCH  20  21
HETATM   21  C12 UNL     1      10.283 -26.920  -6.636  1.00  0.00     0.040 C 
BRANCH  21  22
HETATM   22  C13 UNL     1      11.352 -26.313  -5.913  1.00  0.00     0.133 C 
HETATM   23  C14 UNL     1      11.452 -24.820  -5.877  1.00  0.00     0.047 C 
HETATM   24  C15 UNL     1      12.163 -24.517  -4.582  1.00  0.00     0.091 C 
HETATM   25  C19 UNL     1      11.910 -25.723  -3.780  1.00  0.00     0.263 C 
HETATM   26  O4  UNL     1      12.441 -25.924  -2.653  1.00  0.00    -0.265 OA
HETATM   27  O5  UNL     1      11.029 -26.532  -4.478  1.00  0.00    -0.316 OA
BRANCH  24  28
HETATM   28  C16 UNL     1      13.596 -24.158  -4.716  1.00  0.00    -0.009 C 
HETATM   29  C17 UNL     1      14.128 -23.227  -3.659  1.00  0.00     0.010 C 
HETATM   30  C18 UNL     1      13.782 -23.485  -6.059  1.00  0.00     0.010 C 
ENDBRANCH  24  28
ENDBRANCH  21  22
ENDBRANCH  20  21
BRANCH  20  31
HETATM   31  C20 UNL     1      10.210 -29.273  -7.554  1.00  0.00    -0.016 C 
HETATM   32  C21 UNL     1       9.237 -30.047  -8.452  1.00  0.00     0.010 C 
HETATM   33  C22 UNL     1       9.485 -29.507  -6.196  1.00  0.00     0.010 C 
ENDBRANCH  20  31
ENDBRANCH  17  20
ENDBRANCH   7  17
BRANCH  10  34
HETATM   34  C25 UNL     1      10.948 -25.174 -10.034  1.00  0.00     0.230 C 
HETATM   35  O7  UNL     1      12.027 -25.748 -10.157  1.00  0.00    -0.273 OA
HETATM   36  N1  UNL     1      10.920 -24.025  -9.222  1.00  0.00    -0.325 N 
HETATM   37  C26 UNL     1      11.691 -23.034  -9.292  1.00  0.00     0.085 C 
ATOM     38  H1  UNL     1      10.200 -23.992  -8.501  1.00  0.00     0.169 HD
HETATM   39  C27 UNL     1      12.775 -22.955 -10.289  1.00  0.00     0.076 C 
BRANCH  37  40
HETATM   40  C28 UNL     1      11.540 -21.892  -8.368  1.00  0.00     0.222 C 
HETATM   41  O8  UNL     1      12.453 -21.064  -8.204  1.00  0.00    -0.643 OA
HETATM   42  O9  UNL     1      10.357 -21.757  -7.683  1.00  0.00    -0.643 OA
ENDBRANCH  37  40
ENDBRANCH  10  34
BRANCH   1  43
HETATM   43  C2  UNL     1       6.236 -27.254 -12.342  1.00  0.00     0.274 C 
HETATM   44  O2  UNL     1       6.389 -26.396 -13.215  1.00  0.00    -0.264 OA
BRANCH  43  45
HETATM   45  O1  UNL     1       4.966 -27.495 -11.841  1.00  0.00    -0.326 OA
HETATM   46  C1  UNL     1       4.232 -26.525 -11.123  1.00  0.00     0.213 C 
ENDBRANCH  43  45
ENDBRANCH   1  43
BRANCH  11  47
HETATM   47  O10 UNL     1       9.070 -25.118 -13.009  1.00  0.00    -0.390 OA
ATOM     48  H10 UNL     1       8.723 -25.900 -13.424  1.00  0.00     0.210 HD
ENDBRANCH  11  47
TORSDOF 12
ENDMDL
