MODEL 1
REMARK VINA RESULT: -8.579325752      0.000      0.000
REMARK  10 active torsions:
REMARK  status: ('A' for Active; 'I' for Inactive)
REMARK    1  A    between atoms: C2_2  and  C3_3 
REMARK    2  A    between atoms: C3_3  and  O1_5 
REMARK    3  A    between atoms: C3_3  and  C33_42 
REMARK    4  A    between atoms: O1_5  and  C5_6 
REMARK    5  A    between atoms: C12_14  and  O3_15 
REMARK    6  A    between atoms: C16_20  and  C17_21 
REMARK    7  A    between atoms: C17_21  and  O4_22 
REMARK    8  A    between atoms: O4_22  and  C18_23 
REMARK    9  A    between atoms: C22_28  and  N1_29 
REMARK   10  A    between atoms: C25_32  and  O6_33 
ROOT
HETATM    1  C5  UNL     1      18.697 -20.029  -4.712  1.00  0.00     0.155 C 
HETATM    2  C6  UNL     1      18.345 -21.352  -5.363  1.00  0.00     0.003 C 
HETATM    3  C7  UNL     1      17.187 -21.744  -5.861  1.00  0.00    -0.009 C 
HETATM    4  C8  UNL     1      15.783 -21.415  -6.129  1.00  0.00     0.053 C 
HETATM    5  C9  UNL     1      14.992 -20.923  -4.990  1.00  0.00     0.145 C 
HETATM    6  O2  UNL     1      15.063 -21.255  -3.828  1.00  0.00    -0.296 OA
HETATM    7  C10 UNL     1      13.995 -19.874  -5.437  1.00  0.00     0.060 C 
HETATM    8  C11 UNL     1      14.393 -18.475  -4.942  1.00  0.00     0.048 C 
HETATM    9  C12 UNL     1      15.520 -17.903  -5.828  1.00  0.00     0.149 C 
HETATM   10  C13 UNL     1      16.405 -19.083  -6.233  1.00  0.00    -0.039 C 
HETATM   11  C14 UNL     1      17.777 -18.733  -6.666  1.00  0.00    -0.069 C 
HETATM   12  C15 UNL     1      17.869 -17.470  -7.461  1.00  0.00     0.044 C 
HETATM   13  C16 UNL     1      18.894 -18.946  -5.678  1.00  0.00     0.071 C 
HETATM   14  C26 UNL     1      15.688 -20.119  -6.982  1.00  0.00     0.005 C 
HETATM   15  C27 UNL     1      14.199 -19.768  -6.911  1.00  0.00     0.028 C 
HETATM   16  C28 UNL     1      15.940 -20.604  -8.298  1.00  0.00     0.020 C 
HETATM   17  C29 UNL     1      15.395 -22.048  -8.342  1.00  0.00    -0.012 C 
HETATM   18  C30 UNL     1      14.241 -22.195  -9.304  1.00  0.00     0.010 C 
HETATM   19  C31 UNL     1      15.134 -22.483  -6.959  1.00  0.00     0.006 C 
HETATM   20  C32 UNL     1      13.808 -22.945  -6.553  1.00  0.00     0.012 C 
ENDROOT
BRANCH  13  21
HETATM   21  C17 UNL     1      19.402 -17.740  -4.995  1.00  0.00     0.183 C 
BRANCH  21  22
HETATM   22  O4  UNL     1      20.781 -17.570  -4.959  1.00  0.00    -0.358 OA
BRANCH  22  23
HETATM   23  C18 UNL     1      21.246 -16.942  -6.112  1.00  0.00     0.290 C 
HETATM   24  O5  UNL     1      20.444 -15.829  -6.323  1.00  0.00    -0.354 OA
HETATM   25  C19 UNL     1      20.813 -15.043  -7.387  1.00  0.00     0.122 C 
HETATM   26  C20 UNL     1      20.920 -15.745  -8.704  1.00  0.00     0.040 C 
HETATM   27  C21 UNL     1      22.165 -14.439  -7.071  1.00  0.00     0.070 C 
HETATM   28  C22 UNL     1      23.149 -15.616  -7.047  1.00  0.00     0.257 C 
HETATM   29  C25 UNL     1      22.701 -16.609  -5.996  1.00  0.00     0.206 C 
BRANCH  28  30
HETATM   30  N1  UNL     1      24.435 -15.065  -6.668  1.00  0.00     0.087 N 
HETATM   31  C23 UNL     1      25.534 -15.882  -7.140  1.00  0.00     0.310 C 
HETATM   32  C24 UNL     1      24.585 -13.694  -7.083  1.00  0.00     0.310 C 
ENDBRANCH  28  30
BRANCH  29  33
HETATM   33  O6  UNL     1      23.070 -16.082  -4.778  1.00  0.00    -0.388 OA
ATOM     34  H6  UNL     1      24.002 -15.927  -4.682  1.00  0.00     0.210 HD
ENDBRANCH  29  33
ENDBRANCH  22  23
ENDBRANCH  21  22
ENDBRANCH  13  21
BRANCH   1  35
HETATM   35  O1  UNL     1      19.910 -20.317  -4.074  1.00  0.00    -0.364 OA
BRANCH  35  36
HETATM   36  C3  UNL     1      20.002 -20.256  -2.754  1.00  0.00     0.102 C 
HETATM   37  C4  UNL     1      18.823 -19.478  -2.107  1.00  0.00     0.053 C 
BRANCH  36  38
HETATM   38  C2  UNL     1      19.727 -21.670  -2.263  1.00  0.00     0.003 C 
HETATM   39  C1  UNL     1      18.936 -21.801  -1.218  1.00  0.00     0.010 C 
ENDBRANCH  36  38
BRANCH  36  40
HETATM   40  C33 UNL     1      21.207 -19.841  -2.011  1.00  0.00     0.170 C 
HETATM   41  C34 UNL     1      21.202 -18.392  -1.536  1.00  0.00     0.045 C 
HETATM   42  C35 UNL     1      22.526 -17.791  -1.861  1.00  0.00     0.114 C 
HETATM   43  C36 UNL     1      23.185 -18.837  -2.661  1.00  0.00     0.259 C 
HETATM   44  O7  UNL     1      24.404 -18.890  -2.923  1.00  0.00    -0.265 OA
HETATM   45  O8  UNL     1      22.226 -19.715  -3.052  1.00  0.00    -0.313 OA
ENDBRANCH  36  40
ENDBRANCH  35  36
ENDBRANCH   1  35
BRANCH   9  46
HETATM   46  O3  UNL     1      16.194 -17.075  -4.895  1.00  0.00    -0.391 OA
ATOM     47  H3  UNL     1      15.757 -16.245  -5.046  1.00  0.00     0.210 HD
ENDBRANCH   9  46
TORSDOF 10
ENDMDL
MODEL 2
REMARK VINA RESULT: -7.690478184      4.463     10.237
REMARK  10 active torsions:
REMARK  status: ('A' for Active; 'I' for Inactive)
REMARK    1  A    between atoms: C2_2  and  C3_3 
REMARK    2  A    between atoms: C3_3  and  O1_5 
REMARK    3  A    between atoms: C3_3  and  C33_42 
REMARK    4  A    between atoms: O1_5  and  C5_6 
REMARK    5  A    between atoms: C12_14  and  O3_15 
REMARK    6  A    between atoms: C16_20  and  C17_21 
REMARK    7  A    between atoms: C17_21  and  O4_22 
REMARK    8  A    between atoms: O4_22  and  C18_23 
REMARK    9  A    between atoms: C22_28  and  N1_29 
REMARK   10  A    between atoms: C25_32  and  O6_33 
ROOT
HETATM    1  C5  UNL     1      15.293 -21.396  -7.333  1.00  0.00     0.155 C 
HETATM    2  C6  UNL     1      16.400 -20.909  -8.245  1.00  0.00     0.003 C 
HETATM    3  C7  UNL     1      17.252 -19.918  -8.052  1.00  0.00    -0.009 C 
HETATM    4  C8  UNL     1      17.715 -18.842  -7.170  1.00  0.00     0.053 C 
HETATM    5  C9  UNL     1      16.693 -17.901  -6.685  1.00  0.00     0.145 C 
HETATM    6  O2  UNL     1      15.718 -17.485  -7.272  1.00  0.00    -0.296 OA
HETATM    7  C10 UNL     1      16.992 -17.459  -5.268  1.00  0.00     0.060 C 
HETATM    8  C11 UNL     1      15.992 -18.063  -4.270  1.00  0.00     0.048 C 
HETATM    9  C12 UNL     1      16.358 -19.533  -3.979  1.00  0.00     0.149 C 
HETATM   10  C13 UNL     1      16.910 -20.116  -5.282  1.00  0.00    -0.039 C 
HETATM   11  C14 UNL     1      16.876 -21.593  -5.384  1.00  0.00    -0.069 C 
HETATM   12  C15 UNL     1      17.174 -22.307  -4.104  1.00  0.00     0.044 C 
HETATM   13  C16 UNL     1      15.782 -22.208  -6.217  1.00  0.00     0.071 C 
HETATM   14  C26 UNL     1      18.098 -19.416  -5.777  1.00  0.00     0.005 C 
HETATM   15  C27 UNL     1      18.262 -18.159  -4.919  1.00  0.00     0.028 C 
HETATM   16  C28 UNL     1      19.404 -19.934  -6.012  1.00  0.00     0.020 C 
HETATM   17  C29 UNL     1      20.040 -19.037  -7.096  1.00  0.00    -0.012 C 
HETATM   18  C30 UNL     1      21.235 -18.275  -6.581  1.00  0.00     0.010 C 
HETATM   19  C31 UNL     1      18.973 -18.221  -7.700  1.00  0.00     0.006 C 
HETATM   20  C32 UNL     1      19.056 -16.762  -7.710  1.00  0.00     0.012 C 
ENDROOT
BRANCH  13  21
HETATM   21  C17 UNL     1      14.646 -22.792  -5.475  1.00  0.00     0.183 C 
BRANCH  21  22
HETATM   22  O4  UNL     1      14.098 -23.963  -5.984  1.00  0.00    -0.358 OA
BRANCH  22  23
HETATM   23  C18 UNL     1      13.376 -24.651  -5.011  1.00  0.00     0.290 C 
HETATM   24  O5  UNL     1      12.761 -23.699  -4.210  1.00  0.00    -0.354 OA
HETATM   25  C19 UNL     1      11.939 -24.208  -3.234  1.00  0.00     0.122 C 
HETATM   26  C20 UNL     1      12.568 -25.200  -2.309  1.00  0.00     0.040 C 
HETATM   27  C21 UNL     1      10.771 -24.886  -3.919  1.00  0.00     0.070 C 
HETATM   28  C22 UNL     1      11.367 -26.097  -4.650  1.00  0.00     0.257 C 
HETATM   29  C25 UNL     1      12.410 -25.611  -5.634  1.00  0.00     0.206 C 
BRANCH  28  30
HETATM   30  N1  UNL     1      10.274 -26.713  -5.376  1.00  0.00     0.087 N 
HETATM   31  C23 UNL     1      10.638 -28.013  -5.900  1.00  0.00     0.310 C 
HETATM   32  C24 UNL     1       9.068 -26.782  -4.593  1.00  0.00     0.310 C 
ENDBRANCH  28  30
BRANCH  29  33
HETATM   33  O6  UNL     1      11.723 -25.107  -6.716  1.00  0.00    -0.388 OA
ATOM     34  H6  UNL     1      11.044 -25.680  -7.053  1.00  0.00     0.210 HD
ENDBRANCH  29  33
ENDBRANCH  22  23
ENDBRANCH  21  22
ENDBRANCH  13  21
BRANCH   1  35
HETATM   35  O1  UNL     1      14.522 -22.192  -8.190  1.00  0.00    -0.364 OA
BRANCH  35  36
HETATM   36  C3  UNL     1      13.466 -21.681  -8.806  1.00  0.00     0.102 C 
HETATM   37  C4  UNL     1      13.389 -20.134  -8.680  1.00  0.00     0.053 C 
BRANCH  36  38
HETATM   38  C2  UNL     1      13.747 -21.842 -10.293  1.00  0.00     0.003 C 
HETATM   39  C1  UNL     1      14.294 -20.819 -10.916  1.00  0.00     0.010 C 
ENDBRANCH  36  38
BRANCH  36  40
HETATM   40  C33 UNL     1      12.080 -22.162  -8.643  1.00  0.00     0.170 C 
HETATM   41  C34 UNL     1      11.002 -21.114  -8.896  1.00  0.00     0.045 C 
HETATM   42  C35 UNL     1      10.003 -21.199  -7.794  1.00  0.00     0.114 C 
HETATM   43  C36 UNL     1      10.615 -22.155  -6.856  1.00  0.00     0.259 C 
HETATM   44  O7  UNL     1      10.022 -22.738  -5.925  1.00  0.00    -0.265 OA
HETATM   45  O8  UNL     1      11.924 -22.276  -7.194  1.00  0.00    -0.313 OA
ENDBRANCH  36  40
ENDBRANCH  35  36
ENDBRANCH   1  35
BRANCH   9  46
HETATM   46  O3  UNL     1      15.078 -20.073  -3.697  1.00  0.00    -0.391 OA
ATOM     47  H3  UNL     1      14.896 -19.668  -2.856  1.00  0.00     0.210 HD
ENDBRANCH   9  46
TORSDOF 10
ENDMDL
MODEL 3
REMARK VINA RESULT: -7.438449869      1.068      1.175
REMARK  10 active torsions:
REMARK  status: ('A' for Active; 'I' for Inactive)
REMARK    1  A    between atoms: C2_2  and  C3_3 
REMARK    2  A    between atoms: C3_3  and  O1_5 
REMARK    3  A    between atoms: C3_3  and  C33_42 
REMARK    4  A    between atoms: O1_5  and  C5_6 
REMARK    5  A    between atoms: C12_14  and  O3_15 
REMARK    6  A    between atoms: C16_20  and  C17_21 
REMARK    7  A    between atoms: C17_21  and  O4_22 
REMARK    8  A    between atoms: O4_22  and  C18_23 
REMARK    9  A    between atoms: C22_28  and  N1_29 
REMARK   10  A    between atoms: C25_32  and  O6_33 
ROOT
HETATM    1  C5  UNL     1      18.322 -20.592  -4.997  1.00  0.00     0.155 C 
HETATM    2  C6  UNL     1      17.680 -21.936  -5.278  1.00  0.00     0.003 C 
HETATM    3  C7  UNL     1      16.444 -22.195  -5.664  1.00  0.00    -0.009 C 
HETATM    4  C8  UNL     1      15.124 -21.664  -6.019  1.00  0.00     0.053 C 
HETATM    5  C9  UNL     1      14.505 -20.740  -5.055  1.00  0.00     0.145 C 
HETATM    6  O2  UNL     1      14.563 -20.767  -3.846  1.00  0.00    -0.296 OA
HETATM    7  C10 UNL     1      13.719 -19.660  -5.769  1.00  0.00     0.060 C 
HETATM    8  C11 UNL     1      14.414 -18.294  -5.658  1.00  0.00     0.048 C 
HETATM    9  C12 UNL     1      15.589 -18.218  -6.655  1.00  0.00     0.149 C 
HETATM   10  C13 UNL     1      16.197 -19.620  -6.729  1.00  0.00    -0.039 C 
HETATM   11  C14 UNL     1      17.590 -19.685  -7.229  1.00  0.00    -0.069 C 
HETATM   12  C15 UNL     1      17.896 -18.718  -8.329  1.00  0.00     0.044 C 
HETATM   13  C16 UNL     1      18.687 -19.862  -6.212  1.00  0.00     0.071 C 
HETATM   14  C26 UNL     1      15.251 -20.642  -7.183  1.00  0.00     0.005 C 
HETATM   15  C27 UNL     1      13.869 -19.984  -7.217  1.00  0.00     0.028 C 
HETATM   16  C28 UNL     1      15.337 -21.492  -8.323  1.00  0.00     0.020 C 
HETATM   17  C29 UNL     1      14.510 -22.753  -7.990  1.00  0.00    -0.012 C 
HETATM   18  C30 UNL     1      13.306 -22.902  -8.886  1.00  0.00     0.010 C 
HETATM   19  C31 UNL     1      14.234 -22.751  -6.543  1.00  0.00     0.006 C 
HETATM   20  C32 UNL     1      12.864 -22.807  -6.038  1.00  0.00     0.012 C 
ENDROOT
BRANCH  13  21
HETATM   21  C17 UNL     1      19.460 -18.652  -5.868  1.00  0.00     0.183 C 
BRANCH  21  22
HETATM   22  O4  UNL     1      20.828 -18.688  -6.110  1.00  0.00    -0.358 OA
BRANCH  22  23
HETATM   23  C18 UNL     1      21.243 -17.583  -6.849  1.00  0.00     0.290 C 
HETATM   24  O5  UNL     1      20.407 -16.528  -6.510  1.00  0.00    -0.354 OA
HETATM   25  C19 UNL     1      20.724 -15.327  -7.095  1.00  0.00     0.122 C 
HETATM   26  C20 UNL     1      20.812 -15.338  -8.588  1.00  0.00     0.040 C 
HETATM   27  C21 UNL     1      22.068 -14.888  -6.554  1.00  0.00     0.070 C 
HETATM   28  C22 UNL     1      23.084 -15.906  -7.089  1.00  0.00     0.257 C 
HETATM   29  C25 UNL     1      22.691 -17.288  -6.610  1.00  0.00     0.206 C 
BRANCH  28  30
HETATM   30  N1  UNL     1      24.364 -15.546  -6.515  1.00  0.00     0.087 N 
HETATM   31  C23 UNL     1      25.448 -16.320  -7.083  1.00  0.00     0.310 C 
HETATM   32  C24 UNL     1      24.626 -14.133  -6.607  1.00  0.00     0.310 C 
ENDBRANCH  28  30
BRANCH  29  33
HETATM   33  O6  UNL     1      23.081 -17.370  -5.292  1.00  0.00    -0.388 OA
ATOM     34  H6  UNL     1      22.365 -17.473  -4.676  1.00  0.00     0.210 HD
ENDBRANCH  29  33
ENDBRANCH  22  23
ENDBRANCH  21  22
ENDBRANCH  13  21
BRANCH   1  35
HETATM   35  O1  UNL     1      19.481 -20.950  -4.297  1.00  0.00    -0.364 OA
BRANCH  35  36
HETATM   36  C3  UNL     1      19.739 -20.416  -3.112  1.00  0.00     0.102 C 
HETATM   37  C4  UNL     1      18.495 -19.728  -2.483  1.00  0.00     0.053 C 
BRANCH  36  38
HETATM   38  C2  UNL     1      19.931 -21.596  -2.170  1.00  0.00     0.003 C 
HETATM   39  C1  UNL     1      19.002 -21.795  -1.257  1.00  0.00     0.010 C 
ENDBRANCH  36  38
BRANCH  36  40
HETATM   40  C33 UNL     1      20.877 -19.526  -2.817  1.00  0.00     0.170 C 
HETATM   41  C34 UNL     1      21.001 -19.102  -1.358  1.00  0.00     0.045 C 
HETATM   42  C35 UNL     1      21.251 -17.633  -1.319  1.00  0.00     0.114 C 
HETATM   43  C36 UNL     1      21.090 -17.226  -2.725  1.00  0.00     0.259 C 
HETATM   44  O7  UNL     1      21.470 -16.143  -3.215  1.00  0.00    -0.265 OA
HETATM   45  O8  UNL     1      20.461 -18.240  -3.374  1.00  0.00    -0.313 OA
ENDBRANCH  36  40
ENDBRANCH  35  36
ENDBRANCH   1  35
BRANCH   9  46
HETATM   46  O3  UNL     1      16.460 -17.335  -5.968  1.00  0.00    -0.391 OA
ATOM     47  H3  UNL     1      16.674 -16.721  -6.662  1.00  0.00     0.210 HD
ENDBRANCH   9  46
TORSDOF 10
ENDMDL
MODEL 4
REMARK VINA RESULT: -7.423833833      0.883      1.362
REMARK  10 active torsions:
REMARK  status: ('A' for Active; 'I' for Inactive)
REMARK    1  A    between atoms: C2_2  and  C3_3 
REMARK    2  A    between atoms: C3_3  and  O1_5 
REMARK    3  A    between atoms: C3_3  and  C33_42 
REMARK    4  A    between atoms: O1_5  and  C5_6 
REMARK    5  A    between atoms: C12_14  and  O3_15 
REMARK    6  A    between atoms: C16_20  and  C17_21 
REMARK    7  A    between atoms: C17_21  and  O4_22 
REMARK    8  A    between atoms: O4_22  and  C18_23 
REMARK    9  A    between atoms: C22_28  and  N1_29 
REMARK   10  A    between atoms: C25_32  and  O6_33 
ROOT
HETATM    1  C5  UNL     1      18.680 -20.045  -4.644  1.00  0.00     0.155 C 
HETATM    2  C6  UNL     1      18.330 -21.356  -5.316  1.00  0.00     0.003 C 
HETATM    3  C7  UNL     1      17.178 -21.734  -5.839  1.00  0.00    -0.009 C 
HETATM    4  C8  UNL     1      15.781 -21.392  -6.127  1.00  0.00     0.053 C 
HETATM    5  C9  UNL     1      14.975 -20.907  -4.996  1.00  0.00     0.145 C 
HETATM    6  O2  UNL     1      15.023 -21.255  -3.836  1.00  0.00    -0.296 OA
HETATM    7  C10 UNL     1      13.993 -19.846  -5.446  1.00  0.00     0.060 C 
HETATM    8  C11 UNL     1      14.392 -18.456  -4.928  1.00  0.00     0.048 C 
HETATM    9  C12 UNL     1      15.538 -17.881  -5.787  1.00  0.00     0.149 C 
HETATM   10  C13 UNL     1      16.421 -19.063  -6.192  1.00  0.00    -0.039 C 
HETATM   11  C14 UNL     1      17.803 -18.717  -6.597  1.00  0.00    -0.069 C 
HETATM   12  C15 UNL     1      17.917 -17.445  -7.375  1.00  0.00     0.044 C 
HETATM   13  C16 UNL     1      18.901 -18.951  -5.593  1.00  0.00     0.071 C 
HETATM   14  C26 UNL     1      15.710 -20.085  -6.965  1.00  0.00     0.005 C 
HETATM   15  C27 UNL     1      14.223 -19.723  -6.915  1.00  0.00     0.028 C 
HETATM   16  C28 UNL     1      15.980 -20.555  -8.283  1.00  0.00     0.020 C 
HETATM   17  C29 UNL     1      15.426 -21.994  -8.354  1.00  0.00    -0.012 C 
HETATM   18  C30 UNL     1      14.288 -22.121  -9.337  1.00  0.00     0.010 C 
HETATM   19  C31 UNL     1      15.139 -22.444  -6.981  1.00  0.00     0.006 C 
HETATM   20  C32 UNL     1      13.803 -22.901  -6.603  1.00  0.00     0.012 C 
ENDROOT
BRANCH  13  21
HETATM   21  C17 UNL     1      19.407 -17.757  -4.886  1.00  0.00     0.183 C 
BRANCH  21  22
HETATM   22  O4  UNL     1      19.665 -16.631  -5.658  1.00  0.00    -0.358 OA
BRANCH  22  23
HETATM   23  C18 UNL     1      21.034 -16.412  -5.794  1.00  0.00     0.290 C 
HETATM   24  O5  UNL     1      21.523 -17.398  -6.639  1.00  0.00    -0.354 OA
HETATM   25  C19 UNL     1      22.857 -17.287  -6.947  1.00  0.00     0.122 C 
HETATM   26  C20 UNL     1      23.788 -17.228  -5.777  1.00  0.00     0.040 C 
HETATM   27  C21 UNL     1      23.043 -16.019  -7.754  1.00  0.00     0.070 C 
HETATM   28  C22 UNL     1      22.729 -14.866  -6.791  1.00  0.00     0.257 C 
HETATM   29  C25 UNL     1      21.311 -15.024  -6.284  1.00  0.00     0.206 C 
BRANCH  28  30
HETATM   30  N1  UNL     1      22.826 -13.647  -7.570  1.00  0.00     0.087 N 
HETATM   31  C23 UNL     1      24.049 -12.924  -7.292  1.00  0.00     0.310 C 
HETATM   32  C24 UNL     1      22.667 -13.887  -8.981  1.00  0.00     0.310 C 
ENDBRANCH  28  30
BRANCH  29  33
HETATM   33  O6  UNL     1      20.483 -14.600  -7.298  1.00  0.00    -0.388 OA
ATOM     34  H6  UNL     1      19.996 -13.808  -7.105  1.00  0.00     0.210 HD
ENDBRANCH  29  33
ENDBRANCH  22  23
ENDBRANCH  21  22
ENDBRANCH  13  21
BRANCH   1  35
HETATM   35  O1  UNL     1      19.880 -20.349  -3.989  1.00  0.00    -0.364 OA
BRANCH  35  36
HETATM   36  C3  UNL     1      19.961 -20.265  -2.669  1.00  0.00     0.102 C 
HETATM   37  C4  UNL     1      18.737 -19.545  -2.039  1.00  0.00     0.053 C 
BRANCH  36  38
HETATM   38  C2  UNL     1      19.762 -21.686  -2.160  1.00  0.00     0.003 C 
HETATM   39  C1  UNL     1      18.983 -21.844  -1.109  1.00  0.00     0.010 C 
ENDBRANCH  36  38
BRANCH  36  40
HETATM   40  C33 UNL     1      21.138 -19.774  -1.926  1.00  0.00     0.170 C 
HETATM   41  C34 UNL     1      21.135 -18.278  -1.634  1.00  0.00     0.045 C 
HETATM   42  C35 UNL     1      22.483 -17.736  -1.967  1.00  0.00     0.114 C 
HETATM   43  C36 UNL     1      23.160 -18.880  -2.600  1.00  0.00     0.259 C 
HETATM   44  O7  UNL     1      24.389 -18.978  -2.795  1.00  0.00    -0.265 OA
HETATM   45  O8  UNL     1      22.205 -19.790  -2.925  1.00  0.00    -0.313 OA
ENDBRANCH  36  40
ENDBRANCH  35  36
ENDBRANCH   1  35
BRANCH   9  46
HETATM   46  O3  UNL     1      16.202 -17.070  -4.832  1.00  0.00    -0.391 OA
ATOM     47  H3  UNL     1      15.590 -17.115  -4.106  1.00  0.00     0.210 HD
ENDBRANCH   9  46
TORSDOF 10
ENDMDL
MODEL 5
REMARK VINA RESULT: -7.362427711      4.243      9.935
REMARK  10 active torsions:
REMARK  status: ('A' for Active; 'I' for Inactive)
REMARK    1  A    between atoms: C2_2  and  C3_3 
REMARK    2  A    between atoms: C3_3  and  O1_5 
REMARK    3  A    between atoms: C3_3  and  C33_42 
REMARK    4  A    between atoms: O1_5  and  C5_6 
REMARK    5  A    between atoms: C12_14  and  O3_15 
REMARK    6  A    between atoms: C16_20  and  C17_21 
REMARK    7  A    between atoms: C17_21  and  O4_22 
REMARK    8  A    between atoms: O4_22  and  C18_23 
REMARK    9  A    between atoms: C22_28  and  N1_29 
REMARK   10  A    between atoms: C25_32  and  O6_33 
ROOT
HETATM    1  C5  UNL     1      15.499 -21.374  -6.939  1.00  0.00     0.155 C 
HETATM    2  C6  UNL     1      16.369 -20.851  -8.064  1.00  0.00     0.003 C 
HETATM    3  C7  UNL     1      17.191 -19.818  -8.058  1.00  0.00    -0.009 C 
HETATM    4  C8  UNL     1      17.772 -18.706  -7.299  1.00  0.00     0.053 C 
HETATM    5  C9  UNL     1      16.824 -17.805  -6.622  1.00  0.00     0.145 C 
HETATM    6  O2  UNL     1      15.730 -17.446  -6.998  1.00  0.00    -0.296 OA
HETATM    7  C10 UNL     1      17.386 -17.324  -5.301  1.00  0.00     0.060 C 
HETATM    8  C11 UNL     1      16.644 -17.956  -4.113  1.00  0.00     0.048 C 
HETATM    9  C12 UNL     1      17.136 -19.401  -3.892  1.00  0.00     0.149 C 
HETATM   10  C13 UNL     1      17.437 -19.981  -5.276  1.00  0.00    -0.039 C 
HETATM   11  C14 UNL     1      17.457 -21.460  -5.356  1.00  0.00    -0.069 C 
HETATM   12  C15 UNL     1      18.047 -22.135  -4.160  1.00  0.00     0.044 C 
HETATM   13  C16 UNL     1      16.247 -22.141  -5.940  1.00  0.00     0.071 C 
HETATM   14  C26 UNL     1      18.461 -19.235  -6.011  1.00  0.00     0.005 C 
HETATM   15  C27 UNL     1      18.734 -17.956  -5.215  1.00  0.00     0.028 C 
HETATM   16  C28 UNL     1      19.715 -19.694  -6.506  1.00  0.00     0.020 C 
HETATM   17  C29 UNL     1      20.068 -18.788  -7.706  1.00  0.00    -0.012 C 
HETATM   18  C30 UNL     1      21.305 -17.961  -7.454  1.00  0.00     0.010 C 
HETATM   19  C31 UNL     1      18.860 -18.035  -8.083  1.00  0.00     0.006 C 
HETATM   20  C32 UNL     1      18.866 -16.574  -8.121  1.00  0.00     0.012 C 
ENDROOT
BRANCH  13  21
HETATM   21  C17 UNL     1      15.319 -22.765  -4.976  1.00  0.00     0.183 C 
BRANCH  21  22
HETATM   22  O4  UNL     1      15.392 -24.146  -4.834  1.00  0.00    -0.358 OA
BRANCH  22  23
HETATM   23  C18 UNL     1      14.276 -24.648  -4.170  1.00  0.00     0.290 C 
HETATM   24  O5  UNL     1      13.629 -23.569  -3.585  1.00  0.00    -0.354 OA
HETATM   25  C19 UNL     1      12.453 -23.877  -2.945  1.00  0.00     0.122 C 
HETATM   26  C20 UNL     1      12.546 -24.939  -1.895  1.00  0.00     0.040 C 
HETATM   27  C21 UNL     1      11.464 -24.345  -3.993  1.00  0.00     0.070 C 
HETATM   28  C22 UNL     1      12.021 -25.672  -4.525  1.00  0.00     0.257 C 
HETATM   29  C25 UNL     1      13.400 -25.428  -5.101  1.00  0.00     0.206 C 
BRANCH  28  30
HETATM   30  N1  UNL     1      11.127 -26.093  -5.585  1.00  0.00     0.087 N 
HETATM   31  C23 UNL     1      10.522 -27.378  -5.302  1.00  0.00     0.310 C 
HETATM   32  C24 UNL     1      10.130 -25.099  -5.887  1.00  0.00     0.310 C 
ENDBRANCH  28  30
BRANCH  29  33
HETATM   33  O6  UNL     1      13.212 -24.841  -6.332  1.00  0.00    -0.388 OA
ATOM     34  H6  UNL     1      13.912 -24.997  -6.955  1.00  0.00     0.210 HD
ENDBRANCH  29  33
ENDBRANCH  22  23
ENDBRANCH  21  22
ENDBRANCH  13  21
BRANCH   1  35
HETATM   35  O1  UNL     1      14.609 -22.221  -7.611  1.00  0.00    -0.364 OA
BRANCH  35  36
HETATM   36  C3  UNL     1      13.372 -21.823  -7.868  1.00  0.00     0.102 C 
HETATM   37  C4  UNL     1      12.438 -21.938  -6.631  1.00  0.00     0.053 C 
BRANCH  36  38
HETATM   38  C2  UNL     1      13.459 -20.312  -8.032  1.00  0.00     0.003 C 
HETATM   39  C1  UNL     1      12.922 -19.793  -9.118  1.00  0.00     0.010 C 
ENDBRANCH  36  38
BRANCH  36  40
HETATM   40  C33 UNL     1      12.564 -22.268  -9.019  1.00  0.00     0.170 C 
HETATM   41  C34 UNL     1      11.164 -22.762  -8.669  1.00  0.00     0.045 C 
HETATM   42  C35 UNL     1      10.924 -24.038  -9.401  1.00  0.00     0.114 C 
HETATM   43  C36 UNL     1      12.236 -24.334 -10.002  1.00  0.00     0.259 C 
HETATM   44  O7  UNL     1      12.444 -25.154 -10.919  1.00  0.00    -0.265 OA
HETATM   45  O8  UNL     1      13.156 -23.556  -9.376  1.00  0.00    -0.313 OA
ENDBRANCH  36  40
ENDBRANCH  35  36
ENDBRANCH   1  35
BRANCH   9  46
HETATM   46  O3  UNL     1      15.970 -19.997  -3.347  1.00  0.00    -0.391 OA
ATOM     47  H3  UNL     1      16.322 -20.823  -3.036  1.00  0.00     0.210 HD
ENDBRANCH   9  46
TORSDOF 10
ENDMDL
