MODEL 1
REMARK VINA RESULT: -9.648564602      0.000      0.000
REMARK  7 active torsions:
REMARK  status: ('A' for Active; 'I' for Inactive)
REMARK    1  A    between atoms: O1_1  and  C1_3 
REMARK    2  A    between atoms: C1_3  and  C2_4 
REMARK    3  A    between atoms: C2_4  and  C3_5 
REMARK    4  A    between atoms: C3_5  and  N1_6 
REMARK    5  A    between atoms: N1_6  and  C4_8 
REMARK    6  A    between atoms: C9_22  and  C10_23 
REMARK    7  A    between atoms: C11_24  and  C12_25 
ROOT
HETATM    1  C4  UNL     1       6.350  50.448   1.988  1.00  0.00     0.121 A 
HETATM    2  N2  UNL     1       5.186  50.705   1.332  1.00  0.00    -0.338 N 
ATOM      3  H2  UNL     1       4.340  50.157   1.485  1.00  0.00     0.168 HD
HETATM    4  C5  UNL     1       5.231  51.727   0.471  1.00  0.00     0.182 A 
HETATM    5  N3  UNL     1       6.305  52.483   0.224  1.00  0.00    -0.349 N 
ATOM      6  H3  UNL     1       6.236  53.242  -0.454  1.00  0.00     0.166 HD
HETATM    7  C6  UNL     1       7.502  52.258   0.865  1.00  0.00     0.084 A 
HETATM    8  C7  UNL     1       7.495  51.227   1.748  1.00  0.00     0.080 A 
HETATM    9  S1  UNL     1       9.097  51.216   2.357  1.00  0.00    -0.063 SA
HETATM   10  C8  UNL     1       9.729  52.521   1.472  1.00  0.00     0.119 A 
HETATM   11  N4  UNL     1      10.931  53.166   1.367  1.00  0.00    -0.290 N 
ATOM     12  H4  UNL     1      11.707  52.834   1.940  1.00  0.00     0.187 HD
HETATM   13  N5  UNL     1      11.142  54.184   0.571  1.00  0.00    -0.285 N 
ATOM     14  H5  UNL     1      12.058  54.632   0.528  1.00  0.00     0.188 HD
HETATM   15  C9  UNL     1      10.088  54.641  -0.216  1.00  0.00     0.120 A 
HETATM   16  N6  UNL     1       8.945  53.999  -0.091  1.00  0.00    -0.337 N 
ATOM     17  H6  UNL     1       8.173  54.335  -0.667  1.00  0.00     0.167 HD
HETATM   18  C18 UNL     1       8.678  52.944   0.716  1.00  0.00     0.098 A 
ENDROOT
BRANCH  15  19
HETATM   19  C10 UNL     1      10.403  55.696  -1.125  1.00  0.00     0.051 C 
HETATM   20  C11 UNL     1       9.840  56.796  -1.471  1.00  0.00     0.015 C 
BRANCH  20  21
HETATM   21  C12 UNL     1       8.644  57.459  -1.085  1.00  0.00    -0.036 A 
HETATM   22  C13 UNL     1       8.629  58.869  -1.153  1.00  0.00     0.014 A 
HETATM   23  C14 UNL     1       7.583  59.618  -0.723  1.00  0.00     0.043 A 
HETATM   24  C15 UNL     1       6.476  59.024  -0.194  1.00  0.00     0.116 A 
HETATM   25  F1  UNL     1       5.436  59.770   0.233  1.00  0.00    -0.206 F 
HETATM   26  C16 UNL     1       6.439  57.662  -0.103  1.00  0.00     0.043 A 
HETATM   27  C17 UNL     1       7.526  56.896  -0.548  1.00  0.00     0.014 A 
ENDBRANCH  20  21
ENDBRANCH  15  19
BRANCH   1  28
HETATM   28  N1  UNL     1       6.460  49.515   2.831  1.00  0.00    -0.375 N 
ATOM     29  H1  UNL     1       7.036  48.734   2.517  1.00  0.00     0.161 HD
BRANCH  28  30
HETATM   30  C3  UNL     1       5.929  49.359   4.130  1.00  0.00     0.123 C 
BRANCH  30  31
HETATM   31  C2  UNL     1       5.130  48.045   4.169  1.00  0.00     0.045 C 
BRANCH  31  32
HETATM   32  C1  UNL     1       3.654  48.431   4.276  1.00  0.00     0.165 C 
BRANCH  32  33
HETATM   33  O1  UNL     1       3.280  49.245   3.218  1.00  0.00    -0.401 OA
ATOM     34  H1  UNL     1       3.420  50.161   3.430  1.00  0.00     0.209 HD
ENDBRANCH  32  33
ENDBRANCH  31  32
ENDBRANCH  30  31
ENDBRANCH  28  30
ENDBRANCH   1  28
TORSDOF 7
ENDMDL
MODEL 2
REMARK VINA RESULT: -9.473721659      1.379      1.776
REMARK  7 active torsions:
REMARK  status: ('A' for Active; 'I' for Inactive)
REMARK    1  A    between atoms: O1_1  and  C1_3 
REMARK    2  A    between atoms: C1_3  and  C2_4 
REMARK    3  A    between atoms: C2_4  and  C3_5 
REMARK    4  A    between atoms: C3_5  and  N1_6 
REMARK    5  A    between atoms: N1_6  and  C4_8 
REMARK    6  A    between atoms: C9_22  and  C10_23 
REMARK    7  A    between atoms: C11_24  and  C12_25 
ROOT
HETATM    1  C4  UNL     1       7.562  50.977   1.210  1.00  0.00     0.121 A 
HETATM    2  N2  UNL     1       6.246  51.061   0.872  1.00  0.00    -0.338 N 
ATOM      3  H2  UNL     1       5.585  50.307   1.060  1.00  0.00     0.168 HD
HETATM    4  C5  UNL     1       5.882  52.202   0.278  1.00  0.00     0.182 A 
HETATM    5  N3  UNL     1       6.696  53.225   0.004  1.00  0.00    -0.349 N 
ATOM      6  H3  UNL     1       6.320  54.055  -0.455  1.00  0.00     0.166 HD
HETATM    7  C6  UNL     1       8.034  53.183   0.328  1.00  0.00     0.084 A 
HETATM    8  C7  UNL     1       8.441  52.038   0.935  1.00  0.00     0.080 A 
HETATM    9  S1  UNL     1      10.114  52.302   1.196  1.00  0.00    -0.063 SA
HETATM   10  C8  UNL     1      10.248  53.859   0.528  1.00  0.00     0.119 A 
HETATM   11  N4  UNL     1      11.240  54.781   0.339  1.00  0.00    -0.290 N 
ATOM     12  H4  UNL     1      12.180  54.548   0.657  1.00  0.00     0.187 HD
HETATM   13  N5  UNL     1      11.050  55.946  -0.228  1.00  0.00    -0.285 N 
ATOM     14  H5  UNL     1      11.823  56.601  -0.346  1.00  0.00     0.188 HD
HETATM   15  C9  UNL     1       9.769  56.271  -0.665  1.00  0.00     0.120 A 
HETATM   16  N6  UNL     1       8.837  55.362  -0.469  1.00  0.00    -0.337 N 
ATOM     17  H6  UNL     1       7.898  55.601  -0.788  1.00  0.00     0.167 HD
HETATM   18  C18 UNL     1       8.983  54.146   0.111  1.00  0.00     0.098 A 
ENDROOT
BRANCH  15  19
HETATM   19  C10 UNL     1       9.643  57.517  -1.351  1.00  0.00     0.051 C 
HETATM   20  C11 UNL     1       8.751  58.437  -1.409  1.00  0.00     0.015 C 
BRANCH  20  21
HETATM   21  C12 UNL     1       7.483  58.624  -0.795  1.00  0.00    -0.036 A 
HETATM   22  C13 UNL     1       7.105  59.946  -0.473  1.00  0.00     0.014 A 
HETATM   23  C14 UNL     1       5.965  60.244   0.198  1.00  0.00     0.043 A 
HETATM   24  C15 UNL     1       5.117  59.254   0.600  1.00  0.00     0.116 A 
HETATM   25  F1  UNL     1       3.983  59.552   1.267  1.00  0.00    -0.206 F 
HETATM   26  C16 UNL     1       5.436  57.957   0.315  1.00  0.00     0.043 A 
HETATM   27  C17 UNL     1       6.618  57.659  -0.379  1.00  0.00     0.014 A 
ENDBRANCH  20  21
ENDBRANCH  15  19
BRANCH   1  28
HETATM   28  N1  UNL     1       8.051  49.962   1.778  1.00  0.00    -0.375 N 
ATOM     29  H1  UNL     1       8.582  49.351   1.157  1.00  0.00     0.161 HD
BRANCH  28  30
HETATM   30  C3  UNL     1       7.995  49.520   3.118  1.00  0.00     0.123 C 
BRANCH  30  31
HETATM   31  C2  UNL     1       6.886  48.459   3.229  1.00  0.00     0.045 C 
BRANCH  31  32
HETATM   32  C1  UNL     1       5.656  49.167   3.798  1.00  0.00     0.165 C 
BRANCH  32  33
HETATM   33  O1  UNL     1       5.876  49.560   5.108  1.00  0.00    -0.401 OA
ATOM     34  H1  UNL     1       5.822  48.816   5.697  1.00  0.00     0.209 HD
ENDBRANCH  32  33
ENDBRANCH  31  32
ENDBRANCH  30  31
ENDBRANCH  28  30
ENDBRANCH   1  28
TORSDOF 7
ENDMDL
MODEL 3
REMARK VINA RESULT: -9.037625877      2.906      4.262
REMARK  7 active torsions:
REMARK  status: ('A' for Active; 'I' for Inactive)
REMARK    1  A    between atoms: O1_1  and  C1_3 
REMARK    2  A    between atoms: C1_3  and  C2_4 
REMARK    3  A    between atoms: C2_4  and  C3_5 
REMARK    4  A    between atoms: C3_5  and  N1_6 
REMARK    5  A    between atoms: N1_6  and  C4_8 
REMARK    6  A    between atoms: C9_22  and  C10_23 
REMARK    7  A    between atoms: C11_24  and  C12_25 
ROOT
HETATM    1  C4  UNL     1       7.744  52.422   2.128  1.00  0.00     0.121 A 
HETATM    2  N2  UNL     1       9.052  52.196   1.830  1.00  0.00    -0.338 N 
ATOM      3  H2  UNL     1       9.526  51.326   2.076  1.00  0.00     0.168 HD
HETATM    4  C5  UNL     1       9.672  53.194   1.192  1.00  0.00     0.182 A 
HETATM    5  N3  UNL     1       9.111  54.355   0.842  1.00  0.00    -0.349 N 
ATOM      6  H3  UNL     1       9.672  55.055   0.357  1.00  0.00     0.166 HD
HETATM    7  C6  UNL     1       7.791  54.626   1.125  1.00  0.00     0.084 A 
HETATM    8  C7  UNL     1       7.127  53.634   1.773  1.00  0.00     0.080 A 
HETATM    9  S1  UNL     1       5.550  54.275   1.968  1.00  0.00    -0.063 SA
HETATM   10  C8  UNL     1       5.779  55.784   1.221  1.00  0.00     0.119 A 
HETATM   11  N4  UNL     1       5.020  56.891   0.957  1.00  0.00    -0.290 N 
ATOM     12  H4  UNL     1       4.046  56.889   1.257  1.00  0.00     0.187 HD
HETATM   13  N5  UNL     1       5.476  57.953   0.342  1.00  0.00    -0.285 N 
ATOM     14  H5  UNL     1       4.870  58.755   0.167  1.00  0.00     0.188 HD
HETATM   15  C9  UNL     1       6.806  57.963  -0.070  1.00  0.00     0.120 A 
HETATM   16  N6  UNL     1       7.508  56.882   0.199  1.00  0.00    -0.337 N 
ATOM     17  H6  UNL     1       8.482  56.890  -0.104  1.00  0.00     0.167 HD
HETATM   18  C18 UNL     1       7.084  55.762   0.832  1.00  0.00     0.098 A 
ENDROOT
BRANCH  15  19
HETATM   19  C10 UNL     1       7.266  59.180  -0.657  1.00  0.00     0.051 C 
HETATM   20  C11 UNL     1       8.280  59.522  -1.365  1.00  0.00     0.015 C 
BRANCH  20  21
HETATM   21  C12 UNL     1       9.399  58.822  -1.892  1.00  0.00    -0.036 A 
HETATM   22  C13 UNL     1      10.286  59.542  -2.721  1.00  0.00     0.014 A 
HETATM   23  C14 UNL     1      11.335  58.963  -3.357  1.00  0.00     0.043 A 
HETATM   24  C15 UNL     1      11.580  57.629  -3.220  1.00  0.00     0.116 A 
HETATM   25  F1  UNL     1      12.624  57.055  -3.853  1.00  0.00    -0.206 F 
HETATM   26  C16 UNL     1      10.750  56.885  -2.431  1.00  0.00     0.043 A 
HETATM   27  C17 UNL     1       9.668  57.492  -1.777  1.00  0.00     0.014 A 
ENDBRANCH  20  21
ENDBRANCH  15  19
BRANCH   1  28
HETATM   28  N1  UNL     1       7.030  51.572   2.728  1.00  0.00    -0.375 N 
ATOM     29  H1  UNL     1       6.465  51.959   3.484  1.00  0.00     0.161 HD
BRANCH  28  30
HETATM   30  C3  UNL     1       6.872  50.182   2.540  1.00  0.00     0.123 C 
BRANCH  30  31
HETATM   31  C2  UNL     1       5.381  49.839   2.706  1.00  0.00     0.045 C 
BRANCH  31  32
HETATM   32  C1  UNL     1       5.266  48.981   3.967  1.00  0.00     0.165 C 
BRANCH  32  33
HETATM   33  O1  UNL     1       6.198  49.371   4.916  1.00  0.00    -0.401 OA
ATOM     34  H1  UNL     1       6.158  50.309   5.063  1.00  0.00     0.209 HD
ENDBRANCH  32  33
ENDBRANCH  31  32
ENDBRANCH  30  31
ENDBRANCH  28  30
ENDBRANCH   1  28
TORSDOF 7
ENDMDL
MODEL 4
REMARK VINA RESULT: -8.877166639      2.534      3.116
REMARK  7 active torsions:
REMARK  status: ('A' for Active; 'I' for Inactive)
REMARK    1  A    between atoms: O1_1  and  C1_3 
REMARK    2  A    between atoms: C1_3  and  C2_4 
REMARK    3  A    between atoms: C2_4  and  C3_5 
REMARK    4  A    between atoms: C3_5  and  N1_6 
REMARK    5  A    between atoms: N1_6  and  C4_8 
REMARK    6  A    between atoms: C9_22  and  C10_23 
REMARK    7  A    between atoms: C11_24  and  C12_25 
ROOT
HETATM    1  C4  UNL     1       8.222  51.800   2.378  1.00  0.00     0.121 A 
HETATM    2  N2  UNL     1       6.913  52.031   2.670  1.00  0.00    -0.338 N 
ATOM      3  H2  UNL     1       6.345  51.366   3.195  1.00  0.00     0.168 HD
HETATM    4  C5  UNL     1       6.425  53.191   2.220  1.00  0.00     0.182 A 
HETATM    5  N3  UNL     1       7.113  54.103   1.527  1.00  0.00    -0.349 N 
ATOM      6  H3  UNL     1       6.646  54.959   1.228  1.00  0.00     0.166 HD
HETATM    7  C6  UNL     1       8.438  53.911   1.210  1.00  0.00     0.084 A 
HETATM    8  C7  UNL     1       8.971  52.742   1.651  1.00  0.00     0.080 A 
HETATM    9  S1  UNL     1      10.592  52.813   1.102  1.00  0.00    -0.063 SA
HETATM   10  C8  UNL     1      10.548  54.325   0.328  1.00  0.00     0.119 A 
HETATM   11  N4  UNL     1      11.423  55.118  -0.362  1.00  0.00    -0.290 N 
ATOM     12  H4  UNL     1      12.377  54.783  -0.490  1.00  0.00     0.187 HD
HETATM   13  N5  UNL     1      11.103  56.282  -0.869  1.00  0.00    -0.285 N 
ATOM     14  H5  UNL     1      11.792  56.838  -1.376  1.00  0.00     0.188 HD
HETATM   15  C9  UNL     1       9.800  56.745  -0.699  1.00  0.00     0.120 A 
HETATM   16  N6  UNL     1       8.984  55.958  -0.031  1.00  0.00    -0.337 N 
ATOM     17  H6  UNL     1       8.030  56.298   0.094  1.00  0.00     0.167 HD
HETATM   18  C18 UNL     1       9.266  54.749   0.511  1.00  0.00     0.098 A 
ENDROOT
BRANCH  15  19
HETATM   19  C10 UNL     1       9.490  57.979  -1.347  1.00  0.00     0.051 C 
HETATM   20  C11 UNL     1       8.485  58.776  -1.350  1.00  0.00     0.015 C 
BRANCH  20  21
HETATM   21  C12 UNL     1       7.227  58.784  -0.689  1.00  0.00    -0.036 A 
HETATM   22  C13 UNL     1       6.712  60.036  -0.284  1.00  0.00     0.014 A 
HETATM   23  C14 UNL     1       5.570  60.164   0.436  1.00  0.00     0.043 A 
HETATM   24  C15 UNL     1       4.857  59.064   0.810  1.00  0.00     0.116 A 
HETATM   25  F1  UNL     1       3.721  59.195   1.526  1.00  0.00    -0.206 F 
HETATM   26  C16 UNL     1       5.312  57.829   0.446  1.00  0.00     0.043 A 
HETATM   27  C17 UNL     1       6.495  57.705  -0.299  1.00  0.00     0.014 A 
ENDBRANCH  20  21
ENDBRANCH  15  19
BRANCH   1  28
HETATM   28  N1  UNL     1       8.821  50.749   2.737  1.00  0.00    -0.375 N 
ATOM     29  H1  UNL     1       9.454  50.877   3.527  1.00  0.00     0.161 HD
BRANCH  28  30
HETATM   30  C3  UNL     1       8.772  49.427   2.242  1.00  0.00     0.123 C 
BRANCH  30  31
HETATM   31  C2  UNL     1      10.179  49.044   1.754  1.00  0.00     0.045 C 
BRANCH  31  32
HETATM   32  C1  UNL     1      10.136  49.072   0.226  1.00  0.00     0.165 C 
BRANCH  32  33
HETATM   33  O1  UNL     1       8.932  49.591  -0.224  1.00  0.00    -0.401 OA
ATOM     34  H1  UNL     1       8.256  49.496   0.436  1.00  0.00     0.209 HD
ENDBRANCH  32  33
ENDBRANCH  31  32
ENDBRANCH  30  31
ENDBRANCH  28  30
ENDBRANCH   1  28
TORSDOF 7
ENDMDL
MODEL 5
REMARK VINA RESULT: -8.869241033      2.317      2.794
REMARK  7 active torsions:
REMARK  status: ('A' for Active; 'I' for Inactive)
REMARK    1  A    between atoms: O1_1  and  C1_3 
REMARK    2  A    between atoms: C1_3  and  C2_4 
REMARK    3  A    between atoms: C2_4  and  C3_5 
REMARK    4  A    between atoms: C3_5  and  N1_6 
REMARK    5  A    between atoms: N1_6  and  C4_8 
REMARK    6  A    between atoms: C9_22  and  C10_23 
REMARK    7  A    between atoms: C11_24  and  C12_25 
ROOT
HETATM    1  C4  UNL     1       7.935  51.027   1.043  1.00  0.00     0.121 A 
HETATM    2  N2  UNL     1       6.593  51.051   0.818  1.00  0.00    -0.338 N 
ATOM      3  H2  UNL     1       5.991  50.253   1.019  1.00  0.00     0.168 HD
HETATM    4  C5  UNL     1       6.120  52.196   0.316  1.00  0.00     0.182 A 
HETATM    5  N3  UNL     1       6.853  53.277   0.030  1.00  0.00    -0.349 N 
ATOM      6  H3  UNL     1       6.395  54.104  -0.352  1.00  0.00     0.166 HD
HETATM    7  C6  UNL     1       8.213  53.296   0.241  1.00  0.00     0.084 A 
HETATM    8  C7  UNL     1       8.731  52.149   0.753  1.00  0.00     0.080 A 
HETATM    9  S1  UNL     1      10.403  52.496   0.891  1.00  0.00    -0.063 SA
HETATM   10  C8  UNL     1      10.397  54.088   0.296  1.00  0.00     0.119 A 
HETATM   11  N4  UNL     1      11.319  55.073   0.075  1.00  0.00    -0.290 N 
ATOM     12  H4  UNL     1      12.294  54.879   0.303  1.00  0.00     0.187 HD
HETATM   13  N5  UNL     1      11.020  56.251  -0.413  1.00  0.00    -0.285 N 
ATOM     14  H5  UNL     1      11.745  56.955  -0.559  1.00  0.00     0.188 HD
HETATM   15  C9  UNL     1       9.691  56.522  -0.727  1.00  0.00     0.120 A 
HETATM   16  N6  UNL     1       8.829  55.553  -0.503  1.00  0.00    -0.337 N 
ATOM     17  H6  UNL     1       7.855  55.752  -0.732  1.00  0.00     0.167 HD
HETATM   18  C18 UNL     1       9.088  54.321  -0.001  1.00  0.00     0.098 A 
ENDROOT
BRANCH  15  19
HETATM   19  C10 UNL     1       9.442  57.790  -1.334  1.00  0.00     0.051 C 
HETATM   20  C11 UNL     1       8.476  58.634  -1.313  1.00  0.00     0.015 C 
BRANCH  20  21
HETATM   21  C12 UNL     1       7.217  58.680  -0.655  1.00  0.00    -0.036 A 
HETATM   22  C13 UNL     1       6.728  59.948  -0.274  1.00  0.00     0.014 A 
HETATM   23  C14 UNL     1       5.587  60.114   0.441  1.00  0.00     0.043 A 
HETATM   24  C15 UNL     1       4.850  59.035   0.832  1.00  0.00     0.116 A 
HETATM   25  F1  UNL     1       3.716  59.202   1.544  1.00  0.00    -0.206 F 
HETATM   26  C16 UNL     1       5.280  57.785   0.491  1.00  0.00     0.043 A 
HETATM   27  C17 UNL     1       6.462  57.623  -0.248  1.00  0.00     0.014 A 
ENDBRANCH  20  21
ENDBRANCH  15  19
BRANCH   1  28
HETATM   28  N1  UNL     1       8.524  50.016   1.515  1.00  0.00    -0.375 N 
ATOM     29  H1  UNL     1       9.225  49.612   0.894  1.00  0.00     0.161 HD
BRANCH  28  30
HETATM   30  C3  UNL     1       8.387  49.343   2.749  1.00  0.00     0.123 C 
BRANCH  30  31
HETATM   31  C2  UNL     1       8.842  47.886   2.556  1.00  0.00     0.045 C 
BRANCH  31  32
HETATM   32  C1  UNL     1      10.032  47.921   1.597  1.00  0.00     0.165 C 
BRANCH  32  33
HETATM   33  O1  UNL     1       9.628  47.643   0.301  1.00  0.00    -0.401 OA
ATOM     34  H1  UNL     1       9.542  46.706   0.167  1.00  0.00     0.209 HD
ENDBRANCH  32  33
ENDBRANCH  31  32
ENDBRANCH  30  31
ENDBRANCH  28  30
ENDBRANCH   1  28
TORSDOF 7
ENDMDL
