MODEL 1
REMARK VINA RESULT: -7.569039356      0.000      0.000
REMARK  6 active torsions:
REMARK  status: ('A' for Active; 'I' for Inactive)
REMARK    1  A    between atoms: C5_9  and  N3_10 
REMARK    2  A    between atoms: N3_10  and  C7_12 
REMARK    3  A    between atoms: N6_20  and  C12_21 
REMARK    4  A    between atoms: C15_24  and  N7_25 
REMARK    5  A    between atoms: N7_25  and  C16_27 
REMARK    6  A    between atoms: C16_27  and  C17_28 
ROOT
HETATM    1  C1  UNL     1       6.479  58.846  -0.165  1.00  0.00     0.089 C 
HETATM    2  C2  UNL     1       7.374  57.645  -0.256  1.00  0.00     0.080 A 
HETATM    3  N1  UNL     1       7.224  56.592   0.550  1.00  0.00    -0.330 N 
ATOM      4  H1  UNL     1       6.486  56.584   1.253  1.00  0.00     0.168 HD
HETATM    5  C3  UNL     1       8.060  55.538   0.426  1.00  0.00     0.156 A 
HETATM    6  C4  UNL     1       9.048  55.555  -0.522  1.00  0.00     0.137 A 
HETATM    7  N2  UNL     1       9.682  54.409  -0.405  1.00  0.00    -0.184 N 
ATOM      8  H2  UNL     1      10.477  54.118  -0.974  1.00  0.00     0.184 HD
HETATM    9  C5  UNL     1       9.109  53.656   0.610  1.00  0.00     0.689 A 
HETATM   10  N6  UNL     1       8.095  54.357   1.131  1.00  0.00    -0.161 N 
HETATM   11  C15 UNL     1       9.199  56.662  -1.362  1.00  0.00     0.134 A 
HETATM   12  N8  UNL     1       8.339  57.676  -1.188  1.00  0.00    -0.331 N 
ATOM     13  H8  UNL     1       8.421  58.500  -1.784  1.00  0.00     0.168 HD
ENDROOT
BRANCH   9  14
HETATM   14  N3  UNL     1       9.576  52.370   0.967  1.00  0.00    -0.184 N 
HETATM   15  C6  UNL     1       8.815  51.284   1.484  1.00  0.00     0.175 C 
BRANCH  14  16
HETATM   16  C7  UNL     1      10.990  52.115   0.796  1.00  0.00     0.091 A 
HETATM   17  C8  UNL     1      12.037  52.602   1.547  1.00  0.00     0.139 A 
HETATM   18  N4  UNL     1      13.170  52.087   1.008  1.00  0.00    -0.308 N 
HETATM   19  N5  UNL     1      12.888  51.316  -0.026  1.00  0.00    -0.299 N 
ATOM     20  H4  UNL     1      14.112  52.270   1.354  1.00  0.00     0.186 HD
HETATM   21  C9  UNL     1      13.832  50.577  -0.881  1.00  0.00     0.177 C 
HETATM   22  C10 UNL     1      11.568  51.318  -0.174  1.00  0.00     0.053 A 
HETATM   23  C11 UNL     1      10.816  50.580  -1.221  1.00  0.00     0.072 C 
ENDBRANCH  14  16
ENDBRANCH   9  14
BRANCH  10  24
HETATM   24  C12 UNL     1       7.176  54.033   2.215  1.00  0.00     0.101 C 
HETATM   25  C13 UNL     1       7.279  55.117   3.314  1.00  0.00     0.033 C 
HETATM   26  C14 UNL     1       5.735  54.090   1.752  1.00  0.00     0.033 C 
ENDBRANCH  10  24
BRANCH  11  27
HETATM   27  N7  UNL     1      10.137  56.652  -2.244  1.00  0.00    -0.372 N 
ATOM     28  H7  UNL     1      10.002  56.169  -3.132  1.00  0.00     0.161 HD
BRANCH  27  29
HETATM   29  C16 UNL     1      11.376  57.328  -1.967  1.00  0.00     0.158 C 
BRANCH  29  30
HETATM   30  C17 UNL     1      11.791  58.228  -3.112  1.00  0.00     0.183 C 
HETATM   31  C18 UNL     1      10.908  59.454  -3.185  1.00  0.00     0.046 C 
HETATM   32  F1  UNL     1      11.627  57.530  -4.311  1.00  0.00    -0.248 F 
ENDBRANCH  29  30
ENDBRANCH  27  29
ENDBRANCH  11  27
TORSDOF 6
ENDMDL
MODEL 2
REMARK VINA RESULT: -7.533419782      0.844      1.026
REMARK  6 active torsions:
REMARK  status: ('A' for Active; 'I' for Inactive)
REMARK    1  A    between atoms: C5_9  and  N3_10 
REMARK    2  A    between atoms: N3_10  and  C7_12 
REMARK    3  A    between atoms: N6_20  and  C12_21 
REMARK    4  A    between atoms: C15_24  and  N7_25 
REMARK    5  A    between atoms: N7_25  and  C16_27 
REMARK    6  A    between atoms: C16_27  and  C17_28 
ROOT
HETATM    1  C1  UNL     1       6.921  59.338  -0.471  1.00  0.00     0.089 C 
HETATM    2  C2  UNL     1       7.736  58.081  -0.572  1.00  0.00     0.080 A 
HETATM    3  N1  UNL     1       7.447  56.994   0.145  1.00  0.00    -0.330 N 
ATOM      4  H1  UNL     1       6.654  56.996   0.785  1.00  0.00     0.168 HD
HETATM    5  C3  UNL     1       8.216  55.891   0.016  1.00  0.00     0.156 A 
HETATM    6  C4  UNL     1       9.280  55.895  -0.847  1.00  0.00     0.137 A 
HETATM    7  N2  UNL     1       9.822  54.700  -0.758  1.00  0.00    -0.184 N 
ATOM      8  H2  UNL     1      10.640  54.387  -1.281  1.00  0.00     0.184 HD
HETATM    9  C5  UNL     1       9.114  53.929   0.153  1.00  0.00     0.689 A 
HETATM   10  N6  UNL     1       8.111  54.669   0.639  1.00  0.00    -0.161 N 
HETATM   11  C15 UNL     1       9.577  57.038  -1.594  1.00  0.00     0.134 A 
HETATM   12  N8  UNL     1       8.777  58.100  -1.419  1.00  0.00    -0.331 N 
ATOM     13  H8  UNL     1       8.965  58.951  -1.949  1.00  0.00     0.168 HD
ENDROOT
BRANCH   9  14
HETATM   14  N3  UNL     1       9.461  52.592   0.457  1.00  0.00    -0.184 N 
HETATM   15  C6  UNL     1       8.579  51.510   0.737  1.00  0.00     0.175 C 
BRANCH  14  16
HETATM   16  C7  UNL     1      10.871  52.272   0.495  1.00  0.00     0.091 A 
HETATM   17  C8  UNL     1      11.813  52.691   1.410  1.00  0.00     0.139 A 
HETATM   18  N4  UNL     1      12.990  52.133   1.033  1.00  0.00    -0.308 N 
HETATM   19  N5  UNL     1      12.836  51.400  -0.053  1.00  0.00    -0.299 N 
ATOM     20  H4  UNL     1      13.876  52.263   1.523  1.00  0.00     0.186 HD
HETATM   21  C9  UNL     1      13.865  50.634  -0.775  1.00  0.00     0.177 C 
HETATM   22  C10 UNL     1      11.554  51.469  -0.399  1.00  0.00     0.053 A 
HETATM   23  C11 UNL     1      10.939  50.791  -1.568  1.00  0.00     0.072 C 
ENDBRANCH  14  16
ENDBRANCH   9  14
BRANCH  10  24
HETATM   24  C12 UNL     1       7.083  54.345   1.621  1.00  0.00     0.101 C 
HETATM   25  C13 UNL     1       7.315  55.186   2.898  1.00  0.00     0.033 C 
HETATM   26  C14 UNL     1       5.709  54.754   1.135  1.00  0.00     0.033 C 
ENDBRANCH  10  24
BRANCH  11  27
HETATM   27  N7  UNL     1      10.583  57.015  -2.396  1.00  0.00    -0.372 N 
ATOM     28  H7  UNL     1      10.976  56.125  -2.702  1.00  0.00     0.161 HD
BRANCH  27  29
HETATM   29  C16 UNL     1      11.148  58.254  -2.859  1.00  0.00     0.158 C 
BRANCH  29  30
HETATM   30  C17 UNL     1      12.487  58.042  -3.533  1.00  0.00     0.183 C 
HETATM   31  C18 UNL     1      12.766  56.570  -3.735  1.00  0.00     0.046 C 
HETATM   32  F1  UNL     1      13.491  58.542  -2.699  1.00  0.00    -0.248 F 
ENDBRANCH  29  30
ENDBRANCH  27  29
ENDBRANCH  11  27
TORSDOF 6
ENDMDL
MODEL 3
REMARK VINA RESULT: -7.498770598      0.642      1.255
REMARK  6 active torsions:
REMARK  status: ('A' for Active; 'I' for Inactive)
REMARK    1  A    between atoms: C5_9  and  N3_10 
REMARK    2  A    between atoms: N3_10  and  C7_12 
REMARK    3  A    between atoms: N6_20  and  C12_21 
REMARK    4  A    between atoms: C15_24  and  N7_25 
REMARK    5  A    between atoms: N7_25  and  C16_27 
REMARK    6  A    between atoms: C16_27  and  C17_28 
ROOT
HETATM    1  C1  UNL     1       6.707  58.693  -0.310  1.00  0.00     0.089 C 
HETATM    2  C2  UNL     1       7.535  57.441  -0.315  1.00  0.00     0.080 A 
HETATM    3  N1  UNL     1       7.293  56.434   0.526  1.00  0.00    -0.330 N 
ATOM      4  H1  UNL     1       6.529  56.497   1.198  1.00  0.00     0.168 HD
HETATM    5  C3  UNL     1       8.071  55.331   0.480  1.00  0.00     0.156 A 
HETATM    6  C4  UNL     1       9.096  55.253  -0.426  1.00  0.00     0.137 A 
HETATM    7  N2  UNL     1       9.658  54.079  -0.236  1.00  0.00    -0.184 N 
ATOM      8  H2  UNL     1      10.457  53.720  -0.759  1.00  0.00     0.184 HD
HETATM    9  C5  UNL     1       9.003  53.403   0.783  1.00  0.00     0.689 A 
HETATM   10  N6  UNL     1       8.011  54.181   1.233  1.00  0.00    -0.161 N 
HETATM   11  C15 UNL     1       9.343  56.312  -1.303  1.00  0.00     0.134 A 
HETATM   12  N8  UNL     1       8.536  57.379  -1.206  1.00  0.00    -0.331 N 
ATOM     13  H8  UNL     1       8.688  58.171  -1.831  1.00  0.00     0.168 HD
ENDROOT
BRANCH   9  14
HETATM   14  N3  UNL     1       9.382  52.109   1.211  1.00  0.00    -0.184 N 
HETATM   15  C6  UNL     1       8.906  51.399   2.350  1.00  0.00     0.175 C 
BRANCH  14  16
HETATM   16  C7  UNL     1      10.369  51.417   0.413  1.00  0.00     0.091 A 
HETATM   17  C8  UNL     1      10.157  50.499  -0.592  1.00  0.00     0.139 A 
HETATM   18  N4  UNL     1      11.383  50.130  -1.041  1.00  0.00    -0.308 N 
HETATM   19  N5  UNL     1      12.334  50.760  -0.378  1.00  0.00    -0.299 N 
ATOM     20  H4  UNL     1      11.547  49.457  -1.790  1.00  0.00     0.186 HD
HETATM   21  C9  UNL     1      13.790  50.638  -0.561  1.00  0.00     0.177 C 
HETATM   22  C10 UNL     1      11.741  51.549   0.512  1.00  0.00     0.053 A 
HETATM   23  C11 UNL     1      12.439  52.440   1.474  1.00  0.00     0.072 C 
ENDBRANCH  14  16
ENDBRANCH   9  14
BRANCH  10  24
HETATM   24  C12 UNL     1       7.033  53.955   2.290  1.00  0.00     0.101 C 
HETATM   25  C13 UNL     1       7.165  55.068   3.356  1.00  0.00     0.033 C 
HETATM   26  C14 UNL     1       5.617  54.088   1.768  1.00  0.00     0.033 C 
ENDBRANCH  10  24
BRANCH  11  27
HETATM   27  N7  UNL     1      10.313  56.213  -2.144  1.00  0.00    -0.372 N 
ATOM     28  H7  UNL     1      10.228  55.601  -2.955  1.00  0.00     0.161 HD
BRANCH  27  29
HETATM   29  C16 UNL     1      11.516  56.970  -1.929  1.00  0.00     0.158 C 
BRANCH  29  30
HETATM   30  C17 UNL     1      11.899  57.773  -3.154  1.00  0.00     0.183 C 
HETATM   31  C18 UNL     1      11.126  59.071  -3.216  1.00  0.00     0.046 C 
HETATM   32  F1  UNL     1      11.562  57.037  -4.293  1.00  0.00    -0.248 F 
ENDBRANCH  29  30
ENDBRANCH  27  29
ENDBRANCH  11  27
TORSDOF 6
ENDMDL
MODEL 4
REMARK VINA RESULT: -7.481706948      1.939      3.556
REMARK  6 active torsions:
REMARK  status: ('A' for Active; 'I' for Inactive)
REMARK    1  A    between atoms: C5_9  and  N3_10 
REMARK    2  A    between atoms: N3_10  and  C7_12 
REMARK    3  A    between atoms: N6_20  and  C12_21 
REMARK    4  A    between atoms: C15_24  and  N7_25 
REMARK    5  A    between atoms: N7_25  and  C16_27 
REMARK    6  A    between atoms: C16_27  and  C17_28 
ROOT
HETATM    1  C1  UNL     1       7.073  59.296  -0.162  1.00  0.00     0.089 C 
HETATM    2  C2  UNL     1       7.639  57.912  -0.283  1.00  0.00     0.080 A 
HETATM    3  N1  UNL     1       7.203  56.902   0.471  1.00  0.00    -0.330 N 
ATOM      4  H1  UNL     1       6.463  57.055   1.156  1.00  0.00     0.168 HD
HETATM    5  C3  UNL     1       7.751  55.677   0.321  1.00  0.00     0.156 A 
HETATM    6  C4  UNL     1       8.744  55.479  -0.601  1.00  0.00     0.137 A 
HETATM    7  N2  UNL     1       9.065  54.206  -0.519  1.00  0.00    -0.184 N 
ATOM      8  H2  UNL     1       9.780  53.744  -1.081  1.00  0.00     0.184 HD
HETATM    9  C5  UNL     1       8.286  53.585   0.447  1.00  0.00     0.689 A 
HETATM   10  N6  UNL     1       7.465  54.500   0.975  1.00  0.00    -0.161 N 
HETATM   11  C15 UNL     1       9.197  56.541  -1.388  1.00  0.00     0.134 A 
HETATM   12  N8  UNL     1       8.613  57.733  -1.190  1.00  0.00    -0.331 N 
ATOM     13  H8  UNL     1       8.919  58.530  -1.746  1.00  0.00     0.168 HD
ENDROOT
BRANCH   9  14
HETATM   14  N3  UNL     1       8.404  52.211   0.759  1.00  0.00    -0.184 N 
HETATM   15  C6  UNL     1       9.580  51.410   0.714  1.00  0.00     0.175 C 
BRANCH  14  16
HETATM   16  C7  UNL     1       7.198  51.525   1.167  1.00  0.00     0.091 A 
HETATM   17  C8  UNL     1       5.964  51.537   0.553  1.00  0.00     0.139 A 
HETATM   18  N4  UNL     1       5.154  50.747   1.302  1.00  0.00    -0.308 N 
HETATM   19  N5  UNL     1       5.808  50.251   2.335  1.00  0.00    -0.299 N 
ATOM     20  H4  UNL     1       4.173  50.562   1.094  1.00  0.00     0.186 HD
HETATM   21  C9  UNL     1       5.289  49.355   3.381  1.00  0.00     0.177 C 
HETATM   22  C10 UNL     1       7.054  50.710   2.274  1.00  0.00     0.053 A 
HETATM   23  C11 UNL     1       8.135  50.401   3.244  1.00  0.00     0.072 C 
ENDBRANCH  14  16
ENDBRANCH   9  14
BRANCH  10  24
HETATM   24  C12 UNL     1       6.456  54.379   2.021  1.00  0.00     0.101 C 
HETATM   25  C13 UNL     1       6.940  55.128   3.285  1.00  0.00     0.033 C 
HETATM   26  C14 UNL     1       5.169  55.074   1.630  1.00  0.00     0.033 C 
ENDBRANCH  10  24
BRANCH  11  27
HETATM   27  N7  UNL     1      10.131  56.328  -2.246  1.00  0.00    -0.372 N 
ATOM     28  H7  UNL     1       9.972  55.698  -3.033  1.00  0.00     0.161 HD
BRANCH  27  29
HETATM   29  C16 UNL     1      11.402  56.983  -2.087  1.00  0.00     0.158 C 
BRANCH  29  30
HETATM   30  C17 UNL     1      11.676  57.955  -3.215  1.00  0.00     0.183 C 
HETATM   31  C18 UNL     1      13.099  58.462  -3.160  1.00  0.00     0.046 C 
HETATM   32  F1  UNL     1      10.837  59.063  -3.062  1.00  0.00    -0.248 F 
ENDBRANCH  29  30
ENDBRANCH  27  29
ENDBRANCH  11  27
TORSDOF 6
ENDMDL
MODEL 5
REMARK VINA RESULT: -7.459449286      2.469      5.541
REMARK  6 active torsions:
REMARK  status: ('A' for Active; 'I' for Inactive)
REMARK    1  A    between atoms: C5_9  and  N3_10 
REMARK    2  A    between atoms: N3_10  and  C7_12 
REMARK    3  A    between atoms: N6_20  and  C12_21 
REMARK    4  A    between atoms: C15_24  and  N7_25 
REMARK    5  A    between atoms: N7_25  and  C16_27 
REMARK    6  A    between atoms: C16_27  and  C17_28 
ROOT
HETATM    1  C1  UNL     1       4.315  50.250   1.350  1.00  0.00     0.089 C 
HETATM    2  C2  UNL     1       5.482  51.194   1.328  1.00  0.00     0.080 A 
HETATM    3  N1  UNL     1       6.707  50.791   0.990  1.00  0.00    -0.330 N 
ATOM      4  H1  UNL     1       6.877  49.819   0.734  1.00  0.00     0.168 HD
HETATM    5  C3  UNL     1       7.722  51.683   0.989  1.00  0.00     0.156 A 
HETATM    6  C4  UNL     1       7.487  52.988   1.333  1.00  0.00     0.137 A 
HETATM    7  N2  UNL     1       8.646  53.602   1.235  1.00  0.00    -0.184 N 
ATOM      8  H2  UNL     1       8.803  54.592   1.428  1.00  0.00     0.184 HD
HETATM    9  C5  UNL     1       9.623  52.703   0.831  1.00  0.00     0.689 A 
HETATM   10  N6  UNL     1       9.050  51.504   0.677  1.00  0.00    -0.161 N 
HETATM   11  C15 UNL     1       6.200  53.402   1.688  1.00  0.00     0.134 A 
HETATM   12  N8  UNL     1       5.237  52.468   1.669  1.00  0.00    -0.331 N 
ATOM     13  H8  UNL     1       4.286  52.736   1.923  1.00  0.00     0.168 HD
ENDROOT
BRANCH   9  14
HETATM   14  N3  UNL     1      10.972  53.076   0.636  1.00  0.00    -0.184 N 
HETATM   15  C6  UNL     1      12.088  52.755   1.461  1.00  0.00     0.175 C 
BRANCH  14  16
HETATM   16  C7  UNL     1      11.270  53.880  -0.529  1.00  0.00     0.091 A 
HETATM   17  C8  UNL     1      11.852  53.479  -1.712  1.00  0.00     0.139 A 
HETATM   18  N4  UNL     1      11.924  54.581  -2.499  1.00  0.00    -0.308 N 
HETATM   19  N5  UNL     1      11.425  55.634  -1.878  1.00  0.00    -0.299 N 
ATOM     20  H4  UNL     1      12.311  54.595  -3.442  1.00  0.00     0.186 HD
HETATM   21  C9  UNL     1      11.320  57.011  -2.386  1.00  0.00     0.177 C 
HETATM   22  C10 UNL     1      11.021  55.231  -0.677  1.00  0.00     0.053 A 
HETATM   23  C11 UNL     1      10.395  56.095   0.356  1.00  0.00     0.072 C 
ENDBRANCH  14  16
ENDBRANCH   9  14
BRANCH  10  24
HETATM   24  C12 UNL     1       9.622  50.224   0.275  1.00  0.00     0.101 C 
HETATM   25  C13 UNL     1      10.491  50.428  -0.988  1.00  0.00     0.033 C 
HETATM   26  C14 UNL     1      10.581  49.696   1.321  1.00  0.00     0.033 C 
ENDBRANCH  10  24
BRANCH  11  27
HETATM   27  N7  UNL     1       6.007  54.634   2.007  1.00  0.00    -0.372 N 
ATOM     28  H7  UNL     1       6.355  54.995   2.895  1.00  0.00     0.161 HD
BRANCH  27  29
HETATM   29  C16 UNL     1       5.297  55.497   1.101  1.00  0.00     0.158 C 
BRANCH  29  30
HETATM   30  C17 UNL     1       5.636  56.954   1.334  1.00  0.00     0.183 C 
HETATM   31  C18 UNL     1       4.477  57.847   0.954  1.00  0.00     0.046 C 
HETATM   32  F1  UNL     1       6.711  57.299   0.510  1.00  0.00    -0.248 F 
ENDBRANCH  29  30
ENDBRANCH  27  29
ENDBRANCH  11  27
TORSDOF 6
ENDMDL
