MODEL 1
REMARK VINA RESULT: -8.633650482      0.000      0.000
REMARK  7 active torsions:
REMARK  status: ('A' for Active; 'I' for Inactive)
REMARK    1  A    between atoms: C2_2  and  N1_3 
REMARK    2  A    between atoms: N1_3  and  C3_4 
REMARK       I    between atoms: N1_3  and  C14_28 
REMARK    3  A    between atoms: C3_4  and  C4_5 
REMARK    4  A    between atoms: C5_8  and  C6_9 
REMARK    5  A    between atoms: C6_9  and  S1_11 
REMARK    6  A    between atoms: S1_11  and  C7_12 
REMARK    7  A    between atoms: C8_17  and  O2_18 
ROOT
HETATM    1  C4  UNL     1       7.053  56.316  -0.332  1.00  0.00     0.071 A 
HETATM    2  N2  UNL     1       6.466  55.247   0.348  1.00  0.00    -0.348 N 
ATOM      3  H2  UNL     1       5.453  55.250   0.467  1.00  0.00     0.166 HD
HETATM    4  C5  UNL     1       7.158  54.216   0.853  1.00  0.00     0.113 A 
HETATM    5  C10 UNL     1       8.532  54.183   0.704  1.00  0.00     0.037 A 
HETATM    6  C11 UNL     1       9.412  53.098   1.211  1.00  0.00     0.070 C 
HETATM    7  N5  UNL     1       9.095  55.205   0.055  1.00  0.00    -0.360 N 
ATOM      8  H5  UNL     1      10.107  55.198  -0.062  1.00  0.00     0.165 HD
HETATM    9  C12 UNL     1       8.392  56.265  -0.464  1.00  0.00     0.034 A 
HETATM   10  C13 UNL     1       9.077  57.304  -1.224  1.00  0.00     0.070 C 
ENDROOT
BRANCH   4  11
HETATM   11  C6  UNL     1       6.541  53.143   1.600  1.00  0.00     0.243 C 
HETATM   12  O1  UNL     1       6.354  53.175   2.813  1.00  0.00    -0.278 OA
BRANCH  11  13
HETATM   13  S1  UNL     1       5.997  51.641   0.712  1.00  0.00    -0.023 SA
BRANCH  13  14
HETATM   14  C7  UNL     1       5.431  50.491   1.963  1.00  0.00     0.136 A 
HETATM   15  N3  UNL     1       4.120  50.094   2.076  1.00  0.00    -0.289 N 
HETATM   16  N4  UNL     1       4.029  49.238   3.108  1.00  0.00    -0.277 N 
ATOM     17  H3  UNL     1       3.349  50.397   1.480  1.00  0.00     0.188 HD
HETATM   18  C8  UNL     1       5.255  49.094   3.639  1.00  0.00     0.197 A 
ATOM     19  H4  UNL     1       3.178  48.778   3.433  1.00  0.00     0.189 HD
HETATM   20  C9  UNL     1       6.140  49.872   2.931  1.00  0.00     0.203 A 
HETATM   21  F1  UNL     1       7.469  50.007   3.154  1.00  0.00    -0.198 F 
BRANCH  18  22
HETATM   22  O2  UNL     1       5.647  48.309   4.718  1.00  0.00    -0.343 OA
ATOM     23  H2  UNL     1       6.020  48.584   5.548  1.00  0.00     0.219 HD
ENDBRANCH  18  22
ENDBRANCH  13  14
ENDBRANCH  11  13
ENDBRANCH   4  11
BRANCH   1  24
HETATM   24  C3  UNL     1       6.135  57.346  -0.675  1.00  0.00     0.125 C 
BRANCH  24  25
HETATM   25  N1  UNL     1       5.437  58.211   0.145  1.00  0.00    -0.327 N 
HETATM   26  C14 UNL     1       4.415  57.850   1.040  1.00  0.00     0.219 C 
HETATM   27  C15 UNL     1       3.806  58.736   2.071  1.00  0.00     0.117 C 
HETATM   28  O3  UNL     1       3.915  56.667   1.023  1.00  0.00    -0.274 OA
BRANCH  25  29
HETATM   29  C2  UNL     1       5.805  59.622   0.227  1.00  0.00     0.127 C 
HETATM   30  C1  UNL     1       7.021  59.994  -0.553  1.00  0.00     0.027 C 
ENDBRANCH  25  29
ENDBRANCH  24  25
ENDBRANCH   1  24
TORSDOF 7
ENDMDL
MODEL 2
REMARK VINA RESULT: -8.543085386      2.152      2.806
REMARK  7 active torsions:
REMARK  status: ('A' for Active; 'I' for Inactive)
REMARK    1  A    between atoms: C2_2  and  N1_3 
REMARK    2  A    between atoms: N1_3  and  C3_4 
REMARK       I    between atoms: N1_3  and  C14_28 
REMARK    3  A    between atoms: C3_4  and  C4_5 
REMARK    4  A    between atoms: C5_8  and  C6_9 
REMARK    5  A    between atoms: C6_9  and  S1_11 
REMARK    6  A    between atoms: S1_11  and  C7_12 
REMARK    7  A    between atoms: C8_17  and  O2_18 
ROOT
HETATM    1  C4  UNL     1       9.037  54.785  -0.269  1.00  0.00     0.071 A 
HETATM    2  N2  UNL     1       8.808  53.435   0.005  1.00  0.00    -0.348 N 
ATOM      3  H2  UNL     1       7.879  53.057  -0.182  1.00  0.00     0.166 HD
HETATM    4  C5  UNL     1       9.739  52.607   0.498  1.00  0.00     0.113 A 
HETATM    5  C10 UNL     1      11.008  53.091   0.757  1.00  0.00     0.037 A 
HETATM    6  C11 UNL     1      12.129  52.278   1.299  1.00  0.00     0.070 C 
HETATM    7  N5  UNL     1      11.229  54.381   0.497  1.00  0.00    -0.360 N 
ATOM      8  H5  UNL     1      12.158  54.755   0.685  1.00  0.00     0.165 HD
HETATM    9  C12 UNL     1      10.278  55.235  -0.008  1.00  0.00     0.034 A 
HETATM   10  C13 UNL     1      10.624  56.615  -0.332  1.00  0.00     0.070 C 
ENDROOT
BRANCH   4  11
HETATM   11  C6  UNL     1       9.472  51.224   0.824  1.00  0.00     0.243 C 
HETATM   12  O1  UNL     1       9.735  50.284   0.079  1.00  0.00    -0.278 OA
BRANCH  11  13
HETATM   13  S1  UNL     1       8.698  50.824   2.430  1.00  0.00    -0.023 SA
BRANCH  13  14
HETATM   14  C7  UNL     1       6.955  50.576   2.105  1.00  0.00     0.136 A 
HETATM   15  N3  UNL     1       6.351  50.957   0.929  1.00  0.00    -0.289 N 
HETATM   16  N4  UNL     1       5.049  50.637   1.005  1.00  0.00    -0.277 N 
ATOM     17  H3  UNL     1       6.813  51.405   0.137  1.00  0.00     0.188 HD
HETATM   18  C8  UNL     1       4.829  50.065   2.200  1.00  0.00     0.197 A 
ATOM     19  H4  UNL     1       4.349  50.799   0.281  1.00  0.00     0.189 HD
HETATM   20  C9  UNL     1       6.013  50.020   2.896  1.00  0.00     0.203 A 
HETATM   21  F1  UNL     1       6.211  49.525   4.141  1.00  0.00    -0.198 F 
BRANCH  18  22
HETATM   22  O2  UNL     1       3.637  49.571   2.720  1.00  0.00    -0.343 OA
ATOM     23  H2  UNL     1       3.323  48.674   2.738  1.00  0.00     0.219 HD
ENDBRANCH  18  22
ENDBRANCH  13  14
ENDBRANCH  11  13
ENDBRANCH   4  11
BRANCH   1  24
HETATM   24  C3  UNL     1       7.871  55.490  -0.677  1.00  0.00     0.125 C 
BRANCH  24  25
HETATM   25  N1  UNL     1       6.760  55.851   0.058  1.00  0.00    -0.327 N 
HETATM   26  C14 UNL     1       5.881  54.968   0.707  1.00  0.00     0.219 C 
HETATM   27  C15 UNL     1       4.810  55.353   1.668  1.00  0.00     0.117 C 
HETATM   28  O3  UNL     1       5.950  53.702   0.501  1.00  0.00    -0.274 OA
BRANCH  25  29
HETATM   29  C2  UNL     1       6.465  57.257   0.321  1.00  0.00     0.127 C 
HETATM   30  C1  UNL     1       7.292  58.223  -0.459  1.00  0.00     0.027 C 
ENDBRANCH  25  29
ENDBRANCH  24  25
ENDBRANCH   1  24
TORSDOF 7
ENDMDL
MODEL 3
REMARK VINA RESULT: -8.234323221      2.090      2.899
REMARK  7 active torsions:
REMARK  status: ('A' for Active; 'I' for Inactive)
REMARK    1  A    between atoms: C2_2  and  N1_3 
REMARK    2  A    between atoms: N1_3  and  C3_4 
REMARK       I    between atoms: N1_3  and  C14_28 
REMARK    3  A    between atoms: C3_4  and  C4_5 
REMARK    4  A    between atoms: C5_8  and  C6_9 
REMARK    5  A    between atoms: C6_9  and  S1_11 
REMARK    6  A    between atoms: S1_11  and  C7_12 
REMARK    7  A    between atoms: C8_17  and  O2_18 
ROOT
HETATM    1  C4  UNL     1       8.602  54.732  -0.139  1.00  0.00     0.071 A 
HETATM    2  N2  UNL     1       8.487  53.367   0.130  1.00  0.00    -0.348 N 
ATOM      3  H2  UNL     1       7.589  52.917  -0.043  1.00  0.00     0.166 HD
HETATM    4  C5  UNL     1       9.491  52.614   0.601  1.00  0.00     0.113 A 
HETATM    5  C10 UNL     1      10.722  53.197   0.840  1.00  0.00     0.037 A 
HETATM    6  C11 UNL     1      11.914  52.474   1.356  1.00  0.00     0.070 C 
HETATM    7  N5  UNL     1      10.833  54.502   0.584  1.00  0.00    -0.360 N 
ATOM      8  H5  UNL     1      11.733  54.948   0.758  1.00  0.00     0.165 HD
HETATM    9  C12 UNL     1       9.809  55.280   0.102  1.00  0.00     0.034 A 
HETATM   10  C13 UNL     1      10.037  56.684  -0.220  1.00  0.00     0.070 C 
ENDROOT
BRANCH   4  11
HETATM   11  C6  UNL     1       9.341  51.213   0.923  1.00  0.00     0.243 C 
HETATM   12  O1  UNL     1       9.672  50.300   0.171  1.00  0.00    -0.278 OA
BRANCH  11  13
HETATM   13  S1  UNL     1       8.622  50.744   2.536  1.00  0.00    -0.023 SA
BRANCH  13  14
HETATM   14  C7  UNL     1       6.871  50.495   2.256  1.00  0.00     0.136 A 
HETATM   15  N3  UNL     1       6.224  50.933   1.124  1.00  0.00    -0.289 N 
HETATM   16  N4  UNL     1       4.928  50.594   1.225  1.00  0.00    -0.277 N 
ATOM     17  H3  UNL     1       6.654  51.428   0.343  1.00  0.00     0.188 HD
HETATM   18  C8  UNL     1       4.754  49.956   2.394  1.00  0.00     0.197 A 
ATOM     19  H4  UNL     1       4.202  50.788   0.535  1.00  0.00     0.189 HD
HETATM   20  C9  UNL     1       5.962  49.886   3.047  1.00  0.00     0.203 A 
HETATM   21  F1  UNL     1       6.207  49.326   4.255  1.00  0.00    -0.198 F 
BRANCH  18  22
HETATM   22  O2  UNL     1       3.585  49.422   2.927  1.00  0.00    -0.343 OA
ATOM     23  H2  UNL     1       3.374  48.511   3.101  1.00  0.00     0.219 HD
ENDBRANCH  18  22
ENDBRANCH  13  14
ENDBRANCH  11  13
ENDBRANCH   4  11
BRANCH   1  24
HETATM   24  C3  UNL     1       7.377  55.343  -0.522  1.00  0.00     0.125 C 
BRANCH  24  25
HETATM   25  N1  UNL     1       6.389  55.900   0.266  1.00  0.00    -0.327 N 
HETATM   26  C14 UNL     1       6.019  57.255   0.285  1.00  0.00     0.219 C 
HETATM   27  C15 UNL     1       4.825  57.823   0.972  1.00  0.00     0.117 C 
HETATM   28  O3  UNL     1       6.727  58.138  -0.322  1.00  0.00    -0.274 OA
BRANCH  25  29
HETATM   29  C2  UNL     1       5.537  55.056   1.100  1.00  0.00     0.127 C 
HETATM   30  C1  UNL     1       6.087  54.764   2.456  1.00  0.00     0.027 C 
ENDBRANCH  25  29
ENDBRANCH  24  25
ENDBRANCH   1  24
TORSDOF 7
ENDMDL
MODEL 4
REMARK VINA RESULT: -8.177991152      1.174      1.712
REMARK  7 active torsions:
REMARK  status: ('A' for Active; 'I' for Inactive)
REMARK    1  A    between atoms: C2_2  and  N1_3 
REMARK    2  A    between atoms: N1_3  and  C3_4 
REMARK       I    between atoms: N1_3  and  C14_28 
REMARK    3  A    between atoms: C3_4  and  C4_5 
REMARK    4  A    between atoms: C5_8  and  C6_9 
REMARK    5  A    between atoms: C6_9  and  S1_11 
REMARK    6  A    between atoms: S1_11  and  C7_12 
REMARK    7  A    between atoms: C8_17  and  O2_18 
ROOT
HETATM    1  C4  UNL     1       7.278  55.892  -0.319  1.00  0.00     0.071 A 
HETATM    2  N2  UNL     1       6.634  54.869   0.380  1.00  0.00    -0.348 N 
ATOM      3  H2  UNL     1       5.626  54.939   0.515  1.00  0.00     0.166 HD
HETATM    4  C5  UNL     1       7.266  53.799   0.883  1.00  0.00     0.113 A 
HETATM    5  C10 UNL     1       8.632  53.675   0.711  1.00  0.00     0.037 A 
HETATM    6  C11 UNL     1       9.448  52.539   1.214  1.00  0.00     0.070 C 
HETATM    7  N5  UNL     1       9.249  54.652   0.043  1.00  0.00    -0.360 N 
ATOM      8  H5  UNL     1      10.257  54.578  -0.090  1.00  0.00     0.165 HD
HETATM    9  C12 UNL     1       8.608  55.752  -0.474  1.00  0.00     0.034 A 
HETATM   10  C13 UNL     1       9.347  56.737  -1.254  1.00  0.00     0.070 C 
ENDROOT
BRANCH   4  11
HETATM   11  C6  UNL     1       6.593  52.774   1.649  1.00  0.00     0.243 C 
HETATM   12  O1  UNL     1       6.453  52.816   2.868  1.00  0.00    -0.278 OA
BRANCH  11  13
HETATM   13  S1  UNL     1       5.902  51.324   0.780  1.00  0.00    -0.023 SA
BRANCH  13  14
HETATM   14  C7  UNL     1       5.193  50.268   2.041  1.00  0.00     0.136 A 
HETATM   15  N3  UNL     1       3.851  49.977   2.106  1.00  0.00    -0.289 N 
HETATM   16  N4  UNL     1       3.648  49.170   3.161  1.00  0.00    -0.277 N 
ATOM     17  H3  UNL     1       3.133  50.315   1.465  1.00  0.00     0.188 HD
HETATM   18  C8  UNL     1       4.834  48.953   3.754  1.00  0.00     0.197 A 
ATOM     19  H4  UNL     1       2.751  48.789   3.461  1.00  0.00     0.189 HD
HETATM   20  C9  UNL     1       5.808  49.633   3.062  1.00  0.00     0.203 A 
HETATM   21  F1  UNL     1       7.132  49.676   3.343  1.00  0.00    -0.198 F 
BRANCH  18  22
HETATM   22  O2  UNL     1       5.116  48.182   4.877  1.00  0.00    -0.343 OA
ATOM     23  H2  UNL     1       5.963  47.951   5.241  1.00  0.00     0.219 HD
ENDBRANCH  18  22
ENDBRANCH  13  14
ENDBRANCH  11  13
ENDBRANCH   4  11
BRANCH   1  24
HETATM   24  C3  UNL     1       6.423  56.977  -0.657  1.00  0.00     0.125 C 
BRANCH  24  25
HETATM   25  N1  UNL     1       6.099  58.101   0.076  1.00  0.00    -0.327 N 
HETATM   26  C14 UNL     1       6.520  59.413  -0.200  1.00  0.00     0.219 C 
HETATM   27  C15 UNL     1       6.010  60.649   0.457  1.00  0.00     0.117 C 
HETATM   28  O3  UNL     1       7.420  59.640  -1.087  1.00  0.00    -0.274 OA
BRANCH  25  29
HETATM   29  C2  UNL     1       5.156  58.019   1.189  1.00  0.00     0.127 C 
HETATM   30  C1  UNL     1       3.970  57.149   0.937  1.00  0.00     0.027 C 
ENDBRANCH  25  29
ENDBRANCH  24  25
ENDBRANCH   1  24
TORSDOF 7
ENDMDL
MODEL 5
REMARK VINA RESULT: -8.109763725      2.477      4.712
REMARK  7 active torsions:
REMARK  status: ('A' for Active; 'I' for Inactive)
REMARK    1  A    between atoms: C2_2  and  N1_3 
REMARK    2  A    between atoms: N1_3  and  C3_4 
REMARK       I    between atoms: N1_3  and  C14_28 
REMARK    3  A    between atoms: C3_4  and  C4_5 
REMARK    4  A    between atoms: C5_8  and  C6_9 
REMARK    5  A    between atoms: C6_9  and  S1_11 
REMARK    6  A    between atoms: S1_11  and  C7_12 
REMARK    7  A    between atoms: C8_17  and  O2_18 
ROOT
HETATM    1  C4  UNL     1       9.199  56.667  -0.055  1.00  0.00     0.071 A 
HETATM    2  N2  UNL     1       8.573  55.838   0.879  1.00  0.00    -0.348 N 
ATOM      3  H2  UNL     1       9.144  55.150   1.370  1.00  0.00     0.166 HD
HETATM    4  C5  UNL     1       7.266  55.896   1.167  1.00  0.00     0.113 A 
HETATM    5  C10 UNL     1       6.469  56.821   0.520  1.00  0.00     0.037 A 
HETATM    6  C11 UNL     1       5.010  56.990   0.751  1.00  0.00     0.070 C 
HETATM    7  N5  UNL     1       7.064  57.613  -0.374  1.00  0.00    -0.360 N 
ATOM      8  H5  UNL     1       6.491  58.300  -0.863  1.00  0.00     0.165 HD
HETATM    9  C12 UNL     1       8.404  57.559  -0.675  1.00  0.00     0.034 A 
HETATM   10  C13 UNL     1       8.989  58.512  -1.611  1.00  0.00     0.070 C 
ENDROOT
BRANCH   4  11
HETATM   11  C6  UNL     1       6.624  54.995   2.098  1.00  0.00     0.243 C 
HETATM   12  O1  UNL     1       6.477  55.240   3.293  1.00  0.00    -0.278 OA
BRANCH  11  13
HETATM   13  S1  UNL     1       5.984  53.396   1.491  1.00  0.00    -0.023 SA
BRANCH  13  14
HETATM   14  C7  UNL     1       7.089  52.136   2.121  1.00  0.00     0.136 A 
HETATM   15  N3  UNL     1       8.381  52.401   2.511  1.00  0.00    -0.289 N 
HETATM   16  N4  UNL     1       8.937  51.250   2.926  1.00  0.00    -0.277 N 
ATOM     17  H3  UNL     1       8.837  53.313   2.489  1.00  0.00     0.188 HD
HETATM   18  C8  UNL     1       8.020  50.276   2.802  1.00  0.00     0.197 A 
ATOM     19  H4  UNL     1       9.889  51.136   3.274  1.00  0.00     0.189 HD
HETATM   20  C9  UNL     1       6.861  50.817   2.301  1.00  0.00     0.203 A 
HETATM   21  F1  UNL     1       5.706  50.166   2.027  1.00  0.00    -0.198 F 
BRANCH  18  22
HETATM   22  O2  UNL     1       8.142  48.925   3.110  1.00  0.00    -0.343 OA
ATOM     23  H2  UNL     1       8.796  48.496   3.651  1.00  0.00     0.219 HD
ENDBRANCH  18  22
ENDBRANCH  13  14
ENDBRANCH  11  13
ENDBRANCH   4  11
BRANCH   1  24
HETATM   24  C3  UNL     1      10.567  56.346  -0.276  1.00  0.00     0.125 C 
BRANCH  24  25
HETATM   25  N1  UNL     1      11.126  55.201  -0.807  1.00  0.00    -0.327 N 
HETATM   26  C14 UNL     1      11.163  53.941  -0.187  1.00  0.00     0.219 C 
HETATM   27  C15 UNL     1      11.574  52.663  -0.833  1.00  0.00     0.117 C 
HETATM   28  O3  UNL     1      10.824  53.804   1.044  1.00  0.00    -0.274 OA
BRANCH  25  29
HETATM   29  C2  UNL     1      11.652  55.191  -2.169  1.00  0.00     0.127 C 
HETATM   30  C1  UNL     1      12.053  56.529  -2.692  1.00  0.00     0.027 C 
ENDBRANCH  25  29
ENDBRANCH  24  25
ENDBRANCH   1  24
TORSDOF 7
ENDMDL
