MODEL 1
REMARK VINA RESULT: -9.823788079      0.000      0.000
REMARK  6 active torsions:
REMARK  status: ('A' for Active; 'I' for Inactive)
REMARK    1  A    between atoms: O1_1  and  C1_3 
REMARK    2  A    between atoms: C1_3  and  C2_4 
REMARK    3  A    between atoms: C1_3  and  C11_19 
REMARK    4  A    between atoms: C2_4  and  N1_5 
REMARK    5  A    between atoms: C4_7  and  C5_8 
REMARK    6  A    between atoms: C11_19  and  N4_20 
ROOT
HETATM    1  C1  UNL     1      10.250  55.694  -0.233  1.00  0.00     0.156 C 
ENDROOT
BRANCH   1   2
HETATM    2  O1  UNL     1      11.318  56.492   0.223  1.00  0.00    -0.392 OA
ATOM      3  H1  UNL     1      11.597  57.101  -0.450  1.00  0.00     0.210 HD
ENDBRANCH   1   2
BRANCH   1   4
HETATM    4  C2  UNL     1      10.709  54.287  -0.505  1.00  0.00     0.183 C 
BRANCH   4   5
HETATM    5  N1  UNL     1      10.024  53.341   0.398  1.00  0.00    -0.284 N 
HETATM    6  C3  UNL     1       8.742  52.980   0.240  1.00  0.00     0.143 A 
HETATM    7  C4  UNL     1       8.420  52.094   1.244  1.00  0.00     0.076 A 
HETATM    8  N2  UNL     1       9.550  51.971   1.961  1.00  0.00    -0.284 N 
HETATM    9  N3  UNL     1      10.499  52.726   1.438  1.00  0.00    -0.240 N 
ATOM     10  H2  UNL     1       9.659  51.382   2.787  1.00  0.00     0.188 HD
ATOM     11  H3  UNL     1      11.451  52.811   1.794  1.00  0.00     0.208 HD
BRANCH   7  12
HETATM   12  C5  UNL     1       7.149  51.428   1.491  1.00  0.00    -0.006 A 
HETATM   13  C6  UNL     1       6.085  51.583   0.630  1.00  0.00     0.017 A 
HETATM   14  C7  UNL     1       4.900  50.929   0.908  1.00  0.00     0.043 A 
HETATM   15  C8  UNL     1       4.726  50.122   2.013  1.00  0.00     0.116 A 
HETATM   16  F1  UNL     1       3.533  49.490   2.255  1.00  0.00    -0.206 F 
HETATM   17  C9  UNL     1       5.799  49.974   2.868  1.00  0.00     0.043 A 
HETATM   18  C10 UNL     1       6.990  50.624   2.600  1.00  0.00     0.017 A 
ENDBRANCH   7  12
ENDBRANCH   4   5
ENDBRANCH   1   4
BRANCH   1  19
HETATM   19  C11 UNL     1       9.714  56.299  -1.497  1.00  0.00     0.164 C 
BRANCH  19  20
HETATM   20  N4  UNL     1       8.929  57.486  -1.261  1.00  0.00    -0.325 N 
HETATM   21  C12 UNL     1       9.145  58.764  -1.634  1.00  0.00     0.185 A 
HETATM   22  N5  UNL     1       8.135  59.512  -1.160  1.00  0.00    -0.348 N 
HETATM   23  C13 UNL     1       7.269  58.744  -0.486  1.00  0.00     0.092 A 
ATOM     24  H5  UNL     1       8.041  60.519  -1.293  1.00  0.00     0.167 HD
HETATM   25  C14 UNL     1       6.094  58.746   0.230  1.00  0.00     0.039 A 
HETATM   26  C19 UNL     1       7.772  57.466  -0.552  1.00  0.00     0.138 A 
HETATM   27  C15 UNL     1       5.171  59.696   0.612  1.00  0.00     0.019 A 
HETATM   28  C18 UNL     1       5.890  57.429   0.603  1.00  0.00     0.119 A 
HETATM   29  C16 UNL     1       4.053  59.371   1.355  1.00  0.00     0.018 A 
HETATM   30  C17 UNL     1       3.891  58.046   1.705  1.00  0.00     0.090 A 
HETATM   31  N6  UNL     1       4.800  57.110   1.328  1.00  0.00    -0.352 N 
ATOM     32  H6  UNL     1       4.652  56.138   1.600  1.00  0.00     0.166 HD
HETATM   33  N7  UNL     1       6.926  56.693   0.110  1.00  0.00    -0.326 N 
ATOM     34  H7  UNL     1       7.035  55.685   0.235  1.00  0.00     0.169 HD
ENDBRANCH  19  20
ENDBRANCH   1  19
TORSDOF 6
ENDMDL
MODEL 2
REMARK VINA RESULT: -9.313914966      3.376      6.275
REMARK  6 active torsions:
REMARK  status: ('A' for Active; 'I' for Inactive)
REMARK    1  A    between atoms: O1_1  and  C1_3 
REMARK    2  A    between atoms: C1_3  and  C2_4 
REMARK    3  A    between atoms: C1_3  and  C11_19 
REMARK    4  A    between atoms: C2_4  and  N1_5 
REMARK    5  A    between atoms: C4_7  and  C5_8 
REMARK    6  A    between atoms: C11_19  and  N4_20 
ROOT
HETATM    1  C1  UNL     1       9.471  50.452   0.893  1.00  0.00     0.156 C 
ENDROOT
BRANCH   1   2
HETATM    2  O1  UNL     1       9.324  49.051   0.872  1.00  0.00    -0.392 OA
ATOM      3  H1  UNL     1       8.695  48.787   0.211  1.00  0.00     0.210 HD
ENDBRANCH   1   2
BRANCH   1   4
HETATM    4  C2  UNL     1      10.922  50.839   0.798  1.00  0.00     0.183 C 
BRANCH   4   5
HETATM    5  N1  UNL     1      11.063  52.309   0.807  1.00  0.00    -0.284 N 
HETATM    6  C3  UNL     1      10.587  53.092  -0.172  1.00  0.00     0.143 A 
HETATM    7  C4  UNL     1      10.886  54.399   0.143  1.00  0.00     0.076 A 
HETATM    8  N2  UNL     1      11.537  54.324   1.317  1.00  0.00    -0.284 N 
HETATM    9  N3  UNL     1      11.632  53.063   1.697  1.00  0.00    -0.240 N 
ATOM     10  H2  UNL     1      11.902  55.122   1.836  1.00  0.00     0.188 HD
ATOM     11  H3  UNL     1      12.081  52.735   2.552  1.00  0.00     0.208 HD
BRANCH   7  12
HETATM   12  C5  UNL     1      10.575  55.607  -0.610  1.00  0.00    -0.006 A 
HETATM   13  C6  UNL     1      11.241  55.907  -1.778  1.00  0.00     0.017 A 
HETATM   14  C7  UNL     1      10.910  57.065  -2.456  1.00  0.00     0.043 A 
HETATM   15  C8  UNL     1       9.939  57.942  -2.020  1.00  0.00     0.116 A 
HETATM   16  F1  UNL     1       9.640  59.082  -2.722  1.00  0.00    -0.206 F 
HETATM   17  C9  UNL     1       9.279  57.630  -0.849  1.00  0.00     0.043 A 
HETATM   18  C10 UNL     1       9.602  56.475  -0.162  1.00  0.00     0.017 A 
ENDBRANCH   7  12
ENDBRANCH   4   5
ENDBRANCH   1   4
BRANCH   1  19
HETATM   19  C11 UNL     1       8.898  50.969   2.179  1.00  0.00     0.164 C 
BRANCH  19  20
HETATM   20  N4  UNL     1       7.545  51.448   2.036  1.00  0.00    -0.325 N 
HETATM   21  C12 UNL     1       6.381  50.770   1.975  1.00  0.00     0.185 A 
HETATM   22  N5  UNL     1       5.388  51.662   1.822  1.00  0.00    -0.348 N 
HETATM   23  C13 UNL     1       5.885  52.904   1.781  1.00  0.00     0.092 A 
ATOM     24  H5  UNL     1       4.398  51.428   1.747  1.00  0.00     0.167 HD
HETATM   25  C14 UNL     1       5.562  54.236   1.659  1.00  0.00     0.039 A 
HETATM   26  C19 UNL     1       7.247  52.767   1.917  1.00  0.00     0.138 A 
HETATM   27  C15 UNL     1       4.399  54.960   1.502  1.00  0.00     0.019 A 
HETATM   28  C18 UNL     1       6.767  54.914   1.723  1.00  0.00     0.119 A 
HETATM   29  C16 UNL     1       4.404  56.338   1.407  1.00  0.00     0.018 A 
HETATM   30  C17 UNL     1       5.628  56.972   1.475  1.00  0.00     0.090 A 
HETATM   31  N6  UNL     1       6.773  56.258   1.631  1.00  0.00    -0.352 N 
ATOM     32  H6  UNL     1       7.663  56.755   1.680  1.00  0.00     0.166 HD
HETATM   33  N7  UNL     1       7.756  53.988   1.879  1.00  0.00    -0.326 N 
ATOM     34  H7  UNL     1       8.750  54.206   1.956  1.00  0.00     0.169 HD
ENDBRANCH  19  20
ENDBRANCH   1  19
TORSDOF 6
ENDMDL
MODEL 3
REMARK VINA RESULT: -9.305893263      3.130      7.494
REMARK  6 active torsions:
REMARK  status: ('A' for Active; 'I' for Inactive)
REMARK    1  A    between atoms: O1_1  and  C1_3 
REMARK    2  A    between atoms: C1_3  and  C2_4 
REMARK    3  A    between atoms: C1_3  and  C11_19 
REMARK    4  A    between atoms: C2_4  and  N1_5 
REMARK    5  A    between atoms: C4_7  and  C5_8 
REMARK    6  A    between atoms: C11_19  and  N4_20 
ROOT
HETATM    1  C1  UNL     1      10.744  52.202   0.557  1.00  0.00     0.156 C 
ENDROOT
BRANCH   1   2
HETATM    2  O1  UNL     1      11.796  51.307   0.277  1.00  0.00    -0.392 OA
ATOM      3  H1  UNL     1      11.669  50.889  -0.567  1.00  0.00     0.210 HD
ENDBRANCH   1   2
BRANCH   1   4
HETATM    4  C2  UNL     1      11.278  53.569   0.888  1.00  0.00     0.183 C 
BRANCH   4   5
HETATM    5  N1  UNL     1      10.644  54.589   0.029  1.00  0.00    -0.284 N 
HETATM    6  C3  UNL     1       9.736  55.464   0.485  1.00  0.00     0.143 A 
HETATM    7  C4  UNL     1       9.350  56.266  -0.565  1.00  0.00     0.076 A 
HETATM    8  N2  UNL     1      10.063  55.818  -1.613  1.00  0.00    -0.284 N 
HETATM    9  N3  UNL     1      10.832  54.813  -1.236  1.00  0.00    -0.240 N 
ATOM     10  H2  UNL     1      10.017  56.199  -2.558  1.00  0.00     0.188 HD
ATOM     11  H3  UNL     1      11.470  54.297  -1.841  1.00  0.00     0.208 HD
BRANCH   7  12
HETATM   12  C5  UNL     1       8.388  57.361  -0.565  1.00  0.00    -0.006 A 
HETATM   13  C6  UNL     1       8.749  58.624  -0.978  1.00  0.00     0.017 A 
HETATM   14  C7  UNL     1       7.801  59.629  -0.960  1.00  0.00     0.043 A 
HETATM   15  C8  UNL     1       6.500  59.430  -0.545  1.00  0.00     0.116 A 
HETATM   16  F1  UNL     1       5.588  60.454  -0.541  1.00  0.00    -0.206 F 
HETATM   17  C9  UNL     1       6.151  58.160  -0.133  1.00  0.00     0.043 A 
HETATM   18  C10 UNL     1       7.092  57.147  -0.148  1.00  0.00     0.017 A 
ENDBRANCH   7  12
ENDBRANCH   4   5
ENDBRANCH   1   4
BRANCH   1  19
HETATM   19  C11 UNL     1       9.970  51.670   1.726  1.00  0.00     0.164 C 
BRANCH  19  20
HETATM   20  N4  UNL     1       8.560  51.537   1.450  1.00  0.00    -0.325 N 
HETATM   21  C12 UNL     1       7.803  52.098   0.485  1.00  0.00     0.185 A 
HETATM   22  N5  UNL     1       6.538  51.678   0.653  1.00  0.00    -0.348 N 
HETATM   23  C13 UNL     1       6.460  50.856   1.707  1.00  0.00     0.092 A 
ATOM     24  H5  UNL     1       5.750  51.946   0.062  1.00  0.00     0.167 HD
HETATM   25  C14 UNL     1       5.609  50.083   2.463  1.00  0.00     0.039 A 
HETATM   26  C19 UNL     1       7.737  50.768   2.208  1.00  0.00     0.138 A 
HETATM   27  C15 UNL     1       4.263  49.787   2.442  1.00  0.00     0.019 A 
HETATM   28  C18 UNL     1       6.402  49.517   3.445  1.00  0.00     0.119 A 
HETATM   29  C16 UNL     1       3.686  48.944   3.373  1.00  0.00     0.018 A 
HETATM   30  C17 UNL     1       4.515  48.403   4.334  1.00  0.00     0.090 A 
HETATM   31  N6  UNL     1       5.841  48.694   4.353  1.00  0.00    -0.352 N 
ATOM     32  H6  UNL     1       6.430  48.278   5.075  1.00  0.00     0.166 HD
HETATM   33  N7  UNL     1       7.678  49.958   3.253  1.00  0.00    -0.326 N 
ATOM     34  H7  UNL     1       8.476  49.699   3.834  1.00  0.00     0.169 HD
ENDBRANCH  19  20
ENDBRANCH   1  19
TORSDOF 6
ENDMDL
MODEL 4
REMARK VINA RESULT: -9.284325646      3.459      8.150
REMARK  6 active torsions:
REMARK  status: ('A' for Active; 'I' for Inactive)
REMARK    1  A    between atoms: O1_1  and  C1_3 
REMARK    2  A    between atoms: C1_3  and  C2_4 
REMARK    3  A    between atoms: C1_3  and  C11_19 
REMARK    4  A    between atoms: C2_4  and  N1_5 
REMARK    5  A    between atoms: C4_7  and  C5_8 
REMARK    6  A    between atoms: C11_19  and  N4_20 
ROOT
HETATM    1  C1  UNL     1       6.227  55.538   1.742  1.00  0.00     0.156 C 
ENDROOT
BRANCH   1   2
HETATM    2  O1  UNL     1       6.443  55.824   3.105  1.00  0.00    -0.392 OA
ATOM      3  H1  UNL     1       7.036  56.559   3.206  1.00  0.00     0.210 HD
ENDBRANCH   1   2
BRANCH   1   4
HETATM    4  C2  UNL     1       5.473  56.656   1.073  1.00  0.00     0.183 C 
BRANCH   4   5
HETATM    5  N1  UNL     1       6.405  57.538   0.343  1.00  0.00    -0.284 N 
HETATM    6  C3  UNL     1       7.463  57.076  -0.340  1.00  0.00     0.143 A 
HETATM    7  C4  UNL     1       8.117  58.153  -0.896  1.00  0.00     0.076 A 
HETATM    8  N2  UNL     1       7.399  59.222  -0.508  1.00  0.00    -0.284 N 
HETATM    9  N3  UNL     1       6.378  58.832   0.233  1.00  0.00    -0.240 N 
ATOM     10  H2  UNL     1       7.612  60.189  -0.750  1.00  0.00     0.188 HD
ATOM     11  H3  UNL     1       5.682  59.447   0.652  1.00  0.00     0.208 HD
BRANCH   7  12
HETATM   12  C5  UNL     1       9.316  58.157  -1.723  1.00  0.00    -0.006 A 
HETATM   13  C6  UNL     1      10.059  57.012  -1.903  1.00  0.00     0.017 A 
HETATM   14  C7  UNL     1      11.189  57.066  -2.697  1.00  0.00     0.043 A 
HETATM   15  C8  UNL     1      11.613  58.219  -3.324  1.00  0.00     0.116 A 
HETATM   16  F1  UNL     1      12.741  58.234  -4.105  1.00  0.00    -0.206 F 
HETATM   17  C9  UNL     1      10.860  59.361  -3.136  1.00  0.00     0.043 A 
HETATM   18  C10 UNL     1       9.728  59.317  -2.343  1.00  0.00     0.017 A 
ENDBRANCH   7  12
ENDBRANCH   4   5
ENDBRANCH   1   4
BRANCH   1  19
HETATM   19  C11 UNL     1       5.432  54.270   1.645  1.00  0.00     0.164 C 
BRANCH  19  20
HETATM   20  N4  UNL     1       6.246  53.122   1.329  1.00  0.00    -0.325 N 
HETATM   21  C12 UNL     1       5.889  51.867   0.986  1.00  0.00     0.185 A 
HETATM   22  N5  UNL     1       7.012  51.151   0.806  1.00  0.00    -0.348 N 
HETATM   23  C13 UNL     1       8.088  51.916   1.026  1.00  0.00     0.092 A 
ATOM     24  H5  UNL     1       7.040  50.167   0.540  1.00  0.00     0.167 HD
HETATM   25  C14 UNL     1       9.464  51.934   1.047  1.00  0.00     0.039 A 
HETATM   26  C19 UNL     1       7.602  53.160   1.356  1.00  0.00     0.138 A 
HETATM   27  C15 UNL     1      10.467  51.018   0.811  1.00  0.00     0.019 A 
HETATM   28  C18 UNL     1       9.810  53.226   1.401  1.00  0.00     0.119 A 
HETATM   29  C16 UNL     1      11.803  51.354   0.918  1.00  0.00     0.018 A 
HETATM   30  C17 UNL     1      12.100  52.654   1.274  1.00  0.00     0.090 A 
HETATM   31  N6  UNL     1      11.112  53.555   1.505  1.00  0.00    -0.352 N 
ATOM     32  H6  UNL     1      11.363  54.509   1.765  1.00  0.00     0.166 HD
HETATM   33  N7  UNL     1       8.655  53.930   1.577  1.00  0.00    -0.326 N 
ATOM     34  H7  UNL     1       8.610  54.915   1.843  1.00  0.00     0.169 HD
ENDBRANCH  19  20
ENDBRANCH   1  19
TORSDOF 6
ENDMDL
MODEL 5
REMARK VINA RESULT: -9.284075392      3.529      8.244
REMARK  6 active torsions:
REMARK  status: ('A' for Active; 'I' for Inactive)
REMARK    1  A    between atoms: O1_1  and  C1_3 
REMARK    2  A    between atoms: C1_3  and  C2_4 
REMARK    3  A    between atoms: C1_3  and  C11_19 
REMARK    4  A    between atoms: C2_4  and  N1_5 
REMARK    5  A    between atoms: C4_7  and  C5_8 
REMARK    6  A    between atoms: C11_19  and  N4_20 
ROOT
HETATM    1  C1  UNL     1       6.308  56.348   1.464  1.00  0.00     0.156 C 
ENDROOT
BRANCH   1   2
HETATM    2  O1  UNL     1       5.977  56.479   2.828  1.00  0.00    -0.392 OA
ATOM      3  H1  UNL     1       6.521  55.914   3.364  1.00  0.00     0.210 HD
ENDBRANCH   1   2
BRANCH   1   4
HETATM    4  C2  UNL     1       5.690  57.456   0.654  1.00  0.00     0.183 C 
BRANCH   4   5
HETATM    5  N1  UNL     1       6.737  58.221  -0.051  1.00  0.00    -0.284 N 
HETATM    6  C3  UNL     1       7.762  57.637  -0.689  1.00  0.00     0.143 A 
HETATM    7  C4  UNL     1       8.548  58.629  -1.233  1.00  0.00     0.076 A 
HETATM    8  N2  UNL     1       7.937  59.775  -0.884  1.00  0.00    -0.284 N 
HETATM    9  N3  UNL     1       6.855  59.508  -0.176  1.00  0.00    -0.240 N 
ATOM     10  H2  UNL     1       8.262  60.710  -1.129  1.00  0.00     0.188 HD
ATOM     11  H3  UNL     1       6.214  60.202   0.210  1.00  0.00     0.208 HD
BRANCH   7  12
HETATM   12  C5  UNL     1       9.769  58.492  -2.016  1.00  0.00    -0.006 A 
HETATM   13  C6  UNL     1      10.269  59.548  -2.744  1.00  0.00     0.017 A 
HETATM   14  C7  UNL     1      11.431  59.369  -3.470  1.00  0.00     0.043 A 
HETATM   15  C8  UNL     1      12.121  58.175  -3.503  1.00  0.00     0.116 A 
HETATM   16  F1  UNL     1      13.272  58.036  -4.236  1.00  0.00    -0.206 F 
HETATM   17  C9  UNL     1      11.610  57.124  -2.769  1.00  0.00     0.043 A 
HETATM   18  C10 UNL     1      10.449  57.293  -2.039  1.00  0.00     0.017 A 
ENDBRANCH   7  12
ENDBRANCH   4   5
ENDBRANCH   1   4
BRANCH   1  19
HETATM   19  C11 UNL     1       5.795  55.025   0.977  1.00  0.00     0.164 C 
BRANCH  19  20
HETATM   20  N4  UNL     1       6.584  53.912   1.446  1.00  0.00    -0.325 N 
HETATM   21  C12 UNL     1       6.332  53.013   2.420  1.00  0.00     0.185 A 
HETATM   22  N5  UNL     1       7.381  52.176   2.493  1.00  0.00    -0.348 N 
HETATM   23  C13 UNL     1       8.307  52.516   1.588  1.00  0.00     0.092 A 
ATOM     24  H5  UNL     1       7.461  51.395   3.144  1.00  0.00     0.167 HD
HETATM   25  C14 UNL     1       9.543  52.194   1.076  1.00  0.00     0.039 A 
HETATM   26  C19 UNL     1       7.802  53.611   0.928  1.00  0.00     0.138 A 
HETATM   27  C15 UNL     1      10.495  51.229   1.327  1.00  0.00     0.019 A 
HETATM   28  C18 UNL     1       9.783  53.126   0.081  1.00  0.00     0.119 A 
HETATM   29  C16 UNL     1      11.678  51.168   0.615  1.00  0.00     0.018 A 
HETATM   30  C17 UNL     1      11.875  52.117  -0.366  1.00  0.00     0.090 A 
HETATM   31  N6  UNL     1      10.936  53.067  -0.613  1.00  0.00    -0.352 N 
ATOM     32  H6  UNL     1      11.109  53.755  -1.347  1.00  0.00     0.166 HD
HETATM   33  N7  UNL     1       8.706  53.961   0.027  1.00  0.00    -0.326 N 
ATOM     34  H7  UNL     1       8.611  54.746  -0.618  1.00  0.00     0.169 HD
ENDBRANCH  19  20
ENDBRANCH   1  19
TORSDOF 6
ENDMDL
