MODEL 1
REMARK VINA RESULT: -8.448790083      0.000      0.000
REMARK  11 active torsions:
REMARK  status: ('A' for Active; 'I' for Inactive)
REMARK    1  A    between atoms: C3_3  and  C4_4 
REMARK    2  A    between atoms: C4_4  and  S1_5 
REMARK    3  A    between atoms: S1_5  and  N1_6 
REMARK    4  A    between atoms: S1_5  and  C5_10 
REMARK    5  A    between atoms: C5_10  and  C6_11 
REMARK    6  A    between atoms: C6_11  and  C7_12 
REMARK    7  A    between atoms: C7_12  and  C8_13 
REMARK    8  A    between atoms: C8_13  and  C9_14 
REMARK    9  A    between atoms: N4_20  and  N5_22 
REMARK   10  A    between atoms: N7_28  and  N8_30 
REMARK   11  A    between atoms: C12_33  and  N9_34 
ROOT
HETATM    1  C1  UNL     1      -3.766   7.397 -51.604  1.00  0.00     0.053 C 
HETATM    2  C2  UNL     1      -3.103   8.593 -52.206  1.00  0.00    -0.003 C 
HETATM    3  C3  UNL     1      -2.099   9.306 -51.674  1.00  0.00    -0.008 C 
HETATM    4  C11 UNL     1      -1.739  10.388 -52.568  1.00  0.00     0.091 C 
HETATM    5  N7  UNL     1      -1.054  11.449 -52.318  1.00  0.00    -0.307 N 
ATOM      6  H7  UNL     1      -0.700  11.574 -51.370  1.00  0.00     0.186 HD
HETATM    7  C12 UNL     1      -2.331  10.042 -53.885  1.00  0.00     0.317 C 
HETATM    8  C13 UNL     1      -2.817  11.218 -54.604  1.00  0.00     0.114 C 
HETATM    9  N10 UNL     1      -3.221  12.141 -55.181  1.00  0.00    -0.194 NA
HETATM   10  C14 UNL     1      -3.460   9.159 -53.475  1.00  0.00     0.212 C 
HETATM   11  O2  UNL     1      -4.495   9.007 -54.184  1.00  0.00    -0.288 OA
ENDROOT
BRANCH   7  12
HETATM   12  N9  UNL     1      -1.433   9.245 -54.689  1.00  0.00    -0.044 N 
ATOM     13  H93 UNL     1      -1.070   8.450 -54.162  1.00  0.00     0.277 HD
ATOM     14  H92 UNL     1      -1.937   8.739 -55.417  1.00  0.00     0.277 HD
ATOM     15  H91 UNL     1      -0.676   9.804 -55.083  1.00  0.00     0.277 HD
ENDBRANCH   7  12
BRANCH   3  16
HETATM   16  C4  UNL     1      -1.482   9.001 -50.371  1.00  0.00     0.158 C 
BRANCH  16  17
HETATM   17  S1  UNL     1       0.153   8.340 -50.495  1.00  0.00     0.023 S 
HETATM   18  O1  UNL     1       1.100   9.215 -51.222  1.00  0.00    -0.250 OA
BRANCH  17  19
HETATM   19  N1  UNL     1       0.145   6.954 -51.232  1.00  0.00    -0.360 N 
ATOM     20  H12 UNL     1       0.425   6.077 -50.791  1.00  0.00     0.165 HD
ATOM     21  H11 UNL     1      -0.173   7.053 -52.195  1.00  0.00     0.165 HD
ENDBRANCH  17  19
BRANCH  17  22
HETATM   22  C5  UNL     1       0.774   8.135 -48.837  1.00  0.00     0.117 C 
BRANCH  22  23
HETATM   23  C6  UNL     1       1.383   6.751 -48.727  1.00  0.00     0.013 C 
BRANCH  23  24
HETATM   24  C7  UNL     1       2.849   6.769 -49.090  1.00  0.00     0.005 C 
BRANCH  24  25
HETATM   25  C8  UNL     1       3.485   8.041 -48.632  1.00  0.00     0.048 C 
BRANCH  25  26
HETATM   26  C9  UNL     1       5.001   7.987 -48.641  1.00  0.00     0.200 A 
HETATM   27  N2  UNL     1       5.564   8.728 -49.726  1.00  0.00    -0.310 N 
HETATM   28  N3  UNL     1       6.324   9.631 -49.297  1.00  0.00    -0.273 N 
ATOM     29  H2  UNL     1       5.375   8.548 -50.712  1.00  0.00     0.182 HD
HETATM   30  C10 UNL     1       6.402   9.654 -47.889  1.00  0.00     0.210 A 
ATOM     31  H3  UNL     1       6.830  10.279 -49.901  1.00  0.00     0.189 HD
HETATM   32  N4  UNL     1       7.083  10.444 -47.111  1.00  0.00    -0.277 N 
HETATM   33  N6  UNL     1       5.556   8.601 -47.455  1.00  0.00    -0.338 N 
ATOM     34  H4  UNL     1       7.033  10.331 -46.098  1.00  0.00     0.189 HD
ATOM     35  H6  UNL     1       5.373   8.328 -46.489  1.00  0.00     0.164 HD
BRANCH  32  36
HETATM   36  N5  UNL     1       7.882  11.444 -47.665  1.00  0.00    -0.342 N 
ATOM     37  H52 UNL     1       7.557  12.411 -47.635  1.00  0.00     0.176 HD
ATOM     38  H51 UNL     1       8.776  11.203 -48.090  1.00  0.00     0.176 HD
ENDBRANCH  32  36
ENDBRANCH  25  26
ENDBRANCH  24  25
ENDBRANCH  23  24
ENDBRANCH  22  23
ENDBRANCH  17  22
ENDBRANCH  16  17
ENDBRANCH   3  16
BRANCH   5  39
HETATM   39  N8  UNL     1      -0.767  12.420 -53.238  1.00  0.00    -0.345 N 
ATOM     40  H82 UNL     1      -1.380  13.235 -53.250  1.00  0.00     0.176 HD
ATOM     41  H81 UNL     1       0.008  12.378 -53.900  1.00  0.00     0.176 HD
ENDBRANCH   5  39
TORSDOF 11
ENDMDL
MODEL 2
REMARK VINA RESULT: -8.303285276      3.705      6.131
REMARK  11 active torsions:
REMARK  status: ('A' for Active; 'I' for Inactive)
REMARK    1  A    between atoms: C3_3  and  C4_4 
REMARK    2  A    between atoms: C4_4  and  S1_5 
REMARK    3  A    between atoms: S1_5  and  N1_6 
REMARK    4  A    between atoms: S1_5  and  C5_10 
REMARK    5  A    between atoms: C5_10  and  C6_11 
REMARK    6  A    between atoms: C6_11  and  C7_12 
REMARK    7  A    between atoms: C7_12  and  C8_13 
REMARK    8  A    between atoms: C8_13  and  C9_14 
REMARK    9  A    between atoms: N4_20  and  N5_22 
REMARK   10  A    between atoms: N7_28  and  N8_30 
REMARK   11  A    between atoms: C12_33  and  N9_34 
ROOT
HETATM    1  C1  UNL     1      -2.233   5.773 -49.438  1.00  0.00     0.053 C 
HETATM    2  C2  UNL     1      -0.941   5.033 -49.327  1.00  0.00    -0.003 C 
HETATM    3  C3  UNL     1       0.229   5.369 -49.891  1.00  0.00    -0.008 C 
HETATM    4  C11 UNL     1       1.241   4.393 -49.543  1.00  0.00     0.091 C 
HETATM    5  N7  UNL     1       2.384   4.182 -50.096  1.00  0.00    -0.307 N 
ATOM      6  H7  UNL     1       2.643   4.766 -50.890  1.00  0.00     0.186 HD
HETATM    7  C12 UNL     1       0.700   3.642 -48.382  1.00  0.00     0.317 C 
HETATM    8  C13 UNL     1       1.065   2.227 -48.414  1.00  0.00     0.114 C 
HETATM    9  N10 UNL     1       1.335   1.098 -48.434  1.00  0.00    -0.194 NA
HETATM   10  C14 UNL     1      -0.767   3.822 -48.576  1.00  0.00     0.212 C 
HETATM   11  O2  UNL     1      -1.618   3.003 -48.125  1.00  0.00    -0.288 OA
ENDROOT
BRANCH   7  12
HETATM   12  N9  UNL     1       1.046   4.266 -47.125  1.00  0.00    -0.044 N 
ATOM     13  H93 UNL     1       1.320   3.571 -46.430  1.00  0.00     0.277 HD
ATOM     14  H92 UNL     1       1.924   4.779 -47.196  1.00  0.00     0.277 HD
ATOM     15  H91 UNL     1       0.296   4.862 -46.776  1.00  0.00     0.277 HD
ENDBRANCH   7  12
BRANCH   3  16
HETATM   16  C4  UNL     1       0.413   6.564 -50.734  1.00  0.00     0.158 C 
BRANCH  16  17
HETATM   17  S1  UNL     1       0.780   8.031 -49.819  1.00  0.00     0.023 S 
HETATM   18  O1  UNL     1      -0.340   8.508 -48.975  1.00  0.00    -0.250 OA
BRANCH  17  19
HETATM   19  N1  UNL     1       1.171   9.210 -50.778  1.00  0.00    -0.360 N 
ATOM     20  H12 UNL     1       2.120   9.374 -51.115  1.00  0.00     0.165 HD
ATOM     21  H11 UNL     1       0.357   9.778 -51.010  1.00  0.00     0.165 HD
ENDBRANCH  17  19
BRANCH  17  22
HETATM   22  C5  UNL     1       2.147   7.658 -48.737  1.00  0.00     0.117 C 
BRANCH  22  23
HETATM   23  C6  UNL     1       3.407   7.580 -49.576  1.00  0.00     0.013 C 
BRANCH  23  24
HETATM   24  C7  UNL     1       4.634   7.434 -48.707  1.00  0.00     0.005 C 
BRANCH  24  25
HETATM   25  C8  UNL     1       4.883   8.692 -47.939  1.00  0.00     0.048 C 
BRANCH  25  26
HETATM   26  C9  UNL     1       6.070   8.592 -47.000  1.00  0.00     0.200 A 
HETATM   27  N2  UNL     1       6.870   7.436 -47.257  1.00  0.00    -0.310 N 
HETATM   28  N3  UNL     1       8.048   7.769 -47.540  1.00  0.00    -0.273 N 
ATOM     29  H2  UNL     1       6.532   6.475 -47.216  1.00  0.00     0.182 HD
HETATM   30  C10 UNL     1       8.238   9.166 -47.522  1.00  0.00     0.210 A 
ATOM     31  H3  UNL     1       8.787   7.101 -47.759  1.00  0.00     0.189 HD
HETATM   32  N4  UNL     1       9.315   9.858 -47.762  1.00  0.00    -0.277 N 
HETATM   33  N6  UNL     1       6.973   9.707 -47.176  1.00  0.00    -0.338 N 
ATOM     34  H4  UNL     1       9.291  10.876 -47.708  1.00  0.00     0.189 HD
ATOM     35  H6  UNL     1       6.745  10.696 -47.071  1.00  0.00     0.164 HD
BRANCH  32  36
HETATM   36  N5  UNL     1      10.501   9.202 -48.093  1.00  0.00    -0.342 N 
ATOM     37  H52 UNL     1      11.214   9.072 -47.374  1.00  0.00     0.176 HD
ATOM     38  H51 UNL     1      10.645   8.862 -49.044  1.00  0.00     0.176 HD
ENDBRANCH  32  36
ENDBRANCH  25  26
ENDBRANCH  24  25
ENDBRANCH  23  24
ENDBRANCH  22  23
ENDBRANCH  17  22
ENDBRANCH  16  17
ENDBRANCH   3  16
BRANCH   5  39
HETATM   39  N8  UNL     1       3.275   3.227 -49.690  1.00  0.00    -0.345 N 
ATOM     40  H82 UNL     1       3.144   2.845 -48.753  1.00  0.00     0.176 HD
ATOM     41  H81 UNL     1       4.049   2.879 -50.258  1.00  0.00     0.176 HD
ENDBRANCH   5  39
TORSDOF 11
ENDMDL
MODEL 3
REMARK VINA RESULT: -8.300836579      4.478      5.854
REMARK  11 active torsions:
REMARK  status: ('A' for Active; 'I' for Inactive)
REMARK    1  A    between atoms: C3_3  and  C4_4 
REMARK    2  A    between atoms: C4_4  and  S1_5 
REMARK    3  A    between atoms: S1_5  and  N1_6 
REMARK    4  A    between atoms: S1_5  and  C5_10 
REMARK    5  A    between atoms: C5_10  and  C6_11 
REMARK    6  A    between atoms: C6_11  and  C7_12 
REMARK    7  A    between atoms: C7_12  and  C8_13 
REMARK    8  A    between atoms: C8_13  and  C9_14 
REMARK    9  A    between atoms: N4_20  and  N5_22 
REMARK   10  A    between atoms: N7_28  and  N8_30 
REMARK   11  A    between atoms: C12_33  and  N9_34 
ROOT
HETATM    1  C1  UNL     1      -1.598   5.877 -48.242  1.00  0.00     0.053 C 
HETATM    2  C2  UNL     1      -0.767   4.903 -49.012  1.00  0.00    -0.003 C 
HETATM    3  C3  UNL     1       0.569   4.909 -49.134  1.00  0.00    -0.008 C 
HETATM    4  C11 UNL     1       0.990   3.799 -49.964  1.00  0.00     0.091 C 
HETATM    5  N7  UNL     1       2.118   3.615 -50.559  1.00  0.00    -0.307 N 
ATOM      6  H7  UNL     1       2.835   4.332 -50.448  1.00  0.00     0.186 HD
HETATM    7  C12 UNL     1      -0.164   2.866 -50.013  1.00  0.00     0.317 C 
HETATM    8  C13 UNL     1      -0.305   2.220 -51.317  1.00  0.00     0.114 C 
HETATM    9  N10 UNL     1      -0.437   1.710 -52.352  1.00  0.00    -0.194 NA
HETATM   10  C14 UNL     1      -1.301   3.794 -49.750  1.00  0.00     0.212 C 
HETATM   11  O2  UNL     1      -2.477   3.557 -50.145  1.00  0.00    -0.288 OA
ENDROOT
BRANCH   7  12
HETATM   12  N9  UNL     1      -0.132   1.908 -48.932  1.00  0.00    -0.044 N 
ATOM     13  H93 UNL     1       0.545   1.167 -49.113  1.00  0.00     0.277 HD
ATOM     14  H92 UNL     1       0.289   2.310 -48.094  1.00  0.00     0.277 HD
ATOM     15  H91 UNL     1      -1.056   1.525 -48.734  1.00  0.00     0.277 HD
ENDBRANCH   7  12
BRANCH   3  16
HETATM   16  C4  UNL     1       1.442   5.914 -48.502  1.00  0.00     0.158 C 
BRANCH  16  17
HETATM   17  S1  UNL     1       1.656   7.379 -49.468  1.00  0.00     0.023 S 
HETATM   18  O1  UNL     1       0.507   8.311 -49.406  1.00  0.00    -0.250 OA
BRANCH  17  19
HETATM   19  N1  UNL     1       1.886   7.028 -50.980  1.00  0.00    -0.360 N 
ATOM     20  H12 UNL     1       2.786   6.738 -51.363  1.00  0.00     0.165 HD
ATOM     21  H11 UNL     1       1.023   7.129 -51.515  1.00  0.00     0.165 HD
ENDBRANCH  17  19
BRANCH  17  22
HETATM   22  C5  UNL     1       3.080   8.238 -48.827  1.00  0.00     0.117 C 
BRANCH  22  23
HETATM   23  C6  UNL     1       4.282   7.320 -48.952  1.00  0.00     0.013 C 
BRANCH  23  24
HETATM   24  C7  UNL     1       5.290   7.590 -47.859  1.00  0.00     0.005 C 
BRANCH  24  25
HETATM   25  C8  UNL     1       5.541   9.057 -47.730  1.00  0.00     0.048 C 
BRANCH  25  26
HETATM   26  C9  UNL     1       6.609   9.565 -48.680  1.00  0.00     0.200 A 
HETATM   27  N2  UNL     1       7.141  10.828 -48.274  1.00  0.00    -0.310 N 
HETATM   28  N3  UNL     1       8.380  10.744 -48.083  1.00  0.00    -0.273 N 
ATOM     29  H2  UNL     1       6.592  11.679 -48.155  1.00  0.00     0.182 HD
HETATM   30  C10 UNL     1       8.881   9.447 -48.322  1.00  0.00     0.210 A 
ATOM     31  H3  UNL     1       8.961  11.528 -47.787  1.00  0.00     0.189 HD
HETATM   32  N4  UNL     1      10.100   9.001 -48.226  1.00  0.00    -0.277 N 
HETATM   33  N6  UNL     1       7.752   8.680 -48.707  1.00  0.00    -0.338 N 
ATOM     34  H4  UNL     1      10.304   8.024 -48.436  1.00  0.00     0.189 HD
ATOM     35  H6  UNL     1       7.747   7.690 -48.956  1.00  0.00     0.164 HD
BRANCH  32  36
HETATM   36  N5  UNL     1      11.126   9.862 -47.836  1.00  0.00    -0.342 N 
ATOM     37  H52 UNL     1      11.607  10.414 -48.546  1.00  0.00     0.176 HD
ATOM     38  H51 UNL     1      11.384   9.931 -46.851  1.00  0.00     0.176 HD
ENDBRANCH  32  36
ENDBRANCH  25  26
ENDBRANCH  24  25
ENDBRANCH  23  24
ENDBRANCH  22  23
ENDBRANCH  17  22
ENDBRANCH  16  17
ENDBRANCH   3  16
BRANCH   5  39
HETATM   39  N8  UNL     1       2.420   2.525 -51.327  1.00  0.00    -0.345 N 
ATOM     40  H82 UNL     1       3.264   2.585 -51.897  1.00  0.00     0.176 HD
ATOM     41  H81 UNL     1       1.862   1.671 -51.363  1.00  0.00     0.176 HD
ENDBRANCH   5  39
TORSDOF 11
ENDMDL
MODEL 4
REMARK VINA RESULT: -8.297438869      3.481      5.952
REMARK  11 active torsions:
REMARK  status: ('A' for Active; 'I' for Inactive)
REMARK    1  A    between atoms: C3_3  and  C4_4 
REMARK    2  A    between atoms: C4_4  and  S1_5 
REMARK    3  A    between atoms: S1_5  and  N1_6 
REMARK    4  A    between atoms: S1_5  and  C5_10 
REMARK    5  A    between atoms: C5_10  and  C6_11 
REMARK    6  A    between atoms: C6_11  and  C7_12 
REMARK    7  A    between atoms: C7_12  and  C8_13 
REMARK    8  A    between atoms: C8_13  and  C9_14 
REMARK    9  A    between atoms: N4_20  and  N5_22 
REMARK   10  A    between atoms: N7_28  and  N8_30 
REMARK   11  A    between atoms: C12_33  and  N9_34 
ROOT
HETATM    1  C1  UNL     1      -2.373   5.664 -49.524  1.00  0.00     0.053 C 
HETATM    2  C2  UNL     1      -1.039   5.005 -49.396  1.00  0.00    -0.003 C 
HETATM    3  C3  UNL     1       0.110   5.401 -49.963  1.00  0.00    -0.008 C 
HETATM    4  C11 UNL     1       1.177   4.493 -49.595  1.00  0.00     0.091 C 
HETATM    5  N7  UNL     1       2.333   4.340 -50.141  1.00  0.00    -0.307 N 
ATOM      6  H7  UNL     1       2.560   4.925 -50.945  1.00  0.00     0.186 HD
HETATM    7  C12 UNL     1       0.678   3.732 -48.422  1.00  0.00     0.317 C 
HETATM    8  C13 UNL     1       1.127   2.341 -48.426  1.00  0.00     0.114 C 
HETATM    9  N10 UNL     1       1.464   1.231 -48.425  1.00  0.00    -0.194 NA
HETATM   10  C14 UNL     1      -0.796   3.820 -48.622  1.00  0.00     0.212 C 
HETATM   11  O2  UNL     1      -1.598   2.960 -48.159  1.00  0.00    -0.288 OA
ENDROOT
BRANCH   7  12
HETATM   12  N9  UNL     1       0.982   4.398 -47.176  1.00  0.00    -0.044 N 
ATOM     13  H93 UNL     1       0.180   4.926 -46.832  1.00  0.00     0.277 HD
ATOM     14  H92 UNL     1       1.074   3.729 -46.412  1.00  0.00     0.277 HD
ATOM     15  H91 UNL     1       1.809   4.991 -47.252  1.00  0.00     0.277 HD
ENDBRANCH   7  12
BRANCH   3  16
HETATM   16  C4  UNL     1       0.226   6.589 -50.828  1.00  0.00     0.158 C 
BRANCH  16  17
HETATM   17  S1  UNL     1       0.451   8.098 -49.936  1.00  0.00     0.023 S 
HETATM   18  O1  UNL     1      -0.779   8.596 -49.278  1.00  0.00    -0.250 OA
BRANCH  17  19
HETATM   19  N1  UNL     1       0.964   9.240 -50.882  1.00  0.00    -0.360 N 
ATOM     20  H12 UNL     1       0.624  10.202 -50.845  1.00  0.00     0.165 HD
ATOM     21  H11 UNL     1       1.672   8.890 -51.528  1.00  0.00     0.165 HD
ENDBRANCH  17  19
BRANCH  17  22
HETATM   22  C5  UNL     1       1.656   7.790 -48.659  1.00  0.00     0.117 C 
BRANCH  22  23
HETATM   23  C6  UNL     1       3.033   7.807 -49.294  1.00  0.00     0.013 C 
BRANCH  23  24
HETATM   24  C7  UNL     1       4.079   8.288 -48.315  1.00  0.00     0.005 C 
BRANCH  24  25
HETATM   25  C8  UNL     1       5.304   7.436 -48.399  1.00  0.00     0.048 C 
BRANCH  25  26
HETATM   26  C9  UNL     1       6.563   8.230 -48.694  1.00  0.00     0.200 A 
HETATM   27  N2  UNL     1       6.293   9.421 -49.436  1.00  0.00    -0.310 N 
HETATM   28  N3  UNL     1       6.677  10.434 -48.800  1.00  0.00    -0.273 N 
ATOM     29  H2  UNL     1       5.849   9.445 -50.355  1.00  0.00     0.182 HD
HETATM   30  C10 UNL     1       7.255  10.108 -47.556  1.00  0.00     0.210 A 
ATOM     31  H3  UNL     1       6.580  11.389 -49.146  1.00  0.00     0.189 HD
HETATM   32  N4  UNL     1       7.755  10.893 -46.646  1.00  0.00    -0.277 N 
HETATM   33  N6  UNL     1       7.189   8.694 -47.476  1.00  0.00    -0.338 N 
ATOM     34  H4  UNL     1       8.141  10.499 -45.788  1.00  0.00     0.189 HD
ATOM     35  H6  UNL     1       7.519   8.113 -46.704  1.00  0.00     0.164 HD
BRANCH  32  36
HETATM   36  N5  UNL     1       7.761  12.274 -46.846  1.00  0.00    -0.342 N 
ATOM     37  H52 UNL     1       7.718  12.893 -46.036  1.00  0.00     0.176 HD
ATOM     38  H51 UNL     1       7.809  12.649 -47.794  1.00  0.00     0.176 HD
ENDBRANCH  32  36
ENDBRANCH  25  26
ENDBRANCH  24  25
ENDBRANCH  23  24
ENDBRANCH  22  23
ENDBRANCH  17  22
ENDBRANCH  16  17
ENDBRANCH   3  16
BRANCH   5  39
HETATM   39  N8  UNL     1       3.279   3.448 -49.715  1.00  0.00    -0.345 N 
ATOM     40  H82 UNL     1       3.995   3.182 -50.391  1.00  0.00     0.176 HD
ATOM     41  H81 UNL     1       3.309   3.040 -48.780  1.00  0.00     0.176 HD
ENDBRANCH   5  39
TORSDOF 11
ENDMDL
MODEL 5
REMARK VINA RESULT: -8.252414533      1.209      1.721
REMARK  11 active torsions:
REMARK  status: ('A' for Active; 'I' for Inactive)
REMARK    1  A    between atoms: C3_3  and  C4_4 
REMARK    2  A    between atoms: C4_4  and  S1_5 
REMARK    3  A    between atoms: S1_5  and  N1_6 
REMARK    4  A    between atoms: S1_5  and  C5_10 
REMARK    5  A    between atoms: C5_10  and  C6_11 
REMARK    6  A    between atoms: C6_11  and  C7_12 
REMARK    7  A    between atoms: C7_12  and  C8_13 
REMARK    8  A    between atoms: C8_13  and  C9_14 
REMARK    9  A    between atoms: N4_20  and  N5_22 
REMARK   10  A    between atoms: N7_28  and  N8_30 
REMARK   11  A    between atoms: C12_33  and  N9_34 
ROOT
HETATM    1  C1  UNL     1      -4.025   7.556 -51.944  1.00  0.00     0.053 C 
HETATM    2  C2  UNL     1      -3.277   8.736 -52.472  1.00  0.00    -0.003 C 
HETATM    3  C3  UNL     1      -2.291   9.403 -51.854  1.00  0.00    -0.008 C 
HETATM    4  C11 UNL     1      -1.826  10.485 -52.698  1.00  0.00     0.091 C 
HETATM    5  N7  UNL     1      -1.124  11.516 -52.378  1.00  0.00    -0.307 N 
ATOM      6  H7  UNL     1      -0.838  11.612 -51.404  1.00  0.00     0.186 HD
HETATM    7  C12 UNL     1      -2.330  10.182 -54.061  1.00  0.00     0.317 C 
HETATM    8  C13 UNL     1      -2.719  11.387 -54.792  1.00  0.00     0.114 C 
HETATM    9  N10 UNL     1      -3.045  12.334 -55.380  1.00  0.00    -0.194 NA
HETATM   10  C14 UNL     1      -3.517   9.336 -53.753  1.00  0.00     0.212 C 
HETATM   11  O2  UNL     1      -4.502   9.233 -54.539  1.00  0.00    -0.288 OA
ENDROOT
BRANCH   7  12
HETATM   12  N9  UNL     1      -1.404   9.366 -54.811  1.00  0.00    -0.044 N 
ATOM     13  H93 UNL     1      -0.983   9.891 -55.578  1.00  0.00     0.277 HD
ATOM     14  H92 UNL     1      -0.562   9.169 -54.270  1.00  0.00     0.277 HD
ATOM     15  H91 UNL     1      -1.838   8.505 -55.147  1.00  0.00     0.277 HD
ENDBRANCH   7  12
BRANCH   3  16
HETATM   16  C4  UNL     1      -1.784   9.054 -50.515  1.00  0.00     0.158 C 
BRANCH  16  17
HETATM   17  S1  UNL     1      -0.232   8.208 -50.539  1.00  0.00     0.023 S 
HETATM   18  O1  UNL     1       0.915   9.047 -50.124  1.00  0.00    -0.250 OA
BRANCH  17  19
HETATM   19  N1  UNL     1       0.089   7.662 -51.975  1.00  0.00    -0.360 N 
ATOM     20  H12 UNL     1       0.554   6.771 -52.150  1.00  0.00     0.165 HD
ATOM     21  H11 UNL     1      -0.228   8.313 -52.693  1.00  0.00     0.165 HD
ENDBRANCH  17  19
BRANCH  17  22
HETATM   22  C5  UNL     1      -0.347   6.849 -49.391  1.00  0.00     0.117 C 
BRANCH  22  23
HETATM   23  C6  UNL     1      -0.184   5.557 -50.170  1.00  0.00     0.013 C 
BRANCH  23  24
HETATM   24  C7  UNL     1       1.145   4.903 -49.870  1.00  0.00     0.005 C 
BRANCH  24  25
HETATM   25  C8  UNL     1       1.971   5.778 -48.984  1.00  0.00     0.048 C 
BRANCH  25  26
HETATM   26  C9  UNL     1       3.319   6.129 -49.583  1.00  0.00     0.200 A 
HETATM   27  N2  UNL     1       3.244   7.241 -50.478  1.00  0.00    -0.310 N 
HETATM   28  N3  UNL     1       3.990   8.173 -50.087  1.00  0.00    -0.273 N 
ATOM     29  H2  UNL     1       2.665   7.272 -51.317  1.00  0.00     0.182 HD
HETATM   30  C10 UNL     1       4.676   7.859 -48.896  1.00  0.00     0.210 A 
ATOM     31  H3  UNL     1       4.087   9.062 -50.578  1.00  0.00     0.189 HD
HETATM   32  N4  UNL     1       5.521   8.577 -48.214  1.00  0.00    -0.277 N 
HETATM   33  N6  UNL     1       4.254   6.546 -48.561  1.00  0.00    -0.338 N 
ATOM     34  H4  UNL     1       5.938   8.204 -47.362  1.00  0.00     0.189 HD
ATOM     35  H6  UNL     1       4.554   6.001 -47.753  1.00  0.00     0.164 HD
BRANCH  32  36
HETATM   36  N5  UNL     1       5.855   9.859 -48.652  1.00  0.00    -0.342 N 
ATOM     37  H52 UNL     1       6.664   9.980 -49.262  1.00  0.00     0.176 HD
ATOM     38  H51 UNL     1       5.291  10.658 -48.362  1.00  0.00     0.176 HD
ENDBRANCH  32  36
ENDBRANCH  25  26
ENDBRANCH  24  25
ENDBRANCH  23  24
ENDBRANCH  22  23
ENDBRANCH  17  22
ENDBRANCH  16  17
ENDBRANCH   3  16
BRANCH   5  39
HETATM   39  N8  UNL     1      -0.735  12.490 -53.256  1.00  0.00    -0.345 N 
ATOM     40  H82 UNL     1      -0.645  12.216 -54.234  1.00  0.00     0.176 HD
ATOM     41  H81 UNL     1      -0.534  13.456 -52.995  1.00  0.00     0.176 HD
ENDBRANCH   5  39
TORSDOF 11
ENDMDL
