MODEL 1
REMARK VINA RESULT: -6.137085438      0.000      0.000
REMARK  9 active torsions:
REMARK  status: ('A' for Active; 'I' for Inactive)
REMARK    1  A    between atoms: N1_2  and  N2_3 
REMARK    2  A    between atoms: N1_2  and  S1_29 
REMARK    3  A    between atoms: N3_5  and  C2_7 
REMARK    4  A    between atoms: C3_8  and  N4_9 
REMARK    5  A    between atoms: N4_9  and  C4_11 
REMARK    6  A    between atoms: C4_11  and  C5_12 
REMARK    7  A    between atoms: C5_12  and  O1_13 
REMARK    8  A    between atoms: C6_15  and  C7_16 
REMARK    9  A    between atoms: S1_29  and  N8_30 
ROOT
HETATM    1  C2  UNL     1       0.089   4.929 -49.191  1.00  0.00     0.145 A 
HETATM    2  C3  UNL     1       0.749   6.080 -49.547  1.00  0.00     0.079 A 
HETATM    3  C6  UNL     1       0.096   7.317 -49.496  1.00  0.00     0.081 A 
HETATM    4  C8  UNL     1      -1.245   7.307 -49.074  1.00  0.00     0.036 A 
HETATM    5  N6  UNL     1      -1.831   6.142 -48.742  1.00  0.00    -0.290 N 
HETATM    6  C9  UNL     1      -1.216   4.946 -48.783  1.00  0.00     0.280 A 
HETATM    7  O3  UNL     1      -1.833   3.888 -48.452  1.00  0.00    -0.265 OA
HETATM    8  C10 UNL     1      -3.211   6.111 -48.304  1.00  0.00     0.364 C 
HETATM    9  N7  UNL     1      -3.543   7.362 -47.704  1.00  0.00    -0.059 N 
ATOM     10  H71 UNL     1      -2.973   7.545 -46.877  1.00  0.00     0.279 HD
ATOM     11  H72 UNL     1      -4.460   7.335 -47.259  1.00  0.00     0.279 HD
HETATM   12  C11 UNL     1      -3.450   8.444 -48.667  1.00  0.00     0.240 C 
HETATM   13  C12 UNL     1      -1.970   8.584 -49.019  1.00  0.00     0.086 C 
ENDROOT
BRANCH   1  14
HETATM   14  N3  UNL     1       0.774   3.677 -49.228  1.00  0.00    -0.278 N 
HETATM   15  N2  UNL     1       1.162   3.086 -48.166  1.00  0.00    -0.230 N 
ATOM     16  H2  UNL     1       0.999   3.486 -47.241  1.00  0.00     0.209 HD
ATOM     17  H3  UNL     1       0.958   3.241 -50.131  1.00  0.00     0.189 HD
BRANCH  15  18
HETATM   18  N1  UNL     1       1.821   1.867 -48.329  1.00  0.00    -0.192 N 
HETATM   19  C1  UNL     1       1.594   0.834 -47.350  1.00  0.00     0.194 C 
BRANCH  18  20
HETATM   20  S1  UNL     1       2.869   1.644 -49.675  1.00  0.00     0.333 S 
HETATM   21  O4  UNL     1       3.438   2.967 -50.102  1.00  0.00    -0.181 OA
HETATM   22  O5  UNL     1       2.082   0.981 -50.760  1.00  0.00    -0.181 OA
BRANCH  20  23
HETATM   23  N8  UNL     1       4.202   0.657 -49.185  1.00  0.00    -0.310 N 
ATOM     24  H82 UNL     1       4.279   0.188 -48.282  1.00  0.00     0.170 HD
ATOM     25  H81 UNL     1       4.884   0.626 -49.943  1.00  0.00     0.170 HD
ENDBRANCH  20  23
ENDBRANCH  18  20
ENDBRANCH  15  18
ENDBRANCH   1  14
BRANCH   2  26
HETATM   26  N4  UNL     1       2.096   5.950 -49.960  1.00  0.00    -0.385 N 
ATOM     27  H4  UNL     1       2.284   5.791 -50.950  1.00  0.00     0.159 HD
BRANCH  26  28
HETATM   28  C4  UNL     1       3.214   6.030 -49.058  1.00  0.00     0.146 C 
BRANCH  28  29
HETATM   29  C5  UNL     1       4.235   7.022 -49.441  1.00  0.00     0.183 C 
BRANCH  29  30
HETATM   30  O1  UNL     1       3.837   8.032 -50.264  1.00  0.00    -0.399 OA
ATOM     31  H1  UNL     1       4.458   8.321 -50.922  1.00  0.00     0.209 HD
ENDBRANCH  29  30
ENDBRANCH  28  29
ENDBRANCH  26  28
ENDBRANCH   2  26
BRANCH   3  32
HETATM   32  C7  UNL     1       0.846   8.501 -49.775  1.00  0.00     0.269 C 
HETATM   33  N5  UNL     1       0.982   9.124 -51.029  1.00  0.00    -0.057 NA
HETATM   34  O2  UNL     1       1.476   9.094 -48.823  1.00  0.00    -0.271 OA
ENDBRANCH   3  32
TORSDOF 9
ENDMDL
MODEL 2
REMARK VINA RESULT: -6.036476079      3.213      5.438
REMARK  9 active torsions:
REMARK  status: ('A' for Active; 'I' for Inactive)
REMARK    1  A    between atoms: N1_2  and  N2_3 
REMARK    2  A    between atoms: N1_2  and  S1_29 
REMARK    3  A    between atoms: N3_5  and  C2_7 
REMARK    4  A    between atoms: C3_8  and  N4_9 
REMARK    5  A    between atoms: N4_9  and  C4_11 
REMARK    6  A    between atoms: C4_11  and  C5_12 
REMARK    7  A    between atoms: C5_12  and  O1_13 
REMARK    8  A    between atoms: C6_15  and  C7_16 
REMARK    9  A    between atoms: S1_29  and  N8_30 
ROOT
HETATM    1  C2  UNL     1       2.285   6.944 -49.014  1.00  0.00     0.145 A 
HETATM    2  C3  UNL     1       1.894   5.628 -49.059  1.00  0.00     0.079 A 
HETATM    3  C6  UNL     1       0.535   5.292 -49.079  1.00  0.00     0.081 A 
HETATM    4  C8  UNL     1      -0.381   6.358 -49.045  1.00  0.00     0.036 A 
HETATM    5  N6  UNL     1       0.072   7.624 -49.000  1.00  0.00    -0.290 N 
HETATM    6  C9  UNL     1       1.373   7.964 -48.982  1.00  0.00     0.280 A 
HETATM    7  O3  UNL     1       1.725   9.182 -48.941  1.00  0.00    -0.265 OA
HETATM    8  C10 UNL     1      -0.856   8.736 -48.966  1.00  0.00     0.364 C 
HETATM    9  N7  UNL     1      -2.073   8.353 -49.605  1.00  0.00    -0.059 N 
ATOM     10  H71 UNL     1      -1.924   8.121 -50.588  1.00  0.00     0.279 HD
ATOM     11  H72 UNL     1      -2.700   9.148 -49.726  1.00  0.00     0.279 HD
HETATM   12  C11 UNL     1      -2.719   7.268 -48.891  1.00  0.00     0.240 C 
HETATM   13  C12 UNL     1      -1.817   6.046 -49.054  1.00  0.00     0.086 C 
ENDROOT
BRANCH   1  14
HETATM   14  N3  UNL     1       3.673   7.273 -49.014  1.00  0.00    -0.278 N 
HETATM   15  N2  UNL     1       4.179   8.075 -48.160  1.00  0.00    -0.230 N 
ATOM     16  H2  UNL     1       3.609   8.516 -47.437  1.00  0.00     0.209 HD
ATOM     17  H3  UNL     1       4.281   6.855 -49.718  1.00  0.00     0.189 HD
BRANCH  15  18
HETATM   18  N1  UNL     1       5.549   8.319 -48.260  1.00  0.00    -0.192 N 
HETATM   19  C1  UNL     1       6.097   8.598 -49.564  1.00  0.00     0.194 C 
BRANCH  18  20
HETATM   20  S1  UNL     1       6.524   8.277 -46.843  1.00  0.00     0.333 S 
HETATM   21  O4  UNL     1       7.136   6.915 -46.687  1.00  0.00    -0.181 OA
HETATM   22  O5  UNL     1       5.658   8.655 -45.684  1.00  0.00    -0.181 OA
BRANCH  20  23
HETATM   23  N8  UNL     1       7.829   9.397 -47.032  1.00  0.00    -0.310 N 
ATOM     24  H82 UNL     1       8.760   9.155 -47.374  1.00  0.00     0.170 HD
ATOM     25  H81 UNL     1       7.510  10.323 -46.749  1.00  0.00     0.170 HD
ENDBRANCH  20  23
ENDBRANCH  18  20
ENDBRANCH  15  18
ENDBRANCH   1  14
BRANCH   2  26
HETATM   26  N4  UNL     1       2.918   4.651 -49.083  1.00  0.00    -0.385 N 
ATOM     27  H4  UNL     1       3.525   4.569 -48.267  1.00  0.00     0.159 HD
BRANCH  26  28
HETATM   28  C4  UNL     1       3.146   3.768 -50.195  1.00  0.00     0.146 C 
BRANCH  28  29
HETATM   29  C5  UNL     1       3.379   2.362 -49.817  1.00  0.00     0.183 C 
BRANCH  29  30
HETATM   30  O1  UNL     1       3.099   2.014 -48.531  1.00  0.00    -0.399 OA
ATOM     31  H1  UNL     1       3.680   1.385 -48.119  1.00  0.00     0.209 HD
ENDBRANCH  29  30
ENDBRANCH  28  29
ENDBRANCH  26  28
ENDBRANCH   2  26
BRANCH   3  32
HETATM   32  C7  UNL     1       0.170   3.918 -49.230  1.00  0.00     0.269 C 
HETATM   33  N5  UNL     1      -0.354   3.318 -50.390  1.00  0.00    -0.057 NA
HETATM   34  O2  UNL     1       0.315   3.110 -48.241  1.00  0.00    -0.271 OA
ENDBRANCH   3  32
TORSDOF 9
ENDMDL
MODEL 3
REMARK VINA RESULT: -6.029891968      6.932      9.388
REMARK  9 active torsions:
REMARK  status: ('A' for Active; 'I' for Inactive)
REMARK    1  A    between atoms: N1_2  and  N2_3 
REMARK    2  A    between atoms: N1_2  and  S1_29 
REMARK    3  A    between atoms: N3_5  and  C2_7 
REMARK    4  A    between atoms: C3_8  and  N4_9 
REMARK    5  A    between atoms: N4_9  and  C4_11 
REMARK    6  A    between atoms: C4_11  and  C5_12 
REMARK    7  A    between atoms: C5_12  and  O1_13 
REMARK    8  A    between atoms: C6_15  and  C7_16 
REMARK    9  A    between atoms: S1_29  and  N8_30 
ROOT
HETATM    1  C2  UNL     1      -4.193   9.646 -54.535  1.00  0.00     0.145 A 
HETATM    2  C3  UNL     1      -3.497   9.108 -53.480  1.00  0.00     0.079 A 
HETATM    3  C6  UNL     1      -2.413   9.795 -52.919  1.00  0.00     0.081 A 
HETATM    4  C8  UNL     1      -2.087  11.036 -53.494  1.00  0.00     0.036 A 
HETATM    5  N6  UNL     1      -2.810  11.503 -54.528  1.00  0.00    -0.290 N 
HETATM    6  C9  UNL     1      -3.855  10.856 -55.075  1.00  0.00     0.280 A 
HETATM    7  O3  UNL     1      -4.492  11.361 -56.049  1.00  0.00    -0.265 OA
HETATM    8  C10 UNL     1      -2.490  12.780 -55.132  1.00  0.00     0.364 C 
HETATM    9  N7  UNL     1      -1.867  13.618 -54.159  1.00  0.00    -0.059 N 
ATOM     10  H71 UNL     1      -2.490  13.809 -53.374  1.00  0.00     0.279 HD
ATOM     11  H72 UNL     1      -1.752  14.571 -54.503  1.00  0.00     0.279 HD
HETATM   12  C11 UNL     1      -0.606  13.055 -53.715  1.00  0.00     0.240 C 
HETATM   13  C12 UNL     1      -0.948  11.783 -52.942  1.00  0.00     0.086 C 
ENDROOT
BRANCH   1  14
HETATM   14  N3  UNL     1      -5.308   8.944 -55.083  1.00  0.00    -0.278 N 
HETATM   15  N2  UNL     1      -5.388   8.666 -56.326  1.00  0.00    -0.230 N 
ATOM     16  H2  UNL     1      -4.655   8.935 -56.983  1.00  0.00     0.209 HD
ATOM     17  H3  UNL     1      -6.064   8.656 -54.463  1.00  0.00     0.189 HD
BRANCH  15  18
HETATM   18  N1  UNL     1      -6.526   7.976 -56.744  1.00  0.00    -0.192 N 
HETATM   19  C1  UNL     1      -7.403   8.619 -57.690  1.00  0.00     0.194 C 
BRANCH  18  20
HETATM   20  S1  UNL     1      -6.840   6.403 -56.121  1.00  0.00     0.333 S 
HETATM   21  O4  UNL     1      -8.318   6.216 -55.931  1.00  0.00    -0.181 OA
HETATM   22  O5  UNL     1      -6.074   6.257 -54.845  1.00  0.00    -0.181 OA
BRANCH  20  23
HETATM   23  N8  UNL     1      -6.330   5.231 -57.288  1.00  0.00    -0.310 N 
ATOM     24  H82 UNL     1      -6.521   5.284 -58.289  1.00  0.00     0.170 HD
ATOM     25  H81 UNL     1      -5.815   4.493 -56.807  1.00  0.00     0.170 HD
ENDBRANCH  20  23
ENDBRANCH  18  20
ENDBRANCH  15  18
ENDBRANCH   1  14
BRANCH   2  26
HETATM   26  N4  UNL     1      -3.926   7.847 -53.000  1.00  0.00    -0.385 N 
ATOM     27  H4  UNL     1      -3.575   7.010 -53.465  1.00  0.00     0.159 HD
BRANCH  26  28
HETATM   28  C4  UNL     1      -4.829   7.684 -51.893  1.00  0.00     0.146 C 
BRANCH  28  29
HETATM   29  C5  UNL     1      -4.392   6.695 -50.891  1.00  0.00     0.183 C 
BRANCH  29  30
HETATM   30  O1  UNL     1      -3.052   6.478 -50.782  1.00  0.00    -0.399 OA
ATOM     31  H1  UNL     1      -2.724   5.643 -51.097  1.00  0.00     0.209 HD
ENDBRANCH  29  30
ENDBRANCH  28  29
ENDBRANCH  26  28
ENDBRANCH   2  26
BRANCH   3  32
HETATM   32  C7  UNL     1      -1.781   9.250 -51.759  1.00  0.00     0.269 C 
HETATM   33  N5  UNL     1      -0.663   8.397 -51.743  1.00  0.00    -0.057 NA
HETATM   34  O2  UNL     1      -2.240   9.536 -50.592  1.00  0.00    -0.271 OA
ENDBRANCH   3  32
TORSDOF 9
ENDMDL
MODEL 4
REMARK VINA RESULT: -6.006590614      5.255      7.108
REMARK  9 active torsions:
REMARK  status: ('A' for Active; 'I' for Inactive)
REMARK    1  A    between atoms: N1_2  and  N2_3 
REMARK    2  A    between atoms: N1_2  and  S1_29 
REMARK    3  A    between atoms: N3_5  and  C2_7 
REMARK    4  A    between atoms: C3_8  and  N4_9 
REMARK    5  A    between atoms: N4_9  and  C4_11 
REMARK    6  A    between atoms: C4_11  and  C5_12 
REMARK    7  A    between atoms: C5_12  and  O1_13 
REMARK    8  A    between atoms: C6_15  and  C7_16 
REMARK    9  A    between atoms: S1_29  and  N8_30 
ROOT
HETATM    1  C2  UNL     1      -3.026   9.237 -52.684  1.00  0.00     0.145 A 
HETATM    2  C3  UNL     1      -2.169  10.308 -52.754  1.00  0.00     0.079 A 
HETATM    3  C6  UNL     1      -2.202  11.173 -53.854  1.00  0.00     0.081 A 
HETATM    4  C8  UNL     1      -3.138  10.880 -54.861  1.00  0.00     0.036 A 
HETATM    5  N6  UNL     1      -3.946   9.812 -54.730  1.00  0.00    -0.290 N 
HETATM    6  C9  UNL     1      -3.930   8.974 -53.677  1.00  0.00     0.280 A 
HETATM    7  O3  UNL     1      -4.725   7.987 -53.622  1.00  0.00    -0.265 OA
HETATM    8  C10 UNL     1      -4.919   9.494 -55.755  1.00  0.00     0.364 C 
HETATM    9  N7  UNL     1      -5.294  10.692 -56.435  1.00  0.00    -0.059 N 
ATOM     10  H71 UNL     1      -5.737  11.360 -55.803  1.00  0.00     0.279 HD
ATOM     11  H72 UNL     1      -6.077  10.535 -57.069  1.00  0.00     0.279 HD
HETATM   12  C11 UNL     1      -4.160  11.279 -57.123  1.00  0.00     0.240 C 
HETATM   13  C12 UNL     1      -3.196  11.757 -56.039  1.00  0.00     0.086 C 
ENDROOT
BRANCH   1  14
HETATM   14  N3  UNL     1      -2.996   8.375 -51.547  1.00  0.00    -0.278 N 
HETATM   15  N2  UNL     1      -3.820   8.501 -50.581  1.00  0.00    -0.230 N 
ATOM     16  H2  UNL     1      -4.538   9.225 -50.581  1.00  0.00     0.209 HD
ATOM     17  H3  UNL     1      -2.295   7.636 -51.505  1.00  0.00     0.189 HD
BRANCH  15  18
HETATM   18  N1  UNL     1      -3.692   7.599 -49.524  1.00  0.00    -0.192 N 
HETATM   19  C1  UNL     1      -4.046   8.046 -48.201  1.00  0.00     0.194 C 
BRANCH  18  20
HETATM   20  S1  UNL     1      -3.121   6.006 -49.834  1.00  0.00     0.333 S 
HETATM   21  O4  UNL     1      -1.684   6.056 -50.269  1.00  0.00    -0.181 OA
HETATM   22  O5  UNL     1      -4.012   5.395 -50.867  1.00  0.00    -0.181 OA
BRANCH  20  23
HETATM   23  N8  UNL     1      -3.169   5.101 -48.360  1.00  0.00    -0.310 N 
ATOM     24  H82 UNL     1      -2.482   5.172 -47.609  1.00  0.00     0.170 HD
ATOM     25  H81 UNL     1      -3.990   4.495 -48.374  1.00  0.00     0.170 HD
ENDBRANCH  20  23
ENDBRANCH  18  20
ENDBRANCH  15  18
ENDBRANCH   1  14
BRANCH   2  26
HETATM   26  N4  UNL     1      -1.270  10.486 -51.676  1.00  0.00    -0.385 N 
ATOM     27  H4  UNL     1      -1.531  11.134 -50.932  1.00  0.00     0.159 HD
BRANCH  26  28
HETATM   28  C4  UNL     1      -0.009   9.802 -51.573  1.00  0.00     0.146 C 
BRANCH  28  29
HETATM   29  C5  UNL     1       0.111   8.920 -50.397  1.00  0.00     0.183 C 
BRANCH  29  30
HETATM   30  O1  UNL     1      -0.851   9.033 -49.440  1.00  0.00    -0.399 OA
ATOM     31  H1  UNL     1      -0.963   8.295 -48.852  1.00  0.00     0.209 HD
ENDBRANCH  29  30
ENDBRANCH  28  29
ENDBRANCH  26  28
ENDBRANCH   2  26
BRANCH   3  32
HETATM   32  C7  UNL     1      -1.367  12.332 -53.841  1.00  0.00     0.269 C 
HETATM   33  N5  UNL     1      -0.020  12.394 -54.243  1.00  0.00    -0.057 NA
HETATM   34  O2  UNL     1      -1.843  13.454 -53.429  1.00  0.00    -0.271 OA
ENDBRANCH   3  32
TORSDOF 9
ENDMDL
MODEL 5
REMARK VINA RESULT: -5.998781340      2.674      5.770
REMARK  9 active torsions:
REMARK  status: ('A' for Active; 'I' for Inactive)
REMARK    1  A    between atoms: N1_2  and  N2_3 
REMARK    2  A    between atoms: N1_2  and  S1_29 
REMARK    3  A    between atoms: N3_5  and  C2_7 
REMARK    4  A    between atoms: C3_8  and  N4_9 
REMARK    5  A    between atoms: N4_9  and  C4_11 
REMARK    6  A    between atoms: C4_11  and  C5_12 
REMARK    7  A    between atoms: C5_12  and  O1_13 
REMARK    8  A    between atoms: C6_15  and  C7_16 
REMARK    9  A    between atoms: S1_29  and  N8_30 
ROOT
HETATM    1  C2  UNL     1      -0.481   4.817 -49.167  1.00  0.00     0.145 A 
HETATM    2  C3  UNL     1       0.530   3.987 -49.587  1.00  0.00     0.079 A 
HETATM    3  C6  UNL     1       0.504   2.622 -49.274  1.00  0.00     0.081 A 
HETATM    4  C8  UNL     1      -0.591   2.168 -48.519  1.00  0.00     0.036 A 
HETATM    5  N6  UNL     1      -1.546   3.037 -48.139  1.00  0.00    -0.290 N 
HETATM    6  C9  UNL     1      -1.537   4.350 -48.434  1.00  0.00     0.280 A 
HETATM    7  O3  UNL     1      -2.475   5.109 -48.042  1.00  0.00    -0.265 OA
HETATM    8  C10 UNL     1      -2.683   2.588 -47.362  1.00  0.00     0.364 C 
HETATM    9  N7  UNL     1      -2.933   1.212 -47.646  1.00  0.00    -0.059 N 
ATOM     10  H71 UNL     1      -3.170   1.068 -48.628  1.00  0.00     0.279 HD
ATOM     11  H72 UNL     1      -3.807   0.894 -47.226  1.00  0.00     0.279 HD
HETATM   12  C11 UNL     1      -1.813   0.383 -47.239  1.00  0.00     0.240 C 
HETATM   13  C12 UNL     1      -0.650   0.744 -48.160  1.00  0.00     0.086 C 
ENDROOT
BRANCH   1  14
HETATM   14  N3  UNL     1      -0.452   6.202 -49.510  1.00  0.00    -0.278 N 
HETATM   15  N2  UNL     1      -1.465   6.798 -50.008  1.00  0.00    -0.230 N 
ATOM     16  H2  UNL     1      -2.342   6.307 -50.182  1.00  0.00     0.209 HD
ATOM     17  H3  UNL     1       0.404   6.732 -49.353  1.00  0.00     0.189 HD
BRANCH  15  18
HETATM   18  N1  UNL     1      -1.315   8.154 -50.302  1.00  0.00    -0.192 N 
HETATM   19  C1  UNL     1      -2.398   9.045 -49.971  1.00  0.00     0.194 C 
BRANCH  18  20
HETATM   20  S1  UNL     1       0.137   8.705 -51.042  1.00  0.00     0.333 S 
HETATM   21  O4  UNL     1      -0.153   9.900 -51.902  1.00  0.00    -0.181 OA
HETATM   22  O5  UNL     1       0.714   7.565 -51.817  1.00  0.00    -0.181 OA
BRANCH  20  23
HETATM   23  N8  UNL     1       1.228   9.228 -49.804  1.00  0.00    -0.310 N 
ATOM     24  H82 UNL     1       1.141   8.996 -48.814  1.00  0.00     0.170 HD
ATOM     25  H81 UNL     1       1.958   9.798 -50.231  1.00  0.00     0.170 HD
ENDBRANCH  20  23
ENDBRANCH  18  20
ENDBRANCH  15  18
ENDBRANCH   1  14
BRANCH   2  26
HETATM   26  N4  UNL     1       1.578   4.574 -50.335  1.00  0.00    -0.385 N 
ATOM     27  H4  UNL     1       1.394   4.828 -51.305  1.00  0.00     0.159 HD
BRANCH  26  28
HETATM   28  C4  UNL     1       2.888   4.831 -49.799  1.00  0.00     0.146 C 
BRANCH  28  29
HETATM   29  C5  UNL     1       3.171   6.255 -49.542  1.00  0.00     0.183 C 
BRANCH  29  30
HETATM   30  O1  UNL     1       3.333   7.058 -50.630  1.00  0.00    -0.399 OA
ATOM     31  H1  UNL     1       4.209   7.125 -50.990  1.00  0.00     0.209 HD
ENDBRANCH  29  30
ENDBRANCH  28  29
ENDBRANCH  26  28
ENDBRANCH   2  26
BRANCH   3  32
HETATM   32  C7  UNL     1       1.519   1.775 -49.815  1.00  0.00     0.269 C 
HETATM   33  N5  UNL     1       2.628   1.257 -49.122  1.00  0.00    -0.057 NA
HETATM   34  O2  UNL     1       1.461   1.422 -51.051  1.00  0.00    -0.271 OA
ENDBRANCH   3  32
TORSDOF 9
ENDMDL
