MODEL 1
REMARK VINA RESULT: -8.411512463      0.000      0.000
REMARK  10 active torsions:
REMARK  status: ('A' for Active; 'I' for Inactive)
REMARK    1  A    between atoms: C3_5  and  C4_6 
REMARK    2  A    between atoms: N2_7  and  N3_9 
REMARK       I    between atoms: N3_9  and  C6_11 
REMARK    3  A    between atoms: C6_11  and  O2_13 
REMARK    4  A    between atoms: O2_13  and  C7_14 
REMARK    5  A    between atoms: C7_14  and  C8_15 
REMARK       I    between atoms: C8_15  and  N4_17 
REMARK    6  A    between atoms: N4_17  and  C9_19 
REMARK    7  A    between atoms: C9_19  and  C10_20 
REMARK    8  A    between atoms: C10_20  and  O4_21 
REMARK    9  A    between atoms: O4_21  and  N5_22 
REMARK   10  A    between atoms: C13_30  and  N7_31 
ROOT
HETATM    1  C1  UNL     1       0.667   3.364 -45.390  1.00  0.00     0.089 C 
HETATM    2  C2  UNL     1       0.494   3.119 -46.869  1.00  0.00     0.079 A 
HETATM    3  N1  UNL     1       1.474   3.387 -47.722  1.00  0.00    -0.344 N 
ATOM      4  H1  UNL     1       2.340   3.764 -47.336  1.00  0.00     0.167 HD
HETATM    5  C3  UNL     1       1.420   3.202 -49.073  1.00  0.00     0.070 A 
HETATM    6  C11 UNL     1       0.210   2.689 -49.519  1.00  0.00     0.105 A 
HETATM    7  C12 UNL     1      -0.012   2.444 -50.839  1.00  0.00     0.276 A 
HETATM    8  O5  UNL     1       0.877   2.679 -51.679  1.00  0.00    -0.267 OA
HETATM    9  N6  UNL     1      -1.210   1.942 -51.231  1.00  0.00    -0.155 N 
ATOM     10  H6  UNL     1      -1.348   1.767 -52.227  1.00  0.00     0.187 HD
HETATM   11  C13 UNL     1      -2.219   1.660 -50.407  1.00  0.00     0.680 A 
HETATM   12  N8  UNL     1      -2.026   1.891 -49.104  1.00  0.00    -0.176 N 
ATOM     13  H8  UNL     1      -2.773   1.688 -48.439  1.00  0.00     0.186 HD
HETATM   14  C14 UNL     1      -0.846   2.393 -48.659  1.00  0.00     0.140 A 
HETATM   15  N9  UNL     1      -0.656   2.625 -47.348  1.00  0.00    -0.331 N 
ATOM     16  H9  UNL     1      -1.413   2.418 -46.697  1.00  0.00     0.168 HD
ENDROOT
BRANCH   5  17
HETATM   17  C4  UNL     1       2.551   3.530 -49.904  1.00  0.00     0.138 C 
HETATM   18  N2  UNL     1       2.841   4.730 -50.186  1.00  0.00    -0.304 N 
ATOM     19  H2  UNL     1       3.662   4.847 -50.780  1.00  0.00     0.186 HD
BRANCH  18  20
HETATM   20  N3  UNL     1       2.232   5.876 -49.820  1.00  0.00    -0.241 N 
HETATM   21  C5  UNL     1       0.828   6.159 -50.167  1.00  0.00     0.183 C 
HETATM   22  C6  UNL     1       2.880   6.899 -49.042  1.00  0.00     0.381 C 
HETATM   23  O1  UNL     1       2.328   7.964 -48.698  1.00  0.00    -0.236 OA
BRANCH  22  24
HETATM   24  O2  UNL     1       4.185   6.696 -48.654  1.00  0.00    -0.293 OA
BRANCH  24  25
HETATM   25  C7  UNL     1       5.205   7.635 -48.869  1.00  0.00     0.283 C 
BRANCH  25  26
HETATM   26  C8  UNL     1       5.884   7.910 -47.548  1.00  0.00     0.242 C 
HETATM   27  O3  UNL     1       6.658   7.050 -47.134  1.00  0.00    -0.271 OA
HETATM   28  N4  UNL     1       5.607   9.105 -46.873  1.00  0.00    -0.357 N 
ATOM     29  H4  UNL     1       4.951   9.736 -47.334  1.00  0.00     0.162 HD
BRANCH  28  30
HETATM   30  C9  UNL     1       6.124   9.546 -45.627  1.00  0.00     0.151 C 
BRANCH  30  31
HETATM   31  C10 UNL     1       7.516  10.105 -45.652  1.00  0.00     0.220 C 
BRANCH  31  32
HETATM   32  O4  UNL     1       7.568  11.469 -45.659  1.00  0.00    -0.286 OA
BRANCH  32  33
HETATM   33  N5  UNL     1       7.795  11.958 -46.879  1.00  0.00    -0.311 N 
ATOM     34  H52 UNL     1       8.709  11.926 -47.330  1.00  0.00     0.184 HD
ATOM     35  H51 UNL     1       6.956  12.361 -47.296  1.00  0.00     0.184 HD
ENDBRANCH  32  33
ENDBRANCH  31  32
ENDBRANCH  30  31
ENDBRANCH  28  30
ENDBRANCH  25  26
ENDBRANCH  24  25
ENDBRANCH  22  24
ENDBRANCH  18  20
ENDBRANCH   5  17
BRANCH  11  36
HETATM   36  N7  UNL     1      -3.354   1.176 -50.845  1.00  0.00    -0.234 N 
ATOM     37  H72 UNL     1      -3.756   1.496 -51.727  1.00  0.00     0.174 HD
ATOM     38  H71 UNL     1      -3.875   0.469 -50.325  1.00  0.00     0.174 HD
ENDBRANCH  11  36
TORSDOF 10
ENDMDL
MODEL 2
REMARK VINA RESULT: -7.983108011      1.714      2.343
REMARK  10 active torsions:
REMARK  status: ('A' for Active; 'I' for Inactive)
REMARK    1  A    between atoms: C3_5  and  C4_6 
REMARK    2  A    between atoms: N2_7  and  N3_9 
REMARK       I    between atoms: N3_9  and  C6_11 
REMARK    3  A    between atoms: C6_11  and  O2_13 
REMARK    4  A    between atoms: O2_13  and  C7_14 
REMARK    5  A    between atoms: C7_14  and  C8_15 
REMARK       I    between atoms: C8_15  and  N4_17 
REMARK    6  A    between atoms: N4_17  and  C9_19 
REMARK    7  A    between atoms: C9_19  and  C10_20 
REMARK    8  A    between atoms: C10_20  and  O4_21 
REMARK    9  A    between atoms: O4_21  and  N5_22 
REMARK   10  A    between atoms: C13_30  and  N7_31 
ROOT
HETATM    1  C1  UNL     1       3.619   1.894 -50.132  1.00  0.00     0.089 C 
HETATM    2  C2  UNL     1       2.219   2.368 -49.827  1.00  0.00     0.079 A 
HETATM    3  N1  UNL     1       2.006   3.352 -48.963  1.00  0.00    -0.344 N 
ATOM      4  H1  UNL     1       2.825   3.768 -48.518  1.00  0.00     0.167 HD
HETATM    5  C3  UNL     1       0.785   3.853 -48.618  1.00  0.00     0.070 A 
HETATM    6  C11 UNL     1      -0.276   3.233 -49.264  1.00  0.00     0.105 A 
HETATM    7  C12 UNL     1      -1.563   3.611 -49.035  1.00  0.00     0.276 A 
HETATM    8  O5  UNL     1      -1.814   4.530 -48.233  1.00  0.00    -0.267 OA
HETATM    9  N6  UNL     1      -2.570   2.978 -49.688  1.00  0.00    -0.155 N 
ATOM     10  H6  UNL     1      -3.524   3.283 -49.497  1.00  0.00     0.187 HD
HETATM   11  C13 UNL     1      -2.399   1.986 -50.562  1.00  0.00     0.680 A 
HETATM   12  N8  UNL     1      -1.144   1.596 -50.806  1.00  0.00    -0.176 N 
ATOM     13  H8  UNL     1      -0.969   0.840 -51.468  1.00  0.00     0.186 HD
HETATM   14  C14 UNL     1      -0.100   2.196 -50.178  1.00  0.00     0.140 A 
HETATM   15  N9  UNL     1       1.161   1.800 -50.425  1.00  0.00    -0.331 N 
ATOM     16  H9  UNL     1       1.319   1.043 -51.089  1.00  0.00     0.168 HD
ENDROOT
BRANCH   5  17
HETATM   17  C4  UNL     1       0.675   4.927 -47.664  1.00  0.00     0.138 C 
HETATM   18  N2  UNL     1       0.818   6.137 -48.009  1.00  0.00    -0.304 N 
ATOM     19  H2  UNL     1       0.718   6.816 -47.254  1.00  0.00     0.186 HD
BRANCH  18  20
HETATM   20  N3  UNL     1       1.082   6.666 -49.221  1.00  0.00    -0.241 N 
HETATM   21  C5  UNL     1       0.024   6.887 -50.224  1.00  0.00     0.183 C 
HETATM   22  C6  UNL     1       2.397   7.086 -49.628  1.00  0.00     0.381 C 
HETATM   23  O1  UNL     1       2.654   7.576 -50.747  1.00  0.00    -0.236 OA
BRANCH  22  24
HETATM   24  O2  UNL     1       3.435   6.939 -48.736  1.00  0.00    -0.293 OA
BRANCH  24  25
HETATM   25  C7  UNL     1       4.775   7.180 -49.071  1.00  0.00     0.283 C 
BRANCH  25  26
HETATM   26  C8  UNL     1       5.376   8.078 -48.015  1.00  0.00     0.242 C 
HETATM   27  O3  UNL     1       4.707   9.048 -47.668  1.00  0.00    -0.271 OA
HETATM   28  N4  UNL     1       6.638   7.771 -47.494  1.00  0.00    -0.357 N 
ATOM     29  H4  UNL     1       7.082   6.930 -47.864  1.00  0.00     0.162 HD
BRANCH  28  30
HETATM   30  C9  UNL     1       7.378   8.484 -46.514  1.00  0.00     0.151 C 
BRANCH  30  31
HETATM   31  C10 UNL     1       8.081   9.720 -46.990  1.00  0.00     0.220 C 
BRANCH  31  32
HETATM   32  O4  UNL     1       7.824  10.830 -46.239  1.00  0.00    -0.286 OA
BRANCH  32  33
HETATM   33  N5  UNL     1       7.838  11.947 -46.968  1.00  0.00    -0.311 N 
ATOM     34  H52 UNL     1       8.338  12.027 -47.853  1.00  0.00     0.184 HD
ATOM     35  H51 UNL     1       7.296  12.695 -46.537  1.00  0.00     0.184 HD
ENDBRANCH  32  33
ENDBRANCH  31  32
ENDBRANCH  30  31
ENDBRANCH  28  30
ENDBRANCH  25  26
ENDBRANCH  24  25
ENDBRANCH  22  24
ENDBRANCH  18  20
ENDBRANCH   5  17
BRANCH  11  36
HETATM   36  N7  UNL     1      -3.411   1.412 -51.162  1.00  0.00    -0.234 N 
ATOM     37  H72 UNL     1      -4.369   1.576 -50.850  1.00  0.00     0.174 HD
ATOM     38  H71 UNL     1      -3.282   0.785 -51.957  1.00  0.00     0.174 HD
ENDBRANCH  11  36
TORSDOF 10
ENDMDL
MODEL 3
REMARK VINA RESULT: -7.892152397      1.632      2.046
REMARK  10 active torsions:
REMARK  status: ('A' for Active; 'I' for Inactive)
REMARK    1  A    between atoms: C3_5  and  C4_6 
REMARK    2  A    between atoms: N2_7  and  N3_9 
REMARK       I    between atoms: N3_9  and  C6_11 
REMARK    3  A    between atoms: C6_11  and  O2_13 
REMARK    4  A    between atoms: O2_13  and  C7_14 
REMARK    5  A    between atoms: C7_14  and  C8_15 
REMARK       I    between atoms: C8_15  and  N4_17 
REMARK    6  A    between atoms: N4_17  and  C9_19 
REMARK    7  A    between atoms: C9_19  and  C10_20 
REMARK    8  A    between atoms: C10_20  and  O4_21 
REMARK    9  A    between atoms: O4_21  and  N5_22 
REMARK   10  A    between atoms: C13_30  and  N7_31 
ROOT
HETATM    1  C1  UNL     1       0.731   3.386 -45.398  1.00  0.00     0.089 C 
HETATM    2  C2  UNL     1       0.553   3.162 -46.879  1.00  0.00     0.079 A 
HETATM    3  N1  UNL     1       1.514   3.482 -47.736  1.00  0.00    -0.344 N 
ATOM      4  H1  UNL     1       2.369   3.884 -47.351  1.00  0.00     0.167 HD
HETATM    5  C3  UNL     1       1.453   3.320 -49.090  1.00  0.00     0.070 A 
HETATM    6  C11 UNL     1       0.260   2.770 -49.535  1.00  0.00     0.105 A 
HETATM    7  C12 UNL     1       0.034   2.542 -50.857  1.00  0.00     0.276 A 
HETATM    8  O5  UNL     1       0.905   2.825 -51.700  1.00  0.00    -0.267 OA
HETATM    9  N6  UNL     1      -1.148   2.002 -51.248  1.00  0.00    -0.155 N 
ATOM     10  H6  UNL     1      -1.289   1.841 -52.245  1.00  0.00     0.187 HD
HETATM   11  C13 UNL     1      -2.138   1.667 -50.420  1.00  0.00     0.680 A 
HETATM   12  N8  UNL     1      -1.942   1.881 -49.115  1.00  0.00    -0.176 N 
ATOM     13  H8  UNL     1      -2.674   1.639 -48.447  1.00  0.00     0.186 HD
HETATM   14  C14 UNL     1      -0.776   2.419 -48.671  1.00  0.00     0.140 A 
HETATM   15  N9  UNL     1      -0.583   2.634 -47.358  1.00  0.00    -0.331 N 
ATOM     16  H9  UNL     1      -1.325   2.387 -46.704  1.00  0.00     0.168 HD
ENDROOT
BRANCH   5  17
HETATM   17  C4  UNL     1       2.563   3.705 -49.925  1.00  0.00     0.138 C 
HETATM   18  N2  UNL     1       2.813   4.921 -50.178  1.00  0.00    -0.304 N 
ATOM     19  H2  UNL     1       3.622   5.080 -50.778  1.00  0.00     0.186 HD
BRANCH  18  20
HETATM   20  N3  UNL     1       2.173   6.037 -49.775  1.00  0.00    -0.241 N 
HETATM   21  C5  UNL     1       0.739   6.256 -50.042  1.00  0.00     0.183 C 
HETATM   22  C6  UNL     1       2.815   7.088 -49.030  1.00  0.00     0.381 C 
HETATM   23  O1  UNL     1       2.234   8.126 -48.651  1.00  0.00    -0.236 OA
BRANCH  22  24
HETATM   24  O2  UNL     1       4.147   6.945 -48.716  1.00  0.00    -0.293 OA
BRANCH  24  25
HETATM   25  C7  UNL     1       5.134   7.856 -49.121  1.00  0.00     0.283 C 
BRANCH  25  26
HETATM   26  C8  UNL     1       6.274   7.795 -48.132  1.00  0.00     0.242 C 
HETATM   27  O3  UNL     1       6.089   7.130 -47.115  1.00  0.00    -0.271 OA
HETATM   28  N4  UNL     1       7.461   8.482 -48.414  1.00  0.00    -0.357 N 
ATOM     29  H4  UNL     1       7.484   8.988 -49.300  1.00  0.00     0.162 HD
BRANCH  28  30
HETATM   30  C9  UNL     1       8.635   8.562 -47.620  1.00  0.00     0.151 C 
BRANCH  30  31
HETATM   31  C10 UNL     1       9.726   7.589 -47.958  1.00  0.00     0.220 C 
BRANCH  31  32
HETATM   32  O4  UNL     1       9.420   6.290 -47.674  1.00  0.00    -0.286 OA
BRANCH  32  33
HETATM   33  N5  UNL     1      10.474   5.611 -47.220  1.00  0.00    -0.311 N 
ATOM     34  H52 UNL     1      10.395   4.833 -46.565  1.00  0.00     0.184 HD
ATOM     35  H51 UNL     1      11.352   5.961 -47.604  1.00  0.00     0.184 HD
ENDBRANCH  32  33
ENDBRANCH  31  32
ENDBRANCH  30  31
ENDBRANCH  28  30
ENDBRANCH  25  26
ENDBRANCH  24  25
ENDBRANCH  22  24
ENDBRANCH  18  20
ENDBRANCH   5  17
BRANCH  11  36
HETATM   36  N7  UNL     1      -3.259   1.150 -50.856  1.00  0.00    -0.234 N 
ATOM     37  H72 UNL     1      -3.320   0.162 -51.105  1.00  0.00     0.174 HD
ATOM     38  H71 UNL     1      -4.105   1.710 -50.965  1.00  0.00     0.174 HD
ENDBRANCH  11  36
TORSDOF 10
ENDMDL
MODEL 4
REMARK VINA RESULT: -7.856102675      6.814      9.718
REMARK  10 active torsions:
REMARK  status: ('A' for Active; 'I' for Inactive)
REMARK    1  A    between atoms: C3_5  and  C4_6 
REMARK    2  A    between atoms: N2_7  and  N3_9 
REMARK       I    between atoms: N3_9  and  C6_11 
REMARK    3  A    between atoms: C6_11  and  O2_13 
REMARK    4  A    between atoms: O2_13  and  C7_14 
REMARK    5  A    between atoms: C7_14  and  C8_15 
REMARK       I    between atoms: C8_15  and  N4_17 
REMARK    6  A    between atoms: N4_17  and  C9_19 
REMARK    7  A    between atoms: C9_19  and  C10_20 
REMARK    8  A    between atoms: C10_20  and  O4_21 
REMARK    9  A    between atoms: O4_21  and  N5_22 
REMARK   10  A    between atoms: C13_30  and  N7_31 
ROOT
HETATM    1  C1  UNL     1      -5.156  10.416 -56.818  1.00  0.00     0.089 C 
HETATM    2  C2  UNL     1      -4.103  10.623 -55.758  1.00  0.00     0.079 A 
HETATM    3  N1  UNL     1      -3.739   9.630 -54.956  1.00  0.00    -0.344 N 
ATOM      4  H1  UNL     1      -4.201   8.730 -55.088  1.00  0.00     0.167 HD
HETATM    5  C3  UNL     1      -2.800   9.712 -53.970  1.00  0.00     0.070 A 
HETATM    6  C11 UNL     1      -2.220  10.968 -53.853  1.00  0.00     0.105 A 
HETATM    7  C12 UNL     1      -1.265  11.223 -52.919  1.00  0.00     0.276 A 
HETATM    8  O5  UNL     1      -0.889  10.323 -52.143  1.00  0.00    -0.267 OA
HETATM    9  N6  UNL     1      -0.724  12.465 -52.840  1.00  0.00    -0.155 N 
ATOM     10  H6  UNL     1      -0.009  12.627 -52.130  1.00  0.00     0.187 HD
HETATM   11  C13 UNL     1      -1.061  13.489 -53.624  1.00  0.00     0.680 A 
HETATM   12  N8  UNL     1      -1.998  13.264 -54.551  1.00  0.00    -0.176 N 
ATOM     13  H8  UNL     1      -2.285  14.021 -55.173  1.00  0.00     0.186 HD
HETATM   14  C14 UNL     1      -2.571  12.039 -54.672  1.00  0.00     0.140 A 
HETATM   15  N9  UNL     1      -3.514  11.818 -55.605  1.00  0.00    -0.331 N 
ATOM     16  H9  UNL     1      -3.790  12.585 -56.218  1.00  0.00     0.168 HD
ENDROOT
BRANCH   5  17
HETATM   17  C4  UNL     1      -2.486   8.564 -53.158  1.00  0.00     0.138 C 
HETATM   18  N2  UNL     1      -3.218   8.219 -52.184  1.00  0.00    -0.304 N 
ATOM     19  H2  UNL     1      -2.903   7.391 -51.679  1.00  0.00     0.186 HD
BRANCH  18  20
HETATM   20  N3  UNL     1      -4.349   8.780 -51.712  1.00  0.00    -0.241 N 
HETATM   21  C5  UNL     1      -5.649   8.605 -52.385  1.00  0.00     0.183 C 
HETATM   22  C6  UNL     1      -4.396   9.565 -50.506  1.00  0.00     0.381 C 
HETATM   23  O1  UNL     1      -5.437  10.090 -50.058  1.00  0.00    -0.236 OA
BRANCH  22  24
HETATM   24  O2  UNL     1      -3.228   9.752 -49.803  1.00  0.00    -0.293 OA
BRANCH  24  25
HETATM   25  C7  UNL     1      -2.838   8.936 -48.730  1.00  0.00     0.283 C 
BRANCH  25  26
HETATM   26  C8  UNL     1      -1.535   8.263 -49.093  1.00  0.00     0.242 C 
HETATM   27  O3  UNL     1      -1.605   7.278 -49.824  1.00  0.00    -0.271 OA
HETATM   28  N4  UNL     1      -0.335   8.782 -48.591  1.00  0.00    -0.357 N 
ATOM     29  H4  UNL     1      -0.419   9.611 -48.002  1.00  0.00     0.162 HD
BRANCH  28  30
HETATM   30  C9  UNL     1       0.983   8.297 -48.799  1.00  0.00     0.151 C 
BRANCH  30  31
HETATM   31  C10 UNL     1       1.600   8.616 -50.128  1.00  0.00     0.220 C 
BRANCH  31  32
HETATM   32  O4  UNL     1       1.912   7.517 -50.874  1.00  0.00    -0.286 OA
BRANCH  32  33
HETATM   33  N5  UNL     1       0.888   7.111 -51.627  1.00  0.00    -0.311 N 
ATOM     34  H52 UNL     1      -0.041   6.924 -51.248  1.00  0.00     0.184 HD
ATOM     35  H51 UNL     1       1.146   7.014 -52.609  1.00  0.00     0.184 HD
ENDBRANCH  32  33
ENDBRANCH  31  32
ENDBRANCH  30  31
ENDBRANCH  28  30
ENDBRANCH  25  26
ENDBRANCH  24  25
ENDBRANCH  22  24
ENDBRANCH  18  20
ENDBRANCH   5  17
BRANCH  11  36
HETATM   36  N7  UNL     1      -0.505  14.667 -53.500  1.00  0.00    -0.234 N 
ATOM     37  H72 UNL     1      -0.869  15.354 -52.840  1.00  0.00     0.174 HD
ATOM     38  H71 UNL     1       0.306  14.941 -54.056  1.00  0.00     0.174 HD
ENDBRANCH  11  36
TORSDOF 10
ENDMDL
MODEL 5
REMARK VINA RESULT: -7.526900452      3.676      5.981
REMARK  10 active torsions:
REMARK  status: ('A' for Active; 'I' for Inactive)
REMARK    1  A    between atoms: C3_5  and  C4_6 
REMARK    2  A    between atoms: N2_7  and  N3_9 
REMARK       I    between atoms: N3_9  and  C6_11 
REMARK    3  A    between atoms: C6_11  and  O2_13 
REMARK    4  A    between atoms: O2_13  and  C7_14 
REMARK    5  A    between atoms: C7_14  and  C8_15 
REMARK       I    between atoms: C8_15  and  N4_17 
REMARK    6  A    between atoms: N4_17  and  C9_19 
REMARK    7  A    between atoms: C9_19  and  C10_20 
REMARK    8  A    between atoms: C10_20  and  O4_21 
REMARK    9  A    between atoms: O4_21  and  N5_22 
REMARK   10  A    between atoms: C13_30  and  N7_31 
ROOT
HETATM    1  C1  UNL     1      -5.637   5.776 -51.696  1.00  0.00     0.089 C 
HETATM    2  C2  UNL     1      -4.411   6.517 -51.222  1.00  0.00     0.079 A 
HETATM    3  N1  UNL     1      -3.742   6.109 -50.151  1.00  0.00    -0.344 N 
ATOM      4  H1  UNL     1      -4.091   5.281 -49.668  1.00  0.00     0.167 HD
HETATM    5  C3  UNL     1      -2.625   6.705 -49.642  1.00  0.00     0.070 A 
HETATM    6  C11 UNL     1      -2.214   7.824 -50.353  1.00  0.00     0.105 A 
HETATM    7  C12 UNL     1      -1.117   8.538 -49.980  1.00  0.00     0.276 A 
HETATM    8  O5  UNL     1      -0.455   8.195 -48.983  1.00  0.00    -0.267 OA
HETATM    9  N6  UNL     1      -0.751   9.625 -50.705  1.00  0.00    -0.155 N 
ATOM     10  H6  UNL     1       0.076  10.140 -50.402  1.00  0.00     0.187 HD
HETATM   11  C13 UNL     1      -1.396  10.068 -51.784  1.00  0.00     0.680 A 
HETATM   12  N8  UNL     1      -2.478   9.384 -52.173  1.00  0.00    -0.176 N 
ATOM     13  H8  UNL     1      -3.000   9.688 -52.994  1.00  0.00     0.186 HD
HETATM   14  C14 UNL     1      -2.887   8.288 -51.482  1.00  0.00     0.140 A 
HETATM   15  N9  UNL     1      -3.975   7.603 -51.875  1.00  0.00    -0.331 N 
ATOM     16  H9  UNL     1      -4.487   7.922 -52.698  1.00  0.00     0.168 HD
ENDROOT
BRANCH   5  17
HETATM   17  C4  UNL     1      -1.978   6.172 -48.469  1.00  0.00     0.138 C 
HETATM   18  N2  UNL     1      -1.287   5.113 -48.517  1.00  0.00    -0.304 N 
ATOM     19  H2  UNL     1      -0.873   4.826 -47.629  1.00  0.00     0.186 HD
BRANCH  18  20
HETATM   20  N3  UNL     1      -1.013   4.305 -49.561  1.00  0.00    -0.241 N 
HETATM   21  C5  UNL     1      -1.899   3.189 -49.940  1.00  0.00     0.183 C 
HETATM   22  C6  UNL     1       0.138   4.476 -50.409  1.00  0.00     0.381 C 
HETATM   23  O1  UNL     1       0.403   3.735 -51.379  1.00  0.00    -0.236 OA
BRANCH  22  24
HETATM   24  O2  UNL     1       1.000   5.514 -50.138  1.00  0.00    -0.293 OA
BRANCH  24  25
HETATM   25  C7  UNL     1       2.182   5.358 -49.400  1.00  0.00     0.283 C 
BRANCH  25  26
HETATM   26  C8  UNL     1       3.027   6.597 -49.586  1.00  0.00     0.242 C 
HETATM   27  O3  UNL     1       2.689   7.368 -50.481  1.00  0.00    -0.271 OA
HETATM   28  N4  UNL     1       4.130   6.803 -48.750  1.00  0.00    -0.357 N 
ATOM     29  H4  UNL     1       4.294   6.088 -48.041  1.00  0.00     0.162 HD
BRANCH  28  30
HETATM   30  C9  UNL     1       5.051   7.884 -48.766  1.00  0.00     0.151 C 
BRANCH  30  31
HETATM   31  C10 UNL     1       5.795   8.135 -47.489  1.00  0.00     0.220 C 
BRANCH  31  32
HETATM   32  O4  UNL     1       6.489   7.054 -47.028  1.00  0.00    -0.286 OA
BRANCH  32  33
HETATM   33  N5  UNL     1       7.803   7.278 -46.988  1.00  0.00    -0.311 N 
ATOM     34  H52 UNL     1       8.213   8.205 -47.100  1.00  0.00     0.184 HD
ATOM     35  H51 UNL     1       8.335   6.422 -46.834  1.00  0.00     0.184 HD
ENDBRANCH  32  33
ENDBRANCH  31  32
ENDBRANCH  30  31
ENDBRANCH  28  30
ENDBRANCH  25  26
ENDBRANCH  24  25
ENDBRANCH  22  24
ENDBRANCH  18  20
ENDBRANCH   5  17
BRANCH  11  36
HETATM   36  N7  UNL     1      -0.996  11.125 -52.444  1.00  0.00    -0.234 N 
ATOM     37  H72 UNL     1      -0.249  11.060 -53.137  1.00  0.00     0.174 HD
ATOM     38  H71 UNL     1      -1.410  12.045 -52.290  1.00  0.00     0.174 HD
ENDBRANCH  11  36
TORSDOF 10
ENDMDL
