MODEL 1
REMARK VINA RESULT: -8.543948156      0.000      0.000
REMARK  8 active torsions:
REMARK  status: ('A' for Active; 'I' for Inactive)
REMARK    1  A    between atoms: O1_2  and  C2_3 
REMARK    2  A    between atoms: C3_4  and  C4_5 
REMARK       I    between atoms: C4_5  and  N1_7 
REMARK    3  A    between atoms: C8_11  and  N2_12 
REMARK    4  A    between atoms: N2_12  and  C9_14 
REMARK    5  A    between atoms: C9_14  and  C10_15 
REMARK    6  A    between atoms: C11_24  and  N7_25 
REMARK    7  A    between atoms: N7_25  and  C12_27 
REMARK    8  A    between atoms: C14_36  and  O4_37 
ROOT
HETATM    1  C2  UNL     1      -0.221   6.055 -48.692  1.00  0.00     0.119 A 
HETATM    2  C3  UNL     1       0.947   5.399 -48.377  1.00  0.00     0.070 A 
HETATM    3  C7  UNL     1       2.142   6.011 -48.755  1.00  0.00     0.051 A 
HETATM    4  C8  UNL     1       2.178   7.212 -49.412  1.00  0.00     0.060 A 
HETATM    5  C11 UNL     1       0.991   7.843 -49.713  1.00  0.00     0.111 A 
HETATM    6  C14 UNL     1      -0.226   7.287 -49.364  1.00  0.00     0.132 A 
ENDROOT
BRANCH   4   7
HETATM    7  N2  UNL     1       3.426   7.771 -49.771  1.00  0.00    -0.381 N 
ATOM      8  H2  UNL     1       3.474   8.267 -50.661  1.00  0.00     0.160 HD
BRANCH   7   9
HETATM    9  C9  UNL     1       4.627   7.702 -48.998  1.00  0.00     0.199 C 
BRANCH   9  10
HETATM   10  C10 UNL     1       5.504   8.883 -49.130  1.00  0.00     0.131 A 
HETATM   11  N3  UNL     1       5.916   9.770 -48.213  1.00  0.00    -0.271 N 
HETATM   12  N4  UNL     1       6.687  10.643 -48.819  1.00  0.00    -0.227 N 
ATOM     13  H3  UNL     1       5.673   9.768 -47.222  1.00  0.00     0.190 HD
HETATM   14  N5  UNL     1       6.778  10.330 -50.111  1.00  0.00    -0.227 N 
ATOM     15  H4  UNL     1       7.145  11.436 -48.370  1.00  0.00     0.210 HD
HETATM   16  N6  UNL     1       6.056   9.258 -50.295  1.00  0.00    -0.271 N 
ATOM     17  H5  UNL     1       7.310  10.833 -50.821  1.00  0.00     0.210 HD
ATOM     18  H6  UNL     1       5.931   8.779 -51.187  1.00  0.00     0.190 HD
ENDBRANCH   9  10
ENDBRANCH   7   9
ENDBRANCH   4   7
BRANCH   5  19
HETATM   19  N7  UNL     1       1.046   9.106 -50.407  1.00  0.00    -0.185 N 
ATOM     20  H7  UNL     1       1.799   9.763 -50.205  1.00  0.00     0.184 HD
BRANCH  19  21
HETATM   21  C12 UNL     1       0.139   9.411 -51.288  1.00  0.00     0.701 A 
HETATM   22  N8  UNL     1      -0.353   8.609 -52.258  1.00  0.00    -0.128 N 
HETATM   23  N9  UNL     1      -1.274   9.284 -52.966  1.00  0.00    -0.237 N 
ATOM     24  H8  UNL     1      -0.071   7.644 -52.426  1.00  0.00     0.205 HD
HETATM   25  C13 UNL     1      -1.387  10.529 -52.462  1.00  0.00     0.353 A 
ATOM     26  H9  UNL     1      -1.802   8.913 -53.757  1.00  0.00     0.192 HD
HETATM   27  O3  UNL     1      -2.167  11.411 -52.905  1.00  0.00    -0.245 OA
HETATM   28  N10 UNL     1      -0.514  10.573 -51.443  1.00  0.00    -0.139 N 
ATOM     29  H10 UNL     1      -0.364  11.394 -50.857  1.00  0.00     0.189 HD
ENDBRANCH  19  21
ENDBRANCH   5  19
BRANCH   2  30
HETATM   30  C4  UNL     1       0.964   4.117 -47.662  1.00  0.00     0.256 C 
HETATM   31  O2  UNL     1       0.857   4.151 -46.387  1.00  0.00    -0.267 OA
HETATM   32  N1  UNL     1       1.085   2.868 -48.275  1.00  0.00    -0.357 N 
HETATM   33  C5  UNL     1       1.196   2.793 -49.718  1.00  0.00     0.152 C 
HETATM   34  C6  UNL     1       1.101   1.668 -47.470  1.00  0.00     0.152 C 
ENDBRANCH   2  30
BRANCH   6  35
HETATM   35  O4  UNL     1      -1.415   7.933 -49.672  1.00  0.00    -0.351 OA
HETATM   36  C15 UNL     1      -2.145   8.662 -48.705  1.00  0.00     0.210 C 
ENDBRANCH   6  35
BRANCH   1  37
HETATM   37  O1  UNL     1      -1.457   5.534 -48.363  1.00  0.00    -0.352 OA
HETATM   38  C1  UNL     1      -2.231   4.673 -49.141  1.00  0.00     0.210 C 
ENDBRANCH   1  37
TORSDOF 8
ENDMDL
MODEL 2
REMARK VINA RESULT: -8.449669428      1.650      1.867
REMARK  8 active torsions:
REMARK  status: ('A' for Active; 'I' for Inactive)
REMARK    1  A    between atoms: O1_2  and  C2_3 
REMARK    2  A    between atoms: C3_4  and  C4_5 
REMARK       I    between atoms: C4_5  and  N1_7 
REMARK    3  A    between atoms: C8_11  and  N2_12 
REMARK    4  A    between atoms: N2_12  and  C9_14 
REMARK    5  A    between atoms: C9_14  and  C10_15 
REMARK    6  A    between atoms: C11_24  and  N7_25 
REMARK    7  A    between atoms: N7_25  and  C12_27 
REMARK    8  A    between atoms: C14_36  and  O4_37 
ROOT
HETATM    1  C2  UNL     1       0.297   4.671 -50.158  1.00  0.00     0.119 A 
HETATM    2  C3  UNL     1       1.580   4.301 -49.826  1.00  0.00     0.070 A 
HETATM    3  C7  UNL     1       2.470   5.321 -49.492  1.00  0.00     0.051 A 
HETATM    4  C8  UNL     1       2.107   6.642 -49.488  1.00  0.00     0.060 A 
HETATM    5  C11 UNL     1       0.815   6.980 -49.825  1.00  0.00     0.111 A 
HETATM    6  C14 UNL     1      -0.114   6.012 -50.165  1.00  0.00     0.132 A 
ENDROOT
BRANCH   4   7
HETATM    7  N2  UNL     1       3.063   7.625 -49.145  1.00  0.00    -0.381 N 
ATOM      8  H2  UNL     1       2.755   8.597 -49.153  1.00  0.00     0.160 HD
BRANCH   7   9
HETATM    9  C9  UNL     1       4.427   7.377 -48.788  1.00  0.00     0.199 C 
BRANCH   9  10
HETATM   10  C10 UNL     1       5.298   8.568 -48.854  1.00  0.00     0.131 A 
HETATM   11  N3  UNL     1       5.631   9.458 -47.908  1.00  0.00    -0.271 N 
HETATM   12  N4  UNL     1       6.435  10.340 -48.454  1.00  0.00    -0.227 N 
ATOM     13  H3  UNL     1       5.315   9.452 -46.938  1.00  0.00     0.190 HD
HETATM   14  N5  UNL     1       6.626  10.030 -49.736  1.00  0.00    -0.227 N 
ATOM     15  H4  UNL     1       6.850  11.137 -47.972  1.00  0.00     0.210 HD
HETATM   16  N6  UNL     1       5.931   8.950 -49.975  1.00  0.00    -0.271 N 
ATOM     17  H5  UNL     1       7.204  10.540 -50.404  1.00  0.00     0.210 HD
ATOM     18  H6  UNL     1       5.878   8.471 -50.873  1.00  0.00     0.190 HD
ENDBRANCH   9  10
ENDBRANCH   7   9
ENDBRANCH   4   7
BRANCH   5  19
HETATM   19  N7  UNL     1       0.448   8.374 -49.816  1.00  0.00    -0.185 N 
ATOM     20  H7  UNL     1       0.842   8.997 -49.111  1.00  0.00     0.184 HD
BRANCH  19  21
HETATM   21  C12 UNL     1      -0.381   8.840 -50.703  1.00  0.00     0.701 A 
HETATM   22  N8  UNL     1      -1.450   9.636 -50.475  1.00  0.00    -0.128 N 
HETATM   23  N9  UNL     1      -2.058   9.905 -51.642  1.00  0.00    -0.237 N 
ATOM     24  H8  UNL     1      -1.748   9.978 -49.562  1.00  0.00     0.205 HD
HETATM   25  C13 UNL     1      -1.390   9.287 -52.636  1.00  0.00     0.353 A 
ATOM     26  H9  UNL     1      -2.891  10.484 -51.757  1.00  0.00     0.192 HD
HETATM   27  O3  UNL     1      -1.707   9.342 -53.852  1.00  0.00    -0.245 OA
HETATM   28  N10 UNL     1      -0.376   8.648 -52.031  1.00  0.00    -0.139 N 
ATOM     29  H10 UNL     1       0.316   8.084 -52.523  1.00  0.00     0.189 HD
ENDBRANCH  19  21
ENDBRANCH   5  19
BRANCH   2  30
HETATM   30  C4  UNL     1       2.016   2.899 -49.804  1.00  0.00     0.256 C 
HETATM   31  O2  UNL     1       2.557   2.434 -50.867  1.00  0.00    -0.267 OA
HETATM   32  N1  UNL     1       1.883   2.043 -48.708  1.00  0.00    -0.357 N 
HETATM   33  C5  UNL     1       1.286   2.542 -47.487  1.00  0.00     0.152 C 
HETATM   34  C6  UNL     1       2.339   0.675 -48.803  1.00  0.00     0.152 C 
ENDBRANCH   2  30
BRANCH   6  35
HETATM   35  O4  UNL     1      -1.413   6.365 -50.502  1.00  0.00    -0.351 OA
HETATM   36  C15 UNL     1      -2.461   6.367 -49.552  1.00  0.00     0.210 C 
ENDBRANCH   6  35
BRANCH   1  37
HETATM   37  O1  UNL     1      -0.661   3.738 -50.506  1.00  0.00    -0.352 OA
HETATM   38  C1  UNL     1      -1.496   3.038 -49.634  1.00  0.00     0.210 C 
ENDBRANCH   1  37
TORSDOF 8
ENDMDL
MODEL 3
REMARK VINA RESULT: -8.436075396      2.919      5.600
REMARK  8 active torsions:
REMARK  status: ('A' for Active; 'I' for Inactive)
REMARK    1  A    between atoms: O1_2  and  C2_3 
REMARK    2  A    between atoms: C3_4  and  C4_5 
REMARK       I    between atoms: C4_5  and  N1_7 
REMARK    3  A    between atoms: C8_11  and  N2_12 
REMARK    4  A    between atoms: N2_12  and  C9_14 
REMARK    5  A    between atoms: C9_14  and  C10_15 
REMARK    6  A    between atoms: C11_24  and  N7_25 
REMARK    7  A    between atoms: N7_25  and  C12_27 
REMARK    8  A    between atoms: C14_36  and  O4_37 
ROOT
HETATM    1  C2  UNL     1       0.635   2.962 -48.569  1.00  0.00     0.119 A 
HETATM    2  C3  UNL     1      -0.372   3.515 -47.812  1.00  0.00     0.070 A 
HETATM    3  C7  UNL     1      -0.574   4.890 -47.931  1.00  0.00     0.051 A 
HETATM    4  C8  UNL     1       0.183   5.676 -48.758  1.00  0.00     0.060 A 
HETATM    5  C11 UNL     1       1.184   5.092 -49.502  1.00  0.00     0.111 A 
HETATM    6  C14 UNL     1       1.432   3.733 -49.427  1.00  0.00     0.132 A 
ENDROOT
BRANCH   4   7
HETATM    7  N2  UNL     1      -0.073   7.065 -48.824  1.00  0.00    -0.381 N 
ATOM      8  H2  UNL     1       0.674   7.691 -48.523  1.00  0.00     0.160 HD
BRANCH   7   9
HETATM    9  C9  UNL     1      -1.288   7.671 -49.275  1.00  0.00     0.199 C 
BRANCH   9  10
HETATM   10  C10 UNL     1      -1.095   8.797 -50.212  1.00  0.00     0.131 A 
HETATM   11  N3  UNL     1       0.000   9.209 -50.865  1.00  0.00    -0.271 N 
HETATM   12  N4  UNL     1      -0.333  10.257 -51.582  1.00  0.00    -0.227 N 
ATOM     13  H3  UNL     1       0.927   8.785 -50.815  1.00  0.00     0.190 HD
HETATM   14  N5  UNL     1      -1.625  10.524 -51.400  1.00  0.00    -0.227 N 
ATOM     15  H4  UNL     1       0.300  10.784 -52.184  1.00  0.00     0.210 HD
HETATM   16  N6  UNL     1      -2.086   9.633 -50.565  1.00  0.00    -0.271 N 
ATOM     17  H5  UNL     1      -2.154  11.283 -51.831  1.00  0.00     0.210 HD
ATOM     18  H6  UNL     1      -3.048   9.579 -50.232  1.00  0.00     0.190 HD
ENDBRANCH   9  10
ENDBRANCH   7   9
ENDBRANCH   4   7
BRANCH   5  19
HETATM   19  N7  UNL     1       1.973   5.933 -50.367  1.00  0.00    -0.185 N 
ATOM     20  H7  UNL     1       1.753   5.987 -51.361  1.00  0.00     0.184 HD
BRANCH  19  21
HETATM   21  C12 UNL     1       2.965   6.623 -49.885  1.00  0.00     0.701 A 
HETATM   22  N8  UNL     1       3.350   7.863 -50.261  1.00  0.00    -0.128 N 
HETATM   23  N9  UNL     1       4.414   8.237 -49.533  1.00  0.00    -0.237 N 
ATOM     24  H8  UNL     1       2.902   8.426 -50.984  1.00  0.00     0.205 HD
HETATM   25  C13 UNL     1       4.730   7.243 -48.678  1.00  0.00     0.353 A 
ATOM     26  H9  UNL     1       4.904   9.128 -49.613  1.00  0.00     0.192 HD
HETATM   27  O3  UNL     1       5.681   7.283 -47.856  1.00  0.00    -0.245 OA
HETATM   28  N10 UNL     1       3.829   6.276 -48.919  1.00  0.00    -0.139 N 
ATOM     29  H10 UNL     1       3.806   5.385 -48.425  1.00  0.00     0.189 HD
ENDBRANCH  19  21
ENDBRANCH   5  19
BRANCH   2  30
HETATM   30  C4  UNL     1      -1.220   2.715 -46.920  1.00  0.00     0.256 C 
HETATM   31  O2  UNL     1      -0.880   2.648 -45.687  1.00  0.00    -0.267 OA
HETATM   32  N1  UNL     1      -2.367   2.026 -47.321  1.00  0.00    -0.357 N 
HETATM   33  C5  UNL     1      -2.786   2.091 -48.706  1.00  0.00     0.152 C 
HETATM   34  C6  UNL     1      -3.121   1.258 -46.356  1.00  0.00     0.152 C 
ENDBRANCH   2  30
BRANCH   6  35
HETATM   35  O4  UNL     1       2.443   3.155 -50.183  1.00  0.00    -0.351 OA
HETATM   36  C15 UNL     1       2.169   2.268 -51.250  1.00  0.00     0.210 C 
ENDBRANCH   6  35
BRANCH   1  37
HETATM   37  O1  UNL     1       0.918   1.610 -48.523  1.00  0.00    -0.352 OA
HETATM   38  C1  UNL     1       1.768   0.967 -47.622  1.00  0.00     0.210 C 
ENDBRANCH   1  37
TORSDOF 8
ENDMDL
MODEL 4
REMARK VINA RESULT: -8.353524575      2.681      5.752
REMARK  8 active torsions:
REMARK  status: ('A' for Active; 'I' for Inactive)
REMARK    1  A    between atoms: O1_2  and  C2_3 
REMARK    2  A    between atoms: C3_4  and  C4_5 
REMARK       I    between atoms: C4_5  and  N1_7 
REMARK    3  A    between atoms: C8_11  and  N2_12 
REMARK    4  A    between atoms: N2_12  and  C9_14 
REMARK    5  A    between atoms: C9_14  and  C10_15 
REMARK    6  A    between atoms: C11_24  and  N7_25 
REMARK    7  A    between atoms: N7_25  and  C12_27 
REMARK    8  A    between atoms: C14_36  and  O4_37 
ROOT
HETATM    1  C2  UNL     1      -1.270   6.657 -49.556  1.00  0.00     0.119 A 
HETATM    2  C3  UNL     1      -1.465   5.300 -49.434  1.00  0.00     0.070 A 
HETATM    3  C7  UNL     1      -0.387   4.473 -49.747  1.00  0.00     0.051 A 
HETATM    4  C8  UNL     1       0.822   4.964 -50.159  1.00  0.00     0.060 A 
HETATM    5  C11 UNL     1       0.986   6.327 -50.271  1.00  0.00     0.111 A 
HETATM    6  C14 UNL     1      -0.046   7.199 -49.974  1.00  0.00     0.132 A 
ENDROOT
BRANCH   4   7
HETATM    7  N2  UNL     1       1.870   4.065 -50.466  1.00  0.00    -0.381 N 
ATOM      8  H2  UNL     1       2.814   4.448 -50.509  1.00  0.00     0.160 HD
BRANCH   7   9
HETATM    9  C9  UNL     1       1.723   2.665 -50.723  1.00  0.00     0.199 C 
BRANCH   9  10
HETATM   10  C10 UNL     1       2.780   1.824 -50.127  1.00  0.00     0.131 A 
HETATM   11  N3  UNL     1       2.705   0.846 -49.213  1.00  0.00    -0.271 N 
HETATM   12  N4  UNL     1       3.921   0.397 -49.005  1.00  0.00    -0.227 N 
ATOM     13  H3  UNL     1       1.855   0.510 -48.759  1.00  0.00     0.190 HD
HETATM   14  N5  UNL     1       4.777   1.072 -49.772  1.00  0.00    -0.227 N 
ATOM     15  H4  UNL     1       4.171  -0.351 -48.358  1.00  0.00     0.210 HD
HETATM   16  N6  UNL     1       4.078   1.939 -50.453  1.00  0.00    -0.271 N 
ATOM     17  H5  UNL     1       5.787   0.936 -49.818  1.00  0.00     0.210 HD
ATOM     18  H6  UNL     1       4.458   2.601 -51.129  1.00  0.00     0.190 HD
ENDBRANCH   9  10
ENDBRANCH   7   9
ENDBRANCH   4   7
BRANCH   5  19
HETATM   19  N7  UNL     1       2.264   6.829 -50.708  1.00  0.00    -0.185 N 
ATOM     20  H7  UNL     1       2.497   6.826 -51.701  1.00  0.00     0.184 HD
BRANCH  19  21
HETATM   21  C12 UNL     1       3.122   7.284 -49.843  1.00  0.00     0.701 A 
HETATM   22  N8  UNL     1       3.057   8.457 -49.175  1.00  0.00    -0.128 N 
HETATM   23  N9  UNL     1       4.127   8.570 -48.372  1.00  0.00    -0.237 N 
ATOM     24  H8  UNL     1       2.313   9.148 -49.267  1.00  0.00     0.205 HD
HETATM   25  C13 UNL     1       4.896   7.471 -48.511  1.00  0.00     0.353 A 
ATOM     26  H9  UNL     1       4.326   9.359 -47.756  1.00  0.00     0.192 HD
HETATM   27  O3  UNL     1       5.973   7.270 -47.894  1.00  0.00    -0.245 OA
HETATM   28  N10 UNL     1       4.256   6.710 -49.413  1.00  0.00    -0.139 N 
ATOM     29  H10 UNL     1       4.593   5.802 -49.734  1.00  0.00     0.189 HD
ENDBRANCH  19  21
ENDBRANCH   5  19
BRANCH   2  30
HETATM   30  C4  UNL     1      -2.738   4.723 -48.984  1.00  0.00     0.256 C 
HETATM   31  O2  UNL     1      -3.644   4.534 -49.869  1.00  0.00    -0.267 OA
HETATM   32  N1  UNL     1      -3.027   4.368 -47.664  1.00  0.00    -0.357 N 
HETATM   33  C5  UNL     1      -2.020   4.559 -46.641  1.00  0.00     0.152 C 
HETATM   34  C6  UNL     1      -4.322   3.817 -47.333  1.00  0.00     0.152 C 
ENDBRANCH   2  30
BRANCH   6  35
HETATM   35  O4  UNL     1       0.131   8.571 -50.091  1.00  0.00    -0.351 OA
HETATM   36  C15 UNL     1      -0.014   9.244 -51.326  1.00  0.00     0.210 C 
ENDBRANCH   6  35
BRANCH   1  37
HETATM   37  O1  UNL     1      -2.274   7.563 -49.272  1.00  0.00    -0.352 OA
HETATM   38  C1  UNL     1      -3.267   8.006 -50.145  1.00  0.00     0.210 C 
ENDBRANCH   1  37
TORSDOF 8
ENDMDL
MODEL 5
REMARK VINA RESULT: -8.348287954      1.836      5.849
REMARK  8 active torsions:
REMARK  status: ('A' for Active; 'I' for Inactive)
REMARK    1  A    between atoms: O1_2  and  C2_3 
REMARK    2  A    between atoms: C3_4  and  C4_5 
REMARK       I    between atoms: C4_5  and  N1_7 
REMARK    3  A    between atoms: C8_11  and  N2_12 
REMARK    4  A    between atoms: N2_12  and  C9_14 
REMARK    5  A    between atoms: C9_14  and  C10_15 
REMARK    6  A    between atoms: C11_24  and  N7_25 
REMARK    7  A    between atoms: N7_25  and  C12_27 
REMARK    8  A    between atoms: C14_36  and  O4_37 
ROOT
HETATM    1  C2  UNL     1      -0.079   5.658 -50.118  1.00  0.00     0.119 A 
HETATM    2  C3  UNL     1       0.290   6.969 -49.921  1.00  0.00     0.070 A 
HETATM    3  C7  UNL     1       1.646   7.224 -49.719  1.00  0.00     0.051 A 
HETATM    4  C8  UNL     1       2.589   6.230 -49.713  1.00  0.00     0.060 A 
HETATM    5  C11 UNL     1       2.187   4.928 -49.913  1.00  0.00     0.111 A 
HETATM    6  C14 UNL     1       0.856   4.613 -50.120  1.00  0.00     0.132 A 
ENDROOT
BRANCH   4   7
HETATM    7  N2  UNL     1       3.946   6.561 -49.495  1.00  0.00    -0.381 N 
ATOM      8  H2  UNL     1       4.619   6.244 -50.191  1.00  0.00     0.160 HD
BRANCH   7   9
HETATM    9  C9  UNL     1       4.459   7.302 -48.383  1.00  0.00     0.199 C 
BRANCH   9  10
HETATM   10  C10 UNL     1       5.301   8.456 -48.758  1.00  0.00     0.131 A 
HETATM   11  N3  UNL     1       5.871   8.776 -49.928  1.00  0.00    -0.271 N 
HETATM   12  N4  UNL     1       6.524   9.902 -49.760  1.00  0.00    -0.227 N 
ATOM     13  H3  UNL     1       5.808   8.241 -50.795  1.00  0.00     0.190 HD
HETATM   14  N5  UNL     1       6.383  10.311 -48.500  1.00  0.00    -0.227 N 
ATOM     15  H4  UNL     1       7.057  10.388 -50.482  1.00  0.00     0.210 HD
HETATM   16  N6  UNL     1       5.637   9.428 -47.894  1.00  0.00    -0.271 N 
ATOM     17  H5  UNL     1       6.782  11.155 -48.088  1.00  0.00     0.210 HD
ATOM     18  H6  UNL     1       5.354   9.469 -46.915  1.00  0.00     0.190 HD
ENDBRANCH   9  10
ENDBRANCH   7   9
ENDBRANCH   4   7
BRANCH   5  19
HETATM   19  N7  UNL     1       3.191   3.894 -49.903  1.00  0.00    -0.185 N 
ATOM     20  H7  UNL     1       4.127   4.092 -50.256  1.00  0.00     0.184 HD
BRANCH  19  21
HETATM   21  C12 UNL     1       2.909   2.710 -49.445  1.00  0.00     0.701 A 
HETATM   22  N8  UNL     1       3.157   1.526 -50.049  1.00  0.00    -0.128 N 
HETATM   23  N9  UNL     1       2.720   0.528 -49.264  1.00  0.00    -0.237 N 
ATOM     24  H8  UNL     1       3.605   1.409 -50.957  1.00  0.00     0.205 HD
HETATM   25  C13 UNL     1       2.185   1.055 -48.144  1.00  0.00     0.353 A 
ATOM     26  H9  UNL     1       2.784  -0.467 -49.480  1.00  0.00     0.192 HD
HETATM   27  O3  UNL     1       1.686   0.382 -47.206  1.00  0.00    -0.245 OA
HETATM   28  N10 UNL     1       2.316   2.384 -48.287  1.00  0.00    -0.139 N 
ATOM     29  H10 UNL     1       2.001   3.064 -47.596  1.00  0.00     0.189 HD
ENDBRANCH  19  21
ENDBRANCH   5  19
BRANCH   2  30
HETATM   30  C4  UNL     1      -0.679   8.071 -49.931  1.00  0.00     0.256 C 
HETATM   31  O2  UNL     1      -1.191   8.416 -48.808  1.00  0.00    -0.267 OA
HETATM   32  N1  UNL     1      -1.079   8.768 -51.074  1.00  0.00    -0.357 N 
HETATM   33  C5  UNL     1      -0.510   8.411 -52.357  1.00  0.00     0.152 C 
HETATM   34  C6  UNL     1      -2.052   9.831 -50.966  1.00  0.00     0.152 C 
ENDBRANCH   2  30
BRANCH   6  35
HETATM   35  O4  UNL     1       0.464   3.297 -50.322  1.00  0.00    -0.351 OA
HETATM   36  C15 UNL     1       0.281   2.758 -51.617  1.00  0.00     0.210 C 
ENDBRANCH   6  35
BRANCH   1  37
HETATM   37  O1  UNL     1      -1.397   5.298 -50.327  1.00  0.00    -0.352 OA
HETATM   38  C1  UNL     1      -2.323   4.930 -49.351  1.00  0.00     0.210 C 
ENDBRANCH   1  37
TORSDOF 8
ENDMDL
