MODEL 1
REMARK VINA RESULT: -6.896558773      0.000      0.000
REMARK  10 active torsions:
REMARK  status: ('A' for Active; 'I' for Inactive)
REMARK    1  A    between atoms: C2_2  and  N1_3 
REMARK    2  A    between atoms: N1_3  and  C3_4 
REMARK    3  A    between atoms: N1_3  and  C10_18 
REMARK    4  A    between atoms: C3_4  and  C4_5 
REMARK    5  A    between atoms: C6_9  and  N3_10 
REMARK    6  A    between atoms: N3_10  and  O1_12 
REMARK    7  A    between atoms: C11_21  and  O3_22 
REMARK    8  A    between atoms: C13_26  and  N7_27 
REMARK    9  A    between atoms: C14_30  and  C15_31 
REMARK       I    between atoms: C15_31  and  N8_33 
REMARK   10  A    between atoms: N8_33  and  N9_34 
ROOT
HETATM    1  C10 UNL     1      -0.035   3.283 -49.335  1.00  0.00     0.127 A 
HETATM    2  N5  UNL     1      -1.261   2.749 -49.721  1.00  0.00    -0.307 N 
ATOM      3  H5  UNL     1      -2.078   2.892 -49.127  1.00  0.00     0.171 HD
HETATM    4  C11 UNL     1      -1.388   2.055 -50.852  1.00  0.00     0.226 A 
HETATM    5  N6  UNL     1      -0.342   1.844 -51.665  1.00  0.00    -0.307 N 
ATOM      6  H6  UNL     1      -0.457   1.313 -52.528  1.00  0.00     0.171 HD
HETATM    7  C13 UNL     1       0.866   2.345 -51.323  1.00  0.00     0.122 A 
HETATM    8  C14 UNL     1       1.035   3.075 -50.141  1.00  0.00     0.136 A 
ENDROOT
BRANCH   1   9
HETATM    9  N1  UNL     1      -0.042   4.077 -48.155  1.00  0.00    -0.361 N 
BRANCH   9  10
HETATM   10  C2  UNL     1       0.834   3.982 -47.045  1.00  0.00     0.120 C 
HETATM   11  C1  UNL     1       0.820   2.589 -46.388  1.00  0.00     0.026 C 
ENDBRANCH   9  10
BRANCH   9  12
HETATM   12  C3  UNL     1      -1.019   5.147 -48.160  1.00  0.00     0.183 C 
BRANCH  12  13
HETATM   13  C4  UNL     1      -0.852   6.212 -49.139  1.00  0.00     0.047 A 
HETATM   14  C5  UNL     1       0.244   6.988 -49.325  1.00  0.00     0.117 A 
HETATM   15  N2  UNL     1       0.276   7.939 -50.259  1.00  0.00    -0.344 N 
HETATM   16  C6  UNL     1      -0.795   8.165 -51.061  1.00  0.00     0.195 A 
ATOM     17  H2  UNL     1       1.117   8.503 -50.373  1.00  0.00     0.167 HD
HETATM   18  C8  UNL     1      -1.918   7.386 -50.883  1.00  0.00     0.293 A 
HETATM   19  O2  UNL     1      -2.942   7.581 -51.631  1.00  0.00    -0.264 OA
HETATM   20  N4  UNL     1      -1.938   6.438 -49.945  1.00  0.00    -0.316 N 
HETATM   21  C9  UNL     1      -3.173   5.655 -49.793  1.00  0.00     0.159 C 
BRANCH  16  22
HETATM   22  N3  UNL     1      -0.802   9.081 -51.978  1.00  0.00    -0.246 N 
ATOM     23  H3  UNL     1      -0.643   8.834 -52.955  1.00  0.00     0.196 HD
BRANCH  22  24
HETATM   24  O1  UNL     1      -1.027  10.389 -51.619  1.00  0.00    -0.284 OA
HETATM   25  C7  UNL     1      -1.144  11.441 -52.527  1.00  0.00     0.237 C 
ENDBRANCH  22  24
ENDBRANCH  16  22
ENDBRANCH  12  13
ENDBRANCH   9  12
ENDBRANCH   1   9
BRANCH   8  26
HETATM   26  C15 UNL     1       2.432   3.428 -49.809  1.00  0.00     0.352 C 
HETATM   27  O4  UNL     1       3.119   2.466 -49.308  1.00  0.00    -0.249 OA
HETATM   28  N8  UNL     1       2.913   4.684 -50.027  1.00  0.00    -0.288 NA
BRANCH  28  29
HETATM   29  N9  UNL     1       3.387   5.911 -50.239  1.00  0.00    -0.276 N 
ATOM     30  H92 UNL     1       3.133   4.925 -50.172  1.00  0.00     0.191 HD
ATOM     31  H91 UNL     1       3.748   6.852 -50.399  1.00  0.00     0.191 HD
ENDBRANCH  28  29
ENDBRANCH   8  26
BRANCH   4  32
HETATM   32  O3  UNL     1      -2.662   1.556 -51.150  1.00  0.00    -0.327 OA
HETATM   33  C12 UNL     1      -3.820   1.878 -50.414  1.00  0.00     0.213 C 
ENDBRANCH   4  32
BRANCH   7  34
HETATM   34  N7  UNL     1       1.841   2.132 -52.122  1.00  0.00    -0.384 N 
ATOM     35  H72 UNL     1       1.707   2.110 -53.132  1.00  0.00     0.157 HD
ATOM     36  H71 UNL     1       2.761   1.978 -51.710  1.00  0.00     0.157 HD
ENDBRANCH   7  34
TORSDOF 10
ENDMDL
MODEL 2
REMARK VINA RESULT: -6.809976508      3.034      7.320
REMARK  10 active torsions:
REMARK  status: ('A' for Active; 'I' for Inactive)
REMARK    1  A    between atoms: C2_2  and  N1_3 
REMARK    2  A    between atoms: N1_3  and  C3_4 
REMARK    3  A    between atoms: N1_3  and  C10_18 
REMARK    4  A    between atoms: C3_4  and  C4_5 
REMARK    5  A    between atoms: C6_9  and  N3_10 
REMARK    6  A    between atoms: N3_10  and  O1_12 
REMARK    7  A    between atoms: C11_21  and  O3_22 
REMARK    8  A    between atoms: C13_26  and  N7_27 
REMARK    9  A    between atoms: C14_30  and  C15_31 
REMARK       I    between atoms: C15_31  and  N8_33 
REMARK   10  A    between atoms: N8_33  and  N9_34 
ROOT
HETATM    1  C10 UNL     1      -2.080   9.283 -51.113  1.00  0.00     0.127 A 
HETATM    2  N5  UNL     1      -1.246  10.337 -51.472  1.00  0.00    -0.307 N 
ATOM      3  H5  UNL     1      -0.488  10.610 -50.847  1.00  0.00     0.171 HD
HETATM    4  C11 UNL     1      -1.419  10.997 -52.617  1.00  0.00     0.226 A 
HETATM    5  N6  UNL     1      -2.400  10.672 -53.472  1.00  0.00    -0.307 N 
ATOM      6  H6  UNL     1      -2.516  11.185 -54.345  1.00  0.00     0.171 HD
HETATM    7  C13 UNL     1      -3.233   9.654 -53.158  1.00  0.00     0.122 A 
HETATM    8  C14 UNL     1      -3.082   8.943 -51.962  1.00  0.00     0.136 A 
ENDROOT
BRANCH   1   9
HETATM    9  N1  UNL     1      -1.745   8.600 -49.912  1.00  0.00    -0.361 N 
BRANCH   9  10
HETATM   10  C2  UNL     1      -2.171   8.908 -48.596  1.00  0.00     0.120 C 
HETATM   11  C1  UNL     1      -3.315   7.999 -48.109  1.00  0.00     0.026 C 
ENDBRANCH   9  10
BRANCH   9  12
HETATM   12  C3  UNL     1      -0.939   7.410 -50.105  1.00  0.00     0.183 C 
BRANCH  12  13
HETATM   13  C4  UNL     1       0.496   7.522 -49.886  1.00  0.00     0.047 A 
HETATM   14  C5  UNL     1       1.206   8.658 -49.678  1.00  0.00     0.117 A 
HETATM   15  N2  UNL     1       2.525   8.632 -49.490  1.00  0.00    -0.344 N 
HETATM   16  C6  UNL     1       3.209   7.460 -49.504  1.00  0.00     0.195 A 
ATOM     17  H2  UNL     1       3.028   9.505 -49.334  1.00  0.00     0.167 HD
HETATM   18  C8  UNL     1       2.502   6.296 -49.718  1.00  0.00     0.293 A 
HETATM   19  O2  UNL     1       3.128   5.176 -49.732  1.00  0.00    -0.264 OA
HETATM   20  N4  UNL     1       1.182   6.335 -49.904  1.00  0.00    -0.316 N 
HETATM   21  C9  UNL     1       0.490   5.061 -50.145  1.00  0.00     0.159 C 
BRANCH  16  22
HETATM   22  N3  UNL     1       4.492   7.395 -49.328  1.00  0.00    -0.246 N 
ATOM     23  H3  UNL     1       5.103   7.100 -50.089  1.00  0.00     0.196 HD
BRANCH  22  24
HETATM   24  O1  UNL     1       5.018   7.727 -48.102  1.00  0.00    -0.284 OA
HETATM   25  C7  UNL     1       5.636   8.945 -47.819  1.00  0.00     0.237 C 
ENDBRANCH  22  24
ENDBRANCH  16  22
ENDBRANCH  12  13
ENDBRANCH   9  12
ENDBRANCH   1   9
BRANCH   8  26
HETATM   26  C15 UNL     1      -4.150   7.964 -51.668  1.00  0.00     0.352 C 
HETATM   27  O4  UNL     1      -3.851   6.749 -51.954  1.00  0.00    -0.249 OA
HETATM   28  N8  UNL     1      -5.343   8.358 -51.140  1.00  0.00    -0.288 NA
BRANCH  28  29
HETATM   29  N9  UNL     1      -6.511   8.739 -50.625  1.00  0.00    -0.276 N 
ATOM     30  H92 UNL     1      -5.659   8.307 -50.982  1.00  0.00     0.191 HD
ATOM     31  H91 UNL     1      -7.405   9.034 -50.232  1.00  0.00     0.191 HD
ENDBRANCH  28  29
ENDBRANCH   8  26
BRANCH   4  32
HETATM   32  O3  UNL     1      -0.529  12.045 -52.885  1.00  0.00    -0.327 OA
HETATM   33  C12 UNL     1      -0.819  13.115 -53.753  1.00  0.00     0.213 C 
ENDBRANCH   4  32
BRANCH   7  34
HETATM   34  N7  UNL     1      -4.154   9.365 -53.995  1.00  0.00    -0.384 N 
ATOM     35  H72 UNL     1      -5.113   9.192 -53.695  1.00  0.00     0.157 HD
ATOM     36  H71 UNL     1      -3.893   9.309 -54.980  1.00  0.00     0.157 HD
ENDBRANCH   7  34
TORSDOF 10
ENDMDL
MODEL 3
REMARK VINA RESULT: -6.764819832      2.756      5.159
REMARK  10 active torsions:
REMARK  status: ('A' for Active; 'I' for Inactive)
REMARK    1  A    between atoms: C2_2  and  N1_3 
REMARK    2  A    between atoms: N1_3  and  C3_4 
REMARK    3  A    between atoms: N1_3  and  C10_18 
REMARK    4  A    between atoms: C3_4  and  C4_5 
REMARK    5  A    between atoms: C6_9  and  N3_10 
REMARK    6  A    between atoms: N3_10  and  O1_12 
REMARK    7  A    between atoms: C11_21  and  O3_22 
REMARK    8  A    between atoms: C13_26  and  N7_27 
REMARK    9  A    between atoms: C14_30  and  C15_31 
REMARK       I    between atoms: C15_31  and  N8_33 
REMARK   10  A    between atoms: N8_33  and  N9_34 
ROOT
HETATM    1  C10 UNL     1      -0.125   7.019 -49.291  1.00  0.00     0.127 A 
HETATM    2  N5  UNL     1       1.084   7.697 -49.416  1.00  0.00    -0.307 N 
ATOM      3  H5  UNL     1       1.083   8.667 -49.734  1.00  0.00     0.171 HD
HETATM    4  C11 UNL     1       2.243   7.105 -49.127  1.00  0.00     0.226 A 
HETATM    5  N6  UNL     1       2.293   5.834 -48.703  1.00  0.00    -0.307 N 
ATOM      6  H6  UNL     1       3.187   5.397 -48.484  1.00  0.00     0.171 HD
HETATM    7  C13 UNL     1       1.139   5.140 -48.570  1.00  0.00     0.122 A 
HETATM    8  C14 UNL     1      -0.094   5.731 -48.868  1.00  0.00     0.136 A 
ENDROOT
BRANCH   1   9
HETATM    9  N1  UNL     1      -1.299   7.780 -49.542  1.00  0.00    -0.361 N 
BRANCH   9  10
HETATM   10  C2  UNL     1      -2.006   8.604 -48.631  1.00  0.00     0.120 C 
HETATM   11  C1  UNL     1      -3.351   7.996 -48.193  1.00  0.00     0.026 C 
ENDBRANCH   9  10
BRANCH   9  12
HETATM   12  C3  UNL     1      -1.749   7.748 -50.920  1.00  0.00     0.183 C 
BRANCH  12  13
HETATM   13  C4  UNL     1      -1.648   8.977 -51.694  1.00  0.00     0.047 A 
HETATM   14  C5  UNL     1      -0.694   9.935 -51.587  1.00  0.00     0.117 A 
HETATM   15  N2  UNL     1      -0.710  11.024 -52.355  1.00  0.00    -0.344 N 
HETATM   16  C6  UNL     1      -1.689  11.216 -53.275  1.00  0.00     0.195 A 
ATOM     17  H2  UNL     1       0.024  11.724 -52.251  1.00  0.00     0.167 HD
HETATM   18  C8  UNL     1      -2.669  10.252 -53.394  1.00  0.00     0.293 A 
HETATM   19  O2  UNL     1      -3.603  10.410 -54.259  1.00  0.00    -0.264 OA
HETATM   20  N4  UNL     1      -2.641   9.166 -52.619  1.00  0.00    -0.316 N 
HETATM   21  C9  UNL     1      -3.725   8.186 -52.782  1.00  0.00     0.159 C 
BRANCH  16  22
HETATM   22  N3  UNL     1      -1.740  12.262 -54.039  1.00  0.00    -0.246 N 
ATOM     23  H3  UNL     1      -1.966  12.168 -55.029  1.00  0.00     0.196 HD
BRANCH  22  24
HETATM   24  O1  UNL     1      -1.484  13.499 -53.498  1.00  0.00    -0.284 OA
HETATM   25  C7  UNL     1      -0.378  14.284 -53.824  1.00  0.00     0.237 C 
ENDBRANCH  22  24
ENDBRANCH  16  22
ENDBRANCH  12  13
ENDBRANCH   9  12
ENDBRANCH   1   9
BRANCH   8  26
HETATM   26  C15 UNL     1      -1.257   4.819 -48.833  1.00  0.00     0.352 C 
HETATM   27  O4  UNL     1      -1.506   4.231 -49.947  1.00  0.00    -0.249 OA
HETATM   28  N8  UNL     1      -1.984   4.645 -47.694  1.00  0.00    -0.288 NA
BRANCH  28  29
HETATM   29  N9  UNL     1      -2.698   4.474 -46.582  1.00  0.00    -0.276 N 
ATOM     30  H92 UNL     1      -2.157   4.454 -47.447  1.00  0.00     0.191 HD
ATOM     31  H91 UNL     1      -3.244   4.345 -45.730  1.00  0.00     0.191 HD
ENDBRANCH  28  29
ENDBRANCH   8  26
BRANCH   4  32
HETATM   32  O3  UNL     1       3.403   7.872 -49.289  1.00  0.00    -0.327 OA
HETATM   33  C12 UNL     1       4.659   7.509 -48.764  1.00  0.00     0.213 C 
ENDBRANCH   4  32
BRANCH   7  34
HETATM   34  N7  UNL     1       1.220   3.933 -48.158  1.00  0.00    -0.384 N 
ATOM     35  H72 UNL     1       2.028   3.350 -48.373  1.00  0.00     0.157 HD
ATOM     36  H71 UNL     1       0.442   3.570 -47.608  1.00  0.00     0.157 HD
ENDBRANCH   7  34
TORSDOF 10
ENDMDL
MODEL 4
REMARK VINA RESULT: -6.753981172      5.942      8.297
REMARK  10 active torsions:
REMARK  status: ('A' for Active; 'I' for Inactive)
REMARK    1  A    between atoms: C2_2  and  N1_3 
REMARK    2  A    between atoms: N1_3  and  C3_4 
REMARK    3  A    between atoms: N1_3  and  C10_18 
REMARK    4  A    between atoms: C3_4  and  C4_5 
REMARK    5  A    between atoms: C6_9  and  N3_10 
REMARK    6  A    between atoms: N3_10  and  O1_12 
REMARK    7  A    between atoms: C11_21  and  O3_22 
REMARK    8  A    between atoms: C13_26  and  N7_27 
REMARK    9  A    between atoms: C14_30  and  C15_31 
REMARK       I    between atoms: C15_31  and  N8_33 
REMARK   10  A    between atoms: N8_33  and  N9_34 
ROOT
HETATM    1  C10 UNL     1       7.167   8.103 -47.589  1.00  0.00     0.127 A 
HETATM    2  N5  UNL     1       7.823   6.952 -47.164  1.00  0.00    -0.307 N 
ATOM      3  H5  UNL     1       7.279   6.181 -46.774  1.00  0.00     0.171 HD
HETATM    4  C11 UNL     1       9.148   6.836 -47.257  1.00  0.00     0.226 A 
HETATM    5  N6  UNL     1       9.903   7.821 -47.765  1.00  0.00    -0.307 N 
ATOM      6  H6  UNL     1      10.915   7.715 -47.832  1.00  0.00     0.171 HD
HETATM    7  C13 UNL     1       9.302   8.956 -48.188  1.00  0.00     0.122 A 
HETATM    8  C14 UNL     1       7.915   9.112 -48.100  1.00  0.00     0.136 A 
ENDROOT
BRANCH   1   9
HETATM    9  N1  UNL     1       5.747   8.076 -47.522  1.00  0.00    -0.361 N 
BRANCH   9  10
HETATM   10  C2  UNL     1       4.912   8.778 -46.617  1.00  0.00     0.120 C 
HETATM   11  C1  UNL     1       5.660   9.254 -45.358  1.00  0.00     0.026 C 
ENDBRANCH   9  10
BRANCH   9  12
HETATM   12  C3  UNL     1       5.113   7.293 -48.564  1.00  0.00     0.183 C 
BRANCH  12  13
HETATM   13  C4  UNL     1       3.751   7.643 -48.941  1.00  0.00     0.047 A 
HETATM   14  C5  UNL     1       3.144   8.846 -48.788  1.00  0.00     0.117 A 
HETATM   15  N2  UNL     1       1.883   9.045 -49.173  1.00  0.00    -0.344 N 
HETATM   16  C6  UNL     1       1.158   8.044 -49.733  1.00  0.00     0.195 A 
ATOM     17  H2  UNL     1       1.457   9.963 -49.045  1.00  0.00     0.167 HD
HETATM   18  C8  UNL     1       1.761   6.814 -49.892  1.00  0.00     0.293 A 
HETATM   19  O2  UNL     1       1.095   5.853 -50.421  1.00  0.00    -0.264 OA
HETATM   20  N4  UNL     1       3.023   6.628 -49.503  1.00  0.00    -0.316 N 
HETATM   21  C9  UNL     1       3.600   5.288 -49.683  1.00  0.00     0.159 C 
BRANCH  16  22
HETATM   22  N3  UNL     1      -0.070   8.198 -50.117  1.00  0.00    -0.246 N 
ATOM     23  H3  UNL     1      -0.840   7.983 -49.484  1.00  0.00     0.196 HD
BRANCH  22  24
HETATM   24  O1  UNL     1      -0.322   8.656 -51.389  1.00  0.00    -0.284 OA
HETATM   25  C7  UNL     1      -0.804   9.932 -51.682  1.00  0.00     0.237 C 
ENDBRANCH  22  24
ENDBRANCH  16  22
ENDBRANCH  12  13
ENDBRANCH   9  12
ENDBRANCH   1   9
BRANCH   8  26
HETATM   26  C15 UNL     1       7.405  10.456 -48.447  1.00  0.00     0.352 C 
HETATM   27  O4  UNL     1       6.837  10.529 -49.596  1.00  0.00    -0.249 OA
HETATM   28  N8  UNL     1       7.549  11.508 -47.593  1.00  0.00    -0.288 NA
BRANCH  28  29
HETATM   29  N9  UNL     1       7.690  12.539 -46.761  1.00  0.00    -0.276 N 
ATOM     30  H92 UNL     1       7.548  11.853 -47.503  1.00  0.00     0.191 HD
ATOM     31  H91 UNL     1       7.798  13.327 -46.122  1.00  0.00     0.191 HD
ENDBRANCH  28  29
ENDBRANCH   8  26
BRANCH   4  32
HETATM   32  O3  UNL     1       9.712   5.639 -46.799  1.00  0.00    -0.327 OA
HETATM   33  C12 UNL     1      10.769   4.973 -47.451  1.00  0.00     0.213 C 
ENDBRANCH   4  32
BRANCH   7  34
HETATM   34  N7  UNL     1      10.049   9.874 -48.672  1.00  0.00    -0.384 N 
ATOM     35  H72 UNL     1       9.889  10.255 -49.604  1.00  0.00     0.157 HD
ATOM     36  H71 UNL     1      10.818  10.209 -48.092  1.00  0.00     0.157 HD
ENDBRANCH   7  34
TORSDOF 10
ENDMDL
MODEL 5
REMARK VINA RESULT: -6.625091509      2.218      2.955
REMARK  10 active torsions:
REMARK  status: ('A' for Active; 'I' for Inactive)
REMARK    1  A    between atoms: C2_2  and  N1_3 
REMARK    2  A    between atoms: N1_3  and  C3_4 
REMARK    3  A    between atoms: N1_3  and  C10_18 
REMARK    4  A    between atoms: C3_4  and  C4_5 
REMARK    5  A    between atoms: C6_9  and  N3_10 
REMARK    6  A    between atoms: N3_10  and  O1_12 
REMARK    7  A    between atoms: C11_21  and  O3_22 
REMARK    8  A    between atoms: C13_26  and  N7_27 
REMARK    9  A    between atoms: C14_30  and  C15_31 
REMARK       I    between atoms: C15_31  and  N8_33 
REMARK   10  A    between atoms: N8_33  and  N9_34 
ROOT
HETATM    1  C10 UNL     1       0.973   3.864 -48.431  1.00  0.00     0.127 A 
HETATM    2  N5  UNL     1       0.136   3.829 -47.319  1.00  0.00    -0.307 N 
ATOM      3  H5  UNL     1      -0.274   4.698 -46.975  1.00  0.00     0.171 HD
HETATM    4  C11 UNL     1      -0.141   2.684 -46.697  1.00  0.00     0.226 A 
HETATM    5  N6  UNL     1       0.372   1.518 -47.115  1.00  0.00    -0.307 N 
ATOM      6  H6  UNL     1       0.148   0.650 -46.629  1.00  0.00     0.171 HD
HETATM    7  C13 UNL     1       1.191   1.510 -48.191  1.00  0.00     0.122 A 
HETATM    8  C14 UNL     1       1.506   2.695 -48.865  1.00  0.00     0.136 A 
ENDROOT
BRANCH   1   9
HETATM    9  N1  UNL     1       1.124   5.128 -49.063  1.00  0.00    -0.361 N 
BRANCH   9  10
HETATM   10  C2  UNL     1       2.046   6.153 -48.735  1.00  0.00     0.120 C 
HETATM   11  C1  UNL     1       3.360   6.053 -49.532  1.00  0.00     0.026 C 
ENDBRANCH   9  10
BRANCH   9  12
HETATM   12  C3  UNL     1       0.274   5.324 -50.221  1.00  0.00     0.183 C 
BRANCH  12  13
HETATM   13  C4  UNL     1      -0.065   6.691 -50.590  1.00  0.00     0.047 A 
HETATM   14  C5  UNL     1       0.624   7.507 -51.426  1.00  0.00     0.117 A 
HETATM   15  N2  UNL     1       0.212   8.748 -51.685  1.00  0.00    -0.344 N 
HETATM   16  C6  UNL     1      -0.918   9.241 -51.117  1.00  0.00     0.195 A 
ATOM     17  H2  UNL     1       0.752   9.335 -52.320  1.00  0.00     0.167 HD
HETATM   18  C8  UNL     1      -1.627   8.424 -50.263  1.00  0.00     0.293 A 
HETATM   19  O2  UNL     1      -2.700   8.869 -49.716  1.00  0.00    -0.264 OA
HETATM   20  N4  UNL     1      -1.205   7.185 -50.011  1.00  0.00    -0.316 N 
HETATM   21  C9  UNL     1      -1.996   6.372 -49.076  1.00  0.00     0.159 C 
BRANCH  16  22
HETATM   22  N3  UNL     1      -1.349  10.442 -51.344  1.00  0.00    -0.246 N 
ATOM     23  H3  UNL     1      -1.398  11.124 -50.587  1.00  0.00     0.196 HD
BRANCH  22  24
HETATM   24  O1  UNL     1      -1.740  10.786 -52.616  1.00  0.00    -0.284 OA
HETATM   25  C7  UNL     1      -1.311  11.932 -53.285  1.00  0.00     0.237 C 
ENDBRANCH  22  24
ENDBRANCH  16  22
ENDBRANCH  12  13
ENDBRANCH   9  12
ENDBRANCH   1   9
BRANCH   8  26
HETATM   26  C15 UNL     1       2.533   2.569 -49.921  1.00  0.00     0.352 C 
HETATM   27  O4  UNL     1       3.742   2.652 -49.499  1.00  0.00    -0.249 OA
HETATM   28  N8  UNL     1       2.185   2.384 -51.225  1.00  0.00    -0.288 NA
BRANCH  28  29
HETATM   29  N9  UNL     1       1.848   2.204 -52.502  1.00  0.00    -0.276 N 
ATOM     30  H92 UNL     1       2.169   2.471 -51.571  1.00  0.00     0.191 HD
ATOM     31  H91 UNL     1       1.589   2.064 -53.479  1.00  0.00     0.191 HD
ENDBRANCH  28  29
ENDBRANCH   8  26
BRANCH   4  32
HETATM   32  O3  UNL     1      -0.991   2.756 -45.586  1.00  0.00    -0.327 OA
HETATM   33  C12 UNL     1      -2.308   2.258 -45.575  1.00  0.00     0.213 C 
ENDBRANCH   4  32
BRANCH   7  34
HETATM   34  N7  UNL     1       1.659   0.382 -48.568  1.00  0.00    -0.384 N 
ATOM     35  H72 UNL     1       1.355  -0.492 -48.139  1.00  0.00     0.157 HD
ATOM     36  H71 UNL     1       2.356   0.387 -49.313  1.00  0.00     0.157 HD
ENDBRANCH   7  34
TORSDOF 10
ENDMDL
