MODEL 1
REMARK VINA RESULT: -8.174694616      0.000      0.000
REMARK  12 active torsions:
REMARK  status: ('A' for Active; 'I' for Inactive)
REMARK    1  A    between atoms: C2_2  and  C3_3 
REMARK    2  A    between atoms: C3_3  and  N1_4 
REMARK    3  A    between atoms: C9_10  and  O1_11 
REMARK    4  A    between atoms: C13_15  and  C14_16 
REMARK    5  A    between atoms: C14_16  and  O2_17 
REMARK    6  A    between atoms: O2_17  and  C15_18 
REMARK    7  A    between atoms: C15_18  and  C16_20 
REMARK    8  A    between atoms: C18_22  and  C19_23 
REMARK    9  A    between atoms: C20_24  and  C21_25 
REMARK   10  A    between atoms: C22_26  and  C23_27 
REMARK   11  A    between atoms: C23_27  and  C24_29 
REMARK   12  A    between atoms: C24_29  and  C25_31 
ROOT
HETATM    1  O2  UNL     1      39.297  39.335 -58.738  1.00  0.00    -0.317 OA
ENDROOT
BRANCH   1   2
HETATM    2  C14 UNL     1      38.257  39.301 -57.821  1.00  0.00     0.189 C 
BRANCH   2   3
HETATM    3  C13 UNL     1      38.451  39.975 -56.523  1.00  0.00    -0.008 A 
HETATM    4  C6  UNL     1      38.145  39.184 -55.245  1.00  0.00     0.006 C 
HETATM    5  C5  UNL     1      38.713  37.809 -55.342  1.00  0.00     0.036 C 
HETATM    6  C7  UNL     1      38.741  40.031 -54.170  1.00  0.00     0.048 C 
HETATM    7  C4  UNL     1      38.738  37.096 -54.030  1.00  0.00     0.273 C 
HETATM    8  N1  UNL     1      38.693  37.932 -52.887  1.00  0.00     0.092 N 
HETATM    9  C8  UNL     1      39.334  39.212 -53.042  1.00  0.00     0.280 C 
HETATM   10  C9  UNL     1      39.871  40.747 -54.852  1.00  0.00     0.132 C 
HETATM   11  C11 UNL     1      39.318  41.079 -56.233  1.00  0.00     0.027 A 
HETATM   12  C12 UNL     1      37.871  41.379 -56.383  1.00  0.00     0.020 A 
BRANCH   8  13
HETATM   13  C3  UNL     1      37.418  37.983 -52.247  1.00  0.00     0.299 C 
BRANCH  13  14
HETATM   14  C2  UNL     1      37.548  38.543 -50.872  1.00  0.00    -0.007 C 
HETATM   15  C1  UNL     1      36.482  38.900 -50.170  1.00  0.00     0.008 C 
ENDBRANCH  13  14
ENDBRANCH   8  13
BRANCH  10  16
HETATM   16  O1  UNL     1      40.286  41.890 -54.185  1.00  0.00    -0.390 OA
HETATM   17  C10 UNL     1      41.510  42.275 -54.727  1.00  0.00     0.202 C 
ENDBRANCH  10  16
ENDBRANCH   2   3
ENDBRANCH   1   2
BRANCH   1  18
HETATM   18  C15 UNL     1      40.470  38.578 -58.571  1.00  0.00     0.288 C 
HETATM   19  O3  UNL     1      40.303  37.341 -58.736  1.00  0.00    -0.260 OA
BRANCH  18  20
HETATM   20  C16 UNL     1      41.726  39.205 -58.244  1.00  0.00     0.013 C 
HETATM   21  C17 UNL     1      42.246  40.203 -59.254  1.00  0.00     0.054 C 
HETATM   22  C18 UNL     1      42.420  38.988 -57.183  1.00  0.00     0.013 C 
BRANCH  22  23
HETATM   23  C19 UNL     1      42.130  38.090 -56.089  1.00  0.00     0.010 C 
HETATM   24  C20 UNL     1      42.735  38.243 -54.917  1.00  0.00     0.065 C 
BRANCH  24  25
HETATM   25  C21 UNL     1      43.674  39.320 -54.782  1.00  0.00    -0.070 C 
HETATM   26  C22 UNL     1      44.474  40.228 -54.687  1.00  0.00    -0.016 C 
BRANCH  26  27
HETATM   27  C23 UNL     1      45.419  41.300 -54.601  1.00  0.00     0.271 C 
HETATM   28  O4  UNL     1      45.945  41.638 -53.490  1.00  0.00    -0.274 OA
BRANCH  27  29
HETATM   29  C24 UNL     1      45.811  42.041 -55.790  1.00  0.00     0.211 C 
HETATM   30  O5  UNL     1      46.850  42.739 -55.740  1.00  0.00    -0.288 OA
BRANCH  29  31
HETATM   31  C25 UNL     1      45.001  41.978 -57.048  1.00  0.00     0.056 C 
HETATM   32  C26 UNL     1      44.841  43.347 -57.630  1.00  0.00     0.018 C 
HETATM   33  C27 UNL     1      45.690  41.017 -57.988  1.00  0.00     0.018 C 
ENDBRANCH  29  31
ENDBRANCH  27  29
ENDBRANCH  26  27
ENDBRANCH  24  25
ENDBRANCH  22  23
ENDBRANCH  18  20
ENDBRANCH   1  18
TORSDOF 12
ENDMDL
MODEL 2
REMARK VINA RESULT: -8.029406376      3.023      7.273
REMARK  12 active torsions:
REMARK  status: ('A' for Active; 'I' for Inactive)
REMARK    1  A    between atoms: C2_2  and  C3_3 
REMARK    2  A    between atoms: C3_3  and  N1_4 
REMARK    3  A    between atoms: C9_10  and  O1_11 
REMARK    4  A    between atoms: C13_15  and  C14_16 
REMARK    5  A    between atoms: C14_16  and  O2_17 
REMARK    6  A    between atoms: O2_17  and  C15_18 
REMARK    7  A    between atoms: C15_18  and  C16_20 
REMARK    8  A    between atoms: C18_22  and  C19_23 
REMARK    9  A    between atoms: C20_24  and  C21_25 
REMARK   10  A    between atoms: C22_26  and  C23_27 
REMARK   11  A    between atoms: C23_27  and  C24_29 
REMARK   12  A    between atoms: C24_29  and  C25_31 
ROOT
HETATM    1  O2  UNL     1      41.380  37.334 -55.613  1.00  0.00    -0.317 OA
ENDROOT
BRANCH   1   2
HETATM    2  C14 UNL     1      42.615  37.894 -55.902  1.00  0.00     0.189 C 
BRANCH   2   3
HETATM    3  C13 UNL     1      42.644  39.226 -56.537  1.00  0.00    -0.008 A 
HETATM    4  C6  UNL     1      42.720  40.458 -55.626  1.00  0.00     0.006 C 
HETATM    5  C5  UNL     1      43.729  40.241 -54.550  1.00  0.00     0.036 C 
HETATM    6  C7  UNL     1      43.049  41.562 -56.575  1.00  0.00     0.048 C 
HETATM    7  C4  UNL     1      44.089  41.498 -53.828  1.00  0.00     0.273 C 
HETATM    8  N1  UNL     1      43.827  42.697 -54.535  1.00  0.00     0.092 N 
HETATM    9  C8  UNL     1      43.964  42.604 -55.966  1.00  0.00     0.280 C 
HETATM   10  C9  UNL     1      43.807  40.884 -57.679  1.00  0.00     0.132 C 
HETATM   11  C11 UNL     1      43.085  39.554 -57.861  1.00  0.00     0.027 A 
HETATM   12  C12 UNL     1      41.617  39.488 -57.634  1.00  0.00     0.020 A 
BRANCH   8  13
HETATM   13  C3  UNL     1      42.660  43.394 -54.099  1.00  0.00     0.299 C 
BRANCH  13  14
HETATM   14  C2  UNL     1      42.335  43.033 -52.690  1.00  0.00    -0.007 C 
HETATM   15  C1  UNL     1      42.314  43.948 -51.731  1.00  0.00     0.008 C 
ENDBRANCH  13  14
ENDBRANCH   8  13
BRANCH  10  16
HETATM   16  O1  UNL     1      43.837  41.610 -58.860  1.00  0.00    -0.390 OA
HETATM   17  C10 UNL     1      44.984  41.238 -59.557  1.00  0.00     0.202 C 
ENDBRANCH  10  16
ENDBRANCH   2   3
ENDBRANCH   1   2
BRANCH   1  18
HETATM   18  C15 UNL     1      40.884  37.244 -54.300  1.00  0.00     0.288 C 
HETATM   19  O3  UNL     1      40.554  36.077 -53.962  1.00  0.00    -0.260 OA
BRANCH  18  20
HETATM   20  C16 UNL     1      40.784  38.408 -53.456  1.00  0.00     0.013 C 
HETATM   21  C17 UNL     1      41.732  38.449 -52.279  1.00  0.00     0.054 C 
HETATM   22  C18 UNL     1      39.971  39.390 -53.625  1.00  0.00     0.013 C 
BRANCH  22  23
HETATM   23  C19 UNL     1      38.984  39.571 -54.664  1.00  0.00     0.010 C 
HETATM   24  C20 UNL     1      37.691  39.439 -54.393  1.00  0.00     0.065 C 
BRANCH  24  25
HETATM   25  C21 UNL     1      37.318  39.115 -53.046  1.00  0.00    -0.070 C 
HETATM   26  C22 UNL     1      36.983  38.841 -51.912  1.00  0.00    -0.016 C 
BRANCH  26  27
HETATM   27  C23 UNL     1      36.563  38.512 -50.582  1.00  0.00     0.271 C 
HETATM   28  O4  UNL     1      35.466  37.901 -50.361  1.00  0.00    -0.274 OA
BRANCH  27  29
HETATM   29  C24 UNL     1      37.385  38.869 -49.437  1.00  0.00     0.211 C 
HETATM   30  O5  UNL     1      36.851  38.882 -48.303  1.00  0.00    -0.288 OA
BRANCH  29  31
HETATM   31  C25 UNL     1      38.834  39.213 -49.594  1.00  0.00     0.056 C 
HETATM   32  C26 UNL     1      39.211  40.311 -48.649  1.00  0.00     0.018 C 
HETATM   33  C27 UNL     1      39.631  37.950 -49.375  1.00  0.00     0.018 C 
ENDBRANCH  29  31
ENDBRANCH  27  29
ENDBRANCH  26  27
ENDBRANCH  24  25
ENDBRANCH  22  23
ENDBRANCH  18  20
ENDBRANCH   1  18
TORSDOF 12
ENDMDL
MODEL 3
REMARK VINA RESULT: -7.911629843      2.661      7.056
REMARK  12 active torsions:
REMARK  status: ('A' for Active; 'I' for Inactive)
REMARK    1  A    between atoms: C2_2  and  C3_3 
REMARK    2  A    between atoms: C3_3  and  N1_4 
REMARK    3  A    between atoms: C9_10  and  O1_11 
REMARK    4  A    between atoms: C13_15  and  C14_16 
REMARK    5  A    between atoms: C14_16  and  O2_17 
REMARK    6  A    between atoms: O2_17  and  C15_18 
REMARK    7  A    between atoms: C15_18  and  C16_20 
REMARK    8  A    between atoms: C18_22  and  C19_23 
REMARK    9  A    between atoms: C20_24  and  C21_25 
REMARK   10  A    between atoms: C22_26  and  C23_27 
REMARK   11  A    between atoms: C23_27  and  C24_29 
REMARK   12  A    between atoms: C24_29  and  C25_31 
ROOT
HETATM    1  O2  UNL     1      38.238  40.087 -57.610  1.00  0.00    -0.317 OA
ENDROOT
BRANCH   1   2
HETATM    2  C14 UNL     1      39.336  39.897 -58.435  1.00  0.00     0.189 C 
BRANCH   2   3
HETATM    3  C13 UNL     1      40.487  39.147 -57.897  1.00  0.00    -0.008 A 
HETATM    4  C6  UNL     1      41.869  39.813 -57.942  1.00  0.00     0.006 C 
HETATM    5  C5  UNL     1      41.770  41.233 -57.501  1.00  0.00     0.036 C 
HETATM    6  C7  UNL     1      42.695  38.941 -57.057  1.00  0.00     0.048 C 
HETATM    7  C4  UNL     1      43.100  41.847 -57.212  1.00  0.00     0.273 C 
HETATM    8  N1  UNL     1      44.141  40.928 -56.933  1.00  0.00     0.092 N 
HETATM    9  C8  UNL     1      43.727  39.720 -56.267  1.00  0.00     0.280 C 
HETATM   10  C9  UNL     1      41.710  38.373 -56.077  1.00  0.00     0.132 C 
HETATM   11  C11 UNL     1      40.468  38.100 -56.917  1.00  0.00     0.027 A 
HETATM   12  C12 UNL     1      40.628  37.693 -58.338  1.00  0.00     0.020 A 
BRANCH   8  13
HETATM   13  C3  UNL     1      45.050  40.723 -58.015  1.00  0.00     0.299 C 
BRANCH  13  14
HETATM   14  C2  UNL     1      45.084  41.922 -58.900  1.00  0.00    -0.007 C 
HETATM   15  C1  UNL     1      44.923  41.814 -60.211  1.00  0.00     0.008 C 
ENDBRANCH  13  14
ENDBRANCH   8  13
BRANCH  10  16
HETATM   16  O1  UNL     1      42.156  37.223 -55.444  1.00  0.00    -0.390 OA
HETATM   17  C10 UNL     1      41.267  36.937 -54.410  1.00  0.00     0.202 C 
ENDBRANCH  10  16
ENDBRANCH   2   3
ENDBRANCH   1   2
BRANCH   1  18
HETATM   18  C15 UNL     1      38.184  41.118 -56.655  1.00  0.00     0.288 C 
HETATM   19  O3  UNL     1      38.277  42.273 -57.150  1.00  0.00    -0.260 OA
BRANCH  18  20
HETATM   20  C16 UNL     1      38.035  40.832 -55.251  1.00  0.00     0.013 C 
HETATM   21  C17 UNL     1      36.666  40.356 -54.819  1.00  0.00     0.054 C 
HETATM   22  C18 UNL     1      38.955  40.946 -54.360  1.00  0.00     0.013 C 
BRANCH  22  23
HETATM   23  C19 UNL     1      40.324  41.376 -54.531  1.00  0.00     0.010 C 
HETATM   24  C20 UNL     1      41.261  40.993 -53.673  1.00  0.00     0.065 C 
BRANCH  24  25
HETATM   25  C21 UNL     1      40.867  40.145 -52.584  1.00  0.00    -0.070 C 
HETATM   26  C22 UNL     1      40.514  39.435 -51.665  1.00  0.00    -0.016 C 
BRANCH  26  27
HETATM   27  C23 UNL     1      40.074  38.602 -50.586  1.00  0.00     0.271 C 
HETATM   28  O4  UNL     1      40.894  37.897 -49.910  1.00  0.00    -0.274 OA
BRANCH  27  29
HETATM   29  C24 UNL     1      38.666  38.536 -50.227  1.00  0.00     0.211 C 
HETATM   30  O5  UNL     1      38.367  38.283 -49.036  1.00  0.00    -0.288 OA
BRANCH  29  31
HETATM   31  C25 UNL     1      37.592  38.765 -51.244  1.00  0.00     0.056 C 
HETATM   32  C26 UNL     1      37.644  37.705 -52.300  1.00  0.00     0.018 C 
HETATM   33  C27 UNL     1      36.270  38.802 -50.515  1.00  0.00     0.018 C 
ENDBRANCH  29  31
ENDBRANCH  27  29
ENDBRANCH  26  27
ENDBRANCH  24  25
ENDBRANCH  22  23
ENDBRANCH  18  20
ENDBRANCH   1  18
TORSDOF 12
ENDMDL
MODEL 4
REMARK VINA RESULT: -7.911071039      1.920      5.535
REMARK  12 active torsions:
REMARK  status: ('A' for Active; 'I' for Inactive)
REMARK    1  A    between atoms: C2_2  and  C3_3 
REMARK    2  A    between atoms: C3_3  and  N1_4 
REMARK    3  A    between atoms: C9_10  and  O1_11 
REMARK    4  A    between atoms: C13_15  and  C14_16 
REMARK    5  A    between atoms: C14_16  and  O2_17 
REMARK    6  A    between atoms: O2_17  and  C15_18 
REMARK    7  A    between atoms: C15_18  and  C16_20 
REMARK    8  A    between atoms: C18_22  and  C19_23 
REMARK    9  A    between atoms: C20_24  and  C21_25 
REMARK   10  A    between atoms: C22_26  and  C23_27 
REMARK   11  A    between atoms: C23_27  and  C24_29 
REMARK   12  A    between atoms: C24_29  and  C25_31 
ROOT
HETATM    1  O2  UNL     1      45.362  42.267 -55.318  1.00  0.00    -0.317 OA
ENDROOT
BRANCH   1   2
HETATM    2  C14 UNL     1      44.278  41.404 -55.375  1.00  0.00     0.189 C 
BRANCH   2   3
HETATM    3  C13 UNL     1      43.112  41.693 -54.518  1.00  0.00    -0.008 A 
HETATM    4  C6  UNL     1      42.218  40.521 -54.094  1.00  0.00     0.006 C 
HETATM    5  C5  UNL     1      43.055  39.364 -53.665  1.00  0.00     0.036 C 
HETATM    6  C7  UNL     1      41.371  41.111 -53.017  1.00  0.00     0.048 C 
HETATM    7  C4  UNL     1      42.274  38.316 -52.943  1.00  0.00     0.273 C 
HETATM    8  N1  UNL     1      41.055  38.758 -52.372  1.00  0.00     0.092 N 
HETATM    9  C8  UNL     1      41.056  40.123 -51.913  1.00  0.00     0.280 C 
HETATM   10  C9  UNL     1      42.230  42.191 -52.425  1.00  0.00     0.132 C 
HETATM   11  C11 UNL     1      42.935  42.804 -53.630  1.00  0.00     0.027 A 
HETATM   12  C12 UNL     1      42.225  42.862 -54.934  1.00  0.00     0.020 A 
BRANCH   8  13
HETATM   13  C3  UNL     1      39.891  38.383 -53.108  1.00  0.00     0.299 C 
BRANCH  13  14
HETATM   14  C2  UNL     1      39.401  37.047 -52.664  1.00  0.00    -0.007 C 
HETATM   15  C1  UNL     1      39.443  35.996 -53.470  1.00  0.00     0.008 C 
ENDBRANCH  13  14
ENDBRANCH   8  13
BRANCH  10  16
HETATM   16  O1  UNL     1      41.514  43.145 -51.718  1.00  0.00    -0.390 OA
HETATM   17  C10 UNL     1      42.389  43.750 -50.819  1.00  0.00     0.202 C 
ENDBRANCH  10  16
ENDBRANCH   2   3
ENDBRANCH   1   2
BRANCH   1  18
HETATM   18  C15 UNL     1      45.809  42.987 -56.440  1.00  0.00     0.288 C 
HETATM   19  O3  UNL     1      47.032  43.288 -56.395  1.00  0.00    -0.260 OA
BRANCH  18  20
HETATM   20  C16 UNL     1      44.915  43.326 -57.519  1.00  0.00     0.013 C 
HETATM   21  C17 UNL     1      44.143  44.615 -57.351  1.00  0.00     0.054 C 
HETATM   22  C18 UNL     1      44.732  42.634 -58.586  1.00  0.00     0.013 C 
BRANCH  22  23
HETATM   23  C19 UNL     1      45.349  41.384 -58.965  1.00  0.00     0.010 C 
HETATM   24  C20 UNL     1      44.637  40.264 -58.988  1.00  0.00     0.065 C 
BRANCH  24  25
HETATM   25  C21 UNL     1      43.250  40.343 -58.629  1.00  0.00    -0.070 C 
HETATM   26  C22 UNL     1      42.081  40.400 -58.308  1.00  0.00    -0.016 C 
BRANCH  26  27
HETATM   27  C23 UNL     1      40.708  40.460 -57.904  1.00  0.00     0.271 C 
HETATM   28  O4  UNL     1      40.165  41.558 -57.548  1.00  0.00    -0.274 OA
BRANCH  27  29
HETATM   29  C24 UNL     1      39.886  39.261 -57.890  1.00  0.00     0.211 C 
HETATM   30  O5  UNL     1      39.312  38.920 -58.952  1.00  0.00    -0.288 OA
BRANCH  29  31
HETATM   31  C25 UNL     1      39.721  38.444 -56.646  1.00  0.00     0.056 C 
HETATM   32  C26 UNL     1      38.347  37.853 -56.593  1.00  0.00     0.018 C 
HETATM   33  C27 UNL     1      40.810  37.398 -56.637  1.00  0.00     0.018 C 
ENDBRANCH  29  31
ENDBRANCH  27  29
ENDBRANCH  26  27
ENDBRANCH  24  25
ENDBRANCH  22  23
ENDBRANCH  18  20
ENDBRANCH   1  18
TORSDOF 12
ENDMDL
MODEL 5
REMARK VINA RESULT: -7.876691558      3.095      7.852
REMARK  12 active torsions:
REMARK  status: ('A' for Active; 'I' for Inactive)
REMARK    1  A    between atoms: C2_2  and  C3_3 
REMARK    2  A    between atoms: C3_3  and  N1_4 
REMARK    3  A    between atoms: C9_10  and  O1_11 
REMARK    4  A    between atoms: C13_15  and  C14_16 
REMARK    5  A    between atoms: C14_16  and  O2_17 
REMARK    6  A    between atoms: O2_17  and  C15_18 
REMARK    7  A    between atoms: C15_18  and  C16_20 
REMARK    8  A    between atoms: C18_22  and  C19_23 
REMARK    9  A    between atoms: C20_24  and  C21_25 
REMARK   10  A    between atoms: C22_26  and  C23_27 
REMARK   11  A    between atoms: C23_27  and  C24_29 
REMARK   12  A    between atoms: C24_29  and  C25_31 
ROOT
HETATM    1  O2  UNL     1      42.848  37.875 -54.154  1.00  0.00    -0.317 OA
ENDROOT
BRANCH   1   2
HETATM    2  C14 UNL     1      43.331  38.581 -55.245  1.00  0.00     0.189 C 
BRANCH   2   3
HETATM    3  C13 UNL     1      43.749  39.981 -55.038  1.00  0.00    -0.008 A 
HETATM    4  C6  UNL     1      43.416  41.004 -56.132  1.00  0.00     0.006 C 
HETATM    5  C5  UNL     1      42.013  40.819 -56.600  1.00  0.00     0.036 C 
HETATM    6  C7  UNL     1      43.683  42.313 -55.466  1.00  0.00     0.048 C 
HETATM    7  C4  UNL     1      41.517  41.964 -57.421  1.00  0.00     0.273 C 
HETATM    8  N1  UNL     1      42.209  43.186 -57.232  1.00  0.00     0.092 N 
HETATM    9  C8  UNL     1      42.722  43.398 -55.903  1.00  0.00     0.280 C 
HETATM   10  C9  UNL     1      43.430  42.043 -54.011  1.00  0.00     0.132 C 
HETATM   11  C11 UNL     1      43.995  40.645 -53.791  1.00  0.00     0.027 A 
HETATM   12  C12 UNL     1      45.183  40.210 -54.571  1.00  0.00     0.020 A 
BRANCH   8  13
HETATM   13  C3  UNL     1      43.127  43.508 -58.277  1.00  0.00     0.299 C 
BRANCH  13  14
HETATM   14  C2  UNL     1      43.081  42.472 -59.348  1.00  0.00    -0.007 C 
HETATM   15  C1  UNL     1      44.193  41.961 -59.859  1.00  0.00     0.008 C 
ENDBRANCH  13  14
ENDBRANCH   8  13
BRANCH  10  16
HETATM   16  O1  UNL     1      44.022  42.967 -53.164  1.00  0.00    -0.390 OA
HETATM   17  C10 UNL     1      43.076  43.334 -52.210  1.00  0.00     0.202 C 
ENDBRANCH  10  16
ENDBRANCH   2   3
ENDBRANCH   1   2
BRANCH   1  18
HETATM   18  C15 UNL     1      41.495  37.915 -53.773  1.00  0.00     0.288 C 
HETATM   19  O3  UNL     1      40.811  36.961 -54.230  1.00  0.00    -0.260 OA
BRANCH  18  20
HETATM   20  C16 UNL     1      40.983  38.969 -52.932  1.00  0.00     0.013 C 
HETATM   21  C17 UNL     1      41.703  39.169 -51.618  1.00  0.00     0.054 C 
HETATM   22  C18 UNL     1      39.988  39.733 -53.211  1.00  0.00     0.013 C 
BRANCH  22  23
HETATM   23  C19 UNL     1      39.155  39.731 -54.391  1.00  0.00     0.010 C 
HETATM   24  C20 UNL     1      37.870  39.412 -54.306  1.00  0.00     0.065 C 
BRANCH  24  25
HETATM   25  C21 UNL     1      37.347  39.074 -53.012  1.00  0.00    -0.070 C 
HETATM   26  C22 UNL     1      36.924  38.784 -51.912  1.00  0.00    -0.016 C 
BRANCH  26  27
HETATM   27  C23 UNL     1      36.449  38.443 -50.604  1.00  0.00     0.271 C 
HETATM   28  O4  UNL     1      35.363  37.795 -50.437  1.00  0.00    -0.274 OA
BRANCH  27  29
HETATM   29  C24 UNL     1      37.198  38.830 -49.420  1.00  0.00     0.211 C 
HETATM   30  O5  UNL     1      36.590  38.894 -48.326  1.00  0.00    -0.288 OA
BRANCH  29  31
HETATM   31  C25 UNL     1      38.660  39.145 -49.491  1.00  0.00     0.056 C 
HETATM   32  C26 UNL     1      39.001  40.243 -48.532  1.00  0.00     0.018 C 
HETATM   33  C27 UNL     1      39.419  37.869 -49.216  1.00  0.00     0.018 C 
ENDBRANCH  29  31
ENDBRANCH  27  29
ENDBRANCH  26  27
ENDBRANCH  24  25
ENDBRANCH  22  23
ENDBRANCH  18  20
ENDBRANCH   1  18
TORSDOF 12
ENDMDL
