MODEL 1
REMARK VINA RESULT: -8.402813579      0.000      0.000
REMARK  10 active torsions:
REMARK  status: ('A' for Active; 'I' for Inactive)
REMARK    1  A    between atoms: C4_4  and  C5_5 
REMARK    2  A    between atoms: C5_5  and  C6_6 
REMARK    3  A    between atoms: C6_6  and  C7_7 
REMARK    4  A    between atoms: C7_7  and  C8_8 
REMARK    5  A    between atoms: C8_8  and  C9_9 
REMARK    6  A    between atoms: C9_9  and  C10_10 
REMARK    7  A    between atoms: C10_10  and  C11_11 
REMARK       I    between atoms: C11_11  and  N1_13 
REMARK    8  A    between atoms: N2_16  and  C14_17 
REMARK    9  A    between atoms: C17_20  and  N3_21 
REMARK   10  A    between atoms: C22_27  and  N4_28 
ROOT
HETATM    1  C1  UNL     1      37.368  41.188 -55.843  1.00  0.00     0.027 C 
HETATM    2  C2  UNL     1      37.372  40.503 -54.843  1.00  0.00    -0.026 C 
HETATM    3  C3  UNL     1      37.363  39.693 -53.681  1.00  0.00    -0.016 C 
HETATM    4  C4  UNL     1      37.349  38.984 -52.701  1.00  0.00    -0.093 C 
ENDROOT
BRANCH   4   5
HETATM    5  C5  UNL     1      37.315  38.111 -51.530  1.00  0.00     0.095 C 
BRANCH   5   6
HETATM    6  C6  UNL     1      36.238  38.637 -50.574  1.00  0.00     0.012 C 
BRANCH   6   7
HETATM    7  C7  UNL     1      36.928  38.903 -49.273  1.00  0.00     0.001 C 
BRANCH   7   8
HETATM    8  C8  UNL     1      38.358  38.462 -49.216  1.00  0.00     0.000 C 
BRANCH   8   9
HETATM    9  C9  UNL     1      39.273  39.678 -49.107  1.00  0.00     0.009 C 
BRANCH   9  10
HETATM   10  C10 UNL     1      40.530  39.403 -49.902  1.00  0.00     0.103 C 
BRANCH  10  11
HETATM   11  C11 UNL     1      41.093  40.647 -50.460  1.00  0.00     0.219 C 
HETATM   12  O1  UNL     1      41.374  41.579 -49.642  1.00  0.00    -0.273 OA
HETATM   13  N1  UNL     1      41.320  40.819 -51.852  1.00  0.00    -0.349 N 
HETATM   14  C12 UNL     1      40.989  39.726 -52.736  1.00  0.00     0.145 C 
HETATM   15  C25 UNL     1      41.855  42.040 -52.377  1.00  0.00     0.145 C 
HETATM   16  C13 UNL     1      42.205  39.483 -53.611  1.00  0.00     0.143 C 
HETATM   17  N2  UNL     1      42.476  40.743 -54.259  1.00  0.00    -0.378 N 
HETATM   18  C24 UNL     1      42.971  41.760 -53.326  1.00  0.00     0.143 C 
BRANCH  17  19
HETATM   19  C14 UNL     1      42.281  40.979 -55.633  1.00  0.00     0.032 A 
HETATM   20  C15 UNL     1      41.043  41.307 -56.127  1.00  0.00     0.031 A 
HETATM   21  C16 UNL     1      40.855  41.540 -57.474  1.00  0.00     0.034 A 
HETATM   22  C17 UNL     1      41.900  41.457 -58.405  1.00  0.00     0.064 A 
HETATM   23  C22 UNL     1      43.128  41.129 -57.903  1.00  0.00     0.131 A 
HETATM   24  C23 UNL     1      43.307  40.894 -56.519  1.00  0.00     0.067 A 
BRANCH  22  25
HETATM   25  N3  UNL     1      41.666  41.739 -59.753  1.00  0.00    -0.375 N 
HETATM   26  C18 UNL     1      41.863  43.083 -60.314  1.00  0.00     0.149 C 
HETATM   27  C19 UNL     1      40.465  43.534 -60.710  1.00  0.00     0.187 C 
HETATM   28  O2  UNL     1      39.765  42.551 -61.361  1.00  0.00    -0.388 OA
HETATM   29  C20 UNL     1      40.559  41.520 -61.850  1.00  0.00     0.187 C 
HETATM   30  C21 UNL     1      41.205  40.746 -60.722  1.00  0.00     0.149 C 
ENDBRANCH  22  25
BRANCH  23  31
HETATM   31  N4  UNL     1      44.255  41.001 -58.734  1.00  0.00    -0.113 N 
HETATM   32  O3  UNL     1      44.524  39.896 -59.226  1.00  0.00    -0.532 OA
HETATM   33  O4  UNL     1      45.047  42.069 -59.005  1.00  0.00    -0.532 OA
ENDBRANCH  23  31
ENDBRANCH  17  19
ENDBRANCH  10  11
ENDBRANCH   9  10
ENDBRANCH   8   9
ENDBRANCH   7   8
ENDBRANCH   6   7
ENDBRANCH   5   6
ENDBRANCH   4   5
TORSDOF 10
ENDMDL
MODEL 2
REMARK VINA RESULT: -8.397246474      2.003      2.471
REMARK  10 active torsions:
REMARK  status: ('A' for Active; 'I' for Inactive)
REMARK    1  A    between atoms: C4_4  and  C5_5 
REMARK    2  A    between atoms: C5_5  and  C6_6 
REMARK    3  A    between atoms: C6_6  and  C7_7 
REMARK    4  A    between atoms: C7_7  and  C8_8 
REMARK    5  A    between atoms: C8_8  and  C9_9 
REMARK    6  A    between atoms: C9_9  and  C10_10 
REMARK    7  A    between atoms: C10_10  and  C11_11 
REMARK       I    between atoms: C11_11  and  N1_13 
REMARK    8  A    between atoms: N2_16  and  C14_17 
REMARK    9  A    between atoms: C17_20  and  N3_21 
REMARK   10  A    between atoms: C22_27  and  N4_28 
ROOT
HETATM    1  C1  UNL     1      39.948  36.463 -53.773  1.00  0.00     0.027 C 
HETATM    2  C2  UNL     1      39.041  36.917 -53.111  1.00  0.00    -0.026 C 
HETATM    3  C3  UNL     1      37.975  37.431 -52.334  1.00  0.00    -0.016 C 
HETATM    4  C4  UNL     1      37.063  37.853 -51.657  1.00  0.00    -0.093 C 
ENDROOT
BRANCH   4   5
HETATM    5  C5  UNL     1      35.957  38.335 -50.833  1.00  0.00     0.095 C 
BRANCH   5   6
HETATM    6  C6  UNL     1      36.543  39.184 -49.698  1.00  0.00     0.012 C 
BRANCH   6   7
HETATM    7  C7  UNL     1      37.105  38.219 -48.703  1.00  0.00     0.001 C 
BRANCH   7   8
HETATM    8  C8  UNL     1      38.595  38.262 -48.554  1.00  0.00     0.000 C 
BRANCH   8   9
HETATM    9  C9  UNL     1      39.129  39.601 -49.052  1.00  0.00     0.009 C 
BRANCH   9  10
HETATM   10  C10 UNL     1      40.280  39.336 -49.997  1.00  0.00     0.103 C 
BRANCH  10  11
HETATM   11  C11 UNL     1      41.000  40.580 -50.326  1.00  0.00     0.219 C 
HETATM   12  O1  UNL     1      41.402  41.297 -49.355  1.00  0.00    -0.273 OA
HETATM   13  N1  UNL     1      41.244  40.984 -51.667  1.00  0.00    -0.349 N 
HETATM   14  C12 UNL     1      40.771  40.130 -52.731  1.00  0.00     0.145 C 
HETATM   15  C25 UNL     1      41.934  42.204 -51.966  1.00  0.00     0.145 C 
HETATM   16  C13 UNL     1      41.942  39.904 -53.669  1.00  0.00     0.143 C 
HETATM   17  N2  UNL     1      42.375  41.219 -54.075  1.00  0.00    -0.378 N 
HETATM   18  C24 UNL     1      43.001  41.968 -52.981  1.00  0.00     0.143 C 
BRANCH  17  19
HETATM   19  C14 UNL     1      42.210  41.735 -55.374  1.00  0.00     0.032 A 
HETATM   20  C15 UNL     1      43.199  42.476 -55.973  1.00  0.00     0.031 A 
HETATM   21  C16 UNL     1      43.035  42.979 -57.247  1.00  0.00     0.034 A 
HETATM   22  C17 UNL     1      41.869  42.768 -57.996  1.00  0.00     0.064 A 
HETATM   23  C22 UNL     1      40.891  42.031 -57.391  1.00  0.00     0.131 A 
HETATM   24  C23 UNL     1      41.072  41.520 -56.083  1.00  0.00     0.067 A 
BRANCH  22  25
HETATM   25  N3  UNL     1      41.767  43.268 -59.297  1.00  0.00    -0.375 N 
HETATM   26  C18 UNL     1      41.209  44.598 -59.579  1.00  0.00     0.149 C 
HETATM   27  C19 UNL     1      39.928  44.312 -60.349  1.00  0.00     0.187 C 
HETATM   28  O2  UNL     1      40.103  43.358 -61.317  1.00  0.00    -0.388 OA
HETATM   29  C20 UNL     1      41.433  43.128 -61.650  1.00  0.00     0.187 C 
HETATM   30  C21 UNL     1      42.193  42.532 -60.485  1.00  0.00     0.149 C 
ENDBRANCH  22  25
BRANCH  23  31
HETATM   31  N4  UNL     1      39.668  41.760 -58.030  1.00  0.00    -0.113 N 
HETATM   32  O3  UNL     1      39.607  40.842 -58.861  1.00  0.00    -0.532 OA
HETATM   33  O4  UNL     1      38.558  42.487 -57.748  1.00  0.00    -0.532 OA
ENDBRANCH  23  31
ENDBRANCH  17  19
ENDBRANCH  10  11
ENDBRANCH   9  10
ENDBRANCH   8   9
ENDBRANCH   7   8
ENDBRANCH   6   7
ENDBRANCH   5   6
ENDBRANCH   4   5
TORSDOF 10
ENDMDL
MODEL 3
REMARK VINA RESULT: -8.344708684      3.031      4.631
REMARK  10 active torsions:
REMARK  status: ('A' for Active; 'I' for Inactive)
REMARK    1  A    between atoms: C4_4  and  C5_5 
REMARK    2  A    between atoms: C5_5  and  C6_6 
REMARK    3  A    between atoms: C6_6  and  C7_7 
REMARK    4  A    between atoms: C7_7  and  C8_8 
REMARK    5  A    between atoms: C8_8  and  C9_9 
REMARK    6  A    between atoms: C9_9  and  C10_10 
REMARK    7  A    between atoms: C10_10  and  C11_11 
REMARK       I    between atoms: C11_11  and  N1_13 
REMARK    8  A    between atoms: N2_16  and  C14_17 
REMARK    9  A    between atoms: C17_20  and  N3_21 
REMARK   10  A    between atoms: C22_27  and  N4_28 
ROOT
HETATM    1  C1  UNL     1      42.148  39.383 -53.868  1.00  0.00     0.027 C 
HETATM    2  C2  UNL     1      41.588  39.117 -52.826  1.00  0.00    -0.026 C 
HETATM    3  C3  UNL     1      40.939  38.790 -51.611  1.00  0.00    -0.016 C 
HETATM    4  C4  UNL     1      40.400  38.495 -50.568  1.00  0.00    -0.093 C 
ENDROOT
BRANCH   4   5
HETATM    5  C5  UNL     1      39.761  38.115 -49.310  1.00  0.00     0.095 C 
BRANCH   5   6
HETATM    6  C6  UNL     1      38.763  39.216 -48.930  1.00  0.00     0.012 C 
BRANCH   6   7
HETATM    7  C7  UNL     1      37.453  38.532 -48.702  1.00  0.00     0.001 C 
BRANCH   7   8
HETATM    8  C8  UNL     1      36.385  38.865 -49.698  1.00  0.00     0.000 C 
BRANCH   8   9
HETATM    9  C9  UNL     1      36.567  38.021 -50.956  1.00  0.00     0.009 C 
BRANCH   9  10
HETATM   10  C10 UNL     1      36.948  38.939 -52.097  1.00  0.00     0.103 C 
BRANCH  10  11
HETATM   11  C11 UNL     1      37.706  38.216 -53.135  1.00  0.00     0.219 C 
HETATM   12  O1  UNL     1      38.089  37.034 -52.862  1.00  0.00    -0.273 OA
HETATM   13  N1  UNL     1      38.008  38.796 -54.397  1.00  0.00    -0.349 N 
HETATM   14  C12 UNL     1      37.543  40.138 -54.657  1.00  0.00     0.145 C 
HETATM   15  C25 UNL     1      38.757  38.083 -55.387  1.00  0.00     0.145 C 
HETATM   16  C13 UNL     1      36.828  40.106 -55.995  1.00  0.00     0.143 C 
HETATM   17  N2  UNL     1      37.790  39.589 -56.938  1.00  0.00    -0.378 N 
HETATM   18  C24 UNL     1      38.087  38.171 -56.717  1.00  0.00     0.143 C 
BRANCH  17  19
HETATM   19  C14 UNL     1      38.386  40.359 -57.955  1.00  0.00     0.032 A 
HETATM   20  C15 UNL     1      39.577  39.982 -58.521  1.00  0.00     0.031 A 
HETATM   21  C16 UNL     1      40.159  40.737 -59.519  1.00  0.00     0.034 A 
HETATM   22  C17 UNL     1      39.577  41.916 -60.007  1.00  0.00     0.064 A 
HETATM   23  C22 UNL     1      38.392  42.282 -59.436  1.00  0.00     0.131 A 
HETATM   24  C23 UNL     1      37.806  41.498 -58.413  1.00  0.00     0.067 A 
BRANCH  22  25
HETATM   25  N3  UNL     1      40.188  42.624 -61.045  1.00  0.00    -0.375 N 
HETATM   26  C18 UNL     1      41.363  43.479 -60.819  1.00  0.00     0.149 C 
HETATM   27  C19 UNL     1      40.863  44.888 -61.103  1.00  0.00     0.187 C 
HETATM   28  O2  UNL     1      40.104  44.952 -62.243  1.00  0.00    -0.388 OA
HETATM   29  C20 UNL     1      40.251  43.854 -63.083  1.00  0.00     0.187 C 
HETATM   30  C21 UNL     1      39.726  42.594 -62.431  1.00  0.00     0.149 C 
ENDBRANCH  22  25
BRANCH  23  31
HETATM   31  N4  UNL     1      37.715  43.451 -59.826  1.00  0.00    -0.113 N 
HETATM   32  O3  UNL     1      36.821  43.377 -60.682  1.00  0.00    -0.532 OA
HETATM   33  O4  UNL     1      38.025  44.653 -59.279  1.00  0.00    -0.532 OA
ENDBRANCH  23  31
ENDBRANCH  17  19
ENDBRANCH  10  11
ENDBRANCH   9  10
ENDBRANCH   8   9
ENDBRANCH   7   8
ENDBRANCH   6   7
ENDBRANCH   5   6
ENDBRANCH   4   5
TORSDOF 10
ENDMDL
MODEL 4
REMARK VINA RESULT: -8.343403678      2.446      4.571
REMARK  10 active torsions:
REMARK  status: ('A' for Active; 'I' for Inactive)
REMARK    1  A    between atoms: C4_4  and  C5_5 
REMARK    2  A    between atoms: C5_5  and  C6_6 
REMARK    3  A    between atoms: C6_6  and  C7_7 
REMARK    4  A    between atoms: C7_7  and  C8_8 
REMARK    5  A    between atoms: C8_8  and  C9_9 
REMARK    6  A    between atoms: C9_9  and  C10_10 
REMARK    7  A    between atoms: C10_10  and  C11_11 
REMARK       I    between atoms: C11_11  and  N1_13 
REMARK    8  A    between atoms: N2_16  and  C14_17 
REMARK    9  A    between atoms: C17_20  and  N3_21 
REMARK   10  A    between atoms: C22_27  and  N4_28 
ROOT
HETATM    1  C1  UNL     1      42.558  43.758 -51.632  1.00  0.00     0.027 C 
HETATM    2  C2  UNL     1      42.059  42.722 -51.247  1.00  0.00    -0.026 C 
HETATM    3  C3  UNL     1      41.462  41.521 -50.795  1.00  0.00    -0.016 C 
HETATM    4  C4  UNL     1      40.931  40.501 -50.416  1.00  0.00    -0.093 C 
ENDROOT
BRANCH   4   5
HETATM    5  C5  UNL     1      40.267  39.282 -49.958  1.00  0.00     0.095 C 
BRANCH   5   6
HETATM    6  C6  UNL     1      39.202  39.678 -48.929  1.00  0.00     0.012 C 
BRANCH   6   7
HETATM    7  C7  UNL     1      38.221  38.549 -48.888  1.00  0.00     0.001 C 
BRANCH   7   8
HETATM    8  C8  UNL     1      36.810  38.926 -49.221  1.00  0.00     0.000 C 
BRANCH   8   9
HETATM    9  C9  UNL     1      36.308  38.081 -50.387  1.00  0.00     0.009 C 
BRANCH   9  10
HETATM   10  C10 UNL     1      36.640  38.798 -51.677  1.00  0.00     0.103 C 
BRANCH  10  11
HETATM   11  C11 UNL     1      37.509  37.975 -52.539  1.00  0.00     0.219 C 
HETATM   12  O1  UNL     1      37.317  36.718 -52.531  1.00  0.00    -0.273 OA
HETATM   13  N1  UNL     1      38.527  38.542 -53.353  1.00  0.00    -0.349 N 
HETATM   14  C12 UNL     1      38.697  39.976 -53.328  1.00  0.00     0.145 C 
HETATM   15  C25 UNL     1      39.370  37.724 -54.173  1.00  0.00     0.145 C 
HETATM   16  C13 UNL     1      38.710  40.443 -54.772  1.00  0.00     0.143 C 
HETATM   17  N2  UNL     1      39.771  39.703 -55.411  1.00  0.00    -0.378 N 
HETATM   18  C24 UNL     1      39.455  38.279 -55.555  1.00  0.00     0.143 C 
BRANCH  17  19
HETATM   19  C14 UNL     1      40.981  40.278 -55.844  1.00  0.00     0.032 A 
HETATM   20  C15 UNL     1      41.840  40.874 -54.954  1.00  0.00     0.031 A 
HETATM   21  C16 UNL     1      43.026  41.435 -55.381  1.00  0.00     0.034 A 
HETATM   22  C17 UNL     1      43.420  41.431 -56.726  1.00  0.00     0.064 A 
HETATM   23  C22 UNL     1      42.558  40.836 -57.603  1.00  0.00     0.131 A 
HETATM   24  C23 UNL     1      41.345  40.263 -57.152  1.00  0.00     0.067 A 
BRANCH  22  25
HETATM   25  N3  UNL     1      44.649  41.979 -57.102  1.00  0.00    -0.375 N 
HETATM   26  C18 UNL     1      45.858  41.156 -57.248  1.00  0.00     0.149 C 
HETATM   27  C19 UNL     1      46.782  41.645 -56.143  1.00  0.00     0.187 C 
HETATM   28  O2  UNL     1      46.819  43.013 -56.061  1.00  0.00    -0.388 OA
HETATM   29  C20 UNL     1      46.333  43.660 -57.191  1.00  0.00     0.187 C 
HETATM   30  C21 UNL     1      44.854  43.400 -57.377  1.00  0.00     0.149 C 
ENDBRANCH  22  25
BRANCH  23  31
HETATM   31  N4  UNL     1      42.830  40.777 -58.981  1.00  0.00    -0.113 N 
HETATM   32  O3  UNL     1      43.361  39.761 -59.453  1.00  0.00    -0.532 OA
HETATM   33  O4  UNL     1      42.520  41.816 -59.798  1.00  0.00    -0.532 OA
ENDBRANCH  23  31
ENDBRANCH  17  19
ENDBRANCH  10  11
ENDBRANCH   9  10
ENDBRANCH   8   9
ENDBRANCH   7   8
ENDBRANCH   6   7
ENDBRANCH   5   6
ENDBRANCH   4   5
TORSDOF 10
ENDMDL
MODEL 5
REMARK VINA RESULT: -8.290782571      3.193      4.824
REMARK  10 active torsions:
REMARK  status: ('A' for Active; 'I' for Inactive)
REMARK    1  A    between atoms: C4_4  and  C5_5 
REMARK    2  A    between atoms: C5_5  and  C6_6 
REMARK    3  A    between atoms: C6_6  and  C7_7 
REMARK    4  A    between atoms: C7_7  and  C8_8 
REMARK    5  A    between atoms: C8_8  and  C9_9 
REMARK    6  A    between atoms: C9_9  and  C10_10 
REMARK    7  A    between atoms: C10_10  and  C11_11 
REMARK       I    between atoms: C11_11  and  N1_13 
REMARK    8  A    between atoms: N2_16  and  C14_17 
REMARK    9  A    between atoms: C17_20  and  N3_21 
REMARK   10  A    between atoms: C22_27  and  N4_28 
ROOT
HETATM    1  C1  UNL     1      42.407  43.803 -50.901  1.00  0.00     0.027 C 
HETATM    2  C2  UNL     1      41.842  42.769 -50.617  1.00  0.00    -0.026 C 
HETATM    3  C3  UNL     1      41.194  41.552 -50.294  1.00  0.00    -0.016 C 
HETATM    4  C4  UNL     1      40.660  40.501 -50.018  1.00  0.00    -0.093 C 
ENDROOT
BRANCH   4   5
HETATM    5  C5  UNL     1      40.036  39.220 -49.696  1.00  0.00     0.095 C 
BRANCH   5   6
HETATM    6  C6  UNL     1      38.908  39.478 -48.689  1.00  0.00     0.012 C 
BRANCH   6   7
HETATM    7  C7  UNL     1      37.900  38.394 -48.906  1.00  0.00     0.001 C 
BRANCH   7   8
HETATM    8  C8  UNL     1      36.617  38.843 -49.534  1.00  0.00     0.000 C 
BRANCH   8   9
HETATM    9  C9  UNL     1      36.431  38.156 -50.884  1.00  0.00     0.009 C 
BRANCH   9  10
HETATM   10  C10 UNL     1      36.985  39.060 -51.962  1.00  0.00     0.103 C 
BRANCH  10  11
HETATM   11  C11 UNL     1      37.702  38.287 -52.992  1.00  0.00     0.219 C 
HETATM   12  O1  UNL     1      38.057  37.103 -52.693  1.00  0.00    -0.273 OA
HETATM   13  N1  UNL     1      37.997  38.824 -54.275  1.00  0.00    -0.349 N 
HETATM   14  C12 UNL     1      37.566  40.171 -54.565  1.00  0.00     0.145 C 
HETATM   15  C25 UNL     1      38.708  38.061 -55.258  1.00  0.00     0.145 C 
HETATM   16  C13 UNL     1      36.826  40.122 -55.888  1.00  0.00     0.143 C 
HETATM   17  N2  UNL     1      37.755  39.552 -56.833  1.00  0.00    -0.378 N 
HETATM   18  C24 UNL     1      38.016  38.132 -56.578  1.00  0.00     0.143 C 
BRANCH  17  19
HETATM   19  C14 UNL     1      38.354  40.276 -57.882  1.00  0.00     0.032 A 
HETATM   20  C15 UNL     1      39.509  39.834 -58.477  1.00  0.00     0.031 A 
HETATM   21  C16 UNL     1      40.093  40.545 -59.506  1.00  0.00     0.034 A 
HETATM   22  C17 UNL     1      39.551  41.741 -59.998  1.00  0.00     0.064 A 
HETATM   23  C22 UNL     1      38.402  42.171 -59.398  1.00  0.00     0.131 A 
HETATM   24  C23 UNL     1      37.813  41.433 -58.344  1.00  0.00     0.067 A 
BRANCH  22  25
HETATM   25  N3  UNL     1      40.161  42.403 -61.066  1.00  0.00    -0.375 N 
HETATM   26  C18 UNL     1      41.243  43.377 -60.863  1.00  0.00     0.149 C 
HETATM   27  C19 UNL     1      40.643  44.703 -61.309  1.00  0.00     0.187 C 
HETATM   28  O2  UNL     1      39.952  44.592 -62.488  1.00  0.00    -0.388 OA
HETATM   29  C20 UNL     1      40.243  43.439 -63.208  1.00  0.00     0.187 C 
HETATM   30  C21 UNL     1      39.789  42.202 -62.465  1.00  0.00     0.149 C 
ENDBRANCH  22  25
BRANCH  23  31
HETATM   31  N4  UNL     1      37.767  43.363 -59.789  1.00  0.00    -0.113 N 
HETATM   32  O3  UNL     1      37.995  44.408 -59.163  1.00  0.00    -0.532 OA
HETATM   33  O4  UNL     1      36.910  43.383 -60.841  1.00  0.00    -0.532 OA
ENDBRANCH  23  31
ENDBRANCH  17  19
ENDBRANCH  10  11
ENDBRANCH   9  10
ENDBRANCH   8   9
ENDBRANCH   7   8
ENDBRANCH   6   7
ENDBRANCH   5   6
ENDBRANCH   4   5
TORSDOF 10
ENDMDL
