MODEL 1
REMARK VINA RESULT: -8.131576297      0.000      0.000
REMARK  12 active torsions:
REMARK  status: ('A' for Active; 'I' for Inactive)
REMARK    1  A    between atoms: C2_2  and  N1_3 
REMARK    2  A    between atoms: N1_3  and  C3_4 
REMARK    3  A    between atoms: N1_3  and  C5_6 
REMARK    4  A    between atoms: C5_6  and  C6_7 
REMARK    5  A    between atoms: C6_7  and  O1_8 
REMARK    6  A    between atoms: O1_8  and  N2_9 
REMARK    7  A    between atoms: N3_17  and  C13_18 
REMARK    8  A    between atoms: C13_18  and  O2_19 
REMARK    9  A    between atoms: C13_18  and  C14_21 
REMARK   10  A    between atoms: C14_21  and  C15_22 
REMARK   11  A    between atoms: C19_26  and  O3_27 
REMARK   12  A    between atoms: C23_32  and  C24_33 
ROOT
HETATM    1  N2  UNL     1      41.839  40.166 -53.475  1.00  0.00    -0.271 N 
ATOM      2  H2  UNL     1      41.698  41.083 -53.050  1.00  0.00     0.193 HD
HETATM    3  C7  UNL     1      42.389  40.146 -54.637  1.00  0.00     0.053 C 
HETATM    4  C8  UNL     1      42.689  38.974 -55.441  1.00  0.00     0.078 C 
HETATM    5  C9  UNL     1      43.237  39.470 -56.737  1.00  0.00     0.008 C 
HETATM    6  C10 UNL     1      42.176  39.108 -57.712  1.00  0.00     0.015 C 
HETATM    7  C11 UNL     1      41.728  37.735 -57.182  1.00  0.00     0.041 C 
HETATM    8  C12 UNL     1      40.353  37.486 -57.754  1.00  0.00     0.132 C 
HETATM    9  N3  UNL     1      39.435  38.105 -56.878  1.00  0.00    -0.359 N 
HETATM   10  C18 UNL     1      40.197  38.643 -55.692  1.00  0.00     0.164 C 
HETATM   11  C19 UNL     1      41.534  38.043 -55.724  1.00  0.00     0.090 C 
HETATM   12  C21 UNL     1      43.502  40.940 -56.605  1.00  0.00     0.055 C 
HETATM   13  C22 UNL     1      42.527  41.874 -57.230  1.00  0.00     0.178 C 
HETATM   14  O4  UNL     1      41.831  42.031 -56.029  1.00  0.00    -0.373 OA
HETATM   15  C23 UNL     1      42.834  41.384 -55.325  1.00  0.00     0.110 C 
ENDROOT
BRANCH   1  16
HETATM   16  O1  UNL     1      41.426  39.089 -52.759  1.00  0.00    -0.279 OA
BRANCH  16  17
HETATM   17  C6  UNL     1      40.153  39.052 -52.142  1.00  0.00     0.231 C 
BRANCH  17  18
HETATM   18  C5  UNL     1      39.621  37.657 -51.957  1.00  0.00     0.301 C 
BRANCH  18  19
HETATM   19  N1  UNL     1      38.220  37.518 -52.223  1.00  0.00     0.089 N 
BRANCH  19  20
HETATM   20  C2  UNL     1      38.031  36.878 -53.489  1.00  0.00     0.268 C 
HETATM   21  C1  UNL     1      38.749  35.557 -53.586  1.00  0.00     0.037 C 
ENDBRANCH  19  20
BRANCH  19  22
HETATM   22  C3  UNL     1      37.476  38.724 -52.057  1.00  0.00     0.268 C 
HETATM   23  C4  UNL     1      36.475  38.702 -50.941  1.00  0.00     0.037 C 
ENDBRANCH  19  22
ENDBRANCH  18  19
ENDBRANCH  17  18
ENDBRANCH  16  17
ENDBRANCH   1  16
BRANCH  15  24
HETATM   24  C24 UNL     1      43.680  42.295 -54.461  1.00  0.00     0.018 C 
HETATM   25  C25 UNL     1      42.861  43.036 -53.442  1.00  0.00     0.013 C 
HETATM   26  C26 UNL     1      44.786  41.563 -53.744  1.00  0.00     0.013 C 
ENDBRANCH  15  24
BRANCH  11  27
HETATM   27  O3  UNL     1      41.693  36.903 -54.973  1.00  0.00    -0.382 OA
HETATM   28  C20 UNL     1      42.949  36.596 -54.546  1.00  0.00     0.202 C 
ENDBRANCH  11  27
BRANCH   9  29
HETATM   29  C13 UNL     1      38.050  38.265 -56.972  1.00  0.00     0.138 C 
BRANCH  29  30
HETATM   30  O2  UNL     1      37.395  37.129 -57.301  1.00  0.00    -0.346 OA
ATOM     31  H2  UNL     1      36.746  36.864 -56.659  1.00  0.00     0.219 HD
ENDBRANCH  29  30
BRANCH  29  32
HETATM   32  C14 UNL     1      37.148  39.343 -56.804  1.00  0.00     0.057 C 
BRANCH  32  33
HETATM   33  C15 UNL     1      37.022  40.418 -56.117  1.00  0.00    -0.084 C 
HETATM   34  C16 UNL     1      36.221  40.781 -54.949  1.00  0.00     0.043 C 
HETATM   35  C17 UNL     1      37.907  41.591 -56.627  1.00  0.00     0.043 C 
ENDBRANCH  32  33
ENDBRANCH  29  32
ENDBRANCH   9  29
TORSDOF 12
ENDMDL
MODEL 2
REMARK VINA RESULT: -8.010234926      3.742      6.080
REMARK  12 active torsions:
REMARK  status: ('A' for Active; 'I' for Inactive)
REMARK    1  A    between atoms: C2_2  and  N1_3 
REMARK    2  A    between atoms: N1_3  and  C3_4 
REMARK    3  A    between atoms: N1_3  and  C5_6 
REMARK    4  A    between atoms: C5_6  and  C6_7 
REMARK    5  A    between atoms: C6_7  and  O1_8 
REMARK    6  A    between atoms: O1_8  and  N2_9 
REMARK    7  A    between atoms: N3_17  and  C13_18 
REMARK    8  A    between atoms: C13_18  and  O2_19 
REMARK    9  A    between atoms: C13_18  and  C14_21 
REMARK   10  A    between atoms: C14_21  and  C15_22 
REMARK   11  A    between atoms: C19_26  and  O3_27 
REMARK   12  A    between atoms: C23_32  and  C24_33 
ROOT
HETATM    1  N2  UNL     1      43.699  43.189 -56.280  1.00  0.00    -0.271 N 
ATOM      2  H2  UNL     1      44.611  43.595 -56.073  1.00  0.00     0.193 HD
HETATM    3  C7  UNL     1      43.674  42.215 -57.119  1.00  0.00     0.053 C 
HETATM    4  C8  UNL     1      42.507  41.481 -57.572  1.00  0.00     0.078 C 
HETATM    5  C9  UNL     1      42.979  40.513 -58.605  1.00  0.00     0.008 C 
HETATM    6  C10 UNL     1      42.377  41.035 -59.859  1.00  0.00     0.015 C 
HETATM    7  C11 UNL     1      40.996  41.500 -59.364  1.00  0.00     0.041 C 
HETATM    8  C12 UNL     1      40.487  42.484 -60.390  1.00  0.00     0.132 C 
HETATM    9  N3  UNL     1      41.019  43.744 -60.038  1.00  0.00    -0.359 N 
HETATM   10  C18 UNL     1      41.763  43.598 -58.733  1.00  0.00     0.164 C 
HETATM   11  C19 UNL     1      41.384  42.306 -58.156  1.00  0.00     0.090 C 
HETATM   12  C21 UNL     1      44.479  40.495 -58.581  1.00  0.00     0.055 C 
HETATM   13  C22 UNL     1      45.193  41.230 -59.659  1.00  0.00     0.178 C 
HETATM   14  O4  UNL     1      45.331  42.368 -58.861  1.00  0.00    -0.373 OA
HETATM   15  C23 UNL     1      44.910  41.673 -57.739  1.00  0.00     0.110 C 
ENDROOT
BRANCH   1  16
HETATM   16  O1  UNL     1      42.628  43.732 -55.644  1.00  0.00    -0.279 OA
BRANCH  16  17
HETATM   17  C6  UNL     1      42.048  43.113 -54.511  1.00  0.00     0.231 C 
BRANCH  17  18
HETATM   18  C5  UNL     1      42.939  43.134 -53.300  1.00  0.00     0.301 C 
BRANCH  18  19
HETATM   19  N1  UNL     1      42.621  42.143 -52.314  1.00  0.00     0.089 N 
BRANCH  19  20
HETATM   20  C2  UNL     1      41.936  41.049 -52.934  1.00  0.00     0.268 C 
HETATM   21  C1  UNL     1      41.216  40.176 -51.941  1.00  0.00     0.037 C 
ENDBRANCH  19  20
BRANCH  19  22
HETATM   22  C3  UNL     1      41.968  42.666 -51.157  1.00  0.00     0.268 C 
HETATM   23  C4  UNL     1      42.206  44.124 -50.901  1.00  0.00     0.037 C 
ENDBRANCH  19  22
ENDBRANCH  18  19
ENDBRANCH  17  18
ENDBRANCH  16  17
ENDBRANCH   1  16
BRANCH  15  24
HETATM   24  C24 UNL     1      46.009  41.363 -56.746  1.00  0.00     0.018 C 
HETATM   25  C25 UNL     1      46.817  42.579 -56.392  1.00  0.00     0.013 C 
HETATM   26  C26 UNL     1      45.492  40.746 -55.471  1.00  0.00     0.013 C 
ENDBRANCH  15  24
BRANCH  11  27
HETATM   27  O3  UNL     1      40.346  42.337 -57.255  1.00  0.00    -0.382 OA
HETATM   28  C20 UNL     1      39.784  41.151 -56.894  1.00  0.00     0.202 C 
ENDBRANCH  11  27
BRANCH   9  29
HETATM   29  C13 UNL     1      40.947  44.978 -60.687  1.00  0.00     0.138 C 
BRANCH  29  30
HETATM   30  O2  UNL     1      40.508  45.983 -59.897  1.00  0.00    -0.346 OA
ATOM     31  H2  UNL     1      39.561  46.022 -59.821  1.00  0.00     0.219 HD
ENDBRANCH  29  30
BRANCH  29  32
HETATM   32  C14 UNL     1      41.225  45.444 -61.995  1.00  0.00     0.057 C 
BRANCH  32  33
HETATM   33  C15 UNL     1      41.582  44.994 -63.141  1.00  0.00    -0.084 C 
HETATM   34  C16 UNL     1      42.709  44.183 -63.600  1.00  0.00     0.043 C 
HETATM   35  C17 UNL     1      40.617  45.388 -64.294  1.00  0.00     0.043 C 
ENDBRANCH  32  33
ENDBRANCH  29  32
ENDBRANCH   9  29
TORSDOF 12
ENDMDL
MODEL 3
REMARK VINA RESULT: -7.923998275      2.936      4.736
REMARK  12 active torsions:
REMARK  status: ('A' for Active; 'I' for Inactive)
REMARK    1  A    between atoms: C2_2  and  N1_3 
REMARK    2  A    between atoms: N1_3  and  C3_4 
REMARK    3  A    between atoms: N1_3  and  C5_6 
REMARK    4  A    between atoms: C5_6  and  C6_7 
REMARK    5  A    between atoms: C6_7  and  O1_8 
REMARK    6  A    between atoms: O1_8  and  N2_9 
REMARK    7  A    between atoms: N3_17  and  C13_18 
REMARK    8  A    between atoms: C13_18  and  O2_19 
REMARK    9  A    between atoms: C13_18  and  C14_21 
REMARK   10  A    between atoms: C14_21  and  C15_22 
REMARK   11  A    between atoms: C19_26  and  O3_27 
REMARK   12  A    between atoms: C23_32  and  C24_33 
ROOT
HETATM    1  N2  UNL     1      41.940  41.445 -55.660  1.00  0.00    -0.271 N 
ATOM      2  H2  UNL     1      42.039  41.858 -54.732  1.00  0.00     0.193 HD
HETATM    3  C7  UNL     1      42.968  41.499 -56.430  1.00  0.00     0.053 C 
HETATM    4  C8  UNL     1      43.072  40.987 -57.785  1.00  0.00     0.078 C 
HETATM    5  C9  UNL     1      44.424  41.369 -58.288  1.00  0.00     0.008 C 
HETATM    6  C10 UNL     1      44.121  42.369 -59.344  1.00  0.00     0.015 C 
HETATM    7  C11 UNL     1      42.860  41.764 -59.986  1.00  0.00     0.041 C 
HETATM    8  C12 UNL     1      42.172  42.893 -60.715  1.00  0.00     0.132 C 
HETATM    9  N3  UNL     1      41.355  43.546 -59.765  1.00  0.00    -0.359 N 
HETATM   10  C18 UNL     1      41.423  42.775 -58.470  1.00  0.00     0.164 C 
HETATM   11  C19 UNL     1      42.031  41.476 -58.766  1.00  0.00     0.090 C 
HETATM   12  C21 UNL     1      45.226  41.890 -57.132  1.00  0.00     0.055 C 
HETATM   13  C22 UNL     1      45.397  43.364 -57.023  1.00  0.00     0.178 C 
HETATM   14  O4  UNL     1      44.315  43.475 -56.145  1.00  0.00    -0.373 OA
HETATM   15  C23 UNL     1      44.255  42.099 -55.994  1.00  0.00     0.110 C 
ENDROOT
BRANCH   1  16
HETATM   16  O1  UNL     1      40.736  40.894 -55.959  1.00  0.00    -0.279 OA
BRANCH  16  17
HETATM   17  C6  UNL     1      40.004  40.147 -55.005  1.00  0.00     0.231 C 
BRANCH  17  18
HETATM   18  C5  UNL     1      40.765  38.971 -54.459  1.00  0.00     0.301 C 
BRANCH  18  19
HETATM   19  N1  UNL     1      40.371  37.705 -55.006  1.00  0.00     0.089 N 
BRANCH  19  20
HETATM   20  C2  UNL     1      40.577  36.676 -54.033  1.00  0.00     0.268 C 
HETATM   21  C1  UNL     1      39.306  35.951 -53.676  1.00  0.00     0.037 C 
ENDBRANCH  19  20
BRANCH  19  22
HETATM   22  C3  UNL     1      40.936  37.427 -56.287  1.00  0.00     0.268 C 
HETATM   23  C4  UNL     1      42.425  37.579 -56.368  1.00  0.00     0.037 C 
ENDBRANCH  19  22
ENDBRANCH  18  19
ENDBRANCH  17  18
ENDBRANCH  16  17
ENDBRANCH   1  16
BRANCH  15  24
HETATM   24  C24 UNL     1      44.744  41.594 -54.654  1.00  0.00     0.018 C 
HETATM   25  C25 UNL     1      43.950  42.156 -53.509  1.00  0.00     0.013 C 
HETATM   26  C26 UNL     1      44.729  40.089 -54.552  1.00  0.00     0.013 C 
ENDBRANCH  15  24
BRANCH  11  27
HETATM   27  O3  UNL     1      41.152  40.450 -59.022  1.00  0.00    -0.382 OA
HETATM   28  C20 UNL     1      41.653  39.310 -59.573  1.00  0.00     0.202 C 
ENDBRANCH  11  27
BRANCH   9  29
HETATM   29  C13 UNL     1      40.576  44.700 -59.871  1.00  0.00     0.138 C 
BRANCH  29  30
HETATM   30  O2  UNL     1      41.271  45.788 -60.275  1.00  0.00    -0.346 OA
ATOM     31  H2  UNL     1      41.761  46.207 -59.578  1.00  0.00     0.219 HD
ENDBRANCH  29  30
BRANCH  29  32
HETATM   32  C14 UNL     1      39.214  45.018 -59.655  1.00  0.00     0.057 C 
BRANCH  32  33
HETATM   33  C15 UNL     1      38.047  44.547 -59.899  1.00  0.00    -0.084 C 
HETATM   34  C16 UNL     1      36.869  45.074 -60.587  1.00  0.00     0.043 C 
HETATM   35  C17 UNL     1      37.828  43.109 -59.350  1.00  0.00     0.043 C 
ENDBRANCH  32  33
ENDBRANCH  29  32
ENDBRANCH   9  29
TORSDOF 12
ENDMDL
MODEL 4
REMARK VINA RESULT: -7.920167547      2.892      4.883
REMARK  12 active torsions:
REMARK  status: ('A' for Active; 'I' for Inactive)
REMARK    1  A    between atoms: C2_2  and  N1_3 
REMARK    2  A    between atoms: N1_3  and  C3_4 
REMARK    3  A    between atoms: N1_3  and  C5_6 
REMARK    4  A    between atoms: C5_6  and  C6_7 
REMARK    5  A    between atoms: C6_7  and  O1_8 
REMARK    6  A    between atoms: O1_8  and  N2_9 
REMARK    7  A    between atoms: N3_17  and  C13_18 
REMARK    8  A    between atoms: C13_18  and  O2_19 
REMARK    9  A    between atoms: C13_18  and  C14_21 
REMARK   10  A    between atoms: C14_21  and  C15_22 
REMARK   11  A    between atoms: C19_26  and  O3_27 
REMARK   12  A    between atoms: C23_32  and  C24_33 
ROOT
HETATM    1  N2  UNL     1      42.041  41.434 -55.629  1.00  0.00    -0.271 N 
ATOM      2  H2  UNL     1      42.156  41.851 -54.705  1.00  0.00     0.193 HD
HETATM    3  C7  UNL     1      43.050  41.501 -56.423  1.00  0.00     0.053 C 
HETATM    4  C8  UNL     1      43.130  40.987 -57.779  1.00  0.00     0.078 C 
HETATM    5  C9  UNL     1      44.464  41.389 -58.315  1.00  0.00     0.008 C 
HETATM    6  C10 UNL     1      44.120  42.381 -59.367  1.00  0.00     0.015 C 
HETATM    7  C11 UNL     1      42.854  41.753 -59.976  1.00  0.00     0.041 C 
HETATM    8  C12 UNL     1      42.131  42.868 -60.692  1.00  0.00     0.132 C 
HETATM    9  N3  UNL     1      41.326  43.511 -59.725  1.00  0.00    -0.359 N 
HETATM   10  C18 UNL     1      41.437  42.746 -58.430  1.00  0.00     0.164 C 
HETATM   11  C19 UNL     1      42.059  41.455 -58.736  1.00  0.00     0.090 C 
HETATM   12  C21 UNL     1      45.284  41.927 -57.179  1.00  0.00     0.055 C 
HETATM   13  C22 UNL     1      45.434  43.403 -57.079  1.00  0.00     0.178 C 
HETATM   14  O4  UNL     1      44.371  43.500 -56.176  1.00  0.00    -0.373 OA
HETATM   15  C23 UNL     1      44.336  42.124 -56.020  1.00  0.00     0.110 C 
ENDROOT
BRANCH   1  16
HETATM   16  O1  UNL     1      40.839  40.862 -55.898  1.00  0.00    -0.279 OA
BRANCH  16  17
HETATM   17  C6  UNL     1      40.536  39.543 -55.485  1.00  0.00     0.231 C 
BRANCH  17  18
HETATM   18  C5  UNL     1      39.381  38.936 -56.233  1.00  0.00     0.301 C 
BRANCH  18  19
HETATM   19  N1  UNL     1      38.355  39.869 -56.597  1.00  0.00     0.089 N 
BRANCH  19  20
HETATM   20  C2  UNL     1      37.410  39.986 -55.528  1.00  0.00     0.268 C 
HETATM   21  C1  UNL     1      37.311  41.388 -54.989  1.00  0.00     0.037 C 
ENDBRANCH  19  20
BRANCH  19  22
HETATM   22  C3  UNL     1      37.772  39.619 -57.875  1.00  0.00     0.268 C 
HETATM   23  C4  UNL     1      36.305  39.311 -57.851  1.00  0.00     0.037 C 
ENDBRANCH  19  22
ENDBRANCH  18  19
ENDBRANCH  17  18
ENDBRANCH  16  17
ENDBRANCH   1  16
BRANCH  15  24
HETATM   24  C24 UNL     1      44.865  41.631 -54.690  1.00  0.00     0.018 C 
HETATM   25  C25 UNL     1      44.079  42.172 -53.529  1.00  0.00     0.013 C 
HETATM   26  C26 UNL     1      44.891  40.127 -54.589  1.00  0.00     0.013 C 
ENDBRANCH  15  24
BRANCH  11  27
HETATM   27  O3  UNL     1      41.191  40.415 -58.969  1.00  0.00    -0.382 OA
HETATM   28  C20 UNL     1      41.714  39.243 -59.424  1.00  0.00     0.202 C 
ENDBRANCH  11  27
BRANCH   9  29
HETATM   29  C13 UNL     1      40.527  44.653 -59.817  1.00  0.00     0.138 C 
BRANCH  29  30
HETATM   30  O2  UNL     1      41.199  45.755 -60.218  1.00  0.00    -0.346 OA
ATOM     31  H2  UNL     1      40.689  46.330 -60.777  1.00  0.00     0.219 HD
ENDBRANCH  29  30
BRANCH  29  32
HETATM   32  C14 UNL     1      39.161  44.945 -59.588  1.00  0.00     0.057 C 
BRANCH  32  33
HETATM   33  C15 UNL     1      37.999  44.487 -59.875  1.00  0.00    -0.084 C 
HETATM   34  C16 UNL     1      36.826  45.053 -60.540  1.00  0.00     0.043 C 
HETATM   35  C17 UNL     1      37.780  43.014 -59.424  1.00  0.00     0.043 C 
ENDBRANCH  32  33
ENDBRANCH  29  32
ENDBRANCH   9  29
TORSDOF 12
ENDMDL
MODEL 5
REMARK VINA RESULT: -7.892817608      2.907      4.660
REMARK  12 active torsions:
REMARK  status: ('A' for Active; 'I' for Inactive)
REMARK    1  A    between atoms: C2_2  and  N1_3 
REMARK    2  A    between atoms: N1_3  and  C3_4 
REMARK    3  A    between atoms: N1_3  and  C5_6 
REMARK    4  A    between atoms: C5_6  and  C6_7 
REMARK    5  A    between atoms: C6_7  and  O1_8 
REMARK    6  A    between atoms: O1_8  and  N2_9 
REMARK    7  A    between atoms: N3_17  and  C13_18 
REMARK    8  A    between atoms: C13_18  and  O2_19 
REMARK    9  A    between atoms: C13_18  and  C14_21 
REMARK   10  A    between atoms: C14_21  and  C15_22 
REMARK   11  A    between atoms: C19_26  and  O3_27 
REMARK   12  A    between atoms: C23_32  and  C24_33 
ROOT
HETATM    1  N2  UNL     1      42.025  41.465 -55.611  1.00  0.00    -0.271 N 
ATOM      2  H2  UNL     1      42.138  41.889 -54.690  1.00  0.00     0.193 HD
HETATM    3  C7  UNL     1      43.041  41.505 -56.397  1.00  0.00     0.053 C 
HETATM    4  C8  UNL     1      43.125  40.976 -57.746  1.00  0.00     0.078 C 
HETATM    5  C9  UNL     1      44.470  41.347 -58.273  1.00  0.00     0.008 C 
HETATM    6  C10 UNL     1      44.156  42.334 -59.338  1.00  0.00     0.015 C 
HETATM    7  C11 UNL     1      42.884  41.724 -59.954  1.00  0.00     0.041 C 
HETATM    8  C12 UNL     1      42.188  42.846 -60.687  1.00  0.00     0.132 C 
HETATM    9  N3  UNL     1      41.387  43.514 -59.734  1.00  0.00    -0.359 N 
HETATM   10  C18 UNL     1      41.471  42.760 -58.430  1.00  0.00     0.164 C 
HETATM   11  C19 UNL     1      42.072  41.454 -58.718  1.00  0.00     0.090 C 
HETATM   12  C21 UNL     1      45.290  41.881 -57.136  1.00  0.00     0.055 C 
HETATM   13  C22 UNL     1      45.467  43.355 -57.049  1.00  0.00     0.178 C 
HETATM   14  O4  UNL     1      44.399  43.481 -56.157  1.00  0.00    -0.373 OA
HETATM   15  C23 UNL     1      44.336  42.107 -55.987  1.00  0.00     0.110 C 
ENDROOT
BRANCH   1  16
HETATM   16  O1  UNL     1      40.814  40.913 -55.886  1.00  0.00    -0.279 OA
BRANCH  16  17
HETATM   17  C6  UNL     1      40.103  40.166 -54.917  1.00  0.00     0.231 C 
BRANCH  17  18
HETATM   18  C5  UNL     1      39.461  38.926 -55.476  1.00  0.00     0.301 C 
BRANCH  18  19
HETATM   19  N1  UNL     1      40.217  37.725 -55.273  1.00  0.00     0.089 N 
BRANCH  19  20
HETATM   20  C2  UNL     1      40.968  37.423 -56.454  1.00  0.00     0.268 C 
HETATM   21  C1  UNL     1      42.452  37.579 -56.256  1.00  0.00     0.037 C 
ENDBRANCH  19  20
BRANCH  19  22
HETATM   22  C3  UNL     1      39.447  36.634 -54.770  1.00  0.00     0.268 C 
HETATM   23  C4  UNL     1      39.695  36.295 -53.330  1.00  0.00     0.037 C 
ENDBRANCH  19  22
ENDBRANCH  18  19
ENDBRANCH  17  18
ENDBRANCH  16  17
ENDBRANCH   1  16
BRANCH  15  24
HETATM   24  C24 UNL     1      44.843  41.618 -54.648  1.00  0.00     0.018 C 
HETATM   25  C25 UNL     1      44.028  42.148 -53.502  1.00  0.00     0.013 C 
HETATM   26  C26 UNL     1      44.883  40.114 -54.548  1.00  0.00     0.013 C 
ENDBRANCH  15  24
BRANCH  11  27
HETATM   27  O3  UNL     1      41.186  40.428 -58.948  1.00  0.00    -0.382 OA
HETATM   28  C20 UNL     1      41.651  39.323 -59.593  1.00  0.00     0.202 C 
ENDBRANCH  11  27
BRANCH   9  29
HETATM   29  C13 UNL     1      40.610  44.669 -59.845  1.00  0.00     0.138 C 
BRANCH  29  30
HETATM   30  O2  UNL     1      41.309  45.756 -60.241  1.00  0.00    -0.346 OA
ATOM     31  H2  UNL     1      42.129  45.873 -59.776  1.00  0.00     0.219 HD
ENDBRANCH  29  30
BRANCH  29  32
HETATM   32  C14 UNL     1      39.246  44.988 -59.639  1.00  0.00     0.057 C 
BRANCH  32  33
HETATM   33  C15 UNL     1      38.081  44.516 -59.888  1.00  0.00    -0.084 C 
HETATM   34  C16 UNL     1      36.892  45.057 -60.546  1.00  0.00     0.043 C 
HETATM   35  C17 UNL     1      37.879  43.056 -59.390  1.00  0.00     0.043 C 
ENDBRANCH  32  33
ENDBRANCH  29  32
ENDBRANCH   9  29
TORSDOF 12
ENDMDL
