MODEL 1
REMARK VINA RESULT: -8.797698373      0.000      0.000
REMARK  9 active torsions:
REMARK  status: ('A' for Active; 'I' for Inactive)
REMARK    1  A    between atoms: C3_3  and  C4_4 
REMARK    2  A    between atoms: C4_4  and  N1_5 
REMARK    3  A    between atoms: C10_12  and  O1_13 
REMARK    4  A    between atoms: O1_13  and  C11_14 
REMARK    5  A    between atoms: C11_14  and  C12_15 
REMARK    6  A    between atoms: C12_15  and  C13_16 
REMARK    7  A    between atoms: C13_16  and  N2_17 
REMARK    8  A    between atoms: N3_23  and  C19_24 
REMARK    9  A    between atoms: C19_24  and  C20_25 
ROOT
HETATM    1  C12 UNL     1      42.804  37.806 -56.212  1.00  0.00     0.057 C 
ENDROOT
BRANCH   1   2
HETATM    2  C11 UNL     1      41.436  37.354 -56.701  1.00  0.00     0.177 C 
BRANCH   2   3
HETATM    3  O1  UNL     1      40.408  38.143 -56.119  1.00  0.00    -0.351 OA
BRANCH   3   4
HETATM    4  C10 UNL     1      39.644  37.700 -55.059  1.00  0.00     0.069 A 
HETATM    5  C9  UNL     1      38.878  38.502 -54.244  1.00  0.00     0.045 A 
HETATM    6  C3  UNL     1      38.129  38.044 -53.199  1.00  0.00    -0.028 A 
HETATM    7  C2  UNL     1      38.161  36.671 -52.967  1.00  0.00     0.009 A 
HETATM    8  C1  UNL     1      38.906  35.811 -53.742  1.00  0.00     0.003 A 
HETATM    9  C25 UNL     1      39.636  36.357 -54.781  1.00  0.00     0.037 A 
BRANCH   6  10
HETATM   10  C4  UNL     1      37.279  38.866 -52.319  1.00  0.00     0.311 C 
BRANCH  10  11
HETATM   11  N1  UNL     1      37.411  38.474 -50.913  1.00  0.00     0.094 N 
HETATM   12  C5  UNL     1      36.190  38.885 -50.198  1.00  0.00     0.283 C 
HETATM   13  C6  UNL     1      36.011  37.846 -49.095  1.00  0.00     0.104 C 
HETATM   14  S1  UNL     1      37.457  37.968 -48.010  1.00  0.00    -0.166 SA
HETATM   15  C7  UNL     1      38.851  38.550 -48.973  1.00  0.00     0.104 C 
HETATM   16  C8  UNL     1      38.479  39.216 -50.270  1.00  0.00     0.283 C 
ENDBRANCH  10  11
ENDBRANCH   6  10
ENDBRANCH   3   4
ENDBRANCH   2   3
ENDBRANCH   1   2
BRANCH   1  17
HETATM   17  C13 UNL     1      43.192  38.991 -57.051  1.00  0.00     0.277 C 
BRANCH  17  18
HETATM   18  N2  UNL     1      43.640  40.128 -56.320  1.00  0.00     0.108 N 
HETATM   19  C14 UNL     1      43.360  41.392 -56.968  1.00  0.00     0.306 C 
HETATM   20  C15 UNL     1      44.704  42.109 -57.122  1.00  0.00     0.153 C 
HETATM   21  C16 UNL     1      45.864  41.164 -57.009  1.00  0.00     0.071 C 
HETATM   22  O3  UNL     1      44.991  42.677 -55.905  1.00  0.00    -0.373 OA
HETATM   23  C17 UNL     1      45.975  41.772 -55.603  1.00  0.00     0.163 C 
HETATM   24  C18 UNL     1      45.564  40.688 -54.632  1.00  0.00     0.097 C 
HETATM   25  N3  UNL     1      44.281  40.770 -54.098  1.00  0.00    -0.343 N 
HETATM   26  C24 UNL     1      43.257  40.137 -54.923  1.00  0.00     0.401 C 
BRANCH  25  27
HETATM   27  C19 UNL     1      43.819  41.800 -53.292  1.00  0.00     0.097 C 
BRANCH  27  28
HETATM   28  C20 UNL     1      42.365  42.084 -53.175  1.00  0.00     0.160 C 
HETATM   29  C21 UNL     1      41.760  42.028 -51.811  1.00  0.00     0.039 C 
HETATM   30  C22 UNL     1      42.489  43.156 -51.107  1.00  0.00     0.029 C 
HETATM   31  C23 UNL     1      42.712  44.113 -52.265  1.00  0.00     0.168 C 
HETATM   32  O2  UNL     1      42.241  43.501 -53.398  1.00  0.00    -0.381 OA
ENDBRANCH  27  28
ENDBRANCH  25  27
ENDBRANCH  17  18
ENDBRANCH   1  17
TORSDOF 9
ENDMDL
MODEL 2
REMARK VINA RESULT: -8.776768977      2.310      5.324
REMARK  9 active torsions:
REMARK  status: ('A' for Active; 'I' for Inactive)
REMARK    1  A    between atoms: C3_3  and  C4_4 
REMARK    2  A    between atoms: C4_4  and  N1_5 
REMARK    3  A    between atoms: C10_12  and  O1_13 
REMARK    4  A    between atoms: O1_13  and  C11_14 
REMARK    5  A    between atoms: C11_14  and  C12_15 
REMARK    6  A    between atoms: C12_15  and  C13_16 
REMARK    7  A    between atoms: C13_16  and  N2_17 
REMARK    8  A    between atoms: N3_23  and  C19_24 
REMARK    9  A    between atoms: C19_24  and  C20_25 
ROOT
HETATM    1  C12 UNL     1      42.623  43.049 -52.024  1.00  0.00     0.057 C 
ENDROOT
BRANCH   1   2
HETATM    2  C11 UNL     1      41.644  42.975 -50.862  1.00  0.00     0.177 C 
BRANCH   2   3
HETATM    3  O1  UNL     1      41.840  41.783 -50.114  1.00  0.00    -0.351 OA
BRANCH   3   4
HETATM    4  C10 UNL     1      40.856  40.825 -49.975  1.00  0.00     0.069 A 
HETATM    5  C9  UNL     1      40.597  39.818 -50.875  1.00  0.00     0.045 A 
HETATM    6  C3  UNL     1      39.617  38.880 -50.719  1.00  0.00    -0.028 A 
HETATM    7  C2  UNL     1      38.847  38.974 -49.563  1.00  0.00     0.009 A 
HETATM    8  C1  UNL     1      39.051  39.956 -48.620  1.00  0.00     0.003 A 
HETATM    9  C25 UNL     1      40.064  40.867 -48.855  1.00  0.00     0.037 A 
BRANCH   6  10
HETATM   10  C4  UNL     1      39.324  37.774 -51.648  1.00  0.00     0.311 C 
BRANCH  10  11
HETATM   11  N1  UNL     1      39.016  38.262 -52.996  1.00  0.00     0.094 N 
HETATM   12  C5  UNL     1      37.670  38.862 -52.976  1.00  0.00     0.283 C 
HETATM   13  C6  UNL     1      37.720  39.973 -54.022  1.00  0.00     0.104 C 
HETATM   14  S1  UNL     1      38.045  39.184 -55.621  1.00  0.00    -0.166 SA
HETATM   15  C7  UNL     1      38.977  37.679 -55.341  1.00  0.00     0.104 C 
HETATM   16  C8  UNL     1      38.911  37.159 -53.931  1.00  0.00     0.283 C 
ENDBRANCH  10  11
ENDBRANCH   6  10
ENDBRANCH   3   4
ENDBRANCH   2   3
ENDBRANCH   1   2
BRANCH   1  17
HETATM   17  C13 UNL     1      41.844  42.721 -53.267  1.00  0.00     0.277 C 
BRANCH  17  18
HETATM   18  N2  UNL     1      42.495  41.832 -54.170  1.00  0.00     0.108 N 
HETATM   19  C14 UNL     1      41.586  41.072 -55.003  1.00  0.00     0.306 C 
HETATM   20  C15 UNL     1      41.910  39.595 -54.762  1.00  0.00     0.153 C 
HETATM   21  C16 UNL     1      42.669  39.384 -53.485  1.00  0.00     0.071 C 
HETATM   22  O3  UNL     1      43.017  39.303 -55.521  1.00  0.00    -0.373 OA
HETATM   23  C17 UNL     1      43.861  39.239 -54.442  1.00  0.00     0.163 C 
HETATM   24  C18 UNL     1      44.726  40.462 -54.241  1.00  0.00     0.097 C 
HETATM   25  N3  UNL     1      44.632  41.468 -55.198  1.00  0.00    -0.343 N 
HETATM   26  C24 UNL     1      43.566  42.431 -54.939  1.00  0.00     0.401 C 
BRANCH  25  27
HETATM   27  C19 UNL     1      44.975  41.330 -56.535  1.00  0.00     0.097 C 
BRANCH  27  28
HETATM   28  C20 UNL     1      44.224  42.054 -57.594  1.00  0.00     0.160 C 
HETATM   29  C21 UNL     1      44.947  42.358 -58.864  1.00  0.00     0.039 C 
HETATM   30  C22 UNL     1      45.231  40.966 -59.395  1.00  0.00     0.029 C 
HETATM   31  C23 UNL     1      44.019  40.214 -58.873  1.00  0.00     0.168 C 
HETATM   32  O2  UNL     1      43.289  41.091 -58.114  1.00  0.00    -0.381 OA
ENDBRANCH  27  28
ENDBRANCH  25  27
ENDBRANCH  17  18
ENDBRANCH   1  17
TORSDOF 9
ENDMDL
MODEL 3
REMARK VINA RESULT: -8.723795478      3.006      7.675
REMARK  9 active torsions:
REMARK  status: ('A' for Active; 'I' for Inactive)
REMARK    1  A    between atoms: C3_3  and  C4_4 
REMARK    2  A    between atoms: C4_4  and  N1_5 
REMARK    3  A    between atoms: C10_12  and  O1_13 
REMARK    4  A    between atoms: O1_13  and  C11_14 
REMARK    5  A    between atoms: C11_14  and  C12_15 
REMARK    6  A    between atoms: C12_15  and  C13_16 
REMARK    7  A    between atoms: C13_16  and  N2_17 
REMARK    8  A    between atoms: N3_23  and  C19_24 
REMARK    9  A    between atoms: C19_24  and  C20_25 
ROOT
HETATM    1  C12 UNL     1      40.357  38.153 -50.557  1.00  0.00     0.057 C 
ENDROOT
BRANCH   1   2
HETATM    2  C11 UNL     1      41.377  39.175 -51.038  1.00  0.00     0.177 C 
BRANCH   2   3
HETATM    3  O1  UNL     1      41.010  40.484 -50.624  1.00  0.00    -0.351 OA
BRANCH   3   4
HETATM    4  C10 UNL     1      41.511  41.620 -51.226  1.00  0.00     0.069 A 
HETATM    5  C9  UNL     1      41.756  41.760 -52.573  1.00  0.00     0.045 A 
HETATM    6  C3  UNL     1      42.253  42.893 -53.150  1.00  0.00    -0.028 A 
HETATM    7  C2  UNL     1      42.520  43.959 -52.294  1.00  0.00     0.009 A 
HETATM    8  C1  UNL     1      42.300  43.888 -50.937  1.00  0.00     0.003 A 
HETATM    9  C25 UNL     1      41.794  42.703 -50.434  1.00  0.00     0.037 A 
BRANCH   6  10
HETATM   10  C4  UNL     1      42.507  43.090 -54.588  1.00  0.00     0.311 C 
BRANCH  10  11
HETATM   11  N1  UNL     1      42.578  41.815 -55.308  1.00  0.00     0.094 N 
HETATM   12  C5  UNL     1      43.997  41.489 -55.537  1.00  0.00     0.283 C 
HETATM   13  C6  UNL     1      44.058  39.965 -55.519  1.00  0.00     0.104 C 
HETATM   14  S1  UNL     1      43.037  39.376 -56.896  1.00  0.00    -0.166 SA
HETATM   15  C7  UNL     1      41.746  40.578 -57.211  1.00  0.00     0.104 C 
HETATM   16  C8  UNL     1      42.013  41.944 -56.638  1.00  0.00     0.283 C 
ENDBRANCH  10  11
ENDBRANCH   6  10
ENDBRANCH   3   4
ENDBRANCH   2   3
ENDBRANCH   1   2
BRANCH   1  17
HETATM   17  C13 UNL     1      39.027  38.575 -51.114  1.00  0.00     0.277 C 
BRANCH  17  18
HETATM   18  N2  UNL     1      38.819  38.258 -52.487  1.00  0.00     0.108 N 
HETATM   19  C14 UNL     1      37.669  37.411 -52.727  1.00  0.00     0.306 C 
HETATM   20  C15 UNL     1      38.186  36.177 -53.470  1.00  0.00     0.153 C 
HETATM   21  C16 UNL     1      39.668  36.001 -53.310  1.00  0.00     0.071 C 
HETATM   22  O3  UNL     1      38.327  36.538 -54.788  1.00  0.00    -0.373 OA
HETATM   23  C17 UNL     1      39.697  36.572 -54.735  1.00  0.00     0.163 C 
HETATM   24  C18 UNL     1      40.293  37.957 -54.631  1.00  0.00     0.097 C 
HETATM   25  N3  UNL     1      39.410  39.032 -54.680  1.00  0.00    -0.343 N 
HETATM   26  C24 UNL     1      38.852  39.396 -53.381  1.00  0.00     0.401 C 
BRANCH  25  27
HETATM   27  C19 UNL     1      38.609  39.355 -55.765  1.00  0.00     0.097 C 
BRANCH  27  28
HETATM   28  C20 UNL     1      37.766  40.579 -55.753  1.00  0.00     0.160 C 
HETATM   29  C21 UNL     1      37.925  41.535 -56.889  1.00  0.00     0.039 C 
HETATM   30  C22 UNL     1      37.467  40.694 -58.064  1.00  0.00     0.029 C 
HETATM   31  C23 UNL     1      36.425  39.817 -57.391  1.00  0.00     0.168 C 
HETATM   32  O2  UNL     1      36.435  40.120 -56.055  1.00  0.00    -0.381 OA
ENDBRANCH  27  28
ENDBRANCH  25  27
ENDBRANCH  17  18
ENDBRANCH   1  17
TORSDOF 9
ENDMDL
MODEL 4
REMARK VINA RESULT: -8.597472821      3.084      7.943
REMARK  9 active torsions:
REMARK  status: ('A' for Active; 'I' for Inactive)
REMARK    1  A    between atoms: C3_3  and  C4_4 
REMARK    2  A    between atoms: C4_4  and  N1_5 
REMARK    3  A    between atoms: C10_12  and  O1_13 
REMARK    4  A    between atoms: O1_13  and  C11_14 
REMARK    5  A    between atoms: C11_14  and  C12_15 
REMARK    6  A    between atoms: C12_15  and  C13_16 
REMARK    7  A    between atoms: C13_16  and  N2_17 
REMARK    8  A    between atoms: N3_23  and  C19_24 
REMARK    9  A    between atoms: C19_24  and  C20_25 
ROOT
HETATM    1  C12 UNL     1      39.770  39.466 -50.063  1.00  0.00     0.057 C 
ENDROOT
BRANCH   1   2
HETATM    2  C11 UNL     1      41.153  40.018 -49.753  1.00  0.00     0.177 C 
BRANCH   2   3
HETATM    3  O1  UNL     1      41.161  41.436 -49.846  1.00  0.00    -0.351 OA
BRANCH   3   4
HETATM    4  C10 UNL     1      41.647  42.104 -50.951  1.00  0.00     0.069 A 
HETATM    5  C9  UNL     1      41.779  41.564 -52.209  1.00  0.00     0.045 A 
HETATM    6  C3  UNL     1      42.263  42.242 -53.291  1.00  0.00    -0.028 A 
HETATM    7  C2  UNL     1      42.639  43.565 -53.075  1.00  0.00     0.009 A 
HETATM    8  C1  UNL     1      42.534  44.170 -51.843  1.00  0.00     0.003 A 
HETATM    9  C25 UNL     1      42.034  43.412 -50.801  1.00  0.00     0.037 A 
BRANCH   6  10
HETATM   10  C4  UNL     1      42.399  41.706 -54.657  1.00  0.00     0.311 C 
BRANCH  10  11
HETATM   11  N1  UNL     1      43.606  42.206 -55.321  1.00  0.00     0.094 N 
HETATM   12  C5  UNL     1      43.240  42.654 -56.676  1.00  0.00     0.283 C 
HETATM   13  C6  UNL     1      44.199  43.801 -56.984  1.00  0.00     0.104 C 
HETATM   14  S1  UNL     1      45.875  43.111 -56.970  1.00  0.00    -0.166 SA
HETATM   15  C7  UNL     1      45.910  41.708 -55.855  1.00  0.00     0.104 C 
HETATM   16  C8  UNL     1      44.557  41.133 -55.535  1.00  0.00     0.283 C 
ENDBRANCH  10  11
ENDBRANCH   6  10
ENDBRANCH   3   4
ENDBRANCH   2   3
ENDBRANCH   1   2
BRANCH   1  17
HETATM   17  C13 UNL     1      39.975  38.122 -50.704  1.00  0.00     0.277 C 
BRANCH  17  18
HETATM   18  N2  UNL     1      39.861  38.106 -52.124  1.00  0.00     0.108 N 
HETATM   19  C14 UNL     1      38.887  39.043 -52.646  1.00  0.00     0.306 C 
HETATM   20  C15 UNL     1      37.897  38.222 -53.476  1.00  0.00     0.153 C 
HETATM   21  C16 UNL     1      37.945  36.763 -53.131  1.00  0.00     0.071 C 
HETATM   22  O3  UNL     1      38.492  37.999 -54.694  1.00  0.00    -0.373 OA
HETATM   23  C17 UNL     1      38.742  36.675 -54.440  1.00  0.00     0.163 C 
HETATM   24  C18 UNL     1      40.170  36.362 -54.054  1.00  0.00     0.097 C 
HETATM   25  N3  UNL     1      41.076  37.418 -54.075  1.00  0.00    -0.343 N 
HETATM   26  C24 UNL     1      41.122  38.182 -52.831  1.00  0.00     0.401 C 
BRANCH  25  27
HETATM   27  C19 UNL     1      41.439  38.134 -55.206  1.00  0.00     0.097 C 
BRANCH  27  28
HETATM   28  C20 UNL     1      41.964  37.440 -56.412  1.00  0.00     0.160 C 
HETATM   29  C21 UNL     1      41.014  37.206 -57.539  1.00  0.00     0.039 C 
HETATM   30  C22 UNL     1      40.678  38.624 -57.956  1.00  0.00     0.029 C 
HETATM   31  C23 UNL     1      41.985  39.329 -57.636  1.00  0.00     0.168 C 
HETATM   32  O2  UNL     1      42.816  38.405 -57.057  1.00  0.00    -0.381 OA
ENDBRANCH  27  28
ENDBRANCH  25  27
ENDBRANCH  17  18
ENDBRANCH   1  17
TORSDOF 9
ENDMDL
MODEL 5
REMARK VINA RESULT: -8.556609018      3.269      7.998
REMARK  9 active torsions:
REMARK  status: ('A' for Active; 'I' for Inactive)
REMARK    1  A    between atoms: C3_3  and  C4_4 
REMARK    2  A    between atoms: C4_4  and  N1_5 
REMARK    3  A    between atoms: C10_12  and  O1_13 
REMARK    4  A    between atoms: O1_13  and  C11_14 
REMARK    5  A    between atoms: C11_14  and  C12_15 
REMARK    6  A    between atoms: C12_15  and  C13_16 
REMARK    7  A    between atoms: C13_16  and  N2_17 
REMARK    8  A    between atoms: N3_23  and  C19_24 
REMARK    9  A    between atoms: C19_24  and  C20_25 
ROOT
HETATM    1  C12 UNL     1      40.055  38.256 -50.447  1.00  0.00     0.057 C 
ENDROOT
BRANCH   1   2
HETATM    2  C11 UNL     1      41.096  39.120 -51.143  1.00  0.00     0.177 C 
BRANCH   2   3
HETATM    3  O1  UNL     1      41.063  40.448 -50.641  1.00  0.00    -0.351 OA
BRANCH   3   4
HETATM    4  C10 UNL     1      41.528  41.526 -51.366  1.00  0.00     0.069 A 
HETATM    5  C9  UNL     1      41.657  41.565 -52.735  1.00  0.00     0.045 A 
HETATM    6  C3  UNL     1      42.121  42.642 -53.434  1.00  0.00    -0.028 A 
HETATM    7  C2  UNL     1      42.479  43.760 -52.684  1.00  0.00     0.009 A 
HETATM    8  C1  UNL     1      42.376  43.791 -51.312  1.00  0.00     0.003 A 
HETATM    9  C25 UNL     1      41.897  42.657 -50.682  1.00  0.00     0.037 A 
BRANCH   6  10
HETATM   10  C4  UNL     1      42.252  42.731 -54.899  1.00  0.00     0.311 C 
BRANCH  10  11
HETATM   11  N1  UNL     1      43.656  42.719 -55.321  1.00  0.00     0.094 N 
HETATM   12  C5  UNL     1      43.703  42.904 -56.783  1.00  0.00     0.283 C 
HETATM   13  C6  UNL     1      45.009  43.649 -57.043  1.00  0.00     0.104 C 
HETATM   14  S1  UNL     1      46.356  42.568 -56.493  1.00  0.00    -0.166 SA
HETATM   15  C7  UNL     1      45.749  41.519 -55.173  1.00  0.00     0.104 C 
HETATM   16  C8  UNL     1      44.249  41.415 -55.099  1.00  0.00     0.283 C 
ENDBRANCH  10  11
ENDBRANCH   6  10
ENDBRANCH   3   4
ENDBRANCH   2   3
ENDBRANCH   1   2
BRANCH   1  17
HETATM   17  C13 UNL     1      38.729  38.590 -51.070  1.00  0.00     0.277 C 
BRANCH  17  18
HETATM   18  N2  UNL     1      38.590  38.211 -52.436  1.00  0.00     0.108 N 
HETATM   19  C14 UNL     1      37.579  37.201 -52.667  1.00  0.00     0.306 C 
HETATM   20  C15 UNL     1      38.281  36.037 -53.370  1.00  0.00     0.153 C 
HETATM   21  C16 UNL     1      39.769  36.082 -53.188  1.00  0.00     0.071 C 
HETATM   22  O3  UNL     1      38.388  36.382 -54.695  1.00  0.00    -0.373 OA
HETATM   23  C17 UNL     1      39.738  36.615 -54.627  1.00  0.00     0.163 C 
HETATM   24  C18 UNL     1      40.126  38.074 -54.554  1.00  0.00     0.097 C 
HETATM   25  N3  UNL     1      39.097  39.008 -54.642  1.00  0.00    -0.343 N 
HETATM   26  C24 UNL     1      38.472  39.320 -53.361  1.00  0.00     0.401 C 
BRANCH  25  27
HETATM   27  C19 UNL     1      38.274  39.184 -55.745  1.00  0.00     0.097 C 
BRANCH  27  28
HETATM   28  C20 UNL     1      37.179  40.188 -55.727  1.00  0.00     0.160 C 
HETATM   29  C21 UNL     1      37.558  41.623 -55.894  1.00  0.00     0.039 C 
HETATM   30  C22 UNL     1      38.137  41.626 -57.295  1.00  0.00     0.029 C 
HETATM   31  C23 UNL     1      37.301  40.538 -57.947  1.00  0.00     0.168 C 
HETATM   32  O2  UNL     1      36.488  40.011 -56.978  1.00  0.00    -0.381 OA
ENDBRANCH  27  28
ENDBRANCH  25  27
ENDBRANCH  17  18
ENDBRANCH   1  17
TORSDOF 9
ENDMDL
