MODEL 1
REMARK VINA RESULT: -8.892083441      0.000      0.000
REMARK  9 active torsions:
REMARK  status: ('A' for Active; 'I' for Inactive)
REMARK    1  A    between atoms: O1_2  and  C2_3 
REMARK    2  A    between atoms: C4_5  and  O2_6 
REMARK    3  A    between atoms: C9_11  and  N1_12 
REMARK    4  A    between atoms: N3_20  and  C16_21 
REMARK    5  A    between atoms: C16_21  and  C17_22 
REMARK    6  A    between atoms: C17_22  and  C18_23 
REMARK    7  A    between atoms: C18_23  and  O3_24 
REMARK    8  A    between atoms: O3_24  and  C19_25 
REMARK    9  A    between atoms: C19_25  and  C20_26 
ROOT
HETATM    1  C2  UNL     1      37.412  38.239 -51.565  1.00  0.00     0.071 A 
HETATM    2  C3  UNL     1      38.250  38.602 -50.532  1.00  0.00     0.074 A 
HETATM    3  C4  UNL     1      39.454  39.259 -50.759  1.00  0.00     0.079 A 
HETATM    4  C6  UNL     1      39.793  39.543 -52.060  1.00  0.00     0.012 A 
HETATM    5  C7  UNL     1      38.969  39.189 -53.105  1.00  0.00    -0.010 A 
HETATM    6  C8  UNL     1      37.793  38.545 -52.863  1.00  0.00     0.047 A 
HETATM    7  C9  UNL     1      39.485  39.574 -54.441  1.00  0.00     0.284 C 
HETATM    8  C15 UNL     1      39.913  41.011 -54.272  1.00  0.00     0.313 C 
HETATM    9  N3  UNL     1      41.159  40.980 -53.515  1.00  0.00     0.095 N 
HETATM   10  C27 UNL     1      41.087  40.254 -52.289  1.00  0.00     0.314 C 
ENDROOT
BRANCH   9  11
HETATM   11  C16 UNL     1      41.527  42.381 -53.344  1.00  0.00     0.275 C 
BRANCH  11  12
HETATM   12  C17 UNL     1      42.298  42.599 -52.085  1.00  0.00     0.056 C 
BRANCH  12  13
HETATM   13  C18 UNL     1      43.761  42.728 -52.486  1.00  0.00     0.169 C 
BRANCH  13  14
HETATM   14  O3  UNL     1      43.804  42.778 -53.878  1.00  0.00    -0.391 OA
BRANCH  14  15
HETATM   15  C19 UNL     1      44.704  41.810 -54.362  1.00  0.00     0.172 C 
BRANCH  15  16
HETATM   16  C20 UNL     1      44.570  41.781 -55.855  1.00  0.00     0.014 C 
HETATM   17  C21 UNL     1      44.213  43.171 -56.403  1.00  0.00     0.011 C 
HETATM   18  C22 UNL     1      45.298  43.412 -57.401  1.00  0.00    -0.014 C 
HETATM   19  C23 UNL     1      45.160  42.415 -58.535  1.00  0.00     0.005 C 
HETATM   20  C26 UNL     1      46.502  42.798 -56.664  1.00  0.00     0.010 C 
HETATM   21  C24 UNL     1      45.596  41.067 -57.947  1.00  0.00     0.005 C 
HETATM   22  C25 UNL     1      45.872  41.402 -56.515  1.00  0.00    -0.008 C 
ENDBRANCH  15  16
ENDBRANCH  14  15
ENDBRANCH  13  14
ENDBRANCH  12  13
ENDBRANCH  11  12
ENDBRANCH   9  11
BRANCH   7  23
HETATM   23  N1  UNL     1      38.614  39.392 -55.531  1.00  0.00     0.102 N 
HETATM   24  C10 UNL     1      39.008  38.313 -56.420  1.00  0.00     0.303 C 
HETATM   25  C11 UNL     1      37.785  37.969 -57.233  1.00  0.00     0.302 C 
HETATM   26  N2  UNL     1      37.399  39.168 -57.947  1.00  0.00     0.087 N 
HETATM   27  C12 UNL     1      36.114  39.674 -57.497  1.00  0.00     0.310 C 
HETATM   28  C13 UNL     1      38.349  40.245 -57.816  1.00  0.00     0.302 C 
HETATM   29  C14 UNL     1      38.647  40.589 -56.365  1.00  0.00     0.303 C 
ENDBRANCH   7  23
BRANCH   3  30
HETATM   30  O2  UNL     1      40.262  39.602 -49.686  1.00  0.00    -0.355 OA
HETATM   31  C5  UNL     1      40.122  40.723 -48.877  1.00  0.00     0.210 C 
ENDBRANCH   3  30
BRANCH   1  32
HETATM   32  O1  UNL     1      36.211  37.584 -51.341  1.00  0.00    -0.356 OA
HETATM   33  C1  UNL     1      35.515  37.872 -50.144  1.00  0.00     0.210 C 
ENDBRANCH   1  32
TORSDOF 9
ENDMDL
MODEL 2
REMARK VINA RESULT: -8.769403049      1.606      1.896
REMARK  9 active torsions:
REMARK  status: ('A' for Active; 'I' for Inactive)
REMARK    1  A    between atoms: O1_2  and  C2_3 
REMARK    2  A    between atoms: C4_5  and  O2_6 
REMARK    3  A    between atoms: C9_11  and  N1_12 
REMARK    4  A    between atoms: N3_20  and  C16_21 
REMARK    5  A    between atoms: C16_21  and  C17_22 
REMARK    6  A    between atoms: C17_22  and  C18_23 
REMARK    7  A    between atoms: C18_23  and  O3_24 
REMARK    8  A    between atoms: O3_24  and  C19_25 
REMARK    9  A    between atoms: C19_25  and  C20_26 
ROOT
HETATM    1  C2  UNL     1      38.521  37.515 -52.593  1.00  0.00     0.071 A 
HETATM    2  C3  UNL     1      38.677  37.930 -51.287  1.00  0.00     0.074 A 
HETATM    3  C4  UNL     1      39.590  38.916 -50.934  1.00  0.00     0.079 A 
HETATM    4  C6  UNL     1      40.345  39.478 -51.936  1.00  0.00     0.012 A 
HETATM    5  C7  UNL     1      40.203  39.078 -53.245  1.00  0.00    -0.010 A 
HETATM    6  C8  UNL     1      39.303  38.109 -53.572  1.00  0.00     0.047 A 
HETATM    7  C9  UNL     1      41.090  39.789 -54.196  1.00  0.00     0.284 C 
HETATM    8  C15 UNL     1      40.932  41.245 -53.832  1.00  0.00     0.313 C 
HETATM    9  N3  UNL     1      41.676  41.439 -52.593  1.00  0.00     0.095 N 
HETATM   10  C27 UNL     1      41.318  40.541 -51.542  1.00  0.00     0.314 C 
ENDROOT
BRANCH   9  11
HETATM   11  C16 UNL     1      41.477  42.844 -52.254  1.00  0.00     0.275 C 
BRANCH  11  12
HETATM   12  C17 UNL     1      42.724  43.640 -52.447  1.00  0.00     0.056 C 
BRANCH  12  13
HETATM   13  C18 UNL     1      43.846  42.641 -52.696  1.00  0.00     0.169 C 
BRANCH  13  14
HETATM   14  O3  UNL     1      44.227  42.774 -54.029  1.00  0.00    -0.391 OA
BRANCH  14  15
HETATM   15  C19 UNL     1      44.674  41.533 -54.522  1.00  0.00     0.172 C 
BRANCH  15  16
HETATM   16  C20 UNL     1      44.512  41.561 -56.013  1.00  0.00     0.014 C 
HETATM   17  C21 UNL     1      44.079  42.953 -56.495  1.00  0.00     0.011 C 
HETATM   18  C22 UNL     1      45.132  43.287 -57.501  1.00  0.00    -0.014 C 
HETATM   19  C23 UNL     1      45.019  42.333 -58.673  1.00  0.00     0.005 C 
HETATM   20  C26 UNL     1      46.378  42.702 -56.812  1.00  0.00     0.010 C 
HETATM   21  C24 UNL     1      45.530  40.984 -58.151  1.00  0.00     0.005 C 
HETATM   22  C25 UNL     1      45.818  41.272 -56.711  1.00  0.00    -0.008 C 
ENDBRANCH  15  16
ENDBRANCH  14  15
ENDBRANCH  13  14
ENDBRANCH  12  13
ENDBRANCH  11  12
ENDBRANCH   9  11
BRANCH   7  23
HETATM   23  N1  UNL     1      40.875  39.546 -55.565  1.00  0.00     0.102 N 
HETATM   24  C10 UNL     1      41.955  38.819 -56.208  1.00  0.00     0.303 C 
HETATM   25  C11 UNL     1      41.386  38.265 -57.491  1.00  0.00     0.302 C 
HETATM   26  N2  UNL     1      40.931  39.396 -58.274  1.00  0.00     0.087 N 
HETATM   27  C12 UNL     1      39.487  39.392 -58.438  1.00  0.00     0.310 C 
HETATM   28  C13 UNL     1      41.291  40.671 -57.705  1.00  0.00     0.302 C 
HETATM   29  C14 UNL     1      40.820  40.824 -56.268  1.00  0.00     0.303 C 
ENDBRANCH   7  23
BRANCH   3  30
HETATM   30  O2  UNL     1      39.710  39.298 -49.607  1.00  0.00    -0.355 OA
HETATM   31  C5  UNL     1      38.667  39.607 -48.742  1.00  0.00     0.210 C 
ENDBRANCH   3  30
BRANCH   1  32
HETATM   32  O1  UNL     1      37.610  36.530 -52.947  1.00  0.00    -0.356 OA
HETATM   33  C1  UNL     1      38.112  35.353 -53.549  1.00  0.00     0.210 C 
ENDBRANCH   1  32
TORSDOF 9
ENDMDL
MODEL 3
REMARK VINA RESULT: -8.701611083      2.859      5.259
REMARK  9 active torsions:
REMARK  status: ('A' for Active; 'I' for Inactive)
REMARK    1  A    between atoms: O1_2  and  C2_3 
REMARK    2  A    between atoms: C4_5  and  O2_6 
REMARK    3  A    between atoms: C9_11  and  N1_12 
REMARK    4  A    between atoms: N3_20  and  C16_21 
REMARK    5  A    between atoms: C16_21  and  C17_22 
REMARK    6  A    between atoms: C17_22  and  C18_23 
REMARK    7  A    between atoms: C18_23  and  O3_24 
REMARK    8  A    between atoms: O3_24  and  C19_25 
REMARK    9  A    between atoms: C19_25  and  C20_26 
ROOT
HETATM    1  C2  UNL     1      42.074  42.398 -52.522  1.00  0.00     0.071 A 
HETATM    2  C3  UNL     1      43.264  42.436 -53.219  1.00  0.00     0.074 A 
HETATM    3  C4  UNL     1      43.766  41.320 -53.875  1.00  0.00     0.079 A 
HETATM    4  C6  UNL     1      43.035  40.157 -53.813  1.00  0.00     0.012 A 
HETATM    5  C7  UNL     1      41.845  40.100 -53.123  1.00  0.00    -0.010 A 
HETATM    6  C8  UNL     1      41.369  41.205 -52.485  1.00  0.00     0.047 A 
HETATM    7  C9  UNL     1      41.186  38.772 -53.161  1.00  0.00     0.284 C 
HETATM    8  C15 UNL     1      41.233  38.377 -54.617  1.00  0.00     0.313 C 
HETATM    9  N3  UNL     1      42.611  37.987 -54.889  1.00  0.00     0.095 N 
HETATM   10  C27 UNL     1      43.585  38.966 -54.528  1.00  0.00     0.314 C 
ENDROOT
BRANCH   9  11
HETATM   11  C16 UNL     1      42.628  37.642 -56.307  1.00  0.00     0.275 C 
BRANCH  11  12
HETATM   12  C17 UNL     1      41.248  37.535 -56.865  1.00  0.00     0.056 C 
BRANCH  12  13
HETATM   13  C18 UNL     1      41.227  38.366 -58.141  1.00  0.00     0.169 C 
BRANCH  13  14
HETATM   14  O3  UNL     1      42.352  39.189 -58.115  1.00  0.00    -0.391 OA
BRANCH  14  15
HETATM   15  C19 UNL     1      41.953  40.537 -58.045  1.00  0.00     0.172 C 
BRANCH  15  16
HETATM   16  C20 UNL     1      43.128  41.325 -57.546  1.00  0.00     0.014 C 
HETATM   17  C21 UNL     1      44.446  40.587 -57.827  1.00  0.00     0.011 C 
HETATM   18  C22 UNL     1      45.227  41.605 -58.592  1.00  0.00    -0.014 C 
HETATM   19  C23 UNL     1      45.535  42.779 -57.683  1.00  0.00     0.005 C 
HETATM   20  C26 UNL     1      44.114  42.230 -59.451  1.00  0.00     0.010 C 
HETATM   21  C24 UNL     1      44.200  43.513 -57.499  1.00  0.00     0.005 C 
HETATM   22  C25 UNL     1      43.240  42.651 -58.256  1.00  0.00    -0.008 C 
ENDBRANCH  15  16
ENDBRANCH  14  15
ENDBRANCH  13  14
ENDBRANCH  12  13
ENDBRANCH  11  12
ENDBRANCH   9  11
BRANCH   7  23
HETATM   23  N1  UNL     1      39.890  38.694 -52.619  1.00  0.00     0.102 N 
HETATM   24  C10 UNL     1      39.826  37.987 -51.352  1.00  0.00     0.303 C 
HETATM   25  C11 UNL     1      38.515  38.377 -50.717  1.00  0.00     0.302 C 
HETATM   26  N2  UNL     1      37.466  37.978 -51.632  1.00  0.00     0.087 N 
HETATM   27  C12 UNL     1      36.757  39.125 -52.173  1.00  0.00     0.310 C 
HETATM   28  C13 UNL     1      37.944  37.206 -52.752  1.00  0.00     0.302 C 
HETATM   29  C14 UNL     1      39.049  37.913 -53.521  1.00  0.00     0.303 C 
ENDBRANCH   7  23
BRANCH   3  30
HETATM   30  O2  UNL     1      44.967  41.409 -54.562  1.00  0.00    -0.355 OA
HETATM   31  C5  UNL     1      46.239  41.325 -54.008  1.00  0.00     0.210 C 
ENDBRANCH   3  30
BRANCH   1  32
HETATM   32  O1  UNL     1      41.571  43.512 -51.866  1.00  0.00    -0.356 OA
HETATM   33  C1  UNL     1      42.282  43.995 -50.744  1.00  0.00     0.210 C 
ENDBRANCH   1  32
TORSDOF 9
ENDMDL
MODEL 4
REMARK VINA RESULT: -8.634815671      3.131      8.188
REMARK  9 active torsions:
REMARK  status: ('A' for Active; 'I' for Inactive)
REMARK    1  A    between atoms: O1_2  and  C2_3 
REMARK    2  A    between atoms: C4_5  and  O2_6 
REMARK    3  A    between atoms: C9_11  and  N1_12 
REMARK    4  A    between atoms: N3_20  and  C16_21 
REMARK    5  A    between atoms: C16_21  and  C17_22 
REMARK    6  A    between atoms: C17_22  and  C18_23 
REMARK    7  A    between atoms: C18_23  and  O3_24 
REMARK    8  A    between atoms: O3_24  and  C19_25 
REMARK    9  A    between atoms: C19_25  and  C20_26 
ROOT
HETATM    1  C2  UNL     1      39.207  42.581 -58.867  1.00  0.00     0.071 A 
HETATM    2  C3  UNL     1      38.191  41.648 -58.849  1.00  0.00     0.074 A 
HETATM    3  C4  UNL     1      38.441  40.293 -58.672  1.00  0.00     0.079 A 
HETATM    4  C6  UNL     1      39.748  39.899 -58.511  1.00  0.00     0.012 A 
HETATM    5  C7  UNL     1      40.775  40.814 -58.526  1.00  0.00    -0.010 A 
HETATM    6  C8  UNL     1      40.511  42.139 -58.701  1.00  0.00     0.047 A 
HETATM    7  C9  UNL     1      42.120  40.219 -58.334  1.00  0.00     0.284 C 
HETATM    8  C15 UNL     1      41.951  39.294 -57.154  1.00  0.00     0.313 C 
HETATM    9  N3  UNL     1      41.223  38.131 -57.648  1.00  0.00     0.095 N 
HETATM   10  C27 UNL     1      40.001  38.439 -58.317  1.00  0.00     0.314 C 
ENDROOT
BRANCH   9  11
HETATM   11  C16 UNL     1      41.051  37.275 -56.479  1.00  0.00     0.275 C 
BRANCH  11  12
HETATM   12  C17 UNL     1      41.161  38.048 -55.208  1.00  0.00     0.056 C 
BRANCH  12  13
HETATM   13  C18 UNL     1      40.715  37.116 -54.090  1.00  0.00     0.169 C 
BRANCH  13  14
HETATM   14  O3  UNL     1      40.660  37.872 -52.921  1.00  0.00    -0.391 OA
BRANCH  14  15
HETATM   15  C19 UNL     1      39.367  37.802 -52.369  1.00  0.00     0.172 C 
BRANCH  15  16
HETATM   16  C20 UNL     1      39.260  38.889 -51.342  1.00  0.00     0.014 C 
HETATM   17  C21 UNL     1      38.006  38.706 -50.473  1.00  0.00     0.011 C 
HETATM   18  C22 UNL     1      38.573  38.686 -49.091  1.00  0.00    -0.014 C 
HETATM   19  C23 UNL     1      39.162  40.046 -48.776  1.00  0.00     0.005 C 
HETATM   20  C26 UNL     1      39.870  37.892 -49.328  1.00  0.00     0.010 C 
HETATM   21  C24 UNL     1      40.442  40.141 -49.617  1.00  0.00     0.005 C 
HETATM   22  C25 UNL     1      40.428  38.859 -50.388  1.00  0.00    -0.008 C 
ENDBRANCH  15  16
ENDBRANCH  14  15
ENDBRANCH  13  14
ENDBRANCH  12  13
ENDBRANCH  11  12
ENDBRANCH   9  11
BRANCH   7  23
HETATM   23  N1  UNL     1      43.191  41.117 -58.171  1.00  0.00     0.102 N 
HETATM   24  C10 UNL     1      44.242  40.960 -59.161  1.00  0.00     0.303 C 
HETATM   25  C11 UNL     1      45.049  42.235 -59.125  1.00  0.00     0.302 C 
HETATM   26  N2  UNL     1      45.566  42.370 -57.779  1.00  0.00     0.087 N 
HETATM   27  C12 UNL     1      44.998  43.521 -57.097  1.00  0.00     0.310 C 
HETATM   28  C13 UNL     1      45.316  41.218 -56.949  1.00  0.00     0.302 C 
HETATM   29  C14 UNL     1      43.842  40.845 -56.894  1.00  0.00     0.303 C 
ENDBRANCH   7  23
BRANCH   3  30
HETATM   30  O2  UNL     1      37.385  39.395 -58.662  1.00  0.00    -0.355 OA
HETATM   31  C5  UNL     1      36.351  39.351 -57.735  1.00  0.00     0.210 C 
ENDBRANCH   3  30
BRANCH   1  32
HETATM   32  O1  UNL     1      38.959  43.934 -59.044  1.00  0.00    -0.356 OA
HETATM   33  C1  UNL     1      39.679  44.610 -60.055  1.00  0.00     0.210 C 
ENDBRANCH   1  32
TORSDOF 9
ENDMDL
MODEL 5
REMARK VINA RESULT: -8.560217165      3.581      5.929
REMARK  9 active torsions:
REMARK  status: ('A' for Active; 'I' for Inactive)
REMARK    1  A    between atoms: O1_2  and  C2_3 
REMARK    2  A    between atoms: C4_5  and  O2_6 
REMARK    3  A    between atoms: C9_11  and  N1_12 
REMARK    4  A    between atoms: N3_20  and  C16_21 
REMARK    5  A    between atoms: C16_21  and  C17_22 
REMARK    6  A    between atoms: C17_22  and  C18_23 
REMARK    7  A    between atoms: C18_23  and  O3_24 
REMARK    8  A    between atoms: O3_24  and  C19_25 
REMARK    9  A    between atoms: C19_25  and  C20_26 
ROOT
HETATM    1  C2  UNL     1      39.574  39.928 -56.891  1.00  0.00     0.071 A 
HETATM    2  C3  UNL     1      40.530  39.014 -56.500  1.00  0.00     0.074 A 
HETATM    3  C4  UNL     1      41.789  38.972 -57.085  1.00  0.00     0.079 A 
HETATM    4  C6  UNL     1      42.062  39.880 -58.081  1.00  0.00     0.012 A 
HETATM    5  C7  UNL     1      41.122  40.800 -58.485  1.00  0.00    -0.010 A 
HETATM    6  C8  UNL     1      39.892  40.825 -57.900  1.00  0.00     0.047 A 
HETATM    7  C9  UNL     1      41.584  41.704 -59.566  1.00  0.00     0.284 C 
HETATM    8  C15 UNL     1      42.942  42.170 -59.103  1.00  0.00     0.313 C 
HETATM    9  N3  UNL     1      43.849  41.046 -59.305  1.00  0.00     0.095 N 
HETATM   10  C27 UNL     1      43.422  39.826 -58.699  1.00  0.00     0.314 C 
ENDROOT
BRANCH   9  11
HETATM   11  C16 UNL     1      45.142  41.518 -58.820  1.00  0.00     0.275 C 
BRANCH  11  12
HETATM   12  C17 UNL     1      45.025  42.836 -58.130  1.00  0.00     0.056 C 
BRANCH  12  13
HETATM   13  C18 UNL     1      46.075  42.846 -57.028  1.00  0.00     0.169 C 
BRANCH  13  14
HETATM   14  O3  UNL     1      45.397  42.943 -55.815  1.00  0.00    -0.391 OA
BRANCH  14  15
HETATM   15  C19 UNL     1      45.251  41.663 -55.248  1.00  0.00     0.172 C 
BRANCH  15  16
HETATM   16  C20 UNL     1      43.781  41.398 -55.116  1.00  0.00     0.014 C 
HETATM   17  C21 UNL     1      43.502  40.382 -53.998  1.00  0.00     0.011 C 
HETATM   18  C22 UNL     1      42.536  41.120 -53.128  1.00  0.00    -0.014 C 
HETATM   19  C23 UNL     1      41.246  41.337 -53.893  1.00  0.00     0.005 C 
HETATM   20  C26 UNL     1      43.120  42.542 -53.199  1.00  0.00     0.010 C 
HETATM   21  C24 UNL     1      41.569  42.407 -54.943  1.00  0.00     0.005 C 
HETATM   22  C25 UNL     1      43.031  42.649 -54.732  1.00  0.00    -0.008 C 
ENDBRANCH  15  16
ENDBRANCH  14  15
ENDBRANCH  13  14
ENDBRANCH  12  13
ENDBRANCH  11  12
ENDBRANCH   9  11
BRANCH   7  23
HETATM   23  N1  UNL     1      40.731  42.771 -59.904  1.00  0.00     0.102 N 
HETATM   24  C10 UNL     1      40.424  42.848 -61.322  1.00  0.00     0.303 C 
HETATM   25  C11 UNL     1      39.196  43.716 -61.441  1.00  0.00     0.302 C 
HETATM   26  N2  UNL     1      39.533  45.005 -60.873  1.00  0.00     0.087 N 
HETATM   27  C12 UNL     1      38.768  45.279 -59.668  1.00  0.00     0.310 C 
HETATM   28  C13 UNL     1      40.928  45.135 -60.530  1.00  0.00     0.302 C 
HETATM   29  C14 UNL     1      41.408  44.028 -59.604  1.00  0.00     0.303 C 
ENDBRANCH   7  23
BRANCH   3  30
HETATM   30  O2  UNL     1      42.715  38.035 -56.657  1.00  0.00    -0.355 OA
HETATM   31  C5  UNL     1      42.532  37.101 -55.644  1.00  0.00     0.210 C 
ENDBRANCH   3  30
BRANCH   1  32
HETATM   32  O1  UNL     1      38.316  39.971 -56.307  1.00  0.00    -0.356 OA
HETATM   33  C1  UNL     1      37.809  41.234 -55.924  1.00  0.00     0.210 C 
ENDBRANCH   1  32
TORSDOF 9
ENDMDL
