MODEL 1
REMARK VINA RESULT: -8.657986665      0.000      0.000
REMARK  10 active torsions:
REMARK  status: ('A' for Active; 'I' for Inactive)
REMARK    1  A    between atoms: N1_2  and  C2_3 
REMARK    2  A    between atoms: N1_2  and  C18_21 
REMARK    3  A    between atoms: C2_3  and  C3_4 
REMARK    4  A    between atoms: C3_4  and  C4_5 
REMARK    5  A    between atoms: C4_5  and  N2_6 
REMARK    6  A    between atoms: N3_9  and  C7_10 
REMARK    7  A    between atoms: C7_10  and  C8_11 
REMARK    8  A    between atoms: C8_11  and  C11_14 
REMARK    9  A    between atoms: N4_24  and  C21_25 
REMARK   10  A    between atoms: C21_25  and  C22_26 
ROOT
HETATM    1  C2  UNL     1      42.688  41.224 -59.600  1.00  0.00     0.277 C 
ENDROOT
BRANCH   1   2
HETATM    2  N1  UNL     1      43.673  42.229 -59.359  1.00  0.00     0.089 N 
HETATM    3  C1  UNL     1      44.856  41.913 -60.110  1.00  0.00     0.310 C 
BRANCH   2   4
HETATM    4  C18 UNL     1      43.879  42.352 -57.955  1.00  0.00     0.225 C 
HETATM    5  C19 UNL     1      43.061  43.462 -57.322  1.00  0.00     0.055 C 
HETATM    6  C20 UNL     1      43.040  43.169 -55.819  1.00  0.00     0.119 C 
HETATM    7  N4  UNL     1      44.089  42.271 -55.485  1.00  0.00    -0.406 N 
HETATM    8  C26 UNL     1      45.375  42.579 -56.003  1.00  0.00     0.119 C 
HETATM    9  C27 UNL     1      45.319  42.580 -57.540  1.00  0.00     0.055 C 
BRANCH   7  10
HETATM   10  C21 UNL     1      44.018  41.666 -54.211  1.00  0.00     0.193 C 
BRANCH  10  11
HETATM   11  C22 UNL     1      43.231  42.407 -53.219  1.00  0.00     0.100 A 
HETATM   12  N5  UNL     1      43.593  43.582 -52.679  1.00  0.00    -0.353 N 
HETATM   13  C23 UNL     1      42.659  43.999 -51.801  1.00  0.00     0.106 A 
ATOM     14  H5  UNL     1      44.451  44.087 -52.901  1.00  0.00     0.166 HD
HETATM   15  C24 UNL     1      41.687  43.031 -51.810  1.00  0.00     0.108 A 
HETATM   16  N6  UNL     1      42.048  42.062 -52.681  1.00  0.00    -0.348 N 
HETATM   17  C25 UNL     1      41.262  40.867 -52.963  1.00  0.00     0.157 C 
ENDBRANCH  10  11
ENDBRANCH   7  10
ENDBRANCH   2   4
ENDBRANCH   1   2
BRANCH   1  18
HETATM   18  C3  UNL     1      42.639  40.089 -58.649  1.00  0.00     0.075 C 
BRANCH  18  19
HETATM   19  C4  UNL     1      41.478  39.137 -58.849  1.00  0.00     0.065 C 
BRANCH  19  20
HETATM   20  N2  UNL     1      40.683  39.009 -57.693  1.00  0.00    -0.370 N 
HETATM   21  C5  UNL     1      39.895  37.870 -57.633  1.00  0.00     0.093 C 
HETATM   22  C6  UNL     1      38.842  37.848 -56.554  1.00  0.00     0.317 C 
HETATM   23  N3  UNL     1      39.301  38.617 -55.349  1.00  0.00     0.095 N 
HETATM   24  C16 UNL     1      39.438  39.968 -55.931  1.00  0.00     0.293 C 
HETATM   25  C17 UNL     1      40.809  39.904 -56.633  1.00  0.00     0.157 C 
BRANCH  23  26
HETATM   26  C7  UNL     1      38.241  38.526 -54.395  1.00  0.00     0.282 C 
BRANCH  26  27
HETATM   27  C8  UNL     1      38.645  37.843 -53.155  1.00  0.00    -0.018 C 
HETATM   28  C9  UNL     1      37.905  36.501 -53.122  1.00  0.00     0.017 C 
HETATM   29  C10 UNL     1      40.105  37.515 -53.049  1.00  0.00     0.017 C 
BRANCH  27  30
HETATM   30  C11 UNL     1      38.289  38.593 -51.893  1.00  0.00    -0.005 C 
HETATM   31  C12 UNL     1      39.114  38.256 -50.701  1.00  0.00     0.005 C 
HETATM   32  C13 UNL     1      38.366  39.033 -49.607  1.00  0.00     0.000 C 
HETATM   33  C14 UNL     1      36.914  38.930 -49.998  1.00  0.00     0.000 C 
HETATM   34  C15 UNL     1      36.891  38.313 -51.402  1.00  0.00     0.005 C 
ENDBRANCH  27  30
ENDBRANCH  26  27
ENDBRANCH  23  26
ENDBRANCH  19  20
ENDBRANCH  18  19
ENDBRANCH   1  18
TORSDOF 10
ENDMDL
MODEL 2
REMARK VINA RESULT: -8.644380928      1.845      4.734
REMARK  10 active torsions:
REMARK  status: ('A' for Active; 'I' for Inactive)
REMARK    1  A    between atoms: N1_2  and  C2_3 
REMARK    2  A    between atoms: N1_2  and  C18_21 
REMARK    3  A    between atoms: C2_3  and  C3_4 
REMARK    4  A    between atoms: C3_4  and  C4_5 
REMARK    5  A    between atoms: C4_5  and  N2_6 
REMARK    6  A    between atoms: N3_9  and  C7_10 
REMARK    7  A    between atoms: C7_10  and  C8_11 
REMARK    8  A    between atoms: C8_11  and  C11_14 
REMARK    9  A    between atoms: N4_24  and  C21_25 
REMARK   10  A    between atoms: C21_25  and  C22_26 
ROOT
HETATM    1  C2  UNL     1      43.074  41.632 -57.128  1.00  0.00     0.277 C 
ENDROOT
BRANCH   1   2
HETATM    2  N1  UNL     1      43.386  40.248 -57.285  1.00  0.00     0.089 N 
HETATM    3  C1  UNL     1      44.308  40.098 -58.377  1.00  0.00     0.310 C 
BRANCH   2   4
HETATM    4  C18 UNL     1      42.176  39.510 -57.427  1.00  0.00     0.225 C 
HETATM    5  C19 UNL     1      42.249  38.115 -56.833  1.00  0.00     0.055 C 
HETATM    6  C20 UNL     1      40.800  37.652 -56.658  1.00  0.00     0.119 C 
HETATM    7  N4  UNL     1      39.938  38.443 -57.464  1.00  0.00    -0.406 N 
HETATM    8  C26 UNL     1      40.331  38.633 -58.815  1.00  0.00     0.119 C 
HETATM    9  C27 UNL     1      41.691  39.351 -58.854  1.00  0.00     0.055 C 
BRANCH   7  10
HETATM   10  C21 UNL     1      38.556  38.350 -57.185  1.00  0.00     0.193 C 
BRANCH  10  11
HETATM   11  C22 UNL     1      38.071  39.277 -56.158  1.00  0.00     0.100 A 
HETATM   12  N5  UNL     1      37.683  38.916 -54.923  1.00  0.00    -0.353 N 
HETATM   13  C23 UNL     1      37.288  39.998 -54.223  1.00  0.00     0.106 A 
ATOM     14  H5  UNL     1      37.686  37.960 -54.567  1.00  0.00     0.166 HD
HETATM   15  C24 UNL     1      37.444  41.063 -55.072  1.00  0.00     0.108 A 
HETATM   16  N6  UNL     1      37.923  40.610 -56.253  1.00  0.00    -0.348 N 
HETATM   17  C25 UNL     1      38.219  41.453 -57.406  1.00  0.00     0.157 C 
ENDBRANCH  10  11
ENDBRANCH   7  10
ENDBRANCH   2   4
ENDBRANCH   1   2
BRANCH   1  18
HETATM   18  C3  UNL     1      43.636  42.318 -55.941  1.00  0.00     0.075 C 
BRANCH  18  19
HETATM   19  C4  UNL     1      44.146  41.397 -54.852  1.00  0.00     0.065 C 
BRANCH  19  20
HETATM   20  N2  UNL     1      43.103  40.867 -54.066  1.00  0.00    -0.370 N 
HETATM   21  C5  UNL     1      43.233  39.530 -53.726  1.00  0.00     0.093 C 
HETATM   22  C6  UNL     1      42.012  38.875 -53.130  1.00  0.00     0.317 C 
HETATM   23  N3  UNL     1      41.208  39.869 -52.343  1.00  0.00     0.095 N 
HETATM   24  C16 UNL     1      40.835  40.818 -53.412  1.00  0.00     0.293 C 
HETATM   25  C17 UNL     1      42.100  41.688 -53.558  1.00  0.00     0.157 C 
BRANCH  23  26
HETATM   26  C7  UNL     1      40.089  39.149 -51.822  1.00  0.00     0.282 C 
BRANCH  26  27
HETATM   27  C8  UNL     1      40.030  39.171 -50.352  1.00  0.00    -0.018 C 
HETATM   28  C9  UNL     1      40.647  37.857 -49.860  1.00  0.00     0.017 C 
HETATM   29  C10 UNL     1      40.811  40.269 -49.693  1.00  0.00     0.017 C 
BRANCH  27  30
HETATM   30  C11 UNL     1      38.629  39.256 -49.792  1.00  0.00    -0.005 C 
HETATM   31  C12 UNL     1      38.394  38.470 -48.549  1.00  0.00     0.005 C 
HETATM   32  C13 UNL     1      36.875  38.633 -48.392  1.00  0.00     0.000 C 
HETATM   33  C14 UNL     1      36.347  38.630 -49.804  1.00  0.00     0.000 C 
HETATM   34  C15 UNL     1      37.576  38.706 -50.720  1.00  0.00     0.005 C 
ENDBRANCH  27  30
ENDBRANCH  26  27
ENDBRANCH  23  26
ENDBRANCH  19  20
ENDBRANCH  18  19
ENDBRANCH   1  18
TORSDOF 10
ENDMDL
MODEL 3
REMARK VINA RESULT: -8.593305626      1.854      4.692
REMARK  10 active torsions:
REMARK  status: ('A' for Active; 'I' for Inactive)
REMARK    1  A    between atoms: N1_2  and  C2_3 
REMARK    2  A    between atoms: N1_2  and  C18_21 
REMARK    3  A    between atoms: C2_3  and  C3_4 
REMARK    4  A    between atoms: C3_4  and  C4_5 
REMARK    5  A    between atoms: C4_5  and  N2_6 
REMARK    6  A    between atoms: N3_9  and  C7_10 
REMARK    7  A    between atoms: C7_10  and  C8_11 
REMARK    8  A    between atoms: C8_11  and  C11_14 
REMARK    9  A    between atoms: N4_24  and  C21_25 
REMARK   10  A    between atoms: C21_25  and  C22_26 
ROOT
HETATM    1  C2  UNL     1      44.034  41.546 -56.847  1.00  0.00     0.277 C 
ENDROOT
BRANCH   1   2
HETATM    2  N1  UNL     1      43.656  40.274 -57.373  1.00  0.00     0.089 N 
HETATM    3  C1  UNL     1      44.399  40.028 -58.578  1.00  0.00     0.310 C 
BRANCH   2   4
HETATM    4  C18 UNL     1      42.241  40.237 -57.533  1.00  0.00     0.225 C 
HETATM    5  C19 UNL     1      41.804  40.065 -58.976  1.00  0.00     0.055 C 
HETATM    6  C20 UNL     1      40.347  39.594 -58.923  1.00  0.00     0.119 C 
HETATM    7  N4  UNL     1      39.789  39.883 -57.650  1.00  0.00    -0.406 N 
HETATM    8  C26 UNL     1      39.998  41.196 -57.150  1.00  0.00     0.119 C 
HETATM    9  C27 UNL     1      41.507  41.450 -56.997  1.00  0.00     0.055 C 
BRANCH   7  10
HETATM   10  C21 UNL     1      38.569  39.244 -57.337  1.00  0.00     0.193 C 
BRANCH  10  11
HETATM   11  C22 UNL     1      38.608  38.389 -56.147  1.00  0.00     0.100 A 
HETATM   12  N5  UNL     1      39.168  37.168 -56.100  1.00  0.00    -0.353 N 
HETATM   13  C23 UNL     1      39.035  36.641 -54.867  1.00  0.00     0.106 A 
ATOM     14  H5  UNL     1      39.628  36.707 -56.884  1.00  0.00     0.166 HD
HETATM   15  C24 UNL     1      38.364  37.585 -54.133  1.00  0.00     0.108 A 
HETATM   16  N6  UNL     1      38.108  38.650 -54.927  1.00  0.00    -0.348 N 
HETATM   17  C25 UNL     1      37.410  39.856 -54.496  1.00  0.00     0.157 C 
ENDBRANCH  10  11
ENDBRANCH   7  10
ENDBRANCH   2   4
ENDBRANCH   1   2
BRANCH   1  18
HETATM   18  C3  UNL     1      44.736  41.552 -55.542  1.00  0.00     0.075 C 
BRANCH  18  19
HETATM   19  C4  UNL     1      44.746  40.224 -54.815  1.00  0.00     0.065 C 
BRANCH  19  20
HETATM   20  N2  UNL     1      43.587  40.029 -54.037  1.00  0.00    -0.370 N 
HETATM   21  C5  UNL     1      43.256  38.708 -53.780  1.00  0.00     0.093 C 
HETATM   22  C6  UNL     1      41.887  38.468 -53.196  1.00  0.00     0.317 C 
HETATM   23  N3  UNL     1      41.470  39.623 -52.333  1.00  0.00     0.095 N 
HETATM   24  C16 UNL     1      41.438  40.708 -53.335  1.00  0.00     0.293 C 
HETATM   25  C17 UNL     1      42.922  41.106 -53.458  1.00  0.00     0.157 C 
BRANCH  23  26
HETATM   26  C7  UNL     1      40.173  39.292 -51.830  1.00  0.00     0.282 C 
BRANCH  26  27
HETATM   27  C8  UNL     1      40.118  39.277 -50.359  1.00  0.00    -0.018 C 
HETATM   28  C9  UNL     1      40.747  37.957 -49.901  1.00  0.00     0.017 C 
HETATM   29  C10 UNL     1      40.892  40.365 -49.676  1.00  0.00     0.017 C 
BRANCH  27  30
HETATM   30  C11 UNL     1      38.718  39.337 -49.793  1.00  0.00    -0.005 C 
HETATM   31  C12 UNL     1      38.498  38.532 -48.561  1.00  0.00     0.005 C 
HETATM   32  C13 UNL     1      36.977  38.673 -48.396  1.00  0.00     0.000 C 
HETATM   33  C14 UNL     1      36.445  38.683 -49.807  1.00  0.00     0.000 C 
HETATM   34  C15 UNL     1      37.669  38.786 -50.725  1.00  0.00     0.005 C 
ENDBRANCH  27  30
ENDBRANCH  26  27
ENDBRANCH  23  26
ENDBRANCH  19  20
ENDBRANCH  18  19
ENDBRANCH   1  18
TORSDOF 10
ENDMDL
MODEL 4
REMARK VINA RESULT: -8.575699858      1.524      2.063
REMARK  10 active torsions:
REMARK  status: ('A' for Active; 'I' for Inactive)
REMARK    1  A    between atoms: N1_2  and  C2_3 
REMARK    2  A    between atoms: N1_2  and  C18_21 
REMARK    3  A    between atoms: C2_3  and  C3_4 
REMARK    4  A    between atoms: C3_4  and  C4_5 
REMARK    5  A    between atoms: C4_5  and  N2_6 
REMARK    6  A    between atoms: N3_9  and  C7_10 
REMARK    7  A    between atoms: C7_10  and  C8_11 
REMARK    8  A    between atoms: C8_11  and  C11_14 
REMARK    9  A    between atoms: N4_24  and  C21_25 
REMARK   10  A    between atoms: C21_25  and  C22_26 
ROOT
HETATM    1  C2  UNL     1      40.708  42.747 -58.481  1.00  0.00     0.277 C 
ENDROOT
BRANCH   1   2
HETATM    2  N1  UNL     1      42.004  42.533 -59.040  1.00  0.00     0.089 N 
HETATM    3  C1  UNL     1      41.917  41.501 -60.036  1.00  0.00     0.310 C 
BRANCH   2   4
HETATM    4  C18 UNL     1      42.927  42.264 -57.989  1.00  0.00     0.225 C 
HETATM    5  C19 UNL     1      43.944  43.371 -57.783  1.00  0.00     0.055 C 
HETATM    6  C20 UNL     1      44.532  43.152 -56.387  1.00  0.00     0.119 C 
HETATM    7  N4  UNL     1      44.274  41.824 -55.954  1.00  0.00    -0.406 N 
HETATM    8  C26 UNL     1      44.568  40.789 -56.880  1.00  0.00     0.119 C 
HETATM    9  C27 UNL     1      43.710  40.975 -58.143  1.00  0.00     0.055 C 
BRANCH   7  10
HETATM   10  C21 UNL     1      44.476  41.559 -54.581  1.00  0.00     0.193 C 
BRANCH  10  11
HETATM   11  C22 UNL     1      43.552  42.252 -53.677  1.00  0.00     0.100 A 
HETATM   12  N5  UNL     1      43.927  42.998 -52.625  1.00  0.00    -0.353 N 
HETATM   13  C23 UNL     1      42.843  43.494 -51.995  1.00  0.00     0.106 A 
ATOM     14  H5  UNL     1      44.892  43.166 -52.343  1.00  0.00     0.166 HD
HETATM   15  C24 UNL     1      41.762  43.027 -52.698  1.00  0.00     0.108 A 
HETATM   16  N6  UNL     1      42.208  42.268 -53.724  1.00  0.00    -0.348 N 
HETATM   17  C25 UNL     1      41.349  41.601 -54.696  1.00  0.00     0.157 C 
ENDBRANCH  10  11
ENDBRANCH   7  10
ENDBRANCH   2   4
ENDBRANCH   1   2
BRANCH   1  18
HETATM   18  C3  UNL     1      39.786  41.587 -58.456  1.00  0.00     0.075 C 
BRANCH  18  19
HETATM   19  C4  UNL     1      38.462  41.838 -57.765  1.00  0.00     0.065 C 
BRANCH  19  20
HETATM   20  N2  UNL     1      38.285  41.020 -56.631  1.00  0.00    -0.370 N 
HETATM   21  C5  UNL     1      38.861  39.761 -56.708  1.00  0.00     0.093 C 
HETATM   22  C6  UNL     1      38.455  38.780 -55.638  1.00  0.00     0.317 C 
HETATM   23  N3  UNL     1      38.157  39.492 -54.350  1.00  0.00     0.095 N 
HETATM   24  C16 UNL     1      37.013  40.329 -54.766  1.00  0.00     0.293 C 
HETATM   25  C17 UNL     1      37.695  41.518 -55.473  1.00  0.00     0.157 C 
BRANCH  23  26
HETATM   26  C7  UNL     1      37.792  38.477 -53.412  1.00  0.00     0.282 C 
BRANCH  26  27
HETATM   27  C8  UNL     1      38.783  38.308 -52.338  1.00  0.00    -0.018 C 
HETATM   28  C9  UNL     1      39.513  36.987 -52.607  1.00  0.00     0.017 C 
HETATM   29  C10 UNL     1      39.847  39.364 -52.273  1.00  0.00     0.017 C 
BRANCH  27  30
HETATM   30  C11 UNL     1      38.185  38.227 -50.953  1.00  0.00    -0.005 C 
HETATM   31  C12 UNL     1      36.809  38.780 -50.823  1.00  0.00     0.005 C 
HETATM   32  C13 UNL     1      36.616  38.707 -49.300  1.00  0.00     0.000 C 
HETATM   33  C14 UNL     1      37.978  39.016 -48.732  1.00  0.00     0.000 C 
HETATM   34  C15 UNL     1      38.947  39.020 -49.922  1.00  0.00     0.005 C 
ENDBRANCH  27  30
ENDBRANCH  26  27
ENDBRANCH  23  26
ENDBRANCH  19  20
ENDBRANCH  18  19
ENDBRANCH   1  18
TORSDOF 10
ENDMDL
MODEL 5
REMARK VINA RESULT: -8.573307560      1.790      4.823
REMARK  10 active torsions:
REMARK  status: ('A' for Active; 'I' for Inactive)
REMARK    1  A    between atoms: N1_2  and  C2_3 
REMARK    2  A    between atoms: N1_2  and  C18_21 
REMARK    3  A    between atoms: C2_3  and  C3_4 
REMARK    4  A    between atoms: C3_4  and  C4_5 
REMARK    5  A    between atoms: C4_5  and  N2_6 
REMARK    6  A    between atoms: N3_9  and  C7_10 
REMARK    7  A    between atoms: C7_10  and  C8_11 
REMARK    8  A    between atoms: C8_11  and  C11_14 
REMARK    9  A    between atoms: N4_24  and  C21_25 
REMARK   10  A    between atoms: C21_25  and  C22_26 
ROOT
HETATM    1  C2  UNL     1      43.884  43.616 -56.396  1.00  0.00     0.277 C 
ENDROOT
BRANCH   1   2
HETATM    2  N1  UNL     1      44.807  42.526 -56.403  1.00  0.00     0.089 N 
HETATM    3  C1  UNL     1      46.089  43.004 -56.841  1.00  0.00     0.310 C 
BRANCH   2   4
HETATM    4  C18 UNL     1      44.271  41.466 -57.188  1.00  0.00     0.225 C 
HETATM    5  C19 UNL     1      44.192  40.146 -56.443  1.00  0.00     0.055 C 
HETATM    6  C20 UNL     1      43.209  39.274 -57.229  1.00  0.00     0.119 C 
HETATM    7  N4  UNL     1      43.051  39.786 -58.544  1.00  0.00    -0.406 N 
HETATM    8  C26 UNL     1      44.243  40.103 -59.248  1.00  0.00     0.119 C 
HETATM    9  C27 UNL     1      45.013  41.192 -58.481  1.00  0.00     0.055 C 
BRANCH   7  10
HETATM   10  C21 UNL     1      41.960  39.285 -59.288  1.00  0.00     0.193 C 
BRANCH  10  11
HETATM   11  C22 UNL     1      41.248  40.286 -60.089  1.00  0.00     0.100 A 
HETATM   12  N5  UNL     1      41.426  40.478 -61.407  1.00  0.00    -0.353 N 
HETATM   13  C23 UNL     1      40.628  41.472 -61.845  1.00  0.00     0.106 A 
ATOM     14  H5  UNL     1      42.071  39.948 -61.992  1.00  0.00     0.166 HD
HETATM   15  C24 UNL     1      39.935  41.901 -60.742  1.00  0.00     0.108 A 
HETATM   16  N6  UNL     1      40.323  41.169 -59.674  1.00  0.00    -0.348 N 
HETATM   17  C25 UNL     1      39.802  41.335 -58.322  1.00  0.00     0.157 C 
ENDBRANCH  10  11
ENDBRANCH   7  10
ENDBRANCH   2   4
ENDBRANCH   1   2
BRANCH   1  18
HETATM   18  C3  UNL     1      42.550  43.363 -55.804  1.00  0.00     0.075 C 
BRANCH  18  19
HETATM   19  C4  UNL     1      42.548  43.129 -54.307  1.00  0.00     0.065 C 
BRANCH  19  20
HETATM   20  N2  UNL     1      41.837  41.968 -53.945  1.00  0.00    -0.370 N 
HETATM   21  C5  UNL     1      41.858  41.652 -52.596  1.00  0.00     0.093 C 
HETATM   22  C6  UNL     1      41.347  40.282 -52.228  1.00  0.00     0.317 C 
HETATM   23  N3  UNL     1      40.271  39.844 -53.178  1.00  0.00     0.095 N 
HETATM   24  C16 UNL     1      41.032  39.805 -54.444  1.00  0.00     0.293 C 
HETATM   25  C17 UNL     1      41.058  41.285 -54.875  1.00  0.00     0.157 C 
BRANCH  23  26
HETATM   26  C7  UNL     1      39.858  38.548 -52.737  1.00  0.00     0.282 C 
BRANCH  26  27
HETATM   27  C8  UNL     1      38.413  38.469 -52.470  1.00  0.00    -0.018 C 
HETATM   28  C9  UNL     1      37.721  39.395 -53.478  1.00  0.00     0.017 C 
HETATM   29  C10 UNL     1      37.797  37.115 -52.660  1.00  0.00     0.017 C 
BRANCH  27  30
HETATM   30  C11 UNL     1      38.015  38.923 -51.085  1.00  0.00    -0.005 C 
HETATM   31  C12 UNL     1      38.876  38.417 -49.981  1.00  0.00     0.005 C 
HETATM   32  C13 UNL     1      38.084  38.903 -48.757  1.00  0.00     0.000 C 
HETATM   33  C14 UNL     1      36.639  38.771 -49.167  1.00  0.00     0.000 C 
HETATM   34  C15 UNL     1      36.647  38.448 -50.667  1.00  0.00     0.005 C 
ENDBRANCH  27  30
ENDBRANCH  26  27
ENDBRANCH  23  26
ENDBRANCH  19  20
ENDBRANCH  18  19
ENDBRANCH   1  18
TORSDOF 10
ENDMDL
