MODEL 1
REMARK VINA RESULT: -5.161236651      0.000      0.000
REMARK  6 active torsions:
REMARK  status: ('A' for Active; 'I' for Inactive)
REMARK    1  A    between atoms: O1_2  and  C2_3 
REMARK    2  A    between atoms: C5_6  and  N1_7 
REMARK    3  A    between atoms: C8_12  and  O4_13 
REMARK    4  A    between atoms: C10_16  and  O5_17 
REMARK    5  A    between atoms: C12_19  and  O6_20 
REMARK    6  A    between atoms: C14_22  and  O7_23 
ROOT
HETATM    1  C2  UNL     1      19.544 -21.888 -24.352  1.00  0.00     0.105 A 
HETATM    2  C3  UNL     1      18.815 -22.063 -23.195  1.00  0.00     0.054 A 
HETATM    3  C4  UNL     1      19.385 -22.807 -22.180  1.00  0.00     0.016 A 
HETATM    4  C5  UNL     1      18.641 -22.955 -21.030  1.00  0.00     0.122 A 
HETATM    5  C6  UNL     1      19.172 -23.672 -19.997  1.00  0.00     0.005 A 
HETATM    6  C7  UNL     1      20.458 -24.249 -20.101  1.00  0.00     0.017 A 
HETATM    7  C8  UNL     1      21.193 -24.108 -21.226  1.00  0.00     0.089 A 
HETATM    8  C9  UNL     1      20.641 -23.366 -22.300  1.00  0.00     0.047 A 
HETATM    9  C10 UNL     1      21.349 -23.179 -23.462  1.00  0.00     0.118 A 
HETATM   10  C12 UNL     1      20.798 -22.427 -24.513  1.00  0.00     0.136 A 
HETATM   11  C14 UNL     1      20.865 -24.975 -18.905  1.00  0.00     0.174 C 
HETATM   12  C16 UNL     1      19.614 -25.816 -18.515  1.00  0.00     0.153 C 
HETATM   13  N2  UNL     1      18.690 -24.895 -17.935  1.00  0.00    -0.410 N 
HETATM   14  C17 UNL     1      17.608 -25.476 -17.212  1.00  0.00     0.143 C 
HETATM   15  C18 UNL     1      18.346 -23.795 -18.772  1.00  0.00     0.158 C 
ENDROOT
BRANCH   4  16
HETATM   16  N1  UNL     1      17.326 -22.365 -20.950  1.00  0.00    -0.114 N 
HETATM   17  O2  UNL     1      16.318 -23.003 -21.325  1.00  0.00    -0.532 OA
HETATM   18  O3  UNL     1      17.136 -21.100 -20.470  1.00  0.00    -0.532 OA
ENDBRANCH   4  16
BRANCH   1  19
HETATM   19  O1  UNL     1      18.965 -21.140 -25.366  1.00  0.00    -0.353 OA
HETATM   20  C1  UNL     1      18.140 -21.721 -26.326  1.00  0.00     0.210 C 
ENDBRANCH   1  19
BRANCH   7  21
HETATM   21  O4  UNL     1      22.442 -24.620 -21.430  1.00  0.00    -0.359 OA
ATOM     22  H4  UNL     1      22.831 -24.811 -22.276  1.00  0.00     0.217 HD
ENDBRANCH   7  21
BRANCH   9  23
HETATM   23  O5  UNL     1      22.611 -23.715 -23.659  1.00  0.00    -0.352 OA
HETATM   24  C11 UNL     1      23.707 -22.788 -23.664  1.00  0.00     0.210 C 
ENDBRANCH   9  23
BRANCH  11  25
HETATM   25  O7  UNL     1      21.970 -25.754 -18.916  1.00  0.00    -0.384 OA
HETATM   26  C15 UNL     1      21.811 -26.786 -17.959  1.00  0.00     0.202 C 
ENDBRANCH  11  25
BRANCH  10  27
HETATM   27  O6  UNL     1      21.483 -22.215 -25.701  1.00  0.00    -0.351 OA
HETATM   28  C13 UNL     1      21.429 -23.244 -26.675  1.00  0.00     0.210 C 
ENDBRANCH  10  27
TORSDOF 6
ENDMDL
MODEL 2
REMARK VINA RESULT: -5.146311932      2.972      4.987
REMARK  6 active torsions:
REMARK  status: ('A' for Active; 'I' for Inactive)
REMARK    1  A    between atoms: O1_2  and  C2_3 
REMARK    2  A    between atoms: C5_6  and  N1_7 
REMARK    3  A    between atoms: C8_12  and  O4_13 
REMARK    4  A    between atoms: C10_16  and  O5_17 
REMARK    5  A    between atoms: C12_19  and  O6_20 
REMARK    6  A    between atoms: C14_22  and  O7_23 
ROOT
HETATM    1  C2  UNL     1      15.501 -24.397 -26.602  1.00  0.00     0.105 A 
HETATM    2  C3  UNL     1      15.621 -24.479 -25.232  1.00  0.00     0.054 A 
HETATM    3  C4  UNL     1      16.638 -23.763 -24.630  1.00  0.00     0.016 A 
HETATM    4  C5  UNL     1      16.727 -23.853 -23.258  1.00  0.00     0.122 A 
HETATM    5  C6  UNL     1      17.709 -23.151 -22.621  1.00  0.00     0.005 A 
HETATM    6  C7  UNL     1      18.616 -22.348 -23.350  1.00  0.00     0.017 A 
HETATM    7  C8  UNL     1      18.534 -22.255 -24.696  1.00  0.00     0.089 A 
HETATM    8  C9  UNL     1      17.515 -22.986 -25.358  1.00  0.00     0.047 A 
HETATM    9  C10 UNL     1      17.376 -22.919 -26.723  1.00  0.00     0.118 A 
HETATM   10  C12 UNL     1      16.353 -23.635 -27.365  1.00  0.00     0.136 A 
HETATM   11  C14 UNL     1      19.594 -21.670 -22.510  1.00  0.00     0.174 C 
HETATM   12  C16 UNL     1      20.080 -22.766 -21.516  1.00  0.00     0.153 C 
HETATM   13  N2  UNL     1      19.025 -22.932 -20.571  1.00  0.00    -0.410 N 
HETATM   14  C17 UNL     1      19.363 -23.644 -19.383  1.00  0.00     0.143 C 
HETATM   15  C18 UNL     1      17.762 -23.263 -21.143  1.00  0.00     0.158 C 
ENDROOT
BRANCH   4  16
HETATM   16  N1  UNL     1      15.797 -24.687 -22.535  1.00  0.00    -0.114 N 
HETATM   17  O2  UNL     1      16.012 -25.912 -22.401  1.00  0.00    -0.532 OA
HETATM   18  O3  UNL     1      14.659 -24.177 -21.978  1.00  0.00    -0.532 OA
ENDBRANCH   4  16
BRANCH   1  19
HETATM   19  O1  UNL     1      14.478 -25.118 -27.200  1.00  0.00    -0.353 OA
HETATM   20  C1  UNL     1      13.974 -26.285 -26.630  1.00  0.00     0.210 C 
ENDBRANCH   1  19
BRANCH   7  21
HETATM   21  O4  UNL     1      19.353 -21.510 -25.494  1.00  0.00    -0.359 OA
ATOM     22  H4  UNL     1      20.062 -21.847 -26.028  1.00  0.00     0.217 HD
ENDBRANCH   7  21
BRANCH   9  23
HETATM   23  O5  UNL     1      18.223 -22.167 -27.520  1.00  0.00    -0.352 OA
HETATM   24  C11 UNL     1      19.197 -22.894 -28.285  1.00  0.00     0.210 C 
ENDBRANCH   9  23
BRANCH  11  25
HETATM   25  O7  UNL     1      20.651 -21.033 -23.062  1.00  0.00    -0.384 OA
HETATM   26  C15 UNL     1      21.827 -21.769 -22.777  1.00  0.00     0.202 C 
ENDBRANCH  11  25
BRANCH  10  27
HETATM   27  O6  UNL     1      16.181 -23.591 -28.742  1.00  0.00    -0.351 OA
HETATM   28  C13 UNL     1      15.316 -22.591 -29.258  1.00  0.00     0.210 C 
ENDBRANCH  10  27
TORSDOF 6
ENDMDL
MODEL 3
REMARK VINA RESULT: -4.946351203      1.973      4.344
REMARK  6 active torsions:
REMARK  status: ('A' for Active; 'I' for Inactive)
REMARK    1  A    between atoms: O1_2  and  C2_3 
REMARK    2  A    between atoms: C5_6  and  N1_7 
REMARK    3  A    between atoms: C8_12  and  O4_13 
REMARK    4  A    between atoms: C10_16  and  O5_17 
REMARK    5  A    between atoms: C12_19  and  O6_20 
REMARK    6  A    between atoms: C14_22  and  O7_23 
ROOT
HETATM    1  C2  UNL     1      20.967 -22.327 -22.745  1.00  0.00     0.105 A 
HETATM    2  C3  UNL     1      21.610 -23.260 -21.961  1.00  0.00     0.054 A 
HETATM    3  C4  UNL     1      20.903 -23.816 -20.912  1.00  0.00     0.016 A 
HETATM    4  C5  UNL     1      21.564 -24.756 -20.152  1.00  0.00     0.122 A 
HETATM    5  C6  UNL     1      20.898 -25.341 -19.113  1.00  0.00     0.005 A 
HETATM    6  C7  UNL     1      19.560 -24.993 -18.823  1.00  0.00     0.017 A 
HETATM    7  C8  UNL     1      18.905 -24.072 -19.564  1.00  0.00     0.089 A 
HETATM    8  C9  UNL     1      19.597 -23.463 -20.641  1.00  0.00     0.047 A 
HETATM    9  C10 UNL     1      18.978 -22.530 -21.436  1.00  0.00     0.118 A 
HETATM   10  C12 UNL     1      19.668 -21.946 -22.511  1.00  0.00     0.136 A 
HETATM   11  C14 UNL     1      19.008 -25.716 -17.684  1.00  0.00     0.174 C 
HETATM   12  C16 UNL     1      20.128 -25.656 -16.605  1.00  0.00     0.153 C 
HETATM   13  N2  UNL     1      21.124 -26.588 -17.022  1.00  0.00    -0.410 N 
HETATM   14  C17 UNL     1      22.090 -26.945 -16.036  1.00  0.00     0.143 C 
HETATM   15  C18 UNL     1      21.640 -26.358 -18.330  1.00  0.00     0.158 C 
ENDROOT
BRANCH   4  16
HETATM   16  N1  UNL     1      22.934 -25.089 -20.461  1.00  0.00    -0.114 N 
HETATM   17  O2  UNL     1      23.873 -24.381 -20.035  1.00  0.00    -0.532 OA
HETATM   18  O3  UNL     1      23.254 -26.176 -21.224  1.00  0.00    -0.532 OA
ENDBRANCH   4  16
BRANCH   1  19
HETATM   19  O1  UNL     1      21.683 -21.773 -23.796  1.00  0.00    -0.353 OA
HETATM   20  C1  UNL     1      22.179 -22.554 -24.837  1.00  0.00     0.210 C 
ENDBRANCH   1  19
BRANCH   7  21
HETATM   21  O4  UNL     1      17.617 -23.666 -19.372  1.00  0.00    -0.359 OA
ATOM     22  H4  UNL     1      17.132 -23.075 -19.937  1.00  0.00     0.217 HD
ENDBRANCH   7  21
BRANCH   9  23
HETATM   23  O5  UNL     1      17.672 -22.119 -21.222  1.00  0.00    -0.352 OA
HETATM   24  C11 UNL     1      17.493 -20.779 -20.739  1.00  0.00     0.210 C 
ENDBRANCH   9  23
BRANCH  11  25
HETATM   25  O7  UNL     1      17.819 -25.355 -17.151  1.00  0.00    -0.384 OA
HETATM   26  C15 UNL     1      16.902 -26.422 -17.316  1.00  0.00     0.202 C 
ENDBRANCH  11  25
BRANCH  10  27
HETATM   27  O6  UNL     1      19.075 -21.001 -23.337  1.00  0.00    -0.351 OA
HETATM   28  C13 UNL     1      18.580 -21.450 -24.588  1.00  0.00     0.210 C 
ENDBRANCH  10  27
TORSDOF 6
ENDMDL
MODEL 4
REMARK VINA RESULT: -4.945103494      5.195      9.893
REMARK  6 active torsions:
REMARK  status: ('A' for Active; 'I' for Inactive)
REMARK    1  A    between atoms: O1_2  and  C2_3 
REMARK    2  A    between atoms: C5_6  and  N1_7 
REMARK    3  A    between atoms: C8_12  and  O4_13 
REMARK    4  A    between atoms: C10_16  and  O5_17 
REMARK    5  A    between atoms: C12_19  and  O6_20 
REMARK    6  A    between atoms: C14_22  and  O7_23 
ROOT
HETATM    1  C2  UNL     1      24.369 -28.445 -14.026  1.00  0.00     0.105 A 
HETATM    2  C3  UNL     1      24.134 -28.289 -15.375  1.00  0.00     0.054 A 
HETATM    3  C4  UNL     1      22.998 -27.602 -15.756  1.00  0.00     0.016 A 
HETATM    4  C5  UNL     1      22.793 -27.448 -17.110  1.00  0.00     0.122 A 
HETATM    5  C6  UNL     1      21.690 -26.764 -17.530  1.00  0.00     0.005 A 
HETATM    6  C7  UNL     1      20.775 -26.223 -16.600  1.00  0.00     0.017 A 
HETATM    7  C8  UNL     1      20.968 -26.369 -15.270  1.00  0.00     0.089 A 
HETATM    8  C9  UNL     1      22.114 -27.081 -14.833  1.00  0.00     0.047 A 
HETATM    9  C10 UNL     1      22.368 -27.250 -13.494  1.00  0.00     0.118 A 
HETATM   10  C12 UNL     1      23.514 -27.943 -13.074  1.00  0.00     0.136 A 
HETATM   11  C14 UNL     1      19.659 -25.524 -17.224  1.00  0.00     0.174 C 
HETATM   12  C16 UNL     1      19.202 -26.470 -18.373  1.00  0.00     0.153 C 
HETATM   13  N2  UNL     1      20.178 -26.332 -19.404  1.00  0.00    -0.410 N 
HETATM   14  C17 UNL     1      19.809 -26.850 -20.680  1.00  0.00     0.143 C 
HETATM   15  C18 UNL     1      21.515 -26.609 -18.995  1.00  0.00     0.158 C 
ENDROOT
BRANCH   4  16
HETATM   16  N1  UNL     1      23.736 -28.019 -18.043  1.00  0.00    -0.114 N 
HETATM   17  O2  UNL     1      24.720 -27.356 -18.439  1.00  0.00    -0.532 OA
HETATM   18  O3  UNL     1      23.590 -29.289 -18.525  1.00  0.00    -0.532 OA
ENDBRANCH   4  16
BRANCH   1  19
HETATM   19  O1  UNL     1      25.512 -29.136 -13.651  1.00  0.00    -0.353 OA
HETATM   20  C1  UNL     1      26.775 -28.556 -13.725  1.00  0.00     0.210 C 
ENDBRANCH   1  19
BRANCH   7  21
HETATM   21  O4  UNL     1      20.152 -25.886 -14.289  1.00  0.00    -0.359 OA
ATOM     22  H4  UNL     1      19.294 -25.500 -14.422  1.00  0.00     0.217 HD
ENDBRANCH   7  21
BRANCH   9  23
HETATM   23  O5  UNL     1      21.524 -26.764 -12.510  1.00  0.00    -0.352 OA
HETATM   24  C11 UNL     1      20.743 -27.735 -11.797  1.00  0.00     0.210 C 
ENDBRANCH   9  23
BRANCH  11  25
HETATM   25  O7  UNL     1      18.596 -25.130 -16.487  1.00  0.00    -0.384 OA
HETATM   26  C15 UNL     1      17.504 -24.884 -17.357  1.00  0.00     0.202 C 
ENDBRANCH  11  25
BRANCH  10  27
HETATM   27  O6  UNL     1      23.806 -28.132 -11.730  1.00  0.00    -0.351 OA
HETATM   28  C13 UNL     1      24.515 -27.099 -11.067  1.00  0.00     0.210 C 
ENDBRANCH  10  27
TORSDOF 6
ENDMDL
MODEL 5
REMARK VINA RESULT: -4.913840987      1.189      1.476
REMARK  6 active torsions:
REMARK  status: ('A' for Active; 'I' for Inactive)
REMARK    1  A    between atoms: O1_2  and  C2_3 
REMARK    2  A    between atoms: C5_6  and  N1_7 
REMARK    3  A    between atoms: C8_12  and  O4_13 
REMARK    4  A    between atoms: C10_16  and  O5_17 
REMARK    5  A    between atoms: C12_19  and  O6_20 
REMARK    6  A    between atoms: C14_22  and  O7_23 
ROOT
HETATM    1  C2  UNL     1      20.427 -22.193 -23.336  1.00  0.00     0.105 A 
HETATM    2  C3  UNL     1      19.451 -22.497 -22.411  1.00  0.00     0.054 A 
HETATM    3  C4  UNL     1      19.807 -23.291 -21.338  1.00  0.00     0.016 A 
HETATM    4  C5  UNL     1      18.816 -23.570 -20.421  1.00  0.00     0.122 A 
HETATM    5  C6  UNL     1      19.127 -24.340 -19.338  1.00  0.00     0.005 A 
HETATM    6  C7  UNL     1      20.435 -24.842 -19.157  1.00  0.00     0.017 A 
HETATM    7  C8  UNL     1      21.412 -24.573 -20.052  1.00  0.00     0.089 A 
HETATM    8  C9  UNL     1      21.089 -23.775 -21.178  1.00  0.00     0.047 A 
HETATM    9  C10 UNL     1      22.044 -23.459 -22.113  1.00  0.00     0.118 A 
HETATM   10  C12 UNL     1      21.717 -22.653 -23.215  1.00  0.00     0.136 A 
HETATM   11  C14 UNL     1      20.587 -25.641 -17.949  1.00  0.00     0.174 C 
HETATM   12  C16 UNL     1      19.339 -26.572 -17.938  1.00  0.00     0.153 C 
HETATM   13  N2  UNL     1      18.241 -25.750 -17.547  1.00  0.00    -0.410 N 
HETATM   14  C17 UNL     1      17.058 -26.441 -17.155  1.00  0.00     0.143 C 
HETATM   15  C18 UNL     1      18.036 -24.604 -18.369  1.00  0.00     0.158 C 
ENDROOT
BRANCH   4  16
HETATM   16  N1  UNL     1      17.484 -23.055 -20.632  1.00  0.00    -0.114 N 
HETATM   17  O2  UNL     1      17.169 -21.917 -20.220  1.00  0.00    -0.532 OA
HETATM   18  O3  UNL     1      16.527 -23.784 -21.280  1.00  0.00    -0.532 OA
ENDBRANCH   4  16
BRANCH   1  19
HETATM   19  O1  UNL     1      20.063 -21.395 -24.411  1.00  0.00    -0.353 OA
HETATM   20  C1  UNL     1      19.010 -21.738 -25.255  1.00  0.00     0.210 C 
ENDBRANCH   1  19
BRANCH   7  21
HETATM   21  O4  UNL     1      22.705 -25.004 -19.973  1.00  0.00    -0.359 OA
ATOM     22  H4  UNL     1      23.084 -25.714 -20.478  1.00  0.00     0.217 HD
ENDBRANCH   7  21
BRANCH   9  23
HETATM   23  O5  UNL     1      23.350 -23.913 -22.024  1.00  0.00    -0.352 OA
HETATM   24  C11 UNL     1      24.340 -22.947 -21.640  1.00  0.00     0.210 C 
ENDBRANCH   9  23
BRANCH  11  25
HETATM   25  O7  UNL     1      21.713 -26.359 -17.736  1.00  0.00    -0.384 OA
HETATM   26  C15 UNL     1      21.641 -26.949 -16.449  1.00  0.00     0.202 C 
ENDBRANCH  11  25
BRANCH  10  27
HETATM   27  O6  UNL     1      22.655 -22.312 -24.179  1.00  0.00    -0.351 OA
HETATM   28  C13 UNL     1      22.791 -23.180 -25.292  1.00  0.00     0.210 C 
ENDBRANCH  10  27
TORSDOF 6
ENDMDL
