MODEL 1
REMARK VINA RESULT: -6.869986179      0.000      0.000
REMARK  5 active torsions:
REMARK  status: ('A' for Active; 'I' for Inactive)
REMARK    1  A    between atoms: C2_2  and  C3_3 
REMARK    2  A    between atoms: C3_3  and  N1_4 
REMARK    3  A    between atoms: C4_5  and  S1_6 
REMARK    4  A    between atoms: S1_6  and  C5_7 
REMARK    5  A    between atoms: C5_7  and  C6_8 
REMARK       I    between atoms: C6_8  and  N2_10 
ROOT
HETATM    1  N1  UNL     1      19.702 -22.874 -21.428  1.00  0.00    -0.321 N 
HETATM    2  C4  UNL     1      18.725 -21.954 -21.280  1.00  0.00     0.149 A 
HETATM    3  N3  UNL     1      17.940 -22.398 -20.299  1.00  0.00    -0.321 N 
ATOM      4  H3  UNL     1      17.110 -21.916 -19.955  1.00  0.00     0.169 HD
HETATM    5  C12 UNL     1      18.408 -23.598 -19.817  1.00  0.00     0.136 A 
HETATM    6  C13 UNL     1      19.524 -23.899 -20.536  1.00  0.00     0.138 A 
HETATM    7  C14 UNL     1      20.299 -25.112 -20.312  1.00  0.00     0.241 C 
HETATM    8  O2  UNL     1      21.222 -25.470 -21.041  1.00  0.00    -0.278 OA
HETATM    9  S2  UNL     1      19.884 -26.135 -18.890  1.00  0.00    -0.060 SA
HETATM   10  C15 UNL     1      18.110 -25.789 -18.591  1.00  0.00     0.149 C 
HETATM   11  C16 UNL     1      17.856 -26.198 -17.155  1.00  0.00     0.044 C 
HETATM   12  N4  UNL     1      17.890 -24.390 -18.761  1.00  0.00    -0.361 N 
ATOM     13  H4  UNL     1      17.311 -23.920 -18.066  1.00  0.00     0.162 HD
ENDROOT
BRANCH   2  14
HETATM   14  S1  UNL     1      18.568 -20.444 -22.229  1.00  0.00    -0.084 SA
BRANCH  14  15
HETATM   15  C5  UNL     1      17.739 -19.156 -21.319  1.00  0.00     0.185 C 
BRANCH  15  16
HETATM   16  C6  UNL     1      18.717 -18.108 -20.977  1.00  0.00     0.229 C 
HETATM   17  O1  UNL     1      19.927 -18.399 -21.178  1.00  0.00    -0.273 OA
HETATM   18  N2  UNL     1      18.408 -16.847 -20.454  1.00  0.00    -0.351 N 
HETATM   19  C7  UNL     1      19.493 -15.896 -20.175  1.00  0.00     0.125 C 
HETATM   20  C11 UNL     1      17.082 -16.362 -20.130  1.00  0.00     0.125 C 
HETATM   21  C8  UNL     1      18.980 -14.873 -19.182  1.00  0.00     0.020 C 
HETATM   22  C9  UNL     1      18.151 -15.492 -18.085  1.00  0.00     0.003 C 
HETATM   23  C10 UNL     1      17.028 -16.333 -18.608  1.00  0.00     0.020 C 
ENDBRANCH  15  16
ENDBRANCH  14  15
ENDBRANCH   2  14
BRANCH   1  24
HETATM   24  C3  UNL     1      20.802 -22.811 -22.337  1.00  0.00     0.131 C 
BRANCH  24  25
HETATM   25  C2  UNL     1      21.970 -21.984 -21.975  1.00  0.00     0.016 C 
HETATM   26  C1  UNL     1      23.110 -22.621 -21.271  1.00  0.00     0.006 C 
ENDBRANCH  24  25
ENDBRANCH   1  24
TORSDOF 5
ENDMDL
MODEL 2
REMARK VINA RESULT: -6.770002082      1.830      2.911
REMARK  5 active torsions:
REMARK  status: ('A' for Active; 'I' for Inactive)
REMARK    1  A    between atoms: C2_2  and  C3_3 
REMARK    2  A    between atoms: C3_3  and  N1_4 
REMARK    3  A    between atoms: C4_5  and  S1_6 
REMARK    4  A    between atoms: S1_6  and  C5_7 
REMARK    5  A    between atoms: C5_7  and  C6_8 
REMARK       I    between atoms: C6_8  and  N2_10 
ROOT
HETATM    1  N1  UNL     1      18.261 -23.066 -21.016  1.00  0.00    -0.321 N 
HETATM    2  C4  UNL     1      19.195 -22.204 -21.472  1.00  0.00     0.149 A 
HETATM    3  N3  UNL     1      20.371 -22.673 -21.057  1.00  0.00    -0.321 N 
ATOM      4  H3  UNL     1      21.272 -22.234 -21.247  1.00  0.00     0.169 HD
HETATM    5  C12 UNL     1      20.198 -23.832 -20.337  1.00  0.00     0.136 A 
HETATM    6  C13 UNL     1      18.859 -24.077 -20.310  1.00  0.00     0.138 A 
HETATM    7  C14 UNL     1      18.286 -25.229 -19.626  1.00  0.00     0.241 C 
HETATM    8  O2  UNL     1      17.077 -25.391 -19.470  1.00  0.00    -0.278 OA
HETATM    9  S2  UNL     1      19.409 -26.479 -18.981  1.00  0.00    -0.060 SA
HETATM   10  C15 UNL     1      20.964 -25.565 -18.664  1.00  0.00     0.149 C 
HETATM   11  C16 UNL     1      22.050 -26.620 -18.622  1.00  0.00     0.044 C 
HETATM   12  N4  UNL     1      21.183 -24.662 -19.746  1.00  0.00    -0.361 N 
ATOM     13  H4  UNL     1      22.127 -24.609 -20.126  1.00  0.00     0.162 HD
ENDROOT
BRANCH   2  14
HETATM   14  S1  UNL     1      18.867 -20.741 -22.451  1.00  0.00    -0.084 SA
BRANCH  14  15
HETATM   15  C5  UNL     1      17.941 -19.515 -21.547  1.00  0.00     0.185 C 
BRANCH  15  16
HETATM   16  C6  UNL     1      18.851 -18.428 -21.150  1.00  0.00     0.229 C 
HETATM   17  O1  UNL     1      20.083 -18.692 -21.210  1.00  0.00    -0.273 OA
HETATM   18  N2  UNL     1      18.459 -17.156 -20.717  1.00  0.00    -0.351 N 
HETATM   19  C7  UNL     1      19.485 -16.163 -20.367  1.00  0.00     0.125 C 
HETATM   20  C11 UNL     1      17.095 -16.696 -20.556  1.00  0.00     0.125 C 
HETATM   21  C8  UNL     1      18.845 -15.116 -19.479  1.00  0.00     0.020 C 
HETATM   22  C9  UNL     1      17.919 -15.714 -18.449  1.00  0.00     0.003 C 
HETATM   23  C10 UNL     1      16.879 -16.607 -19.051  1.00  0.00     0.020 C 
ENDBRANCH  15  16
ENDBRANCH  14  15
ENDBRANCH   2  14
BRANCH   1  24
HETATM   24  C3  UNL     1      16.853 -22.998 -21.245  1.00  0.00     0.131 C 
BRANCH  24  25
HETATM   25  C2  UNL     1      16.290 -23.727 -22.398  1.00  0.00     0.016 C 
HETATM   26  C1  UNL     1      14.875 -24.169 -22.347  1.00  0.00     0.006 C 
ENDBRANCH  24  25
ENDBRANCH   1  24
TORSDOF 5
ENDMDL
MODEL 3
REMARK VINA RESULT: -6.619879271      1.569      2.039
REMARK  5 active torsions:
REMARK  status: ('A' for Active; 'I' for Inactive)
REMARK    1  A    between atoms: C2_2  and  C3_3 
REMARK    2  A    between atoms: C3_3  and  N1_4 
REMARK    3  A    between atoms: C4_5  and  S1_6 
REMARK    4  A    between atoms: S1_6  and  C5_7 
REMARK    5  A    between atoms: C5_7  and  C6_8 
REMARK       I    between atoms: C6_8  and  N2_10 
ROOT
HETATM    1  N1  UNL     1      18.609 -23.237 -21.924  1.00  0.00    -0.321 N 
HETATM    2  C4  UNL     1      18.413 -22.035 -21.343  1.00  0.00     0.149 A 
HETATM    3  N3  UNL     1      18.096 -22.281 -20.073  1.00  0.00    -0.321 N 
ATOM      4  H3  UNL     1      17.889 -21.566 -19.376  1.00  0.00     0.169 HD
HETATM    5  C12 UNL     1      18.086 -23.635 -19.835  1.00  0.00     0.136 A 
HETATM    6  C13 UNL     1      18.410 -24.240 -21.011  1.00  0.00     0.138 A 
HETATM    7  C14 UNL     1      18.496 -25.687 -21.152  1.00  0.00     0.241 C 
HETATM    8  O2  UNL     1      18.645 -26.255 -22.232  1.00  0.00    -0.278 OA
HETATM    9  S2  UNL     1      18.379 -26.694 -19.664  1.00  0.00    -0.060 SA
HETATM   10  C15 UNL     1      17.394 -25.671 -18.506  1.00  0.00     0.149 C 
HETATM   11  C16 UNL     1      17.701 -26.217 -17.127  1.00  0.00     0.044 C 
HETATM   12  N4  UNL     1      17.831 -24.318 -18.620  1.00  0.00    -0.361 N 
ATOM     13  H4  UNL     1      17.970 -23.799 -17.754  1.00  0.00     0.162 HD
ENDROOT
BRANCH   2  14
HETATM   14  S1  UNL     1      18.576 -20.449 -22.159  1.00  0.00    -0.084 SA
BRANCH  14  15
HETATM   15  C5  UNL     1      17.746 -19.144 -21.274  1.00  0.00     0.185 C 
BRANCH  15  16
HETATM   16  C6  UNL     1      18.724 -18.092 -20.948  1.00  0.00     0.229 C 
HETATM   17  O1  UNL     1      19.934 -18.381 -21.159  1.00  0.00    -0.273 OA
HETATM   18  N2  UNL     1      18.418 -16.829 -20.429  1.00  0.00    -0.351 N 
HETATM   19  C7  UNL     1      19.503 -15.873 -20.167  1.00  0.00     0.125 C 
HETATM   20  C11 UNL     1      17.093 -16.345 -20.095  1.00  0.00     0.125 C 
HETATM   21  C8  UNL     1      18.997 -14.846 -19.175  1.00  0.00     0.020 C 
HETATM   22  C9  UNL     1      18.180 -15.461 -18.066  1.00  0.00     0.003 C 
HETATM   23  C10 UNL     1      17.054 -16.307 -18.573  1.00  0.00     0.020 C 
ENDBRANCH  15  16
ENDBRANCH  14  15
ENDBRANCH   2  14
BRANCH   1  24
HETATM   24  C3  UNL     1      19.006 -23.478 -23.275  1.00  0.00     0.131 C 
BRANCH  24  25
HETATM   25  C2  UNL     1      17.993 -23.349 -24.341  1.00  0.00     0.016 C 
HETATM   26  C1  UNL     1      16.712 -24.085 -24.208  1.00  0.00     0.006 C 
ENDBRANCH  24  25
ENDBRANCH   1  24
TORSDOF 5
ENDMDL
MODEL 4
REMARK VINA RESULT: -6.579314436      3.267      3.619
REMARK  5 active torsions:
REMARK  status: ('A' for Active; 'I' for Inactive)
REMARK    1  A    between atoms: C2_2  and  C3_3 
REMARK    2  A    between atoms: C3_3  and  N1_4 
REMARK    3  A    between atoms: C4_5  and  S1_6 
REMARK    4  A    between atoms: S1_6  and  C5_7 
REMARK    5  A    between atoms: C5_7  and  C6_8 
REMARK       I    between atoms: C6_8  and  N2_10 
ROOT
HETATM    1  N1  UNL     1      18.000 -22.885 -23.412  1.00  0.00    -0.321 N 
HETATM    2  C4  UNL     1      17.928 -22.195 -22.253  1.00  0.00     0.149 A 
HETATM    3  N3  UNL     1      16.976 -22.781 -21.528  1.00  0.00    -0.321 N 
ATOM      4  H3  UNL     1      16.689 -22.483 -20.596  1.00  0.00     0.169 HD
HETATM    5  C12 UNL     1      16.436 -23.844 -22.215  1.00  0.00     0.136 A 
HETATM    6  C13 UNL     1      17.085 -23.906 -23.410  1.00  0.00     0.138 A 
HETATM    7  C14 UNL     1      16.778 -24.911 -24.418  1.00  0.00     0.241 C 
HETATM    8  O2  UNL     1      17.250 -24.898 -25.553  1.00  0.00    -0.278 OA
HETATM    9  S2  UNL     1      15.651 -26.243 -23.975  1.00  0.00    -0.060 SA
HETATM   10  C15 UNL     1      14.598 -25.521 -22.660  1.00  0.00     0.149 C 
HETATM   11  C16 UNL     1      14.012 -26.704 -21.918  1.00  0.00     0.044 C 
HETATM   12  N4  UNL     1      15.427 -24.746 -21.796  1.00  0.00    -0.361 N 
ATOM     13  H4  UNL     1      15.281 -24.851 -20.792  1.00  0.00     0.162 HD
ENDROOT
BRANCH   2  14
HETATM   14  S1  UNL     1      18.945 -20.787 -21.820  1.00  0.00    -0.084 SA
BRANCH  14  15
HETATM   15  C5  UNL     1      17.974 -19.333 -21.472  1.00  0.00     0.185 C 
BRANCH  15  16
HETATM   16  C6  UNL     1      18.878 -18.241 -21.070  1.00  0.00     0.229 C 
HETATM   17  O1  UNL     1      20.112 -18.485 -21.167  1.00  0.00    -0.273 OA
HETATM   18  N2  UNL     1      18.477 -16.987 -20.595  1.00  0.00    -0.351 N 
HETATM   19  C7  UNL     1      19.497 -15.988 -20.245  1.00  0.00     0.125 C 
HETATM   20  C11 UNL     1      17.110 -16.553 -20.389  1.00  0.00     0.125 C 
HETATM   21  C8  UNL     1      18.863 -14.974 -19.315  1.00  0.00     0.020 C 
HETATM   22  C9  UNL     1      17.972 -15.612 -18.279  1.00  0.00     0.003 C 
HETATM   23  C10 UNL     1      16.931 -16.505 -18.877  1.00  0.00     0.020 C 
ENDBRANCH  15  16
ENDBRANCH  14  15
ENDBRANCH   2  14
BRANCH   1  24
HETATM   24  C3  UNL     1      18.906 -22.649 -24.490  1.00  0.00     0.131 C 
BRANCH  24  25
HETATM   25  C2  UNL     1      18.637 -21.520 -25.403  1.00  0.00     0.016 C 
HETATM   26  C1  UNL     1      18.186 -21.806 -26.787  1.00  0.00     0.006 C 
ENDBRANCH  24  25
ENDBRANCH   1  24
TORSDOF 5
ENDMDL
MODEL 5
REMARK VINA RESULT: -6.535591925      2.901      3.626
REMARK  5 active torsions:
REMARK  status: ('A' for Active; 'I' for Inactive)
REMARK    1  A    between atoms: C2_2  and  C3_3 
REMARK    2  A    between atoms: C3_3  and  N1_4 
REMARK    3  A    between atoms: C4_5  and  S1_6 
REMARK    4  A    between atoms: S1_6  and  C5_7 
REMARK    5  A    between atoms: C5_7  and  C6_8 
REMARK       I    between atoms: C6_8  and  N2_10 
ROOT
HETATM    1  N1  UNL     1      17.735 -23.067 -21.397  1.00  0.00    -0.321 N 
HETATM    2  C4  UNL     1      18.162 -22.180 -22.321  1.00  0.00     0.149 A 
HETATM    3  N3  UNL     1      17.719 -22.622 -23.497  1.00  0.00    -0.321 N 
ATOM      4  H3  UNL     1      17.883 -22.160 -24.391  1.00  0.00     0.169 HD
HETATM    5  C12 UNL     1      17.010 -23.789 -23.334  1.00  0.00     0.136 A 
HETATM    6  C13 UNL     1      17.024 -24.070 -22.002  1.00  0.00     0.138 A 
HETATM    7  C14 UNL     1      16.373 -25.247 -21.442  1.00  0.00     0.241 C 
HETATM    8  O2  UNL     1      16.493 -25.593 -20.269  1.00  0.00    -0.278 OA
HETATM    9  S2  UNL     1      15.335 -26.241 -22.526  1.00  0.00    -0.060 SA
HETATM   10  C15 UNL     1      16.026 -25.951 -24.198  1.00  0.00     0.149 C 
HETATM   11  C16 UNL     1      14.919 -26.325 -25.162  1.00  0.00     0.044 C 
HETATM   12  N4  UNL     1      16.349 -24.567 -24.317  1.00  0.00    -0.361 N 
ATOM     13  H4  UNL     1      16.081 -24.097 -25.182  1.00  0.00     0.162 HD
ENDROOT
BRANCH   2  14
HETATM   14  S1  UNL     1      19.120 -20.705 -21.978  1.00  0.00    -0.084 SA
BRANCH  14  15
HETATM   15  C5  UNL     1      18.096 -19.334 -21.480  1.00  0.00     0.185 C 
BRANCH  15  16
HETATM   16  C6  UNL     1      18.962 -18.215 -21.073  1.00  0.00     0.229 C 
HETATM   17  O1  UNL     1      20.204 -18.420 -21.163  1.00  0.00    -0.273 OA
HETATM   18  N2  UNL     1      18.520 -16.975 -20.599  1.00  0.00    -0.351 N 
HETATM   19  C7  UNL     1      19.506 -15.945 -20.243  1.00  0.00     0.125 C 
HETATM   20  C11 UNL     1      17.139 -16.584 -20.399  1.00  0.00     0.125 C 
HETATM   21  C8  UNL     1      18.836 -14.952 -19.315  1.00  0.00     0.020 C 
HETATM   22  C9  UNL     1      17.960 -15.619 -18.284  1.00  0.00     0.003 C 
HETATM   23  C10 UNL     1      16.950 -16.544 -18.888  1.00  0.00     0.020 C 
ENDBRANCH  15  16
ENDBRANCH  14  15
ENDBRANCH   2  14
BRANCH   1  24
HETATM   24  C3  UNL     1      17.936 -22.992 -19.985  1.00  0.00     0.131 C 
BRANCH  24  25
HETATM   25  C2  UNL     1      19.142 -23.620 -19.410  1.00  0.00     0.016 C 
HETATM   26  C1  UNL     1      19.060 -24.227 -18.058  1.00  0.00     0.006 C 
ENDBRANCH  24  25
ENDBRANCH   1  24
TORSDOF 5
ENDMDL
