MODEL 1
REMARK VINA RESULT: -6.812975836      0.000      0.000
REMARK  6 active torsions:
REMARK  status: ('A' for Active; 'I' for Inactive)
REMARK    1  A    between atoms: C3_7  and  S1_8 
REMARK    2  A    between atoms: S1_8  and  C4_9 
REMARK    3  A    between atoms: C4_9  and  C5_10 
REMARK       I    between atoms: C5_10  and  N3_12 
REMARK    4  A    between atoms: N3_12  and  C6_14 
REMARK    5  A    between atoms: C7_19  and  S2_20 
REMARK    6  A    between atoms: S2_20  and  C8_21 
ROOT
HETATM    1  C6  UNL     1      19.053 -23.800 -19.615  1.00  0.00     0.168 A 
HETATM    2  N4  UNL     1      18.383 -23.380 -18.537  1.00  0.00    -0.278 N 
ATOM      3  H4  UNL     1      17.925 -22.468 -18.531  1.00  0.00     0.189 HD
HETATM    4  N5  UNL     1      18.326 -24.137 -17.521  1.00  0.00    -0.286 N 
ATOM      5  H5  UNL     1      17.820 -23.832 -16.690  1.00  0.00     0.188 HD
HETATM    6  C7  UNL     1      18.920 -25.319 -17.532  1.00  0.00     0.130 A 
HETATM    7  S3  UNL     1      19.599 -25.342 -19.097  1.00  0.00    -0.026 SA
ENDROOT
BRANCH   1   8
HETATM    8  N3  UNL     1      19.223 -23.168 -20.751  1.00  0.00    -0.305 N 
HETATM    9  C5  UNL     1      18.089 -22.573 -21.360  1.00  0.00     0.233 C 
HETATM   10  O1  UNL     1      16.914 -22.839 -20.962  1.00  0.00    -0.272 OA
ATOM     11  H3  UNL     1      20.144 -23.107 -21.184  1.00  0.00     0.171 HD
BRANCH   9  12
HETATM   12  C4  UNL     1      18.285 -21.631 -22.474  1.00  0.00     0.184 C 
BRANCH  12  13
HETATM   13  S1  UNL     1      19.846 -20.742 -22.250  1.00  0.00    -0.094 SA
BRANCH  13  14
HETATM   14  C3  UNL     1      19.474 -19.129 -21.522  1.00  0.00     0.128 A 
HETATM   15  N2  UNL     1      20.320 -18.140 -21.258  1.00  0.00    -0.287 N 
HETATM   16  N1  UNL     1      19.898 -17.067 -20.746  1.00  0.00    -0.297 N 
ATOM     17  H2  UNL     1      21.312 -18.248 -21.470  1.00  0.00     0.188 HD
HETATM   18  C2  UNL     1      18.604 -16.929 -20.471  1.00  0.00     0.065 A 
ATOM     19  H1  UNL     1      20.547 -16.307 -20.544  1.00  0.00     0.187 HD
HETATM   20  C1  UNL     1      17.890 -15.756 -19.869  1.00  0.00     0.078 C 
HETATM   21  S4  UNL     1      17.998 -18.450 -20.994  1.00  0.00    -0.050 SA
ENDBRANCH  13  14
ENDBRANCH  12  13
ENDBRANCH   9  12
ENDBRANCH   1   8
BRANCH   6  22
HETATM   22  S2  UNL     1      18.954 -26.530 -16.202  1.00  0.00    -0.098 SA
BRANCH  22  23
HETATM   23  C8  UNL     1      20.353 -26.180 -15.132  1.00  0.00     0.059 C 
HETATM   24  C9  UNL     1      21.587 -26.883 -15.739  1.00  0.00     0.020 C 
HETATM   25  C10 UNL     1      21.935 -27.780 -14.590  1.00  0.00    -0.013 C 
HETATM   26  C11 UNL     1      20.562 -28.337 -14.210  1.00  0.00     0.010 C 
HETATM   27  C13 UNL     1      21.758 -26.860 -13.391  1.00  0.00     0.010 C 
HETATM   28  C12 UNL     1      20.291 -26.876 -13.823  1.00  0.00     0.000 C 
ENDBRANCH  22  23
ENDBRANCH   6  22
TORSDOF 6
ENDMDL
MODEL 2
REMARK VINA RESULT: -6.508866174      2.531      3.617
REMARK  6 active torsions:
REMARK  status: ('A' for Active; 'I' for Inactive)
REMARK    1  A    between atoms: C3_7  and  S1_8 
REMARK    2  A    between atoms: S1_8  and  C4_9 
REMARK    3  A    between atoms: C4_9  and  C5_10 
REMARK       I    between atoms: C5_10  and  N3_12 
REMARK    4  A    between atoms: N3_12  and  C6_14 
REMARK    5  A    between atoms: C7_19  and  S2_20 
REMARK    6  A    between atoms: S2_20  and  C8_21 
ROOT
HETATM    1  C6  UNL     1      18.164 -22.362 -21.583  1.00  0.00     0.168 A 
HETATM    2  N4  UNL     1      17.015 -23.045 -21.600  1.00  0.00    -0.278 N 
ATOM      3  H4  UNL     1      16.158 -22.611 -21.943  1.00  0.00     0.189 HD
HETATM    4  N5  UNL     1      17.010 -24.241 -21.183  1.00  0.00    -0.286 N 
ATOM      5  H5  UNL     1      16.142 -24.776 -21.189  1.00  0.00     0.188 HD
HETATM    6  C7  UNL     1      18.124 -24.802 -20.740  1.00  0.00     0.130 A 
HETATM    7  S3  UNL     1      19.243 -23.529 -20.936  1.00  0.00    -0.026 SA
ENDROOT
BRANCH   1   8
HETATM    8  N3  UNL     1      18.371 -21.127 -21.969  1.00  0.00    -0.305 N 
HETATM    9  C5  UNL     1      17.876 -20.080 -21.150  1.00  0.00     0.233 C 
HETATM   10  O1  UNL     1      17.058 -20.313 -20.210  1.00  0.00    -0.272 OA
ATOM     11  H3  UNL     1      18.872 -20.924 -22.834  1.00  0.00     0.171 HD
BRANCH   9  12
HETATM   12  C4  UNL     1      18.325 -18.700 -21.401  1.00  0.00     0.184 C 
BRANCH  12  13
HETATM   13  S1  UNL     1      17.151 -17.537 -20.662  1.00  0.00    -0.094 SA
BRANCH  13  14
HETATM   14  C3  UNL     1      18.087 -16.354 -19.664  1.00  0.00     0.128 A 
HETATM   15  N2  UNL     1      19.218 -15.734 -19.983  1.00  0.00    -0.287 N 
HETATM   16  N1  UNL     1      19.749 -14.930 -19.169  1.00  0.00    -0.297 N 
ATOM     17  H2  UNL     1      19.657 -15.909 -20.887  1.00  0.00     0.188 HD
HETATM   18  C2  UNL     1      19.174 -14.704 -17.991  1.00  0.00     0.065 A 
ATOM     19  H1  UNL     1      20.616 -14.454 -19.414  1.00  0.00     0.187 HD
HETATM   20  C1  UNL     1      19.624 -13.800 -16.883  1.00  0.00     0.078 C 
HETATM   21  S4  UNL     1      17.796 -15.725 -18.102  1.00  0.00    -0.050 SA
ENDBRANCH  13  14
ENDBRANCH  12  13
ENDBRANCH   9  12
ENDBRANCH   1   8
BRANCH   6  22
HETATM   22  S2  UNL     1      18.323 -26.476 -20.112  1.00  0.00    -0.098 SA
BRANCH  22  23
HETATM   23  C8  UNL     1      18.106 -26.458 -18.330  1.00  0.00     0.059 C 
HETATM   24  C9  UNL     1      17.863 -24.993 -17.908  1.00  0.00     0.020 C 
HETATM   25  C10 UNL     1      19.029 -24.819 -16.981  1.00  0.00    -0.013 C 
HETATM   26  C11 UNL     1      20.163 -25.441 -17.797  1.00  0.00     0.010 C 
HETATM   27  C13 UNL     1      19.030 -26.128 -16.207  1.00  0.00     0.010 C 
HETATM   28  C12 UNL     1      19.356 -26.729 -17.575  1.00  0.00     0.000 C 
ENDBRANCH  22  23
ENDBRANCH   6  22
TORSDOF 6
ENDMDL
MODEL 3
REMARK VINA RESULT: -6.338353098      1.220      1.322
REMARK  6 active torsions:
REMARK  status: ('A' for Active; 'I' for Inactive)
REMARK    1  A    between atoms: C3_7  and  S1_8 
REMARK    2  A    between atoms: S1_8  and  C4_9 
REMARK    3  A    between atoms: C4_9  and  C5_10 
REMARK       I    between atoms: C5_10  and  N3_12 
REMARK    4  A    between atoms: N3_12  and  C6_14 
REMARK    5  A    between atoms: C7_19  and  S2_20 
REMARK    6  A    between atoms: S2_20  and  C8_21 
ROOT
HETATM    1  C6  UNL     1      19.483 -24.107 -19.838  1.00  0.00     0.168 A 
HETATM    2  N4  UNL     1      19.652 -25.328 -20.357  1.00  0.00    -0.278 N 
ATOM      3  H4  UNL     1      19.545 -25.486 -21.360  1.00  0.00     0.189 HD
HETATM    4  N5  UNL     1      19.946 -26.285 -19.581  1.00  0.00    -0.286 N 
ATOM      5  H5  UNL     1      20.078 -27.223 -19.960  1.00  0.00     0.188 HD
HETATM    6  C7  UNL     1      20.084 -26.077 -18.281  1.00  0.00     0.130 A 
HETATM    7  S3  UNL     1      19.771 -24.404 -18.173  1.00  0.00    -0.026 SA
ENDROOT
BRANCH   1   8
HETATM    8  N3  UNL     1      19.179 -23.001 -20.471  1.00  0.00    -0.305 N 
HETATM    9  C5  UNL     1      17.811 -22.731 -20.725  1.00  0.00     0.233 C 
HETATM   10  O1  UNL     1      16.926 -23.626 -20.571  1.00  0.00    -0.272 OA
ATOM     11  H3  UNL     1      19.907 -22.352 -20.772  1.00  0.00     0.171 HD
BRANCH   9  12
HETATM   12  C4  UNL     1      17.417 -21.386 -21.177  1.00  0.00     0.184 C 
BRANCH  12  13
HETATM   13  S1  UNL     1      18.807 -20.600 -22.030  1.00  0.00    -0.094 SA
BRANCH  13  14
HETATM   14  C3  UNL     1      19.003 -18.930 -21.364  1.00  0.00     0.128 A 
HETATM   15  N2  UNL     1      20.126 -18.236 -21.223  1.00  0.00    -0.287 N 
HETATM   16  N1  UNL     1      20.093 -17.072 -20.738  1.00  0.00    -0.297 N 
ATOM     17  H2  UNL     1      21.016 -18.645 -21.508  1.00  0.00     0.188 HD
HETATM   18  C2  UNL     1      18.932 -16.542 -20.368  1.00  0.00     0.065 A 
ATOM     19  H1  UNL     1      20.956 -16.539 -20.631  1.00  0.00     0.187 HD
HETATM   20  C1  UNL     1      18.660 -15.192 -19.774  1.00  0.00     0.078 C 
HETATM   21  S4  UNL     1      17.853 -17.823 -20.756  1.00  0.00    -0.050 SA
ENDBRANCH  13  14
ENDBRANCH  12  13
ENDBRANCH   9  12
ENDBRANCH   1   8
BRANCH   6  22
HETATM   22  S2  UNL     1      20.497 -27.295 -17.023  1.00  0.00    -0.098 SA
BRANCH  22  23
HETATM   23  C8  UNL     1      20.822 -26.445 -15.475  1.00  0.00     0.059 C 
HETATM   24  C9  UNL     1      22.122 -27.036 -14.886  1.00  0.00     0.020 C 
HETATM   25  C10 UNL     1      21.579 -27.548 -13.586  1.00  0.00    -0.013 C 
HETATM   26  C11 UNL     1      20.293 -28.239 -14.042  1.00  0.00     0.010 C 
HETATM   27  C13 UNL     1      20.668 -26.413 -13.142  1.00  0.00     0.010 C 
HETATM   28  C12 UNL     1      19.874 -26.803 -14.389  1.00  0.00     0.000 C 
ENDBRANCH  22  23
ENDBRANCH   6  22
TORSDOF 6
ENDMDL
MODEL 4
REMARK VINA RESULT: -6.224312925      1.223      1.535
REMARK  6 active torsions:
REMARK  status: ('A' for Active; 'I' for Inactive)
REMARK    1  A    between atoms: C3_7  and  S1_8 
REMARK    2  A    between atoms: S1_8  and  C4_9 
REMARK    3  A    between atoms: C4_9  and  C5_10 
REMARK       I    between atoms: C5_10  and  N3_12 
REMARK    4  A    between atoms: N3_12  and  C6_14 
REMARK    5  A    between atoms: C7_19  and  S2_20 
REMARK    6  A    between atoms: S2_20  and  C8_21 
ROOT
HETATM    1  C6  UNL     1      19.368 -24.092 -18.979  1.00  0.00     0.168 A 
HETATM    2  N4  UNL     1      18.713 -24.106 -17.814  1.00  0.00    -0.278 N 
ATOM      3  H4  UNL     1      17.887 -23.524 -17.674  1.00  0.00     0.189 HD
HETATM    4  N5  UNL     1      19.137 -24.858 -16.886  1.00  0.00    -0.286 N 
ATOM      5  H5  UNL     1      18.649 -24.881 -15.990  1.00  0.00     0.188 HD
HETATM    6  C7  UNL     1      20.208 -25.613 -17.070  1.00  0.00     0.130 A 
HETATM    7  S3  UNL     1      20.628 -25.216 -18.675  1.00  0.00    -0.026 SA
ENDROOT
BRANCH   1   8
HETATM    8  N3  UNL     1      19.087 -23.389 -20.049  1.00  0.00    -0.305 N 
HETATM    9  C5  UNL     1      17.769 -23.461 -20.569  1.00  0.00     0.233 C 
HETATM   10  O1  UNL     1      16.955 -24.348 -20.171  1.00  0.00    -0.272 OA
ATOM     11  H3  UNL     1      19.796 -22.808 -20.496  1.00  0.00     0.171 HD
BRANCH   9  12
HETATM   12  C4  UNL     1      17.345 -22.485 -21.586  1.00  0.00     0.184 C 
BRANCH  12  13
HETATM   13  S1  UNL     1      18.803 -21.779 -22.395  1.00  0.00    -0.094 SA
BRANCH  13  14
HETATM   14  C3  UNL     1      19.031 -20.097 -21.771  1.00  0.00     0.128 A 
HETATM   15  N2  UNL     1      20.160 -19.399 -21.703  1.00  0.00    -0.287 N 
HETATM   16  N1  UNL     1      20.150 -18.226 -21.238  1.00  0.00    -0.297 N 
ATOM     17  H2  UNL     1      21.034 -19.813 -22.026  1.00  0.00     0.188 HD
HETATM   18  C2  UNL     1      19.009 -17.690 -20.816  1.00  0.00     0.065 A 
ATOM     19  H1  UNL     1      21.016 -17.691 -21.186  1.00  0.00     0.187 HD
HETATM   20  C1  UNL     1      18.767 -16.330 -20.234  1.00  0.00     0.078 C 
HETATM   21  S4  UNL     1      17.914 -18.979 -21.123  1.00  0.00    -0.050 SA
ENDBRANCH  13  14
ENDBRANCH  12  13
ENDBRANCH   9  12
ENDBRANCH   1   8
BRANCH   6  22
HETATM   22  S2  UNL     1      20.961 -26.739 -15.886  1.00  0.00    -0.098 SA
BRANCH  22  23
HETATM   23  C8  UNL     1      19.892 -26.872 -14.449  1.00  0.00     0.059 C 
HETATM   24  C9  UNL     1      20.671 -26.311 -13.239  1.00  0.00     0.020 C 
HETATM   25  C10 UNL     1      20.674 -27.536 -12.374  1.00  0.00    -0.013 C 
HETATM   26  C11 UNL     1      21.054 -28.622 -13.383  1.00  0.00     0.010 C 
HETATM   27  C13 UNL     1      19.253 -28.054 -12.535  1.00  0.00     0.010 C 
HETATM   28  C12 UNL     1      19.687 -28.268 -13.986  1.00  0.00     0.000 C 
ENDBRANCH  22  23
ENDBRANCH   6  22
TORSDOF 6
ENDMDL
MODEL 5
REMARK VINA RESULT: -6.059468456      3.536      4.416
REMARK  6 active torsions:
REMARK  status: ('A' for Active; 'I' for Inactive)
REMARK    1  A    between atoms: C3_7  and  S1_8 
REMARK    2  A    between atoms: S1_8  and  C4_9 
REMARK    3  A    between atoms: C4_9  and  C5_10 
REMARK       I    between atoms: C5_10  and  N3_12 
REMARK    4  A    between atoms: N3_12  and  C6_14 
REMARK    5  A    between atoms: C7_19  and  S2_20 
REMARK    6  A    between atoms: S2_20  and  C8_21 
ROOT
HETATM    1  C6  UNL     1      18.048 -22.521 -21.073  1.00  0.00     0.168 A 
HETATM    2  N4  UNL     1      18.200 -22.952 -19.816  1.00  0.00    -0.278 N 
ATOM      3  H4  UNL     1      18.619 -22.350 -19.107  1.00  0.00     0.189 HD
HETATM    4  N5  UNL     1      17.812 -24.122 -19.523  1.00  0.00    -0.286 N 
ATOM      5  H5  UNL     1      17.920 -24.467 -18.569  1.00  0.00     0.188 HD
HETATM    6  C7  UNL     1      17.268 -24.899 -20.445  1.00  0.00     0.130 A 
HETATM    7  S3  UNL     1      17.318 -23.884 -21.815  1.00  0.00    -0.026 SA
ENDROOT
BRANCH   1   8
HETATM    8  N3  UNL     1      18.383 -21.354 -21.567  1.00  0.00    -0.305 N 
HETATM    9  C5  UNL     1      17.835 -20.192 -20.966  1.00  0.00     0.233 C 
HETATM   10  O1  UNL     1      16.872 -20.271 -20.144  1.00  0.00    -0.272 OA
ATOM     11  H3  UNL     1      19.020 -21.283 -22.361  1.00  0.00     0.171 HD
BRANCH   9  12
HETATM   12  C4  UNL     1      18.397 -18.875 -21.307  1.00  0.00     0.184 C 
BRANCH  12  13
HETATM   13  S1  UNL     1      17.255 -17.573 -20.779  1.00  0.00    -0.094 SA
BRANCH  13  14
HETATM   14  C3  UNL     1      18.180 -16.393 -19.767  1.00  0.00     0.128 A 
HETATM   15  N2  UNL     1      19.347 -15.823 -20.042  1.00  0.00    -0.287 N 
HETATM   16  N1  UNL     1      19.863 -15.013 -19.224  1.00  0.00    -0.297 N 
ATOM     17  H2  UNL     1      19.827 -16.041 -20.916  1.00  0.00     0.188 HD
HETATM   18  C2  UNL     1      19.236 -14.732 -18.086  1.00  0.00     0.065 A 
ATOM     19  H1  UNL     1      20.760 -14.575 -19.436  1.00  0.00     0.187 HD
HETATM   20  C1  UNL     1      19.660 -13.810 -16.981  1.00  0.00     0.078 C 
HETATM   21  S4  UNL     1      17.830 -15.707 -18.241  1.00  0.00    -0.050 SA
ENDBRANCH  13  14
ENDBRANCH  12  13
ENDBRANCH   9  12
ENDBRANCH   1   8
BRANCH   6  22
HETATM   22  S2  UNL     1      16.657 -26.578 -20.229  1.00  0.00    -0.098 SA
BRANCH  22  23
HETATM   23  C8  UNL     1      15.600 -26.631 -18.778  1.00  0.00     0.059 C 
HETATM   24  C9  UNL     1      16.502 -26.923 -17.559  1.00  0.00     0.020 C 
HETATM   25  C10 UNL     1      15.869 -28.202 -17.100  1.00  0.00    -0.013 C 
HETATM   26  C11 UNL     1      15.711 -28.957 -18.421  1.00  0.00     0.010 C 
HETATM   27  C13 UNL     1      14.385 -27.899 -17.235  1.00  0.00     0.010 C 
HETATM   28  C12 UNL     1      14.719 -27.824 -18.726  1.00  0.00     0.000 C 
ENDBRANCH  22  23
ENDBRANCH   6  22
TORSDOF 6
ENDMDL
