MODEL 1
REMARK VINA RESULT: -7.554204328      0.000      0.000
REMARK  8 active torsions:
REMARK  status: ('A' for Active; 'I' for Inactive)
REMARK    1  A    between atoms: C2_2  and  C4_4 
REMARK    2  A    between atoms: C4_4  and  O1_5 
REMARK    3  A    between atoms: C4_4  and  C5_7 
REMARK    4  A    between atoms: C5_7  and  O3_9 
REMARK    5  A    between atoms: O3_9  and  C6_10 
REMARK    6  A    between atoms: C6_10  and  C7_11 
REMARK    7  A    between atoms: C7_11  and  O4_12 
REMARK    8  A    between atoms: O4_12  and  N1_13 
ROOT
HETATM    1  N1  UNL     1     -11.777  -6.497  -1.038  1.00  0.00    -0.275 N 
ATOM      2  H1  UNL     1     -11.373  -6.277  -1.949  1.00  0.00     0.193 HD
HETATM    3  C8  UNL     1     -11.086  -7.161  -0.213  1.00  0.00     0.014 C 
HETATM    4  C9  UNL     1     -11.617  -7.506   1.119  1.00  0.00     0.056 C 
HETATM    5  C10 UNL     1     -11.057  -8.799   1.654  1.00  0.00     0.015 C 
HETATM    6  C11 UNL     1      -9.566  -8.889   1.575  1.00  0.00    -0.043 C 
HETATM    7  C12 UNL     1      -9.121 -10.225   1.025  1.00  0.00     0.015 C 
HETATM    8  C13 UNL     1      -9.028  -8.767   2.983  1.00  0.00     0.015 C 
HETATM    9  C14 UNL     1      -8.975  -7.763   0.767  1.00  0.00     0.006 C 
HETATM   10  C15 UNL     1      -7.614  -8.042   0.247  1.00  0.00    -0.013 C 
HETATM   11  C16 UNL     1      -6.518  -7.799   1.253  1.00  0.00     0.010 C 
HETATM   12  C17 UNL     1      -7.487  -7.093  -0.931  1.00  0.00     0.005 C 
HETATM   13  C18 UNL     1      -8.886  -6.615  -1.248  1.00  0.00     0.011 C 
HETATM   14  C19 UNL     1      -9.742  -7.613  -0.533  1.00  0.00     0.038 C 
ENDROOT
BRANCH   1  15
HETATM   15  O4  UNL     1     -13.025  -6.067  -0.763  1.00  0.00    -0.278 OA
BRANCH  15  16
HETATM   16  C7  UNL     1     -13.652  -4.911  -1.257  1.00  0.00     0.228 C 
BRANCH  16  17
HETATM   17  C6  UNL     1     -12.649  -3.962  -1.877  1.00  0.00     0.207 C 
BRANCH  17  18
HETATM   18  O3  UNL     1     -13.173  -3.187  -2.913  1.00  0.00    -0.317 OA
BRANCH  18  19
HETATM   19  C5  UNL     1     -12.387  -2.526  -3.815  1.00  0.00     0.288 C 
HETATM   20  O2  UNL     1     -12.412  -1.272  -3.908  1.00  0.00    -0.262 OA
BRANCH  19  21
HETATM   21  C4  UNL     1     -11.457  -3.235  -4.741  1.00  0.00     0.221 C 
BRANCH  21  22
HETATM   22  C2  UNL     1     -10.006  -2.826  -4.505  1.00  0.00     0.016 C 
HETATM   23  C1  UNL     1      -9.518  -3.582  -3.298  1.00  0.00     0.012 C 
HETATM   24  C3  UNL     1      -9.181  -3.137  -5.746  1.00  0.00     0.012 C 
ENDBRANCH  21  22
BRANCH  21  25
HETATM   25  O1  UNL     1     -11.790  -3.106  -6.065  1.00  0.00    -0.385 OA
ATOM     26  H1  UNL     1     -11.978  -3.955  -6.449  1.00  0.00     0.210 HD
ENDBRANCH  21  25
ENDBRANCH  19  21
ENDBRANCH  18  19
ENDBRANCH  17  18
ENDBRANCH  16  17
ENDBRANCH  15  16
ENDBRANCH   1  15
TORSDOF 8
ENDMDL
MODEL 2
REMARK VINA RESULT: -7.066720565      2.395      3.299
REMARK  8 active torsions:
REMARK  status: ('A' for Active; 'I' for Inactive)
REMARK    1  A    between atoms: C2_2  and  C4_4 
REMARK    2  A    between atoms: C4_4  and  O1_5 
REMARK    3  A    between atoms: C4_4  and  C5_7 
REMARK    4  A    between atoms: C5_7  and  O3_9 
REMARK    5  A    between atoms: O3_9  and  C6_10 
REMARK    6  A    between atoms: C6_10  and  C7_11 
REMARK    7  A    between atoms: C7_11  and  O4_12 
REMARK    8  A    between atoms: O4_12  and  N1_13 
ROOT
HETATM    1  N1  UNL     1     -10.338  -7.804   0.990  1.00  0.00    -0.275 N 
ATOM      2  H1  UNL     1      -9.531  -7.785   0.367  1.00  0.00     0.193 HD
HETATM    3  C8  UNL     1     -10.157  -7.606   2.225  1.00  0.00     0.014 C 
HETATM    4  C9  UNL     1     -11.288  -7.619   3.172  1.00  0.00     0.056 C 
HETATM    5  C10 UNL     1     -10.888  -8.076   4.552  1.00  0.00     0.015 C 
HETATM    6  C11 UNL     1      -9.679  -7.380   5.091  1.00  0.00    -0.043 C 
HETATM    7  C12 UNL     1      -8.705  -8.360   5.705  1.00  0.00     0.015 C 
HETATM    8  C13 UNL     1     -10.143  -6.444   6.185  1.00  0.00     0.015 C 
HETATM    9  C14 UNL     1      -8.995  -6.543   4.042  1.00  0.00     0.006 C 
HETATM   10  C15 UNL     1      -7.577  -6.232   4.348  1.00  0.00    -0.013 C 
HETATM   11  C16 UNL     1      -7.399  -5.068   5.288  1.00  0.00     0.010 C 
HETATM   12  C17 UNL     1      -6.985  -5.921   2.985  1.00  0.00     0.005 C 
HETATM   13  C18 UNL     1      -7.973  -6.434   1.962  1.00  0.00     0.011 C 
HETATM   14  C19 UNL     1      -8.833  -7.354   2.771  1.00  0.00     0.038 C 
ENDROOT
BRANCH   1  15
HETATM   15  O4  UNL     1     -11.557  -8.039   0.462  1.00  0.00    -0.278 OA
BRANCH  15  16
HETATM   16  C7  UNL     1     -12.058  -7.560  -0.760  1.00  0.00     0.228 C 
BRANCH  16  17
HETATM   17  C6  UNL     1     -12.041  -6.047  -0.808  1.00  0.00     0.207 C 
BRANCH  17  18
HETATM   18  O3  UNL     1     -11.541  -5.528  -2.004  1.00  0.00    -0.317 OA
BRANCH  18  19
HETATM   19  C5  UNL     1     -11.891  -4.296  -2.481  1.00  0.00     0.288 C 
HETATM   20  O2  UNL     1     -13.094  -3.933  -2.535  1.00  0.00    -0.262 OA
BRANCH  19  21
HETATM   21  C4  UNL     1     -10.884  -3.307  -2.965  1.00  0.00     0.221 C 
BRANCH  21  22
HETATM   22  C2  UNL     1     -11.025  -3.045  -4.462  1.00  0.00     0.016 C 
HETATM   23  C1  UNL     1     -11.841  -1.790  -4.623  1.00  0.00     0.012 C 
HETATM   24  C3  UNL     1      -9.645  -2.915  -5.089  1.00  0.00     0.012 C 
ENDBRANCH  21  22
BRANCH  21  25
HETATM   25  O1  UNL     1      -9.591  -3.634  -2.649  1.00  0.00    -0.385 OA
ATOM     26  H1  UNL     1      -9.397  -3.407  -1.747  1.00  0.00     0.210 HD
ENDBRANCH  21  25
ENDBRANCH  19  21
ENDBRANCH  18  19
ENDBRANCH  17  18
ENDBRANCH  16  17
ENDBRANCH  15  16
ENDBRANCH   1  15
TORSDOF 8
ENDMDL
MODEL 3
REMARK VINA RESULT: -6.974267749      2.365      4.026
REMARK  8 active torsions:
REMARK  status: ('A' for Active; 'I' for Inactive)
REMARK    1  A    between atoms: C2_2  and  C4_4 
REMARK    2  A    between atoms: C4_4  and  O1_5 
REMARK    3  A    between atoms: C4_4  and  C5_7 
REMARK    4  A    between atoms: C5_7  and  O3_9 
REMARK    5  A    between atoms: O3_9  and  C6_10 
REMARK    6  A    between atoms: C6_10  and  C7_11 
REMARK    7  A    between atoms: C7_11  and  O4_12 
REMARK    8  A    between atoms: O4_12  and  N1_13 
ROOT
HETATM    1  N1  UNL     1     -10.069  -7.624   0.751  1.00  0.00    -0.275 N 
ATOM      2  H1  UNL     1     -11.063  -7.466   0.918  1.00  0.00     0.193 HD
HETATM    3  C8  UNL     1      -9.253  -7.407   1.693  1.00  0.00     0.014 C 
HETATM    4  C9  UNL     1      -7.806  -7.621   1.509  1.00  0.00     0.056 C 
HETATM    5  C10 UNL     1      -6.967  -6.704   2.364  1.00  0.00     0.015 C 
HETATM    6  C11 UNL     1      -7.379  -6.675   3.801  1.00  0.00    -0.043 C 
HETATM    7  C12 UNL     1      -7.454  -5.260   4.326  1.00  0.00     0.015 C 
HETATM    8  C13 UNL     1      -6.318  -7.406   4.592  1.00  0.00     0.015 C 
HETATM    9  C14 UNL     1      -8.684  -7.393   4.028  1.00  0.00     0.006 C 
HETATM   10  C15 UNL     1      -9.378  -7.000   5.280  1.00  0.00    -0.013 C 
HETATM   11  C16 UNL     1      -8.862  -7.705   6.507  1.00  0.00     0.010 C 
HETATM   12  C17 UNL     1     -10.825  -7.375   5.010  1.00  0.00     0.005 C 
HETATM   13  C18 UNL     1     -10.939  -7.596   3.519  1.00  0.00     0.011 C 
HETATM   14  C19 UNL     1      -9.699  -6.940   2.996  1.00  0.00     0.038 C 
ENDROOT
BRANCH   1  15
HETATM   15  O4  UNL     1      -9.678  -8.056  -0.464  1.00  0.00    -0.278 OA
BRANCH  15  16
HETATM   16  C7  UNL     1      -9.982  -7.477  -1.709  1.00  0.00     0.228 C 
BRANCH  16  17
HETATM   17  C6  UNL     1     -11.377  -6.891  -1.717  1.00  0.00     0.207 C 
BRANCH  17  18
HETATM   18  O3  UNL     1     -11.436  -5.571  -1.265  1.00  0.00    -0.317 OA
BRANCH  18  19
HETATM   19  C5  UNL     1     -11.805  -4.528  -2.067  1.00  0.00     0.288 C 
HETATM   20  O2  UNL     1     -13.006  -4.346  -2.390  1.00  0.00    -0.262 OA
BRANCH  19  21
HETATM   21  C4  UNL     1     -10.822  -3.544  -2.607  1.00  0.00     0.221 C 
BRANCH  21  22
HETATM   22  C2  UNL     1     -11.129  -3.179  -4.056  1.00  0.00     0.016 C 
HETATM   23  C1  UNL     1     -11.953  -1.919  -4.037  1.00  0.00     0.012 C 
HETATM   24  C3  UNL     1      -9.826  -2.999  -4.823  1.00  0.00     0.012 C 
ENDBRANCH  21  22
BRANCH  21  25
HETATM   25  O1  UNL     1      -9.516  -3.935  -2.470  1.00  0.00    -0.385 OA
ATOM     26  H1  UNL     1      -9.102  -4.032  -3.320  1.00  0.00     0.210 HD
ENDBRANCH  21  25
ENDBRANCH  19  21
ENDBRANCH  18  19
ENDBRANCH  17  18
ENDBRANCH  16  17
ENDBRANCH  15  16
ENDBRANCH   1  15
TORSDOF 8
ENDMDL
MODEL 4
REMARK VINA RESULT: -6.913261904      4.835      7.110
REMARK  8 active torsions:
REMARK  status: ('A' for Active; 'I' for Inactive)
REMARK    1  A    between atoms: C2_2  and  C4_4 
REMARK    2  A    between atoms: C4_4  and  O1_5 
REMARK    3  A    between atoms: C4_4  and  C5_7 
REMARK    4  A    between atoms: C5_7  and  O3_9 
REMARK    5  A    between atoms: O3_9  and  C6_10 
REMARK    6  A    between atoms: C6_10  and  C7_11 
REMARK    7  A    between atoms: C7_11  and  O4_12 
REMARK    8  A    between atoms: O4_12  and  N1_13 
ROOT
HETATM    1  N1  UNL     1      -7.548  -6.513  -2.595  1.00  0.00    -0.275 N 
ATOM      2  H1  UNL     1      -8.345  -6.015  -2.991  1.00  0.00     0.193 HD
HETATM    3  C8  UNL     1      -7.640  -6.969  -1.420  1.00  0.00     0.014 C 
HETATM    4  C9  UNL     1      -6.521  -7.700  -0.797  1.00  0.00     0.056 C 
HETATM    5  C10 UNL     1      -6.482  -7.544   0.701  1.00  0.00     0.015 C 
HETATM    6  C11 UNL     1      -7.796  -7.802   1.369  1.00  0.00    -0.043 C 
HETATM    7  C12 UNL     1      -8.118  -6.733   2.388  1.00  0.00     0.015 C 
HETATM    8  C13 UNL     1      -7.681  -9.120   2.102  1.00  0.00     0.015 C 
HETATM    9  C14 UNL     1      -8.918  -7.937   0.372  1.00  0.00     0.006 C 
HETATM   10  C15 UNL     1     -10.266  -7.709   0.947  1.00  0.00    -0.013 C 
HETATM   11  C16 UNL     1     -10.840  -8.914   1.646  1.00  0.00     0.010 C 
HETATM   12  C17 UNL     1     -11.105  -7.335  -0.262  1.00  0.00     0.005 C 
HETATM   13  C18 UNL     1     -10.132  -7.002  -1.370  1.00  0.00     0.011 C 
HETATM   14  C19 UNL     1      -8.848  -6.799  -0.628  1.00  0.00     0.038 C 
ENDROOT
BRANCH   1  15
HETATM   15  O4  UNL     1      -6.439  -6.659  -3.347  1.00  0.00    -0.278 OA
BRANCH  15  16
HETATM   16  C7  UNL     1      -6.378  -6.928  -4.726  1.00  0.00     0.228 C 
BRANCH  16  17
HETATM   17  C6  UNL     1      -5.620  -8.207  -5.005  1.00  0.00     0.207 C 
BRANCH  17  18
HETATM   18  O3  UNL     1      -4.843  -8.647  -3.931  1.00  0.00    -0.317 OA
BRANCH  18  19
HETATM   19  C5  UNL     1      -3.477  -8.590  -3.932  1.00  0.00     0.288 C 
HETATM   20  O2  UNL     1      -2.795  -9.279  -4.732  1.00  0.00    -0.262 OA
BRANCH  19  21
HETATM   21  C4  UNL     1      -2.710  -7.719  -2.994  1.00  0.00     0.221 C 
BRANCH  21  22
HETATM   22  C2  UNL     1      -1.991  -8.536  -1.925  1.00  0.00     0.016 C 
HETATM   23  C1  UNL     1      -0.945  -7.647  -1.308  1.00  0.00     0.012 C 
HETATM   24  C3  UNL     1      -3.000  -9.030  -0.898  1.00  0.00     0.012 C 
ENDBRANCH  21  22
BRANCH  21  25
HETATM   25  O1  UNL     1      -3.461  -6.724  -2.423  1.00  0.00    -0.385 OA
ATOM     26  H1  UNL     1      -3.923  -6.226  -3.088  1.00  0.00     0.210 HD
ENDBRANCH  21  25
ENDBRANCH  19  21
ENDBRANCH  18  19
ENDBRANCH  17  18
ENDBRANCH  16  17
ENDBRANCH  15  16
ENDBRANCH   1  15
TORSDOF 8
ENDMDL
MODEL 5
REMARK VINA RESULT: -6.891222587      0.978      2.373
REMARK  8 active torsions:
REMARK  status: ('A' for Active; 'I' for Inactive)
REMARK    1  A    between atoms: C2_2  and  C4_4 
REMARK    2  A    between atoms: C4_4  and  O1_5 
REMARK    3  A    between atoms: C4_4  and  C5_7 
REMARK    4  A    between atoms: C5_7  and  O3_9 
REMARK    5  A    between atoms: O3_9  and  C6_10 
REMARK    6  A    between atoms: C6_10  and  C7_11 
REMARK    7  A    between atoms: C7_11  and  O4_12 
REMARK    8  A    between atoms: O4_12  and  N1_13 
ROOT
HETATM    1  N1  UNL     1     -11.703  -7.307  -0.053  1.00  0.00    -0.275 N 
ATOM      2  H1  UNL     1     -12.276  -7.628   0.728  1.00  0.00     0.193 HD
HETATM    3  C8  UNL     1     -10.445  -7.333   0.067  1.00  0.00     0.014 C 
HETATM    4  C9  UNL     1      -9.567  -6.884  -1.029  1.00  0.00     0.056 C 
HETATM    5  C10 UNL     1      -8.261  -6.313  -0.536  1.00  0.00     0.015 C 
HETATM    6  C11 UNL     1      -7.561  -7.182   0.459  1.00  0.00    -0.043 C 
HETATM    7  C12 UNL     1      -7.069  -6.382   1.643  1.00  0.00     0.015 C 
HETATM    8  C13 UNL     1      -6.353  -7.778  -0.229  1.00  0.00     0.015 C 
HETATM    9  C14 UNL     1      -8.428  -8.326   0.918  1.00  0.00     0.006 C 
HETATM   10  C15 UNL     1      -8.010  -8.918   2.213  1.00  0.00    -0.013 C 
HETATM   11  C16 UNL     1      -6.886  -9.915   2.091  1.00  0.00     0.010 C 
HETATM   12  C17 UNL     1      -9.275  -9.589   2.717  1.00  0.00     0.005 C 
HETATM   13  C18 UNL     1     -10.413  -9.030   1.892  1.00  0.00     0.011 C 
HETATM   14  C19 UNL     1      -9.804  -7.805   1.285  1.00  0.00     0.038 C 
ENDROOT
BRANCH   1  15
HETATM   15  O4  UNL     1     -12.318  -6.874  -1.171  1.00  0.00    -0.278 OA
BRANCH  15  16
HETATM   16  C7  UNL     1     -13.189  -5.777  -1.290  1.00  0.00     0.228 C 
BRANCH  16  17
HETATM   17  C6  UNL     1     -12.440  -4.517  -1.665  1.00  0.00     0.207 C 
BRANCH  17  18
HETATM   18  O3  UNL     1     -13.089  -3.742  -2.628  1.00  0.00    -0.317 OA
BRANCH  18  19
HETATM   19  C5  UNL     1     -12.432  -2.850  -3.429  1.00  0.00     0.288 C 
HETATM   20  O2  UNL     1     -12.554  -1.610  -3.264  1.00  0.00    -0.262 OA
BRANCH  19  21
HETATM   21  C4  UNL     1     -11.536  -3.281  -4.542  1.00  0.00     0.221 C 
BRANCH  21  22
HETATM   22  C2  UNL     1     -10.097  -2.830  -4.313  1.00  0.00     0.016 C 
HETATM   23  C1  UNL     1      -9.560  -3.619  -3.148  1.00  0.00     0.012 C 
HETATM   24  C3  UNL     1      -9.285  -3.056  -5.580  1.00  0.00     0.012 C 
ENDBRANCH  21  22
BRANCH  21  25
HETATM   25  O1  UNL     1     -11.974  -2.899  -5.784  1.00  0.00    -0.385 OA
ATOM     26  H1  UNL     1     -12.538  -3.564  -6.162  1.00  0.00     0.210 HD
ENDBRANCH  21  25
ENDBRANCH  19  21
ENDBRANCH  18  19
ENDBRANCH  17  18
ENDBRANCH  16  17
ENDBRANCH  15  16
ENDBRANCH   1  15
TORSDOF 8
ENDMDL
