MODEL 1
REMARK VINA RESULT: -7.697231828      0.000      0.000
REMARK  6 active torsions:
REMARK  status: ('A' for Active; 'I' for Inactive)
REMARK    1  A    between atoms: C3_5  and  C4_6 
REMARK    2  A    between atoms: C4_6  and  N2_7 
REMARK    3  A    between atoms: N2_7  and  C5_8 
REMARK    4  A    between atoms: N2_7  and  C13_20 
REMARK    5  A    between atoms: C5_8  and  C6_9 
REMARK    6  A    between atoms: C13_20  and  C14_21 
ROOT
HETATM    1  C1  UNL     1      -6.385  -7.446   0.453  1.00  0.00     0.070 C 
HETATM    2  C2  UNL     1      -7.285  -7.328  -0.729  1.00  0.00     0.029 A 
HETATM    3  N1  UNL     1      -8.622  -7.533  -0.627  1.00  0.00    -0.347 N 
ATOM      4  H1  UNL     1      -9.024  -7.772   0.280  1.00  0.00     0.167 HD
HETATM    5  C3  UNL     1      -9.424  -7.427  -1.688  1.00  0.00     0.100 A 
HETATM    6  N5  UNL     1      -8.886  -7.114  -2.869  1.00  0.00    -0.347 N 
ATOM      7  H5  UNL     1      -9.503  -7.034  -3.678  1.00  0.00     0.167 HD
HETATM    8  C17 UNL     1      -7.571  -6.898  -3.043  1.00  0.00     0.029 A 
HETATM    9  C18 UNL     1      -7.019  -6.551  -4.393  1.00  0.00     0.070 C 
HETATM   10  C19 UNL     1      -6.745  -7.007  -1.949  1.00  0.00     0.088 A 
HETATM   11  C20 UNL     1      -5.319  -6.781  -2.104  1.00  0.00     0.103 C 
HETATM   12  N6  UNL     1      -4.182  -6.588  -2.243  1.00  0.00    -0.191 NA
ENDROOT
BRANCH   5  13
HETATM   13  C4  UNL     1     -10.888  -7.666  -1.505  1.00  0.00     0.198 C 
BRANCH  13  14
HETATM   14  N2  UNL     1     -11.533  -6.600  -0.834  1.00  0.00    -0.381 N 
BRANCH  14  15
HETATM   15  C5  UNL     1     -11.053  -5.293  -1.017  1.00  0.00     0.117 C 
BRANCH  15  16
HETATM   16  C6  UNL     1     -11.775  -4.430  -1.986  1.00  0.00     0.071 A 
HETATM   17  N3  UNL     1     -13.090  -4.210  -2.095  1.00  0.00    -0.299 N 
HETATM   18  N4  UNL     1     -13.281  -3.336  -3.086  1.00  0.00    -0.304 N 
ATOM     19  H3  UNL     1     -13.819  -4.635  -1.522  1.00  0.00     0.187 HD
HETATM   20  C7  UNL     1     -12.121  -2.974  -3.632  1.00  0.00     0.034 A 
ATOM     21  H4  UNL     1     -14.194  -2.992  -3.385  1.00  0.00     0.186 HD
HETATM   22  C8  UNL     1     -11.148  -3.641  -2.969  1.00  0.00    -0.005 A 
HETATM   23  C12 UNL     1     -11.697  -2.057  -4.743  1.00  0.00     0.059 C 
HETATM   24  C9  UNL     1      -9.718  -3.501  -3.285  1.00  0.00     0.043 C 
HETATM   25  C10 UNL     1      -9.402  -3.063  -4.666  1.00  0.00     0.005 C 
HETATM   26  C11 UNL     1     -10.549  -2.659  -5.520  1.00  0.00     0.006 C 
ENDBRANCH  15  16
ENDBRANCH  14  15
BRANCH  14  27
HETATM   27  C13 UNL     1     -12.104  -6.887   0.437  1.00  0.00     0.126 C 
BRANCH  27  28
HETATM   28  C14 UNL     1     -11.285  -7.908   1.182  1.00  0.00    -0.005 C 
HETATM   29  C15 UNL     1     -12.145  -9.001   1.769  1.00  0.00     0.011 C 
HETATM   30  C16 UNL     1     -10.562  -7.250   2.371  1.00  0.00     0.011 C 
ENDBRANCH  27  28
ENDBRANCH  14  27
ENDBRANCH  13  14
ENDBRANCH   5  13
TORSDOF 6
ENDMDL
MODEL 2
REMARK VINA RESULT: -7.690235277      2.273      5.424
REMARK  6 active torsions:
REMARK  status: ('A' for Active; 'I' for Inactive)
REMARK    1  A    between atoms: C3_5  and  C4_6 
REMARK    2  A    between atoms: C4_6  and  N2_7 
REMARK    3  A    between atoms: N2_7  and  C5_8 
REMARK    4  A    between atoms: N2_7  and  C13_20 
REMARK    5  A    between atoms: C5_8  and  C6_9 
REMARK    6  A    between atoms: C13_20  and  C14_21 
ROOT
HETATM    1  C1  UNL     1     -11.288  -8.334   3.706  1.00  0.00     0.070 C 
HETATM    2  C2  UNL     1      -9.986  -7.797   3.220  1.00  0.00     0.029 A 
HETATM    3  N1  UNL     1      -9.470  -8.161   2.020  1.00  0.00    -0.347 N 
ATOM      4  H1  UNL     1      -9.984  -8.818   1.433  1.00  0.00     0.167 HD
HETATM    5  C3  UNL     1      -8.303  -7.677   1.591  1.00  0.00     0.100 A 
HETATM    6  N5  UNL     1      -7.639  -6.819   2.367  1.00  0.00    -0.347 N 
ATOM      7  H5  UNL     1      -6.748  -6.451   2.035  1.00  0.00     0.167 HD
HETATM    8  C17 UNL     1      -8.091  -6.415   3.568  1.00  0.00     0.029 A 
HETATM    9  C18 UNL     1      -7.304  -5.449   4.402  1.00  0.00     0.070 C 
HETATM   10  C19 UNL     1      -9.293  -6.913   4.011  1.00  0.00     0.088 A 
HETATM   11  C20 UNL     1      -9.808  -6.497   5.303  1.00  0.00     0.103 C 
HETATM   12  N6  UNL     1     -10.210  -6.146   6.334  1.00  0.00    -0.191 NA
ENDROOT
BRANCH   5  13
HETATM   13  C4  UNL     1      -7.792  -8.122   0.258  1.00  0.00     0.198 C 
BRANCH  13  14
HETATM   14  N2  UNL     1      -8.160  -7.241  -0.787  1.00  0.00    -0.381 N 
BRANCH  14  15
HETATM   15  C5  UNL     1      -9.232  -7.590  -1.624  1.00  0.00     0.117 C 
BRANCH  15  16
HETATM   16  C6  UNL     1     -10.526  -6.897  -1.399  1.00  0.00     0.071 A 
HETATM   17  N3  UNL     1     -11.638  -7.365  -0.820  1.00  0.00    -0.299 N 
HETATM   18  N4  UNL     1     -12.540  -6.381  -0.805  1.00  0.00    -0.304 N 
ATOM     19  H3  UNL     1     -11.773  -8.307  -0.454  1.00  0.00     0.187 HD
HETATM   20  C7  UNL     1     -12.048  -5.274  -1.361  1.00  0.00     0.034 A 
ATOM     21  H4  UNL     1     -13.481  -6.465  -0.420  1.00  0.00     0.186 HD
HETATM   22  C8  UNL     1     -10.783  -5.557  -1.748  1.00  0.00    -0.005 A 
HETATM   23  C12 UNL     1     -12.560  -3.889  -1.630  1.00  0.00     0.059 C 
HETATM   24  C9  UNL     1      -9.905  -4.578  -2.407  1.00  0.00     0.043 C 
HETATM   25  C10 UNL     1     -10.591  -3.477  -3.126  1.00  0.00     0.005 C 
HETATM   26  C11 UNL     1     -12.066  -3.390  -2.969  1.00  0.00     0.006 C 
ENDBRANCH  15  16
ENDBRANCH  14  15
BRANCH  14  27
HETATM   27  C13 UNL     1      -7.119  -6.477  -1.384  1.00  0.00     0.126 C 
BRANCH  27  28
HETATM   28  C14 UNL     1      -6.291  -7.323  -2.316  1.00  0.00    -0.005 C 
HETATM   29  C15 UNL     1      -4.812  -7.099  -2.114  1.00  0.00     0.011 C 
HETATM   30  C16 UNL     1      -6.583  -6.949  -3.780  1.00  0.00     0.011 C 
ENDBRANCH  27  28
ENDBRANCH  14  27
ENDBRANCH  13  14
ENDBRANCH   5  13
TORSDOF 6
ENDMDL
MODEL 3
REMARK VINA RESULT: -7.680578311      2.301      5.406
REMARK  6 active torsions:
REMARK  status: ('A' for Active; 'I' for Inactive)
REMARK    1  A    between atoms: C3_5  and  C4_6 
REMARK    2  A    between atoms: C4_6  and  N2_7 
REMARK    3  A    between atoms: N2_7  and  C5_8 
REMARK    4  A    between atoms: N2_7  and  C13_20 
REMARK    5  A    between atoms: C5_8  and  C6_9 
REMARK    6  A    between atoms: C13_20  and  C14_21 
ROOT
HETATM    1  C1  UNL     1      -7.256  -5.523   4.461  1.00  0.00     0.070 C 
HETATM    2  C2  UNL     1      -8.064  -6.443   3.612  1.00  0.00     0.029 A 
HETATM    3  N1  UNL     1      -7.621  -6.865   2.400  1.00  0.00    -0.347 N 
ATOM      4  H1  UNL     1      -6.714  -6.546   2.061  1.00  0.00     0.167 HD
HETATM    5  C3  UNL     1      -8.350  -7.688   1.644  1.00  0.00     0.100 A 
HETATM    6  N5  UNL     1      -9.535  -8.098   2.099  1.00  0.00    -0.347 N 
ATOM      7  H5  UNL     1     -10.088  -8.727   1.518  1.00  0.00     0.167 HD
HETATM    8  C17 UNL     1     -10.036  -7.720   3.288  1.00  0.00     0.029 A 
HETATM    9  C18 UNL     1     -11.375  -8.208   3.751  1.00  0.00     0.070 C 
HETATM   10  C19 UNL     1      -9.286  -6.871   4.068  1.00  0.00     0.088 A 
HETATM   11  C20 UNL     1      -9.798  -6.444   5.358  1.00  0.00     0.103 C 
HETATM   12  N6  UNL     1     -10.218  -6.120   6.391  1.00  0.00    -0.191 NA
ENDROOT
BRANCH   5  13
HETATM   13  C4  UNL     1      -7.802  -8.112   0.319  1.00  0.00     0.198 C 
BRANCH  13  14
HETATM   14  N2  UNL     1      -8.164  -7.229  -0.727  1.00  0.00    -0.381 N 
BRANCH  14  15
HETATM   15  C5  UNL     1      -9.225  -7.581  -1.577  1.00  0.00     0.117 C 
BRANCH  15  16
HETATM   16  C6  UNL     1     -10.524  -6.892  -1.368  1.00  0.00     0.071 A 
HETATM   17  N3  UNL     1     -11.638  -7.358  -0.792  1.00  0.00    -0.299 N 
HETATM   18  N4  UNL     1     -12.544  -6.378  -0.794  1.00  0.00    -0.304 N 
ATOM     19  H3  UNL     1     -11.771  -8.297  -0.417  1.00  0.00     0.187 HD
HETATM   20  C7  UNL     1     -12.052  -5.275  -1.358  1.00  0.00     0.034 A 
ATOM     21  H4  UNL     1     -13.487  -6.462  -0.415  1.00  0.00     0.186 HD
HETATM   22  C8  UNL     1     -10.783  -5.557  -1.733  1.00  0.00    -0.005 A 
HETATM   23  C12 UNL     1     -12.568  -3.895  -1.645  1.00  0.00     0.059 C 
HETATM   24  C9  UNL     1      -9.905  -4.581  -2.395  1.00  0.00     0.043 C 
HETATM   25  C10 UNL     1     -10.589  -3.490  -3.130  1.00  0.00     0.005 C 
HETATM   26  C11 UNL     1     -12.066  -3.408  -2.985  1.00  0.00     0.006 C 
ENDBRANCH  15  16
ENDBRANCH  14  15
BRANCH  14  27
HETATM   27  C13 UNL     1      -7.122  -6.457  -1.310  1.00  0.00     0.126 C 
BRANCH  27  28
HETATM   28  C14 UNL     1      -6.282  -7.293  -2.240  1.00  0.00    -0.005 C 
HETATM   29  C15 UNL     1      -4.805  -7.066  -2.023  1.00  0.00     0.011 C 
HETATM   30  C16 UNL     1      -6.562  -6.909  -3.704  1.00  0.00     0.011 C 
ENDBRANCH  27  28
ENDBRANCH  14  27
ENDBRANCH  13  14
ENDBRANCH   5  13
TORSDOF 6
ENDMDL
MODEL 4
REMARK VINA RESULT: -7.645311222      1.726      2.726
REMARK  6 active torsions:
REMARK  status: ('A' for Active; 'I' for Inactive)
REMARK    1  A    between atoms: C3_5  and  C4_6 
REMARK    2  A    between atoms: C4_6  and  N2_7 
REMARK    3  A    between atoms: N2_7  and  C5_8 
REMARK    4  A    between atoms: N2_7  and  C13_20 
REMARK    5  A    between atoms: C5_8  and  C6_9 
REMARK    6  A    between atoms: C13_20  and  C14_21 
ROOT
HETATM    1  C1  UNL     1      -3.329  -8.691  -1.203  1.00  0.00     0.070 C 
HETATM    2  C2  UNL     1      -4.585  -8.050  -1.683  1.00  0.00     0.029 A 
HETATM    3  N1  UNL     1      -5.548  -7.639  -0.820  1.00  0.00    -0.347 N 
ATOM      4  H1  UNL     1      -5.410  -7.770   0.182  1.00  0.00     0.167 HD
HETATM    5  C3  UNL     1      -6.672  -7.067  -1.256  1.00  0.00     0.100 A 
HETATM    6  N5  UNL     1      -6.840  -6.901  -2.569  1.00  0.00    -0.347 N 
ATOM      7  H5  UNL     1      -7.700  -6.463  -2.897  1.00  0.00     0.167 HD
HETATM    8  C17 UNL     1      -5.929  -7.285  -3.480  1.00  0.00     0.029 A 
HETATM    9  C18 UNL     1      -6.170  -7.076  -4.945  1.00  0.00     0.070 C 
HETATM   10  C19 UNL     1      -4.771  -7.875  -3.032  1.00  0.00     0.088 A 
HETATM   11  C20 UNL     1      -3.767  -8.300  -3.991  1.00  0.00     0.103 C 
HETATM   12  N6  UNL     1      -2.970  -8.626  -4.770  1.00  0.00    -0.191 NA
ENDROOT
BRANCH   5  13
HETATM   13  C4  UNL     1      -7.691  -6.639  -0.250  1.00  0.00     0.198 C 
BRANCH  13  14
HETATM   14  N2  UNL     1      -8.769  -7.551  -0.146  1.00  0.00    -0.381 N 
BRANCH  14  15
HETATM   15  C5  UNL     1      -9.652  -7.684  -1.230  1.00  0.00     0.117 C 
BRANCH  15  16
HETATM   16  C6  UNL     1     -10.825  -6.775  -1.270  1.00  0.00     0.071 A 
HETATM   17  N3  UNL     1     -12.073  -6.996  -0.840  1.00  0.00    -0.299 N 
HETATM   18  N4  UNL     1     -12.784  -5.885  -1.047  1.00  0.00    -0.304 N 
ATOM     19  H3  UNL     1     -12.420  -7.861  -0.427  1.00  0.00     0.187 HD
HETATM   20  C7  UNL     1     -12.032  -4.935  -1.603  1.00  0.00     0.034 A 
ATOM     21  H4  UNL     1     -13.770  -5.778  -0.812  1.00  0.00     0.186 HD
HETATM   22  C8  UNL     1     -10.793  -5.455  -1.760  1.00  0.00    -0.005 A 
HETATM   23  C12 UNL     1     -12.252  -3.522  -2.058  1.00  0.00     0.059 C 
HETATM   24  C9  UNL     1      -9.673  -4.702  -2.345  1.00  0.00     0.043 C 
HETATM   25  C10 UNL     1     -10.047  -3.587  -3.248  1.00  0.00     0.005 C 
HETATM   26  C11 UNL     1     -11.491  -3.251  -3.336  1.00  0.00     0.006 C 
ENDBRANCH  15  16
ENDBRANCH  14  15
BRANCH  14  27
HETATM   27  C13 UNL     1      -9.328  -7.746   1.147  1.00  0.00     0.126 C 
BRANCH  27  28
HETATM   28  C14 UNL     1      -9.909  -9.129   1.284  1.00  0.00    -0.005 C 
HETATM   29  C15 UNL     1     -10.780  -9.254   2.511  1.00  0.00     0.011 C 
HETATM   30  C16 UNL     1      -8.785 -10.167   1.452  1.00  0.00     0.011 C 
ENDBRANCH  27  28
ENDBRANCH  14  27
ENDBRANCH  13  14
ENDBRANCH   5  13
TORSDOF 6
ENDMDL
MODEL 5
REMARK VINA RESULT: -7.621182693      1.738      3.117
REMARK  6 active torsions:
REMARK  status: ('A' for Active; 'I' for Inactive)
REMARK    1  A    between atoms: C3_5  and  C4_6 
REMARK    2  A    between atoms: C4_6  and  N2_7 
REMARK    3  A    between atoms: N2_7  and  C5_8 
REMARK    4  A    between atoms: N2_7  and  C13_20 
REMARK    5  A    between atoms: C5_8  and  C6_9 
REMARK    6  A    between atoms: C13_20  and  C14_21 
ROOT
HETATM    1  C1  UNL     1      -6.127  -7.211  -5.002  1.00  0.00     0.070 C 
HETATM    2  C2  UNL     1      -5.903  -7.343  -3.535  1.00  0.00     0.029 A 
HETATM    3  N1  UNL     1      -6.829  -6.928  -2.635  1.00  0.00    -0.347 N 
ATOM      4  H1  UNL     1      -7.702  -6.516  -2.968  1.00  0.00     0.167 HD
HETATM    5  C3  UNL     1      -6.623  -7.047  -1.322  1.00  0.00     0.100 A 
HETATM    6  N5  UNL     1      -5.479  -7.586  -0.898  1.00  0.00    -0.347 N 
ATOM      7  H5  UNL     1      -5.326  -7.676   0.106  1.00  0.00     0.167 HD
HETATM    8  C17 UNL     1      -4.517  -8.018  -1.733  1.00  0.00     0.029 A 
HETATM    9  C18 UNL     1      -3.248  -8.615  -1.204  1.00  0.00     0.070 C 
HETATM   10  C19 UNL     1      -4.729  -7.895  -3.086  1.00  0.00     0.088 A 
HETATM   11  C20 UNL     1      -3.710  -8.351  -4.014  1.00  0.00     0.103 C 
HETATM   12  N6  UNL     1      -2.889  -8.730  -4.743  1.00  0.00    -0.191 NA
ENDROOT
BRANCH   5  13
HETATM   13  C4  UNL     1      -7.686  -6.568  -0.386  1.00  0.00     0.198 C 
BRANCH  13  14
HETATM   14  N2  UNL     1      -8.756  -7.487  -0.263  1.00  0.00    -0.381 N 
BRANCH  14  15
HETATM   15  C5  UNL     1      -9.665  -7.617  -1.326  1.00  0.00     0.117 C 
BRANCH  15  16
HETATM   16  C6  UNL     1     -10.827  -6.693  -1.346  1.00  0.00     0.071 A 
HETATM   17  N3  UNL     1     -12.070  -6.898  -0.893  1.00  0.00    -0.299 N 
HETATM   18  N4  UNL     1     -12.770  -5.779  -1.090  1.00  0.00    -0.304 N 
ATOM     19  H3  UNL     1     -12.420  -7.758  -0.472  1.00  0.00     0.187 HD
HETATM   20  C7  UNL     1     -12.017  -4.840  -1.662  1.00  0.00     0.034 A 
ATOM     21  H4  UNL     1     -13.751  -5.659  -0.837  1.00  0.00     0.186 HD
HETATM   22  C8  UNL     1     -10.787  -5.375  -1.840  1.00  0.00    -0.005 A 
HETATM   23  C12 UNL     1     -12.228  -3.425  -2.117  1.00  0.00     0.059 C 
HETATM   24  C9  UNL     1      -9.669  -4.638  -2.448  1.00  0.00     0.043 C 
HETATM   25  C10 UNL     1     -10.045  -3.520  -3.347  1.00  0.00     0.005 C 
HETATM   26  C11 UNL     1     -11.487  -3.166  -3.409  1.00  0.00     0.006 C 
ENDBRANCH  15  16
ENDBRANCH  14  15
BRANCH  14  27
HETATM   27  C13 UNL     1      -9.282  -7.695   1.042  1.00  0.00     0.126 C 
BRANCH  27  28
HETATM   28  C14 UNL     1      -9.852  -9.082   1.183  1.00  0.00    -0.005 C 
HETATM   29  C15 UNL     1     -10.769  -9.195   2.378  1.00  0.00     0.011 C 
HETATM   30  C16 UNL     1      -8.724 -10.103   1.414  1.00  0.00     0.011 C 
ENDBRANCH  27  28
ENDBRANCH  14  27
ENDBRANCH  13  14
ENDBRANCH   5  13
TORSDOF 6
ENDMDL
