MODEL 1
REMARK VINA RESULT: -7.632094729      0.000      0.000
REMARK  7 active torsions:
REMARK  status: ('A' for Active; 'I' for Inactive)
REMARK    1  A    between atoms: C7_7  and  C8_8 
REMARK    2  A    between atoms: C8_8  and  O1_9 
REMARK    3  A    between atoms: O1_9  and  C9_10 
REMARK    4  A    between atoms: C9_10  and  C10_11 
REMARK    5  A    between atoms: C10_11  and  C11_12 
REMARK    6  A    between atoms: C11_12  and  O2_13 
REMARK    7  A    between atoms: C11_12  and  C12_15 
ROOT
HETATM    1  C1  UNL     1      -7.173  -6.355   1.313  1.00  0.00     0.040 C 
HETATM    2  C2  UNL     1      -7.565  -7.804   1.152  1.00  0.00     0.127 C 
HETATM    3  C3  UNL     1      -8.193  -8.136  -0.133  1.00  0.00     0.032 C 
HETATM    4  C4  UNL     1      -8.572  -7.019  -1.042  1.00  0.00     0.006 C 
HETATM    5  C5  UNL     1      -9.922  -7.387  -1.619  1.00  0.00     0.030 C 
HETATM    6  C6  UNL     1     -10.854  -6.239  -1.713  1.00  0.00     0.008 C 
HETATM    7  C7  UNL     1     -11.899  -5.951  -0.958  1.00  0.00     0.066 C 
HETATM    8  O3  UNL     1     -12.353  -6.691   0.113  1.00  0.00    -0.353 OA
HETATM    9  C16 UNL     1     -11.739  -7.110   1.290  1.00  0.00     0.176 C 
HETATM   10  C17 UNL     1     -11.877  -8.560   1.605  1.00  0.00     0.036 C 
HETATM   11  C18 UNL     1     -10.689  -9.225   2.227  1.00  0.00     0.113 C 
HETATM   12  C19 UNL     1      -9.593  -8.293   2.618  1.00  0.00     0.259 C 
HETATM   13  O4  UNL     1     -10.029  -7.438   3.480  1.00  0.00    -0.265 OA
HETATM   14  O5  UNL     1      -8.328  -8.255   2.210  1.00  0.00    -0.316 OA
ENDROOT
BRANCH   7  15
HETATM   15  C8  UNL     1     -12.667  -4.683  -1.313  1.00  0.00     0.231 C 
BRANCH  15  16
HETATM   16  O1  UNL     1     -12.653  -4.477  -2.687  1.00  0.00    -0.385 OA
BRANCH  16  17
HETATM   17  C9  UNL     1     -13.029  -3.223  -3.065  1.00  0.00     0.170 C 
BRANCH  17  18
HETATM   18  C10 UNL     1     -11.918  -2.262  -3.322  1.00  0.00     0.058 C 
BRANCH  18  19
HETATM   19  C11 UNL     1     -11.637  -2.115  -4.820  1.00  0.00     0.127 C 
BRANCH  19  20
HETATM   20  O2  UNL     1     -12.576  -2.832  -5.555  1.00  0.00    -0.395 OA
ATOM     21  H2  UNL     1     -12.403  -2.739  -6.484  1.00  0.00     0.210 HD
ENDBRANCH  19  20
BRANCH  19  22
HETATM   22  C12 UNL     1     -10.276  -2.713  -5.129  1.00  0.00    -0.025 C 
HETATM   23  C13 UNL     1     -10.389  -3.681  -6.304  1.00  0.00     0.017 C 
HETATM   24  C14 UNL     1      -9.686  -3.409  -3.937  1.00  0.00     0.017 C 
HETATM   25  C15 UNL     1      -9.307  -1.635  -5.558  1.00  0.00     0.017 C 
ENDBRANCH  19  22
ENDBRANCH  18  19
ENDBRANCH  17  18
ENDBRANCH  16  17
ENDBRANCH  15  16
ENDBRANCH   7  15
TORSDOF 7
ENDMDL
MODEL 2
REMARK VINA RESULT: -7.231145875      1.322      1.804
REMARK  7 active torsions:
REMARK  status: ('A' for Active; 'I' for Inactive)
REMARK    1  A    between atoms: C7_7  and  C8_8 
REMARK    2  A    between atoms: C8_8  and  O1_9 
REMARK    3  A    between atoms: O1_9  and  C9_10 
REMARK    4  A    between atoms: C9_10  and  C10_11 
REMARK    5  A    between atoms: C10_11  and  C11_12 
REMARK    6  A    between atoms: C11_12  and  O2_13 
REMARK    7  A    between atoms: C11_12  and  C12_15 
ROOT
HETATM    1  C1  UNL     1      -7.196  -5.844   2.584  1.00  0.00     0.040 C 
HETATM    2  C2  UNL     1      -7.009  -7.334   2.431  1.00  0.00     0.127 C 
HETATM    3  C3  UNL     1      -7.270  -7.855   1.083  1.00  0.00     0.032 C 
HETATM    4  C4  UNL     1      -7.883  -6.941   0.080  1.00  0.00     0.006 C 
HETATM    5  C5  UNL     1      -8.904  -7.767  -0.673  1.00  0.00     0.030 C 
HETATM    6  C6  UNL     1     -10.160  -7.035  -0.953  1.00  0.00     0.008 C 
HETATM    7  C7  UNL     1     -11.341  -7.157  -0.374  1.00  0.00     0.066 C 
HETATM    8  O3  UNL     1     -11.656  -8.025   0.650  1.00  0.00    -0.353 OA
HETATM    9  C16 UNL     1     -11.120  -8.207   1.921  1.00  0.00     0.176 C 
HETATM   10  C17 UNL     1     -10.772  -9.612   2.277  1.00  0.00     0.036 C 
HETATM   11  C18 UNL     1      -9.534  -9.808   3.095  1.00  0.00     0.113 C 
HETATM   12  C19 UNL     1      -8.922  -8.546   3.602  1.00  0.00     0.259 C 
HETATM   13  O4  UNL     1      -9.764  -7.919   4.352  1.00  0.00    -0.265 OA
HETATM   14  O5  UNL     1      -7.710  -8.045   3.384  1.00  0.00    -0.316 OA
ENDROOT
BRANCH   7  15
HETATM   15  C8  UNL     1     -12.452  -6.251  -0.893  1.00  0.00     0.231 C 
BRANCH  15  16
HETATM   16  O1  UNL     1     -11.942  -5.334  -1.804  1.00  0.00    -0.385 OA
BRANCH  16  17
HETATM   17  C9  UNL     1     -12.465  -4.081  -1.684  1.00  0.00     0.170 C 
BRANCH  17  18
HETATM   18  C10 UNL     1     -11.855  -3.037  -2.557  1.00  0.00     0.058 C 
BRANCH  18  19
HETATM   19  C11 UNL     1     -10.884  -3.648  -3.570  1.00  0.00     0.127 C 
BRANCH  19  20
HETATM   20  O2  UNL     1      -9.585  -3.607  -3.071  1.00  0.00    -0.395 OA
ATOM     21  H2  UNL     1      -9.371  -2.724  -2.794  1.00  0.00     0.210 HD
ENDBRANCH  19  20
BRANCH  19  22
HETATM   22  C12 UNL     1     -10.902  -2.815  -4.838  1.00  0.00    -0.025 C 
HETATM   23  C13 UNL     1      -9.475  -2.451  -5.242  1.00  0.00     0.017 C 
HETATM   24  C14 UNL     1     -11.730  -1.573  -4.681  1.00  0.00     0.017 C 
HETATM   25  C15 UNL     1     -11.479  -3.609  -5.988  1.00  0.00     0.017 C 
ENDBRANCH  19  22
ENDBRANCH  18  19
ENDBRANCH  17  18
ENDBRANCH  16  17
ENDBRANCH  15  16
ENDBRANCH   7  15
TORSDOF 7
ENDMDL
MODEL 3
REMARK VINA RESULT: -6.335959672      1.908      3.564
REMARK  7 active torsions:
REMARK  status: ('A' for Active; 'I' for Inactive)
REMARK    1  A    between atoms: C7_7  and  C8_8 
REMARK    2  A    between atoms: C8_8  and  O1_9 
REMARK    3  A    between atoms: O1_9  and  C9_10 
REMARK    4  A    between atoms: C9_10  and  C10_11 
REMARK    5  A    between atoms: C10_11  and  C11_12 
REMARK    6  A    between atoms: C11_12  and  O2_13 
REMARK    7  A    between atoms: C11_12  and  C12_15 
ROOT
HETATM    1  C1  UNL     1     -11.691 -11.150   3.533  1.00  0.00     0.040 C 
HETATM    2  C2  UNL     1     -10.482 -10.440   4.092  1.00  0.00     0.127 C 
HETATM    3  C3  UNL     1     -10.554  -8.973   4.055  1.00  0.00     0.032 C 
HETATM    4  C4  UNL     1     -11.672  -8.342   3.301  1.00  0.00     0.006 C 
HETATM    5  C5  UNL     1     -11.070  -7.163   2.566  1.00  0.00     0.030 C 
HETATM    6  C6  UNL     1     -11.589  -7.002   1.189  1.00  0.00     0.008 C 
HETATM    7  C7  UNL     1     -11.001  -7.281   0.039  1.00  0.00     0.066 C 
HETATM    8  O3  UNL     1      -9.733  -7.799  -0.117  1.00  0.00    -0.353 OA
HETATM    9  C16 UNL     1      -9.129  -8.957   0.364  1.00  0.00     0.176 C 
HETATM   10  C17 UNL     1      -7.807  -8.765   1.025  1.00  0.00     0.036 C 
HETATM   11  C18 UNL     1      -7.523  -9.623   2.217  1.00  0.00     0.113 C 
HETATM   12  C19 UNL     1      -8.535 -10.690   2.465  1.00  0.00     0.259 C 
HETATM   13  O4  UNL     1      -8.598 -11.482   1.448  1.00  0.00    -0.265 OA
HETATM   14  O5  UNL     1      -9.308 -10.895   3.528  1.00  0.00    -0.316 OA
ENDROOT
BRANCH   7  15
HETATM   15  C8  UNL     1     -11.805  -6.999  -1.224  1.00  0.00     0.231 C 
BRANCH  15  16
HETATM   16  O1  UNL     1     -11.373  -5.820  -1.820  1.00  0.00    -0.385 OA
BRANCH  16  17
HETATM   17  C9  UNL     1     -12.238  -4.776  -1.679  1.00  0.00     0.170 C 
BRANCH  17  18
HETATM   18  C10 UNL     1     -11.898  -3.544  -2.448  1.00  0.00     0.058 C 
BRANCH  18  19
HETATM   19  C11 UNL     1     -10.832  -3.821  -3.512  1.00  0.00     0.127 C 
BRANCH  19  20
HETATM   20  O2  UNL     1      -9.562  -3.624  -2.978  1.00  0.00    -0.395 OA
ATOM     21  H2  UNL     1      -9.516  -3.991  -2.104  1.00  0.00     0.210 HD
ENDBRANCH  19  20
BRANCH  19  22
HETATM   22  C12 UNL     1     -10.999  -2.830  -4.649  1.00  0.00    -0.025 C 
HETATM   23  C13 UNL     1      -9.642  -2.243  -5.030  1.00  0.00     0.017 C 
HETATM   24  C14 UNL     1     -11.960  -1.731  -4.299  1.00  0.00     0.017 C 
HETATM   25  C15 UNL     1     -11.524  -3.522  -5.885  1.00  0.00     0.017 C 
ENDBRANCH  19  22
ENDBRANCH  18  19
ENDBRANCH  17  18
ENDBRANCH  16  17
ENDBRANCH  15  16
ENDBRANCH   7  15
TORSDOF 7
ENDMDL
MODEL 4
REMARK VINA RESULT: -6.323581141      1.956      3.007
REMARK  7 active torsions:
REMARK  status: ('A' for Active; 'I' for Inactive)
REMARK    1  A    between atoms: C7_7  and  C8_8 
REMARK    2  A    between atoms: C8_8  and  O1_9 
REMARK    3  A    between atoms: O1_9  and  C9_10 
REMARK    4  A    between atoms: C9_10  and  C10_11 
REMARK    5  A    between atoms: C10_11  and  C11_12 
REMARK    6  A    between atoms: C11_12  and  O2_13 
REMARK    7  A    between atoms: C11_12  and  C12_15 
ROOT
HETATM    1  C1  UNL     1      -8.637  -6.347   4.427  1.00  0.00     0.040 C 
HETATM    2  C2  UNL     1      -7.540  -7.365   4.234  1.00  0.00     0.127 C 
HETATM    3  C3  UNL     1      -6.783  -7.229   2.983  1.00  0.00     0.032 C 
HETATM    4  C4  UNL     1      -7.284  -6.274   1.956  1.00  0.00     0.006 C 
HETATM    5  C5  UNL     1      -7.106  -6.963   0.620  1.00  0.00     0.030 C 
HETATM    6  C6  UNL     1      -8.243  -6.753  -0.305  1.00  0.00     0.008 C 
HETATM    7  C7  UNL     1      -9.202  -7.594  -0.650  1.00  0.00     0.066 C 
HETATM    8  O3  UNL     1      -9.344  -8.890  -0.201  1.00  0.00    -0.353 OA
HETATM    9  C16 UNL     1      -9.459  -9.432   1.076  1.00  0.00     0.176 C 
HETATM   10  C17 UNL     1      -8.539 -10.563   1.380  1.00  0.00     0.036 C 
HETATM   11  C18 UNL     1      -7.983 -10.620   2.768  1.00  0.00     0.113 C 
HETATM   12  C19 UNL     1      -8.581  -9.634   3.714  1.00  0.00     0.259 C 
HETATM   13  O4  UNL     1      -9.851  -9.837   3.817  1.00  0.00    -0.265 OA
HETATM   14  O5  UNL     1      -7.996  -8.657   4.401  1.00  0.00    -0.316 OA
ENDROOT
BRANCH   7  15
HETATM   15  C8  UNL     1     -10.241  -7.076  -1.637  1.00  0.00     0.231 C 
BRANCH  15  16
HETATM   16  O1  UNL     1     -10.271  -5.686  -1.624  1.00  0.00    -0.385 OA
BRANCH  16  17
HETATM   17  C9  UNL     1     -11.523  -5.156  -1.722  1.00  0.00     0.170 C 
BRANCH  17  18
HETATM   18  C10 UNL     1     -11.637  -3.912  -2.536  1.00  0.00     0.058 C 
BRANCH  18  19
HETATM   19  C11 UNL     1     -10.571  -3.857  -3.633  1.00  0.00     0.127 C 
BRANCH  19  20
HETATM   20  O2  UNL     1      -9.352  -3.456  -3.094  1.00  0.00    -0.395 OA
ATOM     21  H2  UNL     1      -8.723  -4.165  -3.148  1.00  0.00     0.210 HD
ENDBRANCH  19  20
BRANCH  19  22
HETATM   22  C12 UNL     1     -10.970  -2.813  -4.660  1.00  0.00    -0.025 C 
HETATM   23  C13 UNL     1      -9.734  -2.060  -5.145  1.00  0.00     0.017 C 
HETATM   24  C14 UNL     1     -11.985  -1.850  -4.116  1.00  0.00     0.017 C 
HETATM   25  C15 UNL     1     -11.571  -3.472  -5.881  1.00  0.00     0.017 C 
ENDBRANCH  19  22
ENDBRANCH  18  19
ENDBRANCH  17  18
ENDBRANCH  16  17
ENDBRANCH  15  16
ENDBRANCH   7  15
TORSDOF 7
ENDMDL
MODEL 5
REMARK VINA RESULT: -6.260932823      3.618      5.594
REMARK  7 active torsions:
REMARK  status: ('A' for Active; 'I' for Inactive)
REMARK    1  A    between atoms: C7_7  and  C8_8 
REMARK    2  A    between atoms: C8_8  and  O1_9 
REMARK    3  A    between atoms: O1_9  and  C9_10 
REMARK    4  A    between atoms: C9_10  and  C10_11 
REMARK    5  A    between atoms: C10_11  and  C11_12 
REMARK    6  A    between atoms: C11_12  and  O2_13 
REMARK    7  A    between atoms: C11_12  and  C12_15 
ROOT
HETATM    1  C1  UNL     1     -11.830  -6.945   6.936  1.00  0.00     0.040 C 
HETATM    2  C2  UNL     1     -11.042  -8.231   6.881  1.00  0.00     0.127 C 
HETATM    3  C3  UNL     1      -9.996  -8.272   5.851  1.00  0.00     0.032 C 
HETATM    4  C4  UNL     1      -9.951  -7.173   4.848  1.00  0.00     0.006 C 
HETATM    5  C5  UNL     1      -9.651  -7.830   3.517  1.00  0.00     0.030 C 
HETATM    6  C6  UNL     1     -10.427  -7.260   2.392  1.00  0.00     0.008 C 
HETATM    7  C7  UNL     1     -11.466  -7.770   1.755  1.00  0.00     0.066 C 
HETATM    8  O3  UNL     1     -12.062  -8.985   2.019  1.00  0.00    -0.353 OA
HETATM    9  C16 UNL     1     -12.628  -9.519   3.173  1.00  0.00     0.176 C 
HETATM   10  C17 UNL     1     -12.157 -10.881   3.549  1.00  0.00     0.036 C 
HETATM   11  C18 UNL     1     -11.992 -11.153   5.012  1.00  0.00     0.113 C 
HETATM   12  C19 UNL     1     -12.507 -10.074   5.902  1.00  0.00     0.259 C 
HETATM   13  O4  UNL     1     -13.770  -9.901   5.699  1.00  0.00    -0.265 OA
HETATM   14  O5  UNL     1     -11.862  -9.338   6.803  1.00  0.00    -0.316 OA
ENDROOT
BRANCH   7  15
HETATM   15  C8  UNL     1     -12.051  -6.932   0.625  1.00  0.00     0.231 C 
BRANCH  15  16
HETATM   16  O1  UNL     1     -11.841  -7.556  -0.599  1.00  0.00    -0.385 OA
BRANCH  16  17
HETATM   17  C9  UNL     1     -10.951  -6.912  -1.407  1.00  0.00     0.170 C 
BRANCH  17  18
HETATM   18  C10 UNL     1      -9.574  -7.483  -1.439  1.00  0.00     0.058 C 
BRANCH  18  19
HETATM   19  C11 UNL     1      -8.529  -6.459  -0.987  1.00  0.00     0.127 C 
BRANCH  19  20
HETATM   20  O2  UNL     1      -7.866  -5.934  -2.093  1.00  0.00    -0.395 OA
ATOM     21  H2  UNL     1      -7.514  -5.077  -1.885  1.00  0.00     0.210 HD
ENDBRANCH  19  20
BRANCH  19  22
HETATM   22  C12 UNL     1      -7.489  -7.158  -0.132  1.00  0.00    -0.025 C 
HETATM   23  C13 UNL     1      -7.984  -8.550   0.256  1.00  0.00     0.017 C 
HETATM   24  C14 UNL     1      -7.150  -6.367   1.098  1.00  0.00     0.017 C 
HETATM   25  C15 UNL     1      -6.211  -7.364  -0.912  1.00  0.00     0.017 C 
ENDBRANCH  19  22
ENDBRANCH  18  19
ENDBRANCH  17  18
ENDBRANCH  16  17
ENDBRANCH  15  16
ENDBRANCH   7  15
TORSDOF 7
ENDMDL
