MODEL 1
REMARK VINA RESULT: -8.627663759      0.000      0.000
REMARK  3 active torsions:
REMARK  status: ('A' for Active; 'I' for Inactive)
REMARK    1  A    between atoms: O1_2  and  C2_3 
REMARK    2  A    between atoms: C6_8  and  C7_9 
REMARK    3  A    between atoms: C7_9  and  O3_10 
ROOT
HETATM    1  C2  UNL     1      60.975 -29.398  35.024  1.00  0.00     0.152 C 
HETATM    2  C3  UNL     1      59.568 -28.996  35.492  1.00  0.00     0.040 C 
HETATM    3  C4  UNL     1      58.634 -29.828  34.626  1.00  0.00     0.071 C 
HETATM    4  C5  UNL     1      58.857 -29.643  33.169  1.00  0.00     0.171 C 
HETATM    5  O2  UNL     1      60.175 -29.884  32.871  1.00  0.00    -0.345 OA
HETATM    6  C6  UNL     1      60.988 -29.010  33.559  1.00  0.00     0.177 C 
HETATM    7  O4  UNL     1      57.911 -30.366  32.445  1.00  0.00    -0.348 OA
HETATM    8  C8  UNL     1      57.107 -29.245  32.457  1.00  0.00     0.138 C 
HETATM    9  C9  UNL     1      56.208 -29.022  31.306  1.00  0.00     0.011 C 
HETATM   10  C10 UNL     1      55.266 -30.224  31.208  1.00  0.00     0.012 C 
HETATM   11  C11 UNL     1      56.843 -28.744  30.002  1.00  0.00     0.007 C 
HETATM   12  C12 UNL     1      58.300 -29.015  30.056  1.00  0.00     0.001 C 
HETATM   13  C13 UNL     1      58.984 -28.223  31.154  1.00  0.00     0.013 C 
HETATM   14  C14 UNL     1      58.344 -28.419  32.504  1.00  0.00     0.077 C 
ENDROOT
BRANCH   6  15
HETATM   15  C7  UNL     1      62.422 -29.026  33.109  1.00  0.00     0.198 C 
BRANCH  15  16
HETATM   16  O3  UNL     1      62.816 -30.359  33.000  1.00  0.00    -0.398 OA
ATOM     17  H3  UNL     1      62.295 -30.757  32.312  1.00  0.00     0.209 HD
ENDBRANCH  15  16
ENDBRANCH   6  15
BRANCH   1  18
HETATM   18  O1  UNL     1      61.054 -30.769  35.099  1.00  0.00    -0.388 OA
HETATM   19  C1  UNL     1      61.715 -31.217  36.236  1.00  0.00     0.202 C 
ENDBRANCH   1  18
TORSDOF 3
ENDMDL
MODEL 2
REMARK VINA RESULT: -8.490641428      1.330      5.520
REMARK  3 active torsions:
REMARK  status: ('A' for Active; 'I' for Inactive)
REMARK    1  A    between atoms: O1_2  and  C2_3 
REMARK    2  A    between atoms: C6_8  and  C7_9 
REMARK    3  A    between atoms: C7_9  and  O3_10 
ROOT
HETATM    1  C2  UNL     1      56.806 -28.396  31.650  1.00  0.00     0.152 C 
HETATM    2  C3  UNL     1      57.994 -27.420  31.653  1.00  0.00     0.040 C 
HETATM    3  C4  UNL     1      59.218 -28.321  31.602  1.00  0.00     0.071 C 
HETATM    4  C5  UNL     1      59.263 -29.321  32.699  1.00  0.00     0.171 C 
HETATM    5  O2  UNL     1      58.098 -30.047  32.706  1.00  0.00    -0.345 OA
HETATM    6  C6  UNL     1      57.018 -29.217  32.906  1.00  0.00     0.177 C 
HETATM    7  O4  UNL     1      60.450 -30.047  32.636  1.00  0.00    -0.348 OA
HETATM    8  C8  UNL     1      61.017 -29.111  33.477  1.00  0.00     0.138 C 
HETATM    9  C9  UNL     1      62.072 -29.561  34.407  1.00  0.00     0.011 C 
HETATM   10  C10 UNL     1      63.218 -30.136  33.573  1.00  0.00     0.012 C 
HETATM   11  C11 UNL     1      61.673 -30.503  35.472  1.00  0.00     0.007 C 
HETATM   12  C12 UNL     1      60.309 -31.031  35.224  1.00  0.00     0.001 C 
HETATM   13  C13 UNL     1      59.286 -29.919  35.093  1.00  0.00     0.013 C 
HETATM   14  C14 UNL     1      59.666 -28.890  34.061  1.00  0.00     0.077 C 
ENDROOT
BRANCH   6  15
HETATM   15  C7  UNL     1      55.731 -29.943  33.183  1.00  0.00     0.198 C 
BRANCH  15  16
HETATM   16  O3  UNL     1      55.871 -31.246  32.707  1.00  0.00    -0.398 OA
ATOM     17  H3  UNL     1      56.071 -31.803  33.450  1.00  0.00     0.209 HD
ENDBRANCH  15  16
ENDBRANCH   6  15
BRANCH   1  18
HETATM   18  O1  UNL     1      56.966 -29.230  30.567  1.00  0.00    -0.388 OA
HETATM   19  C1  UNL     1      56.092 -28.947  29.526  1.00  0.00     0.202 C 
ENDBRANCH   1  18
TORSDOF 3
ENDMDL
MODEL 3
REMARK VINA RESULT: -7.393198236      1.328      1.721
REMARK  3 active torsions:
REMARK  status: ('A' for Active; 'I' for Inactive)
REMARK    1  A    between atoms: O1_2  and  C2_3 
REMARK    2  A    between atoms: C6_8  and  C7_9 
REMARK    3  A    between atoms: C7_9  and  O3_10 
ROOT
HETATM    1  C2  UNL     1      60.652 -29.827  36.115  1.00  0.00     0.152 C 
HETATM    2  C3  UNL     1      59.579 -28.730  36.024  1.00  0.00     0.040 C 
HETATM    3  C4  UNL     1      58.614 -29.238  34.963  1.00  0.00     0.071 C 
HETATM    4  C5  UNL     1      59.269 -29.545  33.666  1.00  0.00     0.171 C 
HETATM    5  O2  UNL     1      60.306 -30.421  33.871  1.00  0.00    -0.345 OA
HETATM    6  C6  UNL     1      61.239 -29.868  34.719  1.00  0.00     0.177 C 
HETATM    7  O4  UNL     1      58.313 -29.919  32.725  1.00  0.00    -0.348 OA
HETATM    8  C8  UNL     1      58.220 -28.593  32.355  1.00  0.00     0.138 C 
HETATM    9  C9  UNL     1      57.894 -28.285  30.948  1.00  0.00     0.011 C 
HETATM   10  C10 UNL     1      56.534 -28.914  30.633  1.00  0.00     0.012 C 
HETATM   11  C11 UNL     1      58.894 -28.660  29.928  1.00  0.00     0.007 C 
HETATM   12  C12 UNL     1      59.939 -29.537  30.512  1.00  0.00     0.001 C 
HETATM   13  C13 UNL     1      60.618 -28.892  31.706  1.00  0.00     0.013 C 
HETATM   14  C14 UNL     1      59.643 -28.432  32.758  1.00  0.00     0.077 C 
ENDROOT
BRANCH   6  15
HETATM   15  C7  UNL     1      62.525 -30.642  34.802  1.00  0.00     0.198 C 
BRANCH  15  16
HETATM   16  O3  UNL     1      62.660 -31.099  36.112  1.00  0.00    -0.398 OA
ATOM     17  H3  UNL     1      63.302 -31.799  36.108  1.00  0.00     0.209 HD
ENDBRANCH  15  16
ENDBRANCH   6  15
BRANCH   1  18
HETATM   18  O1  UNL     1      59.999 -31.018  36.335  1.00  0.00    -0.388 OA
HETATM   19  C1  UNL     1      59.493 -31.135  37.623  1.00  0.00     0.202 C 
ENDBRANCH   1  18
TORSDOF 3
ENDMDL
MODEL 4
REMARK VINA RESULT: -7.209724039      1.601      5.436
REMARK  3 active torsions:
REMARK  status: ('A' for Active; 'I' for Inactive)
REMARK    1  A    between atoms: O1_2  and  C2_3 
REMARK    2  A    between atoms: C6_8  and  C7_9 
REMARK    3  A    between atoms: C7_9  and  O3_10 
ROOT
HETATM    1  C2  UNL     1      59.697 -28.432  31.612  1.00  0.00     0.152 C 
HETATM    2  C3  UNL     1      61.137 -28.377  32.145  1.00  0.00     0.040 C 
HETATM    3  C4  UNL     1      61.302 -29.682  32.910  1.00  0.00     0.071 C 
HETATM    4  C5  UNL     1      60.280 -29.882  33.968  1.00  0.00     0.171 C 
HETATM    5  O2  UNL     1      59.025 -29.769  33.421  1.00  0.00    -0.345 OA
HETATM    6  C6  UNL     1      58.855 -28.519  32.868  1.00  0.00     0.177 C 
HETATM    7  O4  UNL     1      60.548 -31.049  34.678  1.00  0.00    -0.348 OA
HETATM    8  C8  UNL     1      61.297 -30.292  35.556  1.00  0.00     0.138 C 
HETATM    9  C9  UNL     1      61.357 -30.723  36.968  1.00  0.00     0.011 C 
HETATM   10  C10 UNL     1      61.952 -32.132  37.003  1.00  0.00     0.012 C 
HETATM   11  C11 UNL     1      60.102 -30.662  37.743  1.00  0.00     0.007 C 
HETATM   12  C12 UNL     1      58.941 -30.428  36.850  1.00  0.00     0.001 C 
HETATM   13  C13 UNL     1      59.110 -29.169  36.020  1.00  0.00     0.013 C 
HETATM   14  C14 UNL     1      60.404 -29.143  35.249  1.00  0.00     0.077 C 
ENDROOT
BRANCH   6  15
HETATM   15  C7  UNL     1      57.436 -28.213  32.474  1.00  0.00     0.198 C 
BRANCH  15  16
HETATM   16  O3  UNL     1      57.480 -27.357  31.374  1.00  0.00    -0.398 OA
ATOM     17  H3  UNL     1      56.967 -26.587  31.590  1.00  0.00     0.209 HD
ENDBRANCH  15  16
ENDBRANCH   6  15
BRANCH   1  18
HETATM   18  O1  UNL     1      59.560 -29.619  30.928  1.00  0.00    -0.388 OA
HETATM   19  C1  UNL     1      59.335 -29.443  29.569  1.00  0.00     0.202 C 
ENDBRANCH   1  18
TORSDOF 3
ENDMDL
MODEL 5
REMARK VINA RESULT: -6.305677533      1.516      5.549
REMARK  3 active torsions:
REMARK  status: ('A' for Active; 'I' for Inactive)
REMARK    1  A    between atoms: O1_2  and  C2_3 
REMARK    2  A    between atoms: C6_8  and  C7_9 
REMARK    3  A    between atoms: C7_9  and  O3_10 
ROOT
HETATM    1  C2  UNL     1      55.908 -29.838  30.617  1.00  0.00     0.152 C 
HETATM    2  C3  UNL     1      56.921 -28.818  30.073  1.00  0.00     0.040 C 
HETATM    3  C4  UNL     1      58.273 -29.376  30.491  1.00  0.00     0.071 C 
HETATM    4  C5  UNL     1      58.389 -29.615  31.952  1.00  0.00     0.171 C 
HETATM    5  O2  UNL     1      57.357 -30.419  32.369  1.00  0.00    -0.345 OA
HETATM    6  C6  UNL     1      56.147 -29.815  32.112  1.00  0.00     0.177 C 
HETATM    7  O4  UNL     1      59.678 -30.040  32.266  1.00  0.00    -0.348 OA
HETATM    8  C8  UNL     1      60.020 -28.718  32.463  1.00  0.00     0.138 C 
HETATM    9  C9  UNL     1      61.057 -28.412  33.469  1.00  0.00     0.011 C 
HETATM   10  C10 UNL     1      62.342 -29.129  33.052  1.00  0.00     0.012 C 
HETATM   11  C11 UNL     1      60.729 -28.698  34.881  1.00  0.00     0.007 C 
HETATM   12  C12 UNL     1      59.491 -29.508  34.980  1.00  0.00     0.001 C 
HETATM   13  C13 UNL     1      58.317 -28.837  34.292  1.00  0.00     0.013 C 
HETATM   14  C14 UNL     1      58.610 -28.464  32.862  1.00  0.00     0.077 C 
ENDROOT
BRANCH   6  15
HETATM   15  C7  UNL     1      54.974 -30.497  32.760  1.00  0.00     0.198 C 
BRANCH  15  16
HETATM   16  O3  UNL     1      54.576 -29.715  33.843  1.00  0.00    -0.398 OA
ATOM     17  H3  UNL     1      54.025 -30.253  34.399  1.00  0.00     0.209 HD
ENDBRANCH  15  16
ENDBRANCH   6  15
BRANCH   1  18
HETATM   18  O1  UNL     1      56.283 -31.076  30.147  1.00  0.00    -0.388 OA
HETATM   19  C1  UNL     1      55.397 -32.086  30.499  1.00  0.00     0.202 C 
ENDBRANCH   1  18
TORSDOF 3
ENDMDL
