MODEL 1
REMARK VINA RESULT: -7.904141418      0.000      0.000
REMARK  3 active torsions:
REMARK  status: ('A' for Active; 'I' for Inactive)
REMARK    1  A    between atoms: N1_1  and  C1_5 
REMARK    2  A    between atoms: N2_12  and  O2_13 
REMARK    3  A    between atoms: O2_13  and  C6_14 
ROOT
HETATM    1  C1  UNL     1      58.930 -29.177  30.962  1.00  0.00     0.314 C 
HETATM    2  C2  UNL     1      57.911 -29.852  30.108  1.00  0.00     0.067 C 
HETATM    3  C3  UNL     1      56.661 -28.965  30.089  1.00  0.00     0.078 C 
HETATM    4  S1  UNL     1      55.603 -29.569  31.414  1.00  0.00    -0.160 SA
HETATM    5  C4  UNL     1      56.376 -29.271  33.014  1.00  0.00     0.179 C 
HETATM    6  C5  UNL     1      57.739 -29.809  33.120  1.00  0.00     0.254 C 
HETATM    7  O1  UNL     1      57.881 -30.576  34.101  1.00  0.00    -0.270 OA
HETATM    8  N2  UNL     1      58.918 -29.643  32.353  1.00  0.00    -0.194 N 
ENDROOT
BRANCH   8   9
HETATM    9  O2  UNL     1      60.136 -29.881  32.822  1.00  0.00    -0.268 OA
BRANCH   9  10
HETATM   10  C6  UNL     1      60.739 -29.017  33.652  1.00  0.00     0.152 C 
HETATM   11  C7  UNL     1      62.194 -28.842  33.205  1.00  0.00     0.034 C 
HETATM   12  C8  UNL     1      62.865 -30.227  33.219  1.00  0.00     0.002 C 
HETATM   13  C9  UNL     1      63.042 -30.553  34.695  1.00  0.00     0.000 C 
HETATM   14  C10 UNL     1      61.648 -30.751  35.255  1.00  0.00     0.002 C 
HETATM   15  C11 UNL     1      60.842 -29.510  35.094  1.00  0.00     0.034 C 
ENDBRANCH   9  10
ENDBRANCH   8   9
BRANCH   1  16
HETATM   16  N1  UNL     1      60.213 -29.318  30.334  1.00  0.00    -0.056 N 
ATOM     17  H13 UNL     1      60.985 -29.121  30.970  1.00  0.00     0.276 HD
ATOM     18  H12 UNL     1      60.445 -30.290  30.129  1.00  0.00     0.276 HD
ATOM     19  H11 UNL     1      60.231 -28.727  29.502  1.00  0.00     0.276 HD
ENDBRANCH   1  16
TORSDOF 3
ENDMDL
MODEL 2
REMARK VINA RESULT: -7.544495076      1.506      1.950
REMARK  3 active torsions:
REMARK  status: ('A' for Active; 'I' for Inactive)
REMARK    1  A    between atoms: N1_1  and  C1_5 
REMARK    2  A    between atoms: N2_12  and  O2_13 
REMARK    3  A    between atoms: O2_13  and  C6_14 
ROOT
HETATM    1  C1  UNL     1      60.063 -29.196  31.887  1.00  0.00     0.314 C 
HETATM    2  C2  UNL     1      59.573 -29.592  30.536  1.00  0.00     0.067 C 
HETATM    3  C3  UNL     1      58.732 -28.433  29.989  1.00  0.00     0.078 C 
HETATM    4  S1  UNL     1      57.029 -28.793  30.448  1.00  0.00    -0.160 SA
HETATM    5  C4  UNL     1      56.839 -28.719  32.238  1.00  0.00     0.179 C 
HETATM    6  C5  UNL     1      57.789 -29.567  32.969  1.00  0.00     0.254 C 
HETATM    7  O1  UNL     1      57.223 -30.365  33.752  1.00  0.00    -0.270 OA
HETATM    8  N2  UNL     1      59.202 -29.672  32.976  1.00  0.00    -0.194 N 
ENDROOT
BRANCH   8   9
HETATM    9  O2  UNL     1      59.891 -30.202  33.978  1.00  0.00    -0.268 OA
BRANCH   9  10
HETATM   10  C6  UNL     1      60.445 -29.428  34.923  1.00  0.00     0.152 C 
HETATM   11  C7  UNL     1      61.795 -30.033  35.322  1.00  0.00     0.034 C 
HETATM   12  C8  UNL     1      61.545 -31.468  35.819  1.00  0.00     0.002 C 
HETATM   13  C9  UNL     1      60.879 -31.294  37.176  1.00  0.00     0.000 C 
HETATM   14  C10 UNL     1      59.515 -30.695  36.906  1.00  0.00     0.002 C 
HETATM   15  C11 UNL     1      59.651 -29.377  36.226  1.00  0.00     0.034 C 
ENDBRANCH   9  10
ENDBRANCH   8   9
BRANCH   1  16
HETATM   16  N1  UNL     1      61.425 -29.625  32.020  1.00  0.00    -0.056 N 
ATOM     17  H13 UNL     1      61.683 -29.820  32.988  1.00  0.00     0.276 HD
ATOM     18  H12 UNL     1      61.580 -30.560  31.643  1.00  0.00     0.276 HD
ATOM     19  H11 UNL     1      62.027 -28.924  31.589  1.00  0.00     0.276 HD
ENDBRANCH   1  16
TORSDOF 3
ENDMDL
MODEL 3
REMARK VINA RESULT: -7.495749838      2.448      5.610
REMARK  3 active torsions:
REMARK  status: ('A' for Active; 'I' for Inactive)
REMARK    1  A    between atoms: N1_1  and  C1_5 
REMARK    2  A    between atoms: N2_12  and  O2_13 
REMARK    3  A    between atoms: O2_13  and  C6_14 
ROOT
HETATM    1  C1  UNL     1      59.673 -30.300  35.002  1.00  0.00     0.314 C 
HETATM    2  C2  UNL     1      60.675 -31.327  35.411  1.00  0.00     0.067 C 
HETATM    3  C3  UNL     1      61.915 -30.586  35.923  1.00  0.00     0.078 C 
HETATM    4  S1  UNL     1      63.016 -30.421  34.510  1.00  0.00    -0.160 SA
HETATM    5  C4  UNL     1      62.286 -29.332  33.275  1.00  0.00     0.179 C 
HETATM    6  C5  UNL     1      60.932 -29.728  32.865  1.00  0.00     0.254 C 
HETATM    7  O1  UNL     1      60.825 -29.874  31.625  1.00  0.00    -0.270 OA
HETATM    8  N2  UNL     1      59.729 -29.976  33.572  1.00  0.00    -0.194 N 
ENDROOT
BRANCH   8   9
HETATM    9  O2  UNL     1      58.528 -29.929  33.011  1.00  0.00    -0.268 OA
BRANCH   9  10
HETATM   10  C6  UNL     1      57.837 -28.781  32.952  1.00  0.00     0.152 C 
HETATM   11  C7  UNL     1      56.345 -29.113  32.846  1.00  0.00     0.034 C 
HETATM   12  C8  UNL     1      56.138 -29.981  31.591  1.00  0.00     0.002 C 
HETATM   13  C9  UNL     1      56.317 -29.019  30.426  1.00  0.00     0.000 C 
HETATM   14  C10 UNL     1      57.777 -28.616  30.428  1.00  0.00     0.002 C 
HETATM   15  C11 UNL     1      58.129 -27.943  31.709  1.00  0.00     0.034 C 
ENDBRANCH   9  10
ENDBRANCH   8   9
BRANCH   1  16
HETATM   16  N1  UNL     1      58.375 -30.738  35.428  1.00  0.00    -0.056 N 
ATOM     17  H13 UNL     1      57.651 -30.556  34.732  1.00  0.00     0.276 HD
ATOM     18  H12 UNL     1      58.292 -31.755  35.452  1.00  0.00     0.276 HD
ATOM     19  H11 UNL     1      58.169 -30.306  36.329  1.00  0.00     0.276 HD
ENDBRANCH   1  16
TORSDOF 3
ENDMDL
MODEL 4
REMARK VINA RESULT: -6.939477697      2.027      3.034
REMARK  3 active torsions:
REMARK  status: ('A' for Active; 'I' for Inactive)
REMARK    1  A    between atoms: N1_1  and  C1_5 
REMARK    2  A    between atoms: N2_12  and  O2_13 
REMARK    3  A    between atoms: O2_13  and  C6_14 
ROOT
HETATM    1  C1  UNL     1      60.565 -28.982  33.057  1.00  0.00     0.314 C 
HETATM    2  C2  UNL     1      60.540 -29.562  31.684  1.00  0.00     0.067 C 
HETATM    3  C3  UNL     1      59.747 -28.602  30.790  1.00  0.00     0.078 C 
HETATM    4  S1  UNL     1      58.047 -29.192  30.811  1.00  0.00    -0.160 SA
HETATM    5  C4  UNL     1      57.343 -29.001  32.458  1.00  0.00     0.179 C 
HETATM    6  C5  UNL     1      58.146 -29.623  33.519  1.00  0.00     0.254 C 
HETATM    7  O1  UNL     1      57.488 -30.434  34.212  1.00  0.00    -0.270 OA
HETATM    8  N2  UNL     1      59.498 -29.498  33.922  1.00  0.00    -0.194 N 
ENDROOT
BRANCH   8   9
HETATM    9  O2  UNL     1      59.935 -29.827  35.131  1.00  0.00    -0.268 OA
BRANCH   9  10
HETATM   10  C6  UNL     1      59.822 -31.083  35.589  1.00  0.00     0.152 C 
HETATM   11  C7  UNL     1      59.175 -31.041  36.978  1.00  0.00     0.034 C 
HETATM   12  C8  UNL     1      60.057 -30.167  37.887  1.00  0.00     0.002 C 
HETATM   13  C9  UNL     1      61.292 -31.015  38.156  1.00  0.00     0.000 C 
HETATM   14  C10 UNL     1      62.025 -31.127  36.835  1.00  0.00     0.002 C 
HETATM   15  C11 UNL     1      61.160 -31.784  35.814  1.00  0.00     0.034 C 
ENDBRANCH   9  10
ENDBRANCH   8   9
BRANCH   1  16
HETATM   16  N1  UNL     1      61.876 -29.175  33.607  1.00  0.00    -0.056 N 
ATOM     17  H13 UNL     1      62.130 -30.160  33.682  1.00  0.00     0.276 HD
ATOM     18  H12 UNL     1      62.617 -28.890  32.965  1.00  0.00     0.276 HD
ATOM     19  H11 UNL     1      61.925 -28.688  34.502  1.00  0.00     0.276 HD
ENDBRANCH   1  16
TORSDOF 3
ENDMDL
MODEL 5
REMARK VINA RESULT: -6.910075099      2.570      5.523
REMARK  3 active torsions:
REMARK  status: ('A' for Active; 'I' for Inactive)
REMARK    1  A    between atoms: N1_1  and  C1_5 
REMARK    2  A    between atoms: N2_12  and  O2_13 
REMARK    3  A    between atoms: O2_13  and  C6_14 
ROOT
HETATM    1  C1  UNL     1      59.356 -30.080  34.788  1.00  0.00     0.314 C 
HETATM    2  C2  UNL     1      59.910 -31.250  35.528  1.00  0.00     0.067 C 
HETATM    3  C3  UNL     1      60.976 -30.724  36.496  1.00  0.00     0.078 C 
HETATM    4  S1  UNL     1      62.544 -30.840  35.621  1.00  0.00    -0.160 SA
HETATM    5  C4  UNL     1      62.563 -29.701  34.225  1.00  0.00     0.179 C 
HETATM    6  C5  UNL     1      61.420 -29.862  33.316  1.00  0.00     0.254 C 
HETATM    7  O1  UNL     1      61.770 -30.051  32.127  1.00  0.00    -0.270 OA
HETATM    8  N2  UNL     1      60.016 -29.848  33.499  1.00  0.00    -0.194 N 
ENDROOT
BRANCH   8   9
HETATM    9  O2  UNL     1      59.153 -29.610  32.519  1.00  0.00    -0.268 OA
BRANCH   9  10
HETATM   10  C6  UNL     1      59.103 -28.412  31.917  1.00  0.00     0.152 C 
HETATM   11  C7  UNL     1      57.699 -27.828  32.104  1.00  0.00     0.034 C 
HETATM   12  C8  UNL     1      56.687 -28.822  31.506  1.00  0.00     0.002 C 
HETATM   13  C9  UNL     1      56.868 -28.695  30.000  1.00  0.00     0.000 C 
HETATM   14  C10 UNL     1      58.243 -29.251  29.690  1.00  0.00     0.002 C 
HETATM   15  C11 UNL     1      59.292 -28.470  30.403  1.00  0.00     0.034 C 
ENDBRANCH   9  10
ENDBRANCH   8   9
BRANCH   1  16
HETATM   16  N1  UNL     1      57.936 -30.248  34.671  1.00  0.00    -0.056 N 
ATOM     17  H13 UNL     1      57.533 -29.674  33.930  1.00  0.00     0.276 HD
ATOM     18  H12 UNL     1      57.679 -31.161  34.294  1.00  0.00     0.276 HD
ATOM     19  H11 UNL     1      57.513 -30.067  35.581  1.00  0.00     0.276 HD
ENDBRANCH   1  16
TORSDOF 3
ENDMDL
