MODEL 1
REMARK VINA RESULT: -8.650981066      0.000      0.000
REMARK  3 active torsions:
REMARK  status: ('A' for Active; 'I' for Inactive)
REMARK    1  A    between atoms: C13_15  and  C14_16 
REMARK    2  A    between atoms: C14_16  and  O3_17 
REMARK    3  A    between atoms: O3_17  and  O4_18 
ROOT
HETATM    1  C1  UNL     1      58.898 -27.396  32.258  1.00  0.00     0.051 C 
HETATM    2  C2  UNL     1      59.402 -28.799  32.506  1.00  0.00     0.078 C 
HETATM    3  C3  UNL     1      59.242 -29.565  31.207  1.00  0.00     0.051 C 
HETATM    4  O1  UNL     1      60.740 -28.683  32.867  1.00  0.00    -0.370 OA
HETATM    5  C4  UNL     1      61.370 -29.883  33.148  1.00  0.00     0.135 C 
HETATM    6  C5  UNL     1      62.834 -29.570  33.386  1.00  0.00     0.110 C 
HETATM    7  C6  UNL     1      63.150 -30.416  34.599  1.00  0.00     0.129 C 
HETATM    8  O2  UNL     1      64.148 -31.052  34.815  1.00  0.00    -0.298 OA
HETATM    9  C7  UNL     1      61.927 -30.259  35.437  1.00  0.00     0.086 C 
HETATM   10  C8  UNL     1      60.845 -30.514  34.412  1.00  0.00     0.034 C 
HETATM   11  C9  UNL     1      59.506 -29.964  34.823  1.00  0.00    -0.015 C 
HETATM   12  C10 UNL     1      59.613 -28.886  35.883  1.00  0.00     0.020 C 
HETATM   13  C11 UNL     1      58.753 -31.103  35.476  1.00  0.00     0.020 C 
HETATM   14  C12 UNL     1      58.696 -29.470  33.654  1.00  0.00    -0.040 C 
HETATM   15  C13 UNL     1      57.386 -29.659  33.698  1.00  0.00     0.009 C 
ENDROOT
BRANCH  15  16
HETATM   16  C14 UNL     1      56.382 -29.284  32.695  1.00  0.00     0.237 C 
BRANCH  16  17
HETATM   17  O3  UNL     1      55.299 -30.196  32.672  1.00  0.00    -0.240 OA
BRANCH  17  18
HETATM   18  O4  UNL     1      55.848 -31.408  32.768  1.00  0.00    -0.250 OA
ATOM     19  H4  UNL     1      56.489 -31.344  33.466  1.00  0.00     0.253 HD
ENDBRANCH  17  18
ENDBRANCH  16  17
ENDBRANCH  15  16
TORSDOF 3
ENDMDL
MODEL 2
REMARK VINA RESULT: -8.596983371      1.389      5.573
REMARK  3 active torsions:
REMARK  status: ('A' for Active; 'I' for Inactive)
REMARK    1  A    between atoms: C13_15  and  C14_16 
REMARK    2  A    between atoms: C14_16  and  O3_17 
REMARK    3  A    between atoms: O3_17  and  O4_18 
ROOT
HETATM    1  C1  UNL     1      59.506 -28.955  36.225  1.00  0.00     0.051 C 
HETATM    2  C2  UNL     1      59.229 -29.790  34.997  1.00  0.00     0.078 C 
HETATM    3  C3  UNL     1      59.104 -31.230  35.456  1.00  0.00     0.051 C 
HETATM    4  O1  UNL     1      58.035 -29.322  34.459  1.00  0.00    -0.370 OA
HETATM    5  C4  UNL     1      57.626 -29.968  33.306  1.00  0.00     0.135 C 
HETATM    6  C5  UNL     1      56.259 -29.419  32.951  1.00  0.00     0.110 C 
HETATM    7  C6  UNL     1      56.369 -29.226  31.455  1.00  0.00     0.129 C 
HETATM    8  O2  UNL     1      55.535 -29.453  30.618  1.00  0.00    -0.298 OA
HETATM    9  C7  UNL     1      57.752 -28.694  31.293  1.00  0.00     0.086 C 
HETATM   10  C8  UNL     1      58.534 -29.673  32.140  1.00  0.00     0.034 C 
HETATM   11  C9  UNL     1      59.874 -29.137  32.569  1.00  0.00    -0.015 C 
HETATM   12  C10 UNL     1      59.955 -27.626  32.497  1.00  0.00     0.020 C 
HETATM   13  C11 UNL     1      60.884 -29.647  31.563  1.00  0.00     0.020 C 
HETATM   14  C12 UNL     1      60.283 -29.619  33.936  1.00  0.00    -0.040 C 
HETATM   15  C13 UNL     1      61.568 -29.875  34.132  1.00  0.00     0.009 C 
ENDROOT
BRANCH  15  16
HETATM   16  C14 UNL     1      62.219 -30.358  35.355  1.00  0.00     0.237 C 
BRANCH  16  17
HETATM   17  O3  UNL     1      62.996 -31.517  35.111  1.00  0.00    -0.240 OA
BRANCH  17  18
HETATM   18  O4  UNL     1      64.209 -31.074  34.783  1.00  0.00    -0.250 OA
ATOM     19  H4  UNL     1      64.469 -31.579  34.021  1.00  0.00     0.253 HD
ENDBRANCH  17  18
ENDBRANCH  16  17
ENDBRANCH  15  16
TORSDOF 3
ENDMDL
MODEL 3
REMARK VINA RESULT: -8.282327386      1.495      5.767
REMARK  3 active torsions:
REMARK  status: ('A' for Active; 'I' for Inactive)
REMARK    1  A    between atoms: C13_15  and  C14_16 
REMARK    2  A    between atoms: C14_16  and  O3_17 
REMARK    3  A    between atoms: O3_17  and  O4_18 
ROOT
HETATM    1  C1  UNL     1      59.759 -27.946  34.683  1.00  0.00     0.051 C 
HETATM    2  C2  UNL     1      59.272 -29.117  33.862  1.00  0.00     0.078 C 
HETATM    3  C3  UNL     1      59.662 -30.377  34.611  1.00  0.00     0.051 C 
HETATM    4  O1  UNL     1      57.892 -28.989  33.766  1.00  0.00    -0.370 OA
HETATM    5  C4  UNL     1      57.267 -29.979  33.027  1.00  0.00     0.135 C 
HETATM    6  C5  UNL     1      55.775 -29.747  33.147  1.00  0.00     0.110 C 
HETATM    7  C6  UNL     1      55.302 -29.961  31.727  1.00  0.00     0.129 C 
HETATM    8  O2  UNL     1      54.305 -30.524  31.357  1.00  0.00    -0.298 OA
HETATM    9  C7  UNL     1      56.371 -29.304  30.922  1.00  0.00     0.086 C 
HETATM   10  C8  UNL     1      57.609 -29.891  31.562  1.00  0.00     0.034 C 
HETATM   11  C9  UNL     1      58.847 -29.075  31.302  1.00  0.00    -0.015 C 
HETATM   12  C10 UNL     1      58.537 -27.647  30.903  1.00  0.00     0.020 C 
HETATM   13  C11 UNL     1      59.527 -29.694  30.100  1.00  0.00     0.020 C 
HETATM   14  C12 UNL     1      59.813 -29.099  32.457  1.00  0.00    -0.040 C 
HETATM   15  C13 UNL     1      61.105 -29.107  32.169  1.00  0.00     0.009 C 
ENDROOT
BRANCH  15  16
HETATM   16  C14 UNL     1      62.240 -29.137  33.100  1.00  0.00     0.237 C 
BRANCH  16  17
HETATM   17  O3  UNL     1      63.085 -30.248  32.858  1.00  0.00    -0.240 OA
BRANCH  17  18
HETATM   18  O4  UNL     1      63.704 -30.488  34.014  1.00  0.00    -0.250 OA
ATOM     19  H4  UNL     1      64.337 -29.788  34.117  1.00  0.00     0.253 HD
ENDBRANCH  17  18
ENDBRANCH  16  17
ENDBRANCH  15  16
TORSDOF 3
ENDMDL
MODEL 4
REMARK VINA RESULT: -7.294904561      1.913      5.101
REMARK  3 active torsions:
REMARK  status: ('A' for Active; 'I' for Inactive)
REMARK    1  A    between atoms: C13_15  and  C14_16 
REMARK    2  A    between atoms: C14_16  and  O3_17 
REMARK    3  A    between atoms: O3_17  and  O4_18 
ROOT
HETATM    1  C1  UNL     1      59.418 -28.599  36.140  1.00  0.00     0.051 C 
HETATM    2  C2  UNL     1      59.493 -29.546  34.965  1.00  0.00     0.078 C 
HETATM    3  C3  UNL     1      58.733 -30.799  35.356  1.00  0.00     0.051 C 
HETATM    4  O1  UNL     1      58.890 -28.899  33.893  1.00  0.00    -0.370 OA
HETATM    5  C4  UNL     1      58.879 -29.620  32.712  1.00  0.00     0.135 C 
HETATM    6  C5  UNL     1      58.073 -28.819  31.710  1.00  0.00     0.110 C 
HETATM    7  C6  UNL     1      58.911 -28.936  30.457  1.00  0.00     0.129 C 
HETATM    8  O2  UNL     1      58.530 -29.094  29.326  1.00  0.00    -0.298 OA
HETATM    9  C7  UNL     1      60.302 -28.809  30.978  1.00  0.00     0.086 C 
HETATM   10  C8  UNL     1      60.262 -29.781  32.135  1.00  0.00     0.034 C 
HETATM   11  C9  UNL     1      61.347 -29.532  33.148  1.00  0.00    -0.015 C 
HETATM   12  C10 UNL     1      61.914 -28.130  33.071  1.00  0.00     0.020 C 
HETATM   13  C11 UNL     1      62.492 -30.455  32.790  1.00  0.00     0.020 C 
HETATM   14  C12 UNL     1      60.911 -29.844  34.556  1.00  0.00    -0.040 C 
HETATM   15  C13 UNL     1      61.812 -30.375  35.368  1.00  0.00     0.009 C 
ENDROOT
BRANCH  15  16
HETATM   16  C14 UNL     1      61.643 -30.775  36.770  1.00  0.00     0.237 C 
BRANCH  16  17
HETATM   17  O3  UNL     1      61.992 -32.133  36.972  1.00  0.00    -0.240 OA
BRANCH  17  18
HETATM   18  O4  UNL     1      62.191 -32.262  38.284  1.00  0.00    -0.250 OA
ATOM     19  H4  UNL     1      61.489 -32.822  38.596  1.00  0.00     0.253 HD
ENDBRANCH  17  18
ENDBRANCH  16  17
ENDBRANCH  15  16
TORSDOF 3
ENDMDL
MODEL 5
REMARK VINA RESULT: -6.691459176      1.580      1.845
REMARK  3 active torsions:
REMARK  status: ('A' for Active; 'I' for Inactive)
REMARK    1  A    between atoms: C13_15  and  C14_16 
REMARK    2  A    between atoms: C14_16  and  O3_17 
REMARK    3  A    between atoms: O3_17  and  O4_18 
ROOT
HETATM    1  C1  UNL     1      57.356 -27.812  30.526  1.00  0.00     0.051 C 
HETATM    2  C2  UNL     1      58.165 -28.943  31.116  1.00  0.00     0.078 C 
HETATM    3  C3  UNL     1      58.104 -30.094  30.131  1.00  0.00     0.051 C 
HETATM    4  O1  UNL     1      59.463 -28.469  31.265  1.00  0.00    -0.370 OA
HETATM    5  C4  UNL     1      60.353 -29.377  31.813  1.00  0.00     0.135 C 
HETATM    6  C5  UNL     1      61.724 -28.733  31.772  1.00  0.00     0.110 C 
HETATM    7  C6  UNL     1      62.281 -29.079  33.135  1.00  0.00     0.129 C 
HETATM    8  O2  UNL     1      63.404 -29.413  33.410  1.00  0.00    -0.298 OA
HETATM    9  C7  UNL     1      61.101 -28.901  34.027  1.00  0.00     0.086 C 
HETATM   10  C8  UNL     1      60.046 -29.666  33.260  1.00  0.00     0.034 C 
HETATM   11  C9  UNL     1      58.644 -29.278  33.645  1.00  0.00    -0.015 C 
HETATM   12  C10 UNL     1      58.571 -27.923  34.318  1.00  0.00     0.020 C 
HETATM   13  C11 UNL     1      58.192 -30.276  34.691  1.00  0.00     0.020 C 
HETATM   14  C12 UNL     1      57.683 -29.340  32.487  1.00  0.00    -0.040 C 
HETATM   15  C13 UNL     1      56.450 -29.751  32.739  1.00  0.00     0.009 C 
ENDROOT
BRANCH  15  16
HETATM   16  C14 UNL     1      55.336 -29.907  31.796  1.00  0.00     0.237 C 
BRANCH  16  17
HETATM   17  O3  UNL     1      54.375 -30.833  32.271  1.00  0.00    -0.240 OA
BRANCH  17  18
HETATM   18  O4  UNL     1      54.236 -30.572  33.571  1.00  0.00    -0.250 OA
ATOM     19  H4  UNL     1      53.581 -29.887  33.627  1.00  0.00     0.253 HD
ENDBRANCH  17  18
ENDBRANCH  16  17
ENDBRANCH  15  16
TORSDOF 3
ENDMDL
