MODEL 1
REMARK VINA RESULT: -9.586164695      0.000      0.000
REMARK  3 active torsions:
REMARK  status: ('A' for Active; 'I' for Inactive)
REMARK    1  A    between atoms: C2_2  and  C3_3 
REMARK    2  A    between atoms: C5_5  and  C6_6 
REMARK    3  A    between atoms: C12_12  and  O1_13 
ROOT
HETATM    1  C6  UNL     1      61.146 -30.157  35.476  1.00  0.00     0.083 C 
HETATM    2  C7  UNL     1      59.733 -30.617  35.111  1.00  0.00     0.020 C 
HETATM    3  C8  UNL     1      59.058 -29.445  34.439  1.00  0.00     0.040 C 
HETATM    4  C9  UNL     1      59.798 -28.922  33.257  1.00  0.00     0.069 C 
HETATM    5  C10 UNL     1      59.056 -29.285  31.995  1.00  0.00     0.041 C 
HETATM    6  C11 UNL     1      58.595 -28.069  31.224  1.00  0.00     0.034 C 
HETATM    7  C12 UNL     1      57.804 -27.121  32.095  1.00  0.00     0.118 C 
HETATM    8  C13 UNL     1      58.533 -26.771  33.374  1.00  0.00     0.034 C 
HETATM    9  C14 UNL     1      59.895 -27.414  33.306  1.00  0.00     0.041 C 
HETATM   10  O2  UNL     1      61.121 -29.417  33.150  1.00  0.00    -0.328 OA
HETATM   11  C15 UNL     1      61.829 -29.961  34.186  1.00  0.00     0.120 C 
HETATM   12  N1  UNL     1      63.049 -30.296  34.055  1.00  0.00    -0.383 N 
ATOM     13  H11 UNL     1      63.522 -30.161  33.162  1.00  0.00     0.158 HD
ATOM     14  H12 UNL     1      63.577 -30.702  34.828  1.00  0.00     0.158 HD
ENDROOT
BRANCH   1  15
HETATM   15  C5  UNL     1      61.843 -31.122  36.325  1.00  0.00    -0.012 C 
HETATM   16  C3  UNL     1      61.427 -31.387  37.545  1.00  0.00    -0.087 C 
HETATM   17  C4  UNL     1      60.229 -30.708  38.095  1.00  0.00     0.043 C 
BRANCH  16  18
HETATM   18  C2  UNL     1      62.147 -32.365  38.385  1.00  0.00     0.029 C 
HETATM   19  C1  UNL     1      63.047 -31.697  39.402  1.00  0.00     0.010 C 
ENDBRANCH  16  18
ENDBRANCH   1  15
BRANCH   7  20
HETATM   20  O1  UNL     1      57.553 -25.956  31.412  1.00  0.00    -0.396 OA
ATOM     21  H1  UNL     1      57.123 -25.331  31.985  1.00  0.00     0.210 HD
ENDBRANCH   7  20
TORSDOF 3
ENDMDL
MODEL 2
REMARK VINA RESULT: -9.279835554      2.598      6.853
REMARK  3 active torsions:
REMARK  status: ('A' for Active; 'I' for Inactive)
REMARK    1  A    between atoms: C2_2  and  C3_3 
REMARK    2  A    between atoms: C5_5  and  C6_6 
REMARK    3  A    between atoms: C12_12  and  O1_13 
ROOT
HETATM    1  C6  UNL     1      59.009 -27.695  32.101  1.00  0.00     0.083 C 
HETATM    2  C7  UNL     1      58.902 -29.219  32.180  1.00  0.00     0.020 C 
HETATM    3  C8  UNL     1      60.287 -29.733  32.492  1.00  0.00     0.040 C 
HETATM    4  C9  UNL     1      60.880 -29.150  33.728  1.00  0.00     0.069 C 
HETATM    5  C10 UNL     1      60.913 -30.197  34.814  1.00  0.00     0.041 C 
HETATM    6  C11 UNL     1      62.320 -30.516  35.267  1.00  0.00     0.034 C 
HETATM    7  C12 UNL     1      63.214 -30.878  34.103  1.00  0.00     0.118 C 
HETATM    8  C13 UNL     1      63.167 -29.844  32.999  1.00  0.00     0.034 C 
HETATM    9  C14 UNL     1      62.304 -28.706  33.484  1.00  0.00     0.041 C 
HETATM   10  O2  UNL     1      60.175 -28.025  34.221  1.00  0.00    -0.328 OA
HETATM   11  C15 UNL     1      59.318 -27.262  33.476  1.00  0.00     0.120 C 
HETATM   12  N1  UNL     1      58.791 -26.203  33.942  1.00  0.00    -0.383 N 
ATOM     13  H11 UNL     1      59.004 -25.903  34.893  1.00  0.00     0.158 HD
ATOM     14  H12 UNL     1      58.152 -25.634  33.386  1.00  0.00     0.158 HD
ENDROOT
BRANCH   1  15
HETATM   15  C5  UNL     1      57.784 -27.076  31.594  1.00  0.00    -0.012 C 
HETATM   16  C3  UNL     1      57.360 -27.303  30.370  1.00  0.00    -0.087 C 
HETATM   17  C4  UNL     1      58.118 -28.199  29.464  1.00  0.00     0.043 C 
BRANCH  16  18
HETATM   18  C2  UNL     1      56.120 -26.667  29.878  1.00  0.00     0.029 C 
HETATM   19  C1  UNL     1      55.724 -25.464  30.706  1.00  0.00     0.010 C 
ENDBRANCH  16  18
ENDBRANCH   1  15
BRANCH   7  20
HETATM   20  O1  UNL     1      64.514 -30.991  34.528  1.00  0.00    -0.396 OA
ATOM     21  H1  UNL     1      64.850 -31.855  34.317  1.00  0.00     0.210 HD
ENDBRANCH   7  20
TORSDOF 3
ENDMDL
MODEL 3
REMARK VINA RESULT: -9.276648473      1.001      1.130
REMARK  3 active torsions:
REMARK  status: ('A' for Active; 'I' for Inactive)
REMARK    1  A    between atoms: C2_2  and  C3_3 
REMARK    2  A    between atoms: C5_5  and  C6_6 
REMARK    3  A    between atoms: C12_12  and  O1_13 
ROOT
HETATM    1  C6  UNL     1      60.684 -29.522  34.744  1.00  0.00     0.083 C 
HETATM    2  C7  UNL     1      59.320 -30.061  34.308  1.00  0.00     0.020 C 
HETATM    3  C8  UNL     1      58.531 -28.878  33.802  1.00  0.00     0.040 C 
HETATM    4  C9  UNL     1      59.209 -28.126  32.709  1.00  0.00     0.069 C 
HETATM    5  C10 UNL     1      58.497 -28.381  31.403  1.00  0.00     0.041 C 
HETATM    6  C11 UNL     1      57.917 -27.119  30.805  1.00  0.00     0.034 C 
HETATM    7  C12 UNL     1      57.043 -26.382  31.794  1.00  0.00     0.118 C 
HETATM    8  C13 UNL     1      57.743 -26.144  33.114  1.00  0.00     0.034 C 
HETATM    9  C14 UNL     1      59.161 -26.637  32.968  1.00  0.00     0.041 C 
HETATM   10  O2  UNL     1      60.573 -28.472  32.543  1.00  0.00    -0.328 OA
HETATM   11  C15 UNL     1      61.337 -29.084  33.498  1.00  0.00     0.120 C 
HETATM   12  N1  UNL     1      62.583 -29.279  33.331  1.00  0.00    -0.383 N 
ATOM     13  H11 UNL     1      63.035 -28.976  32.469  1.00  0.00     0.158 HD
ATOM     14  H12 UNL     1      63.153 -29.735  34.043  1.00  0.00     0.158 HD
ENDROOT
BRANCH   1  15
HETATM   15  C5  UNL     1      61.477 -30.524  35.456  1.00  0.00    -0.012 C 
HETATM   16  C3  UNL     1      61.116 -30.966  36.641  1.00  0.00    -0.087 C 
HETATM   17  C4  UNL     1      59.885 -30.456  37.292  1.00  0.00     0.043 C 
BRANCH  16  18
HETATM   18  C2  UNL     1      61.932 -31.979  37.342  1.00  0.00     0.029 C 
HETATM   19  C1  UNL     1      62.155 -31.630  38.797  1.00  0.00     0.010 C 
ENDBRANCH  16  18
ENDBRANCH   1  15
BRANCH   7  20
HETATM   20  O1  UNL     1      56.677 -25.163  31.278  1.00  0.00    -0.396 OA
ATOM     21  H1  UNL     1      55.758 -25.175  31.038  1.00  0.00     0.210 HD
ENDBRANCH   7  20
TORSDOF 3
ENDMDL
MODEL 4
REMARK VINA RESULT: -9.072830155      2.536      7.086
REMARK  3 active torsions:
REMARK  status: ('A' for Active; 'I' for Inactive)
REMARK    1  A    between atoms: C2_2  and  C3_3 
REMARK    2  A    between atoms: C5_5  and  C6_6 
REMARK    3  A    between atoms: C12_12  and  O1_13 
ROOT
HETATM    1  C6  UNL     1      57.853 -27.079  32.047  1.00  0.00     0.083 C 
HETATM    2  C7  UNL     1      58.878 -26.437  32.984  1.00  0.00     0.020 C 
HETATM    3  C8  UNL     1      59.239 -27.485  34.010  1.00  0.00     0.040 C 
HETATM    4  C9  UNL     1      59.742 -28.756  33.419  1.00  0.00     0.069 C 
HETATM    5  C10 UNL     1      61.224 -28.879  33.671  1.00  0.00     0.041 C 
HETATM    6  C11 UNL     1      61.570 -30.085  34.516  1.00  0.00     0.034 C 
HETATM    7  C12 UNL     1      60.771 -30.117  35.798  1.00  0.00     0.118 C 
HETATM    8  C13 UNL     1      59.285 -29.970  35.554  1.00  0.00     0.034 C 
HETATM    9  C14 UNL     1      59.073 -29.951  34.061  1.00  0.00     0.041 C 
HETATM   10  O2  UNL     1      59.522 -28.861  32.024  1.00  0.00    -0.328 OA
HETATM   11  C15 UNL     1      58.597 -28.130  31.330  1.00  0.00     0.120 C 
HETATM   12  N1  UNL     1      58.372 -28.338  30.095  1.00  0.00    -0.383 N 
ATOM     13  H11 UNL     1      58.887 -29.065  29.599  1.00  0.00     0.158 HD
ATOM     14  H12 UNL     1      57.682 -27.793  29.578  1.00  0.00     0.158 HD
ENDROOT
BRANCH   1  15
HETATM   15  C5  UNL     1      57.253 -26.109  31.130  1.00  0.00    -0.012 C 
HETATM   16  C3  UNL     1      56.285 -25.308  31.519  1.00  0.00    -0.087 C 
HETATM   17  C4  UNL     1      55.772 -25.368  32.909  1.00  0.00     0.043 C 
BRANCH  16  18
HETATM   18  C2  UNL     1      55.694 -24.337  30.576  1.00  0.00     0.029 C 
HETATM   19  C1  UNL     1      54.665 -24.972  29.667  1.00  0.00     0.010 C 
ENDBRANCH  16  18
ENDBRANCH   1  15
BRANCH   7  20
HETATM   20  O1  UNL     1      60.982 -31.306  36.453  1.00  0.00    -0.396 OA
ATOM     21  H1  UNL     1      61.827 -31.665  36.207  1.00  0.00     0.210 HD
ENDBRANCH   7  20
TORSDOF 3
ENDMDL
MODEL 5
REMARK VINA RESULT: -8.510631647      1.937      2.750
REMARK  3 active torsions:
REMARK  status: ('A' for Active; 'I' for Inactive)
REMARK    1  A    between atoms: C2_2  and  C3_3 
REMARK    2  A    between atoms: C5_5  and  C6_6 
REMARK    3  A    between atoms: C12_12  and  O1_13 
ROOT
HETATM    1  C6  UNL     1      60.326 -30.065  34.743  1.00  0.00     0.083 C 
HETATM    2  C7  UNL     1      60.850 -28.700  34.293  1.00  0.00     0.020 C 
HETATM    3  C8  UNL     1      60.530 -28.578  32.823  1.00  0.00     0.040 C 
HETATM    4  C9  UNL     1      59.085 -28.753  32.506  1.00  0.00     0.069 C 
HETATM    5  C10 UNL     1      58.488 -27.422  32.119  1.00  0.00     0.041 C 
HETATM    6  C11 UNL     1      57.962 -27.414  30.701  1.00  0.00     0.034 C 
HETATM    7  C12 UNL     1      59.009 -27.876  29.714  1.00  0.00     0.118 C 
HETATM    8  C13 UNL     1      59.629 -29.198  30.109  1.00  0.00     0.034 C 
HETATM    9  C14 UNL     1      58.900 -29.690  31.334  1.00  0.00     0.041 C 
HETATM   10  O2  UNL     1      58.327 -29.281  33.580  1.00  0.00    -0.328 OA
HETATM   11  C15 UNL     1      58.859 -29.964  34.640  1.00  0.00     0.120 C 
HETATM   12  N1  UNL     1      58.121 -30.504  35.523  1.00  0.00    -0.383 N 
ATOM     13  H11 UNL     1      57.106 -30.433  35.452  1.00  0.00     0.158 HD
ATOM     14  H12 UNL     1      58.518 -31.013  36.313  1.00  0.00     0.158 HD
ENDROOT
BRANCH   1  15
HETATM   15  C5  UNL     1      60.757 -30.408  36.098  1.00  0.00    -0.012 C 
HETATM   16  C3  UNL     1      61.927 -30.965  36.323  1.00  0.00    -0.087 C 
HETATM   17  C4  UNL     1      62.847 -31.262  35.199  1.00  0.00     0.043 C 
BRANCH  16  18
HETATM   18  C2  UNL     1      62.342 -31.304  37.699  1.00  0.00     0.029 C 
HETATM   19  C1  UNL     1      61.164 -31.639  38.588  1.00  0.00     0.010 C 
ENDBRANCH  16  18
ENDBRANCH   1  15
BRANCH   7  20
HETATM   20  O1  UNL     1      58.448 -28.021  28.469  1.00  0.00    -0.396 OA
ATOM     21  H1  UNL     1      58.243 -27.167  28.104  1.00  0.00     0.210 HD
ENDBRANCH   7  20
TORSDOF 3
ENDMDL
