MODEL 1
REMARK VINA RESULT: -7.952596668      0.000      0.000
REMARK  10 active torsions:
REMARK  status: ('A' for Active; 'I' for Inactive)
REMARK    1  A    between atoms: C2_2  and  O1_3 
REMARK    2  A    between atoms: O1_3  and  C3_4 
REMARK    3  A    between atoms: C3_4  and  C4_5 
REMARK       I    between atoms: C4_5  and  N1_7 
REMARK    4  A    between atoms: N1_7  and  C5_9 
REMARK    5  A    between atoms: C5_9  and  C7_11 
REMARK    6  A    between atoms: C7_11  and  O3_12 
REMARK    7  A    between atoms: C7_11  and  N2_14 
REMARK       I    between atoms: N2_14  and  C8_16 
REMARK    8  A    between atoms: C8_16  and  C9_18 
REMARK    9  A    between atoms: C9_18  and  O5_19 
REMARK   10  A    between atoms: C9_18  and  C10_21 
ROOT
HETATM    1  C4  UNL     1      17.389  38.872 199.117  1.00  0.00     0.292 C 
HETATM    2  O2  UNL     1      18.232  38.205 199.814  1.00  0.00    -0.267 OA
HETATM    3  N1  UNL     1      17.876  39.606 198.028  1.00  0.00    -0.347 N 
ATOM      4  H1  UNL     1      17.236  40.153 197.453  1.00  0.00     0.163 HD
ENDROOT
BRANCH   3   5
HETATM    5  C5  UNL     1      19.320  39.587 197.715  1.00  0.00     0.129 C 
HETATM    6  C6  UNL     1      19.693  40.985 197.201  1.00  0.00     0.036 C 
BRANCH   5   7
HETATM    7  C7  UNL     1      19.605  38.611 196.628  1.00  0.00     0.242 C 
BRANCH   7   8
HETATM    8  O3  UNL     1      19.423  37.290 197.055  1.00  0.00    -0.375 OA
ATOM      9  H3  UNL     1      19.374  36.687 196.323  1.00  0.00     0.212 HD
ENDBRANCH   7   8
BRANCH   7  10
HETATM   10  N2  UNL     1      21.013  38.800 196.246  1.00  0.00    -0.330 N 
HETATM   11  C8  UNL     1      21.514  38.163 195.090  1.00  0.00     0.256 C 
HETATM   12  O4  UNL     1      20.748  37.428 194.382  1.00  0.00    -0.270 OA
ATOM     13  H2  UNL     1      21.623  39.387 196.813  1.00  0.00     0.165 HD
BRANCH  11  14
HETATM   14  C9  UNL     1      22.928  38.352 194.704  1.00  0.00     0.291 C 
BRANCH  14  15
HETATM   15  O5  UNL     1      23.488  37.056 194.631  1.00  0.00    -0.378 OA
ATOM     16  H5  UNL     1      24.156  37.098 193.957  1.00  0.00     0.211 HD
ENDBRANCH  14  15
BRANCH  14  17
HETATM   17  C10 UNL     1      23.028  39.040 193.422  1.00  0.00     0.234 C 
HETATM   18  O6  UNL     1      22.273  39.992 193.182  1.00  0.00    -0.281 OA
HETATM   19  S1  UNL     1      24.171  38.640 192.110  1.00  0.00    -0.009 SA
ENDBRANCH  14  17
ENDBRANCH  11  14
ENDBRANCH   7  10
ENDBRANCH   5   7
ENDBRANCH   3   5
BRANCH   1  20
HETATM   20  C3  UNL     1      15.971  38.851 199.489  1.00  0.00     0.341 C 
HETATM   21  O7  UNL     1      15.641  38.354 200.706  1.00  0.00    -0.303 OA
HETATM   22  C11 UNL     1      15.296  39.325 201.596  1.00  0.00     0.170 C 
HETATM   23  C12 UNL     1      13.790  39.380 201.764  1.00  0.00     0.079 C 
HETATM   24  C13 UNL     1      16.003  39.185 202.927  1.00  0.00     0.079 C 
HETATM   25  O8  UNL     1      15.697  40.554 201.033  1.00  0.00    -0.279 OA
HETATM   26  C14 UNL     1      15.706  40.380 199.683  1.00  0.00     0.335 C 
HETATM   27  O9  UNL     1      15.561  41.119 198.706  1.00  0.00    -0.258 OA
BRANCH  20  28
HETATM   28  O1  UNL     1      15.101  38.554 198.481  1.00  0.00    -0.340 OA
BRANCH  28  29
HETATM   29  C2  UNL     1      14.024  37.787 198.712  1.00  0.00     0.168 C 
HETATM   30  C1  UNL     1      12.998  37.600 197.657  1.00  0.00     0.033 C 
ENDBRANCH  28  29
ENDBRANCH  20  28
ENDBRANCH   1  20
TORSDOF 10
ENDMDL
MODEL 2
REMARK VINA RESULT: -7.474579749      2.912      5.125
REMARK  10 active torsions:
REMARK  status: ('A' for Active; 'I' for Inactive)
REMARK    1  A    between atoms: C2_2  and  O1_3 
REMARK    2  A    between atoms: O1_3  and  C3_4 
REMARK    3  A    between atoms: C3_4  and  C4_5 
REMARK       I    between atoms: C4_5  and  N1_7 
REMARK    4  A    between atoms: N1_7  and  C5_9 
REMARK    5  A    between atoms: C5_9  and  C7_11 
REMARK    6  A    between atoms: C7_11  and  O3_12 
REMARK    7  A    between atoms: C7_11  and  N2_14 
REMARK       I    between atoms: N2_14  and  C8_16 
REMARK    8  A    between atoms: C8_16  and  C9_18 
REMARK    9  A    between atoms: C9_18  and  O5_19 
REMARK   10  A    between atoms: C9_18  and  C10_21 
ROOT
HETATM    1  C4  UNL     1      14.356  40.716 201.302  1.00  0.00     0.292 C 
HETATM    2  O2  UNL     1      14.742  41.712 200.595  1.00  0.00    -0.267 OA
HETATM    3  N1  UNL     1      14.501  39.433 200.759  1.00  0.00    -0.347 N 
ATOM      4  H1  UNL     1      14.201  38.616 201.290  1.00  0.00     0.163 HD
ENDROOT
BRANCH   3   5
HETATM    5  C5  UNL     1      15.092  39.267 199.415  1.00  0.00     0.129 C 
HETATM    6  C6  UNL     1      14.317  38.143 198.713  1.00  0.00     0.036 C 
BRANCH   5   7
HETATM    7  C7  UNL     1      16.514  38.841 199.520  1.00  0.00     0.242 C 
BRANCH   7   8
HETATM    8  O3  UNL     1      17.265  39.726 200.303  1.00  0.00    -0.375 OA
ATOM      9  H3  UNL     1      17.421  39.381 201.174  1.00  0.00     0.212 HD
ENDBRANCH   7   8
BRANCH   7  10
HETATM   10  N2  UNL     1      17.058  38.835 198.153  1.00  0.00    -0.330 N 
HETATM   11  C8  UNL     1      18.418  38.522 197.943  1.00  0.00     0.256 C 
HETATM   12  O4  UNL     1      19.172  38.246 198.936  1.00  0.00    -0.270 OA
ATOM     13  H2  UNL     1      16.455  39.055 197.360  1.00  0.00     0.165 HD
BRANCH  11  14
HETATM   14  C9  UNL     1      18.966  38.513 196.570  1.00  0.00     0.291 C 
BRANCH  14  15
HETATM   15  O5  UNL     1      17.888  38.853 195.720  1.00  0.00    -0.378 OA
ATOM     16  H5  UNL     1      17.981  39.780 195.538  1.00  0.00     0.211 HD
ENDBRANCH  14  15
BRANCH  14  17
HETATM   17  C10 UNL     1      20.058  39.470 196.441  1.00  0.00     0.234 C 
HETATM   18  O6  UNL     1      21.137  39.099 195.959  1.00  0.00    -0.281 OA
HETATM   19  S1  UNL     1      20.002  41.189 196.919  1.00  0.00    -0.009 SA
ENDBRANCH  14  17
ENDBRANCH  11  14
ENDBRANCH   7  10
ENDBRANCH   5   7
ENDBRANCH   3   5
BRANCH   1  20
HETATM   20  C3  UNL     1      13.772  40.955 202.626  1.00  0.00     0.341 C 
HETATM   21  O7  UNL     1      12.421  40.990 202.727  1.00  0.00    -0.303 OA
HETATM   22  C11 UNL     1      11.906  39.871 203.307  1.00  0.00     0.170 C 
HETATM   23  C12 UNL     1      11.522  40.149 204.747  1.00  0.00     0.079 C 
HETATM   24  C13 UNL     1      10.754  39.277 202.525  1.00  0.00     0.079 C 
HETATM   25  O8  UNL     1      12.940  38.912 203.329  1.00  0.00    -0.279 OA
HETATM   26  C14 UNL     1      14.113  39.604 203.335  1.00  0.00     0.335 C 
HETATM   27  O9  UNL     1      15.254  39.384 203.747  1.00  0.00    -0.258 OA
BRANCH  20  28
HETATM   28  O1  UNL     1      14.440  41.847 203.412  1.00  0.00    -0.340 OA
BRANCH  28  29
HETATM   29  C2  UNL     1      14.052  43.131 203.472  1.00  0.00     0.168 C 
HETATM   30  C1  UNL     1      15.005  44.182 203.905  1.00  0.00     0.033 C 
ENDBRANCH  28  29
ENDBRANCH  20  28
ENDBRANCH   1  20
TORSDOF 10
ENDMDL
MODEL 3
REMARK VINA RESULT: -7.279024264      2.974      5.514
REMARK  10 active torsions:
REMARK  status: ('A' for Active; 'I' for Inactive)
REMARK    1  A    between atoms: C2_2  and  O1_3 
REMARK    2  A    between atoms: O1_3  and  C3_4 
REMARK    3  A    between atoms: C3_4  and  C4_5 
REMARK       I    between atoms: C4_5  and  N1_7 
REMARK    4  A    between atoms: N1_7  and  C5_9 
REMARK    5  A    between atoms: C5_9  and  C7_11 
REMARK    6  A    between atoms: C7_11  and  O3_12 
REMARK    7  A    between atoms: C7_11  and  N2_14 
REMARK       I    between atoms: N2_14  and  C8_16 
REMARK    8  A    between atoms: C8_16  and  C9_18 
REMARK    9  A    between atoms: C9_18  and  O5_19 
REMARK   10  A    between atoms: C9_18  and  C10_21 
ROOT
HETATM    1  C4  UNL     1      13.266  37.719 198.881  1.00  0.00     0.292 C 
HETATM    2  O2  UNL     1      13.808  36.590 199.150  1.00  0.00    -0.267 OA
HETATM    3  N1  UNL     1      14.004  38.879 199.150  1.00  0.00    -0.347 N 
ATOM      4  H1  UNL     1      13.604  39.796 198.955  1.00  0.00     0.163 HD
ENDROOT
BRANCH   3   5
HETATM    5  C5  UNL     1      15.363  38.770 199.719  1.00  0.00     0.129 C 
HETATM    6  C6  UNL     1      15.234  38.918 201.241  1.00  0.00     0.036 C 
BRANCH   5   7
HETATM    7  C7  UNL     1      16.225  39.878 199.225  1.00  0.00     0.242 C 
BRANCH   7   8
HETATM    8  O3  UNL     1      15.511  41.076 199.099  1.00  0.00    -0.375 OA
ATOM      9  H3  UNL     1      14.988  41.092 198.307  1.00  0.00     0.212 HD
ENDBRANCH   7   8
BRANCH   7  10
HETATM   10  N2  UNL     1      16.719  39.475 197.899  1.00  0.00    -0.330 N 
HETATM   11  C8  UNL     1      17.816  38.592 197.800  1.00  0.00     0.256 C 
HETATM   12  O4  UNL     1      18.375  38.146 198.858  1.00  0.00    -0.270 OA
ATOM     13  H2  UNL     1      16.271  39.832 197.056  1.00  0.00     0.165 HD
BRANCH  11  14
HETATM   14  C9  UNL     1      18.312  38.185 196.469  1.00  0.00     0.291 C 
BRANCH  14  15
HETATM   15  O5  UNL     1      17.596  38.965 195.532  1.00  0.00    -0.378 OA
ATOM     16  H5  UNL     1      17.244  38.353 194.897  1.00  0.00     0.211 HD
ENDBRANCH  14  15
BRANCH  14  17
HETATM   17  C10 UNL     1      19.747  38.416 196.357  1.00  0.00     0.234 C 
HETATM   18  O6  UNL     1      20.458  37.568 195.802  1.00  0.00    -0.281 OA
HETATM   19  S1  UNL     1      20.623  39.852 196.958  1.00  0.00    -0.009 SA
ENDBRANCH  14  17
ENDBRANCH  11  14
ENDBRANCH   7  10
ENDBRANCH   5   7
ENDBRANCH   3   5
BRANCH   1  20
HETATM   20  C3  UNL     1      11.910  37.754 198.325  1.00  0.00     0.341 C 
HETATM   21  O7  UNL     1      11.714  37.217 197.095  1.00  0.00    -0.303 OA
HETATM   22  C11 UNL     1      11.075  36.016 197.140  1.00  0.00     0.170 C 
HETATM   23  C12 UNL     1       9.618  36.176 196.753  1.00  0.00     0.079 C 
HETATM   24  C13 UNL     1      11.761  34.950 196.311  1.00  0.00     0.079 C 
HETATM   25  O8  UNL     1      11.105  35.588 198.484  1.00  0.00    -0.279 OA
HETATM   26  C14 UNL     1      11.197  36.712 199.248  1.00  0.00     0.335 C 
HETATM   27  O9  UNL     1      10.862  37.018 200.395  1.00  0.00    -0.258 OA
BRANCH  20  28
HETATM   28  O1  UNL     1      11.192  38.883 198.590  1.00  0.00    -0.340 OA
BRANCH  28  29
HETATM   29  C2  UNL     1      10.196  39.267 197.776  1.00  0.00     0.168 C 
HETATM   30  C1  UNL     1       8.819  39.431 198.303  1.00  0.00     0.033 C 
ENDBRANCH  28  29
ENDBRANCH  20  28
ENDBRANCH   1  20
TORSDOF 10
ENDMDL
MODEL 4
REMARK VINA RESULT: -7.200787625      3.071      5.362
REMARK  10 active torsions:
REMARK  status: ('A' for Active; 'I' for Inactive)
REMARK    1  A    between atoms: C2_2  and  O1_3 
REMARK    2  A    between atoms: O1_3  and  C3_4 
REMARK    3  A    between atoms: C3_4  and  C4_5 
REMARK       I    between atoms: C4_5  and  N1_7 
REMARK    4  A    between atoms: N1_7  and  C5_9 
REMARK    5  A    between atoms: C5_9  and  C7_11 
REMARK    6  A    between atoms: C7_11  and  O3_12 
REMARK    7  A    between atoms: C7_11  and  N2_14 
REMARK       I    between atoms: N2_14  and  C8_16 
REMARK    8  A    between atoms: C8_16  and  C9_18 
REMARK    9  A    between atoms: C9_18  and  O5_19 
REMARK   10  A    between atoms: C9_18  and  C10_21 
ROOT
HETATM    1  C4  UNL     1      13.200  37.881 200.333  1.00  0.00     0.292 C 
HETATM    2  O2  UNL     1      13.451  37.476 201.522  1.00  0.00    -0.267 OA
HETATM    3  N1  UNL     1      13.775  39.089 199.918  1.00  0.00    -0.347 N 
ATOM      4  H1  UNL     1      13.595  39.446 198.980  1.00  0.00     0.163 HD
ENDROOT
BRANCH   3   5
HETATM    5  C5  UNL     1      14.644  39.845 200.843  1.00  0.00     0.129 C 
HETATM    6  C6  UNL     1      14.591  41.319 200.416  1.00  0.00     0.036 C 
BRANCH   5   7
HETATM    7  C7  UNL     1      16.055  39.388 200.724  1.00  0.00     0.242 C 
BRANCH   7   8
HETATM    8  O3  UNL     1      16.896  40.056 201.623  1.00  0.00    -0.375 OA
ATOM      9  H3  UNL     1      17.796  40.070 201.320  1.00  0.00     0.212 HD
ENDBRANCH   7   8
BRANCH   7  10
HETATM   10  N2  UNL     1      16.487  39.693 199.351  1.00  0.00    -0.330 N 
HETATM   11  C8  UNL     1      17.593  39.011 198.798  1.00  0.00     0.256 C 
HETATM   12  O4  UNL     1      18.213  38.134 199.488  1.00  0.00    -0.270 OA
ATOM     13  H2  UNL     1      15.990  40.393 198.802  1.00  0.00     0.165 HD
BRANCH  11  14
HETATM   14  C9  UNL     1      18.027  39.314 197.419  1.00  0.00     0.291 C 
BRANCH  14  15
HETATM   15  O5  UNL     1      18.648  40.583 197.477  1.00  0.00    -0.378 OA
ATOM     16  H5  UNL     1      18.602  40.937 196.597  1.00  0.00     0.211 HD
ENDBRANCH  14  15
BRANCH  14  17
HETATM   17  C10 UNL     1      18.952  38.299 196.931  1.00  0.00     0.234 C 
HETATM   18  O6  UNL     1      18.617  37.107 196.956  1.00  0.00    -0.281 OA
HETATM   19  S1  UNL     1      20.583  38.605 196.270  1.00  0.00    -0.009 SA
ENDBRANCH  14  17
ENDBRANCH  11  14
ENDBRANCH   7  10
ENDBRANCH   5   7
ENDBRANCH   3   5
BRANCH   1  20
HETATM   20  C3  UNL     1      12.323  37.083 199.471  1.00  0.00     0.341 C 
HETATM   21  O7  UNL     1      10.991  37.108 199.722  1.00  0.00    -0.303 OA
HETATM   22  C11 UNL     1      10.296  37.848 198.816  1.00  0.00     0.170 C 
HETATM   23  C12 UNL     1       9.586  36.946 197.826  1.00  0.00     0.079 C 
HETATM   24  C13 UNL     1       9.343  38.831 199.462  1.00  0.00     0.079 C 
HETATM   25  O8  UNL     1      11.245  38.598 198.090  1.00  0.00    -0.279 OA
HETATM   26  C14 UNL     1      12.414  37.900 198.140  1.00  0.00     0.335 C 
HETATM   27  O9  UNL     1      13.408  37.808 197.416  1.00  0.00    -0.258 OA
BRANCH  20  28
HETATM   28  O1  UNL     1      12.822  35.875 199.078  1.00  0.00    -0.340 OA
BRANCH  28  29
HETATM   29  C2  UNL     1      12.135  34.745 199.309  1.00  0.00     0.168 C 
HETATM   30  C1  UNL     1      11.810  33.826 198.191  1.00  0.00     0.033 C 
ENDBRANCH  28  29
ENDBRANCH  20  28
ENDBRANCH   1  20
TORSDOF 10
ENDMDL
MODEL 5
REMARK VINA RESULT: -7.199216560      3.077      5.647
REMARK  10 active torsions:
REMARK  status: ('A' for Active; 'I' for Inactive)
REMARK    1  A    between atoms: C2_2  and  O1_3 
REMARK    2  A    between atoms: O1_3  and  C3_4 
REMARK    3  A    between atoms: C3_4  and  C4_5 
REMARK       I    between atoms: C4_5  and  N1_7 
REMARK    4  A    between atoms: N1_7  and  C5_9 
REMARK    5  A    between atoms: C5_9  and  C7_11 
REMARK    6  A    between atoms: C7_11  and  O3_12 
REMARK    7  A    between atoms: C7_11  and  N2_14 
REMARK       I    between atoms: N2_14  and  C8_16 
REMARK    8  A    between atoms: C8_16  and  C9_18 
REMARK    9  A    between atoms: C9_18  and  O5_19 
REMARK   10  A    between atoms: C9_18  and  C10_21 
ROOT
HETATM    1  C4  UNL     1      12.534  38.466 200.410  1.00  0.00     0.292 C 
HETATM    2  O2  UNL     1      12.252  38.792 201.616  1.00  0.00    -0.267 OA
HETATM    3  N1  UNL     1      13.694  39.007 199.840  1.00  0.00    -0.347 N 
ATOM      4  H1  UNL     1      13.948  38.775 198.880  1.00  0.00     0.163 HD
ENDROOT
BRANCH   3   5
HETATM    5  C5  UNL     1      14.548  39.914 200.633  1.00  0.00     0.129 C 
HETATM    6  C6  UNL     1      14.466  41.302 199.982  1.00  0.00     0.036 C 
BRANCH   5   7
HETATM    7  C7  UNL     1      15.967  39.471 200.582  1.00  0.00     0.242 C 
BRANCH   7   8
HETATM    8  O3  UNL     1      16.762  40.165 201.503  1.00  0.00    -0.375 OA
ATOM      9  H3  UNL     1      16.443  40.063 202.391  1.00  0.00     0.212 HD
ENDBRANCH   7   8
BRANCH   7  10
HETATM   10  N2  UNL     1      16.454  39.755 199.223  1.00  0.00    -0.330 N 
HETATM   11  C8  UNL     1      17.573  39.058 198.720  1.00  0.00     0.256 C 
HETATM   12  O4  UNL     1      18.159  38.184 199.444  1.00  0.00    -0.270 OA
ATOM     13  H2  UNL     1      15.984  40.453 198.646  1.00  0.00     0.165 HD
BRANCH  11  14
HETATM   14  C9  UNL     1      18.061  39.340 197.355  1.00  0.00     0.291 C 
BRANCH  14  15
HETATM   15  O5  UNL     1      18.707  40.596 197.425  1.00  0.00    -0.378 OA
ATOM     16  H5  UNL     1      19.439  40.481 198.018  1.00  0.00     0.211 HD
ENDBRANCH  14  15
BRANCH  14  17
HETATM   17  C10 UNL     1      18.982  38.302 196.907  1.00  0.00     0.234 C 
HETATM   18  O6  UNL     1      18.628  37.116 196.951  1.00  0.00    -0.281 OA
HETATM   19  S1  UNL     1      20.630  38.570 196.274  1.00  0.00    -0.009 SA
ENDBRANCH  14  17
ENDBRANCH  11  14
ENDBRANCH   7  10
ENDBRANCH   5   7
ENDBRANCH   3   5
BRANCH   1  20
HETATM   20  C3  UNL     1      11.637  37.566 199.679  1.00  0.00     0.341 C 
HETATM   21  O7  UNL     1      10.731  38.118 198.835  1.00  0.00    -0.303 OA
HETATM   22  C11 UNL     1      11.065  37.961 197.525  1.00  0.00     0.170 C 
HETATM   23  C12 UNL     1      10.235  36.860 196.895  1.00  0.00     0.079 C 
HETATM   24  C13 UNL     1      10.979  39.249 196.734  1.00  0.00     0.079 C 
HETATM   25  O8  UNL     1      12.410  37.538 197.496  1.00  0.00    -0.279 OA
HETATM   26  C14 UNL     1      12.646  36.909 198.681  1.00  0.00     0.335 C 
HETATM   27  O9  UNL     1      13.417  36.024 199.062  1.00  0.00    -0.258 OA
BRANCH  20  28
HETATM   28  O1  UNL     1      11.200  36.477 200.374  1.00  0.00    -0.340 OA
BRANCH  28  29
HETATM   29  C2  UNL     1       9.900  36.338 200.681  1.00  0.00     0.168 C 
HETATM   30  C1  UNL     1       9.114  35.212 200.119  1.00  0.00     0.033 C 
ENDBRANCH  28  29
ENDBRANCH  20  28
ENDBRANCH   1  20
TORSDOF 10
ENDMDL
