MODEL 1
REMARK VINA RESULT: -8.791348198      0.000      0.000
REMARK  7 active torsions:
REMARK  status: ('A' for Active; 'I' for Inactive)
REMARK    1  A    between atoms: C1_2  and  C2_4 
REMARK    2  A    between atoms: C2_4  and  O3_5 
REMARK    3  A    between atoms: O3_5  and  N1_6 
REMARK       I    between atoms: C3_8  and  N2_9 
REMARK       I    between atoms: C3_8  and  N6_29 
REMARK    4  A    between atoms: N2_9  and  C4_11 
REMARK    5  A    between atoms: C4_11  and  C5_12 
REMARK    6  A    between atoms: C7_14  and  N3_15 
REMARK    7  A    between atoms: N6_29  and  N7_31 
ROOT
HETATM    1  C5  UNL     1      15.502  38.801 199.580  1.00  0.00     0.000 A 
HETATM    2  C6  UNL     1      14.430  38.404 198.790  1.00  0.00     0.050 A 
HETATM    3  C7  UNL     1      13.134  38.259 199.219  1.00  0.00     0.105 A 
HETATM    4  C8  UNL     1      12.840  38.520 200.528  1.00  0.00     0.066 A 
HETATM    5  C9  UNL     1      13.849  38.916 201.360  1.00  0.00     0.055 A 
HETATM    6  N4  UNL     1      13.617  39.181 202.671  1.00  0.00    -0.307 N 
ATOM      7  H4  UNL     1      12.666  39.086 203.029  1.00  0.00     0.170 HD
HETATM    8  C10 UNL     1      14.584  39.564 203.514  1.00  0.00     0.327 A 
HETATM    9  O6  UNL     1      14.292  39.797 204.736  1.00  0.00    -0.247 OA
HETATM   10  N5  UNL     1      15.852  39.704 203.098  1.00  0.00    -0.275 N 
ATOM     11  H5  UNL     1      16.587  39.994 203.743  1.00  0.00     0.173 HD
HETATM   12  C11 UNL     1      16.131  39.446 201.781  1.00  0.00     0.262 A 
HETATM   13  O7  UNL     1      17.309  39.595 201.477  1.00  0.00    -0.267 OA
HETATM   14  C12 UNL     1      15.165  39.061 200.917  1.00  0.00     0.070 A 
ENDROOT
BRANCH   1  15
HETATM   15  C4  UNL     1      16.835  38.962 199.045  1.00  0.00     0.118 C 
BRANCH  15  16
HETATM   16  N2  UNL     1      17.052  40.084 198.151  1.00  0.00    -0.198 N 
HETATM   17  C3  UNL     1      18.173  40.053 197.273  1.00  0.00     0.721 C 
HETATM   18  N1  UNL     1      18.840  41.138 197.118  1.00  0.00    -0.094 N 
HETATM   19  N6  UNL     1      18.563  38.883 196.581  1.00  0.00    -0.070 N 
ATOM     20  H1  UNL     1      18.568  41.988 197.613  1.00  0.00     0.213 HD
ATOM     21  H6  UNL     1      18.134  38.637 195.689  1.00  0.00     0.212 HD
ATOM     22  H2  UNL     1      16.413  40.880 198.150  1.00  0.00     0.183 HD
BRANCH  18  23
HETATM   23  O3  UNL     1      19.919  41.137 196.282  1.00  0.00    -0.256 OA
BRANCH  23  24
HETATM   24  C2  UNL     1      21.188  41.571 196.752  1.00  0.00     0.314 C 
BRANCH  24  25
HETATM   25  C1  UNL     1      22.185  40.525 196.448  1.00  0.00     0.200 C 
HETATM   26  O1  UNL     1      22.017  39.716 195.502  1.00  0.00    -0.646 OA
HETATM   27  O2  UNL     1      23.352  40.404 197.204  1.00  0.00    -0.646 OA
ENDBRANCH  24  25
ENDBRANCH  23  24
ENDBRANCH  18  23
BRANCH  19  28
HETATM   28  N7  UNL     1      19.551  38.069 197.148  1.00  0.00    -0.024 N 
HETATM   29  O8  UNL     1      19.904  38.259 198.330  1.00  0.00    -0.516 OA
HETATM   30  O9  UNL     1      20.172  37.051 196.470  1.00  0.00    -0.516 OA
ENDBRANCH  19  28
ENDBRANCH  15  16
ENDBRANCH   1  15
BRANCH   3  31
HETATM   31  N3  UNL     1      12.124  37.843 198.306  1.00  0.00    -0.116 N 
HETATM   32  O4  UNL     1      12.411  37.225 197.272  1.00  0.00    -0.532 OA
HETATM   33  O5  UNL     1      10.822  38.132 198.575  1.00  0.00    -0.532 OA
ENDBRANCH   3  31
TORSDOF 7
ENDMDL
MODEL 2
REMARK VINA RESULT: -8.773799138      3.244      5.266
REMARK  7 active torsions:
REMARK  status: ('A' for Active; 'I' for Inactive)
REMARK    1  A    between atoms: C1_2  and  C2_4 
REMARK    2  A    between atoms: C2_4  and  O3_5 
REMARK    3  A    between atoms: O3_5  and  N1_6 
REMARK       I    between atoms: C3_8  and  N2_9 
REMARK       I    between atoms: C3_8  and  N6_29 
REMARK    4  A    between atoms: N2_9  and  C4_11 
REMARK    5  A    between atoms: C4_11  and  C5_12 
REMARK    6  A    between atoms: C7_14  and  N3_15 
REMARK    7  A    between atoms: N6_29  and  N7_31 
ROOT
HETATM    1  C5  UNL     1      14.685  41.436 202.288  1.00  0.00     0.000 A 
HETATM    2  C6  UNL     1      15.140  42.656 202.776  1.00  0.00     0.050 A 
HETATM    3  C7  UNL     1      14.408  43.535 203.534  1.00  0.00     0.105 A 
HETATM    4  C8  UNL     1      13.117  43.213 203.853  1.00  0.00     0.066 A 
HETATM    5  C9  UNL     1      12.608  42.027 203.404  1.00  0.00     0.055 A 
HETATM    6  N4  UNL     1      11.331  41.660 203.685  1.00  0.00    -0.307 N 
ATOM      7  H4  UNL     1      10.753  42.286 204.246  1.00  0.00     0.170 HD
HETATM    8  C10 UNL     1      10.798  40.509 203.254  1.00  0.00     0.327 A 
HETATM    9  O6  UNL     1       9.589  40.229 203.557  1.00  0.00    -0.247 OA
HETATM   10  N5  UNL     1      11.512  39.649 202.511  1.00  0.00    -0.275 N 
ATOM     11  H5  UNL     1      11.103  38.774 202.184  1.00  0.00     0.173 HD
HETATM   12  C11 UNL     1      12.806  39.981 202.205  1.00  0.00     0.262 A 
HETATM   13  O7  UNL     1      13.392  39.148 201.524  1.00  0.00    -0.267 OA
HETATM   14  C12 UNL     1      13.358  41.138 202.634  1.00  0.00     0.070 A 
ENDROOT
BRANCH   1  15
HETATM   15  C4  UNL     1      15.531  40.549 201.522  1.00  0.00     0.118 C 
BRANCH  15  16
HETATM   16  N2  UNL     1      15.656  40.824 200.103  1.00  0.00    -0.198 N 
HETATM   17  C3  UNL     1      15.810  39.730 199.204  1.00  0.00     0.721 C 
HETATM   18  N1  UNL     1      16.654  39.858 198.247  1.00  0.00    -0.094 N 
HETATM   19  N6  UNL     1      15.071  38.532 199.335  1.00  0.00    -0.070 N 
ATOM     20  H1  UNL     1      17.193  40.718 198.143  1.00  0.00     0.213 HD
ATOM     21  H6  UNL     1      14.137  38.448 198.934  1.00  0.00     0.212 HD
ATOM     22  H2  UNL     1      15.635  41.784 199.756  1.00  0.00     0.183 HD
BRANCH  18  23
HETATM   23  O3  UNL     1      16.821  38.825 197.370  1.00  0.00    -0.256 OA
BRANCH  23  24
HETATM   24  C2  UNL     1      18.080  38.612 196.748  1.00  0.00     0.314 C 
BRANCH  24  25
HETATM   25  C1  UNL     1      19.133  39.185 197.609  1.00  0.00     0.200 C 
HETATM   26  O1  UNL     1      19.614  38.539 198.573  1.00  0.00    -0.646 OA
HETATM   27  O2  UNL     1      19.631  40.468 197.378  1.00  0.00    -0.646 OA
ENDBRANCH  24  25
ENDBRANCH  23  24
ENDBRANCH  18  23
BRANCH  19  28
HETATM   28  N7  UNL     1      15.650  37.462 200.028  1.00  0.00    -0.024 N 
HETATM   29  O8  UNL     1      16.866  37.494 200.310  1.00  0.00    -0.516 OA
HETATM   30  O9  UNL     1      14.949  36.352 200.427  1.00  0.00    -0.516 OA
ENDBRANCH  19  28
ENDBRANCH  15  16
ENDBRANCH   1  15
BRANCH   3  31
HETATM   31  N3  UNL     1      14.993  44.756 203.973  1.00  0.00    -0.116 N 
HETATM   32  O4  UNL     1      16.204  44.969 203.838  1.00  0.00    -0.532 OA
HETATM   33  O5  UNL     1      14.204  45.702 204.551  1.00  0.00    -0.532 OA
ENDBRANCH   3  31
TORSDOF 7
ENDMDL
MODEL 3
REMARK VINA RESULT: -8.616795625      3.314      5.697
REMARK  7 active torsions:
REMARK  status: ('A' for Active; 'I' for Inactive)
REMARK    1  A    between atoms: C1_2  and  C2_4 
REMARK    2  A    between atoms: C2_4  and  O3_5 
REMARK    3  A    between atoms: O3_5  and  N1_6 
REMARK       I    between atoms: C3_8  and  N2_9 
REMARK       I    between atoms: C3_8  and  N6_29 
REMARK    4  A    between atoms: N2_9  and  C4_11 
REMARK    5  A    between atoms: C4_11  and  C5_12 
REMARK    6  A    between atoms: C7_14  and  N3_15 
REMARK    7  A    between atoms: N6_29  and  N7_31 
ROOT
HETATM    1  C5  UNL     1      14.466  41.247 203.052  1.00  0.00     0.000 A 
HETATM    2  C6  UNL     1      14.993  42.510 203.299  1.00  0.00     0.050 A 
HETATM    3  C7  UNL     1      14.275  43.612 203.690  1.00  0.00     0.105 A 
HETATM    4  C8  UNL     1      12.923  43.491 203.860  1.00  0.00     0.066 A 
HETATM    5  C9  UNL     1      12.340  42.276 203.634  1.00  0.00     0.055 A 
HETATM    6  N4  UNL     1      11.002  42.100 203.780  1.00  0.00    -0.307 N 
ATOM      7  H4  UNL     1      10.433  42.896 204.070  1.00  0.00     0.170 HD
HETATM    8  C10 UNL     1      10.398  40.926 203.559  1.00  0.00     0.327 A 
HETATM    9  O6  UNL     1       9.134  40.834 203.716  1.00  0.00    -0.247 OA
HETATM   10  N5  UNL     1      11.098  39.847 203.174  1.00  0.00    -0.275 N 
ATOM     11  H5  UNL     1      10.635  38.955 203.005  1.00  0.00     0.173 HD
HETATM   12  C11 UNL     1      12.453  39.981 203.015  1.00  0.00     0.262 A 
HETATM   13  O7  UNL     1      13.022  38.955 202.661  1.00  0.00    -0.267 OA
HETATM   14  C12 UNL     1      13.077  41.159 203.236  1.00  0.00     0.070 A 
ENDROOT
BRANCH   1  15
HETATM   15  C4  UNL     1      15.295  40.126 202.674  1.00  0.00     0.118 C 
BRANCH  15  16
HETATM   16  N2  UNL     1      16.380  40.395 201.749  1.00  0.00    -0.198 N 
HETATM   17  C3  UNL     1      16.345  39.793 200.458  1.00  0.00     0.721 C 
HETATM   18  N1  UNL     1      17.442  39.324 199.989  1.00  0.00    -0.094 N 
HETATM   19  N6  UNL     1      15.157  39.701 199.696  1.00  0.00    -0.070 N 
ATOM     20  H1  UNL     1      18.305  39.384 200.530  1.00  0.00     0.213 HD
ATOM     21  H6  UNL     1      14.856  40.475 199.104  1.00  0.00     0.212 HD
ATOM     22  H2  UNL     1      17.154  41.003 202.018  1.00  0.00     0.183 HD
BRANCH  18  23
HETATM   23  O3  UNL     1      17.438  38.742 198.754  1.00  0.00    -0.256 OA
BRANCH  23  24
HETATM   24  C2  UNL     1      18.131  39.351 197.674  1.00  0.00     0.314 C 
BRANCH  24  25
HETATM   25  C1  UNL     1      18.365  38.332 196.631  1.00  0.00     0.200 C 
HETATM   26  O1  UNL     1      18.034  38.531 195.435  1.00  0.00    -0.646 OA
HETATM   27  O2  UNL     1      18.965  37.111 196.942  1.00  0.00    -0.646 OA
ENDBRANCH  24  25
ENDBRANCH  23  24
ENDBRANCH  18  23
BRANCH  19  28
HETATM   28  N7  UNL     1      14.403  38.524 199.773  1.00  0.00    -0.024 N 
HETATM   29  O8  UNL     1      13.208  38.531 199.415  1.00  0.00    -0.516 OA
HETATM   30  O9  UNL     1      14.908  37.332 200.227  1.00  0.00    -0.516 OA
ENDBRANCH  19  28
ENDBRANCH  15  16
ENDBRANCH   1  15
BRANCH   3  31
HETATM   31  N3  UNL     1      14.937  44.852 203.911  1.00  0.00    -0.116 N 
HETATM   32  O4  UNL     1      16.162  44.958 203.764  1.00  0.00    -0.532 OA
HETATM   33  O5  UNL     1      14.210  45.937 204.291  1.00  0.00    -0.532 OA
ENDBRANCH   3  31
TORSDOF 7
ENDMDL
MODEL 4
REMARK VINA RESULT: -8.426355595      2.804      5.031
REMARK  7 active torsions:
REMARK  status: ('A' for Active; 'I' for Inactive)
REMARK    1  A    between atoms: C1_2  and  C2_4 
REMARK    2  A    between atoms: C2_4  and  O3_5 
REMARK    3  A    between atoms: O3_5  and  N1_6 
REMARK       I    between atoms: C3_8  and  N2_9 
REMARK       I    between atoms: C3_8  and  N6_29 
REMARK    4  A    between atoms: N2_9  and  C4_11 
REMARK    5  A    between atoms: C4_11  and  C5_12 
REMARK    6  A    between atoms: C7_14  and  N3_15 
REMARK    7  A    between atoms: N6_29  and  N7_31 
ROOT
HETATM    1  C5  UNL     1      14.533  40.173 202.824  1.00  0.00     0.000 A 
HETATM    2  C6  UNL     1      14.535  41.551 203.002  1.00  0.00     0.050 A 
HETATM    3  C7  UNL     1      13.432  42.322 203.274  1.00  0.00     0.105 A 
HETATM    4  C8  UNL     1      12.213  41.713 203.385  1.00  0.00     0.066 A 
HETATM    5  C9  UNL     1      12.141  40.358 203.221  1.00  0.00     0.055 A 
HETATM    6  N4  UNL     1      10.956  39.701 203.312  1.00  0.00    -0.307 N 
ATOM      7  H4  UNL     1      10.113  40.239 203.514  1.00  0.00     0.170 HD
HETATM    8  C10 UNL     1      10.849  38.376 203.149  1.00  0.00     0.327 A 
HETATM    9  O6  UNL     1       9.701  37.825 203.249  1.00  0.00    -0.247 OA
HETATM   10  N5  UNL     1      11.925  37.621 202.881  1.00  0.00    -0.275 N 
ATOM     11  H5  UNL     1      11.840  36.612 202.756  1.00  0.00     0.173 HD
HETATM   12  C11 UNL     1      13.141  38.244 202.780  1.00  0.00     0.262 A 
HETATM   13  O7  UNL     1      14.076  37.490 202.533  1.00  0.00    -0.267 OA
HETATM   14  C12 UNL     1      13.266  39.580 202.944  1.00  0.00     0.070 A 
ENDROOT
BRANCH   1  15
HETATM   15  C4  UNL     1      15.744  39.427 202.573  1.00  0.00     0.118 C 
BRANCH  15  16
HETATM   16  N2  UNL     1      16.682  39.998 201.624  1.00  0.00    -0.198 N 
HETATM   17  C3  UNL     1      16.472  39.773 200.233  1.00  0.00     0.721 C 
HETATM   18  N1  UNL     1      17.499  39.512 199.510  1.00  0.00    -0.094 N 
HETATM   19  N6  UNL     1      15.190  39.830 199.641  1.00  0.00    -0.070 N 
ATOM     20  H1  UNL     1      18.429  39.468 199.927  1.00  0.00     0.213 HD
ATOM     21  H6  UNL     1      14.795  40.719 199.334  1.00  0.00     0.212 HD
ATOM     22  H2  UNL     1      17.477  40.550 201.947  1.00  0.00     0.183 HD
BRANCH  18  23
HETATM   23  O3  UNL     1      17.327  39.292 198.173  1.00  0.00    -0.256 OA
BRANCH  23  24
HETATM   24  C2  UNL     1      18.377  39.579 197.261  1.00  0.00     0.314 C 
BRANCH  24  25
HETATM   25  C1  UNL     1      18.874  38.306 196.701  1.00  0.00     0.200 C 
HETATM   26  O1  UNL     1      18.564  37.201 197.212  1.00  0.00    -0.646 OA
HETATM   27  O2  UNL     1      19.707  38.291 195.581  1.00  0.00    -0.646 OA
ENDBRANCH  24  25
ENDBRANCH  23  24
ENDBRANCH  18  23
BRANCH  19  28
HETATM   28  N7  UNL     1      14.473  38.637 199.484  1.00  0.00    -0.024 N 
HETATM   29  O8  UNL     1      15.071  37.544 199.552  1.00  0.00    -0.516 OA
HETATM   30  O9  UNL     1      13.121  38.593 199.255  1.00  0.00    -0.516 OA
ENDBRANCH  19  28
ENDBRANCH  15  16
ENDBRANCH   1  15
BRANCH   3  31
HETATM   31  N3  UNL     1      13.570  43.730 203.435  1.00  0.00    -0.116 N 
HETATM   32  O4  UNL     1      12.589  44.481 203.357  1.00  0.00    -0.532 OA
HETATM   33  O5  UNL     1      14.801  44.255 203.678  1.00  0.00    -0.532 OA
ENDBRANCH   3  31
TORSDOF 7
ENDMDL
MODEL 5
REMARK VINA RESULT: -8.355484496      5.656     10.034
REMARK  7 active torsions:
REMARK  status: ('A' for Active; 'I' for Inactive)
REMARK    1  A    between atoms: C1_2  and  C2_4 
REMARK    2  A    between atoms: C2_4  and  O3_5 
REMARK    3  A    between atoms: O3_5  and  N1_6 
REMARK       I    between atoms: C3_8  and  N2_9 
REMARK       I    between atoms: C3_8  and  N6_29 
REMARK    4  A    between atoms: N2_9  and  C4_11 
REMARK    5  A    between atoms: C4_11  and  C5_12 
REMARK    6  A    between atoms: C7_14  and  N3_15 
REMARK    7  A    between atoms: N6_29  and  N7_31 
ROOT
HETATM    1  C5  UNL     1      12.788  41.813 203.303  1.00  0.00     0.000 A 
HETATM    2  C6  UNL     1      11.624  41.068 203.459  1.00  0.00     0.050 A 
HETATM    3  C7  UNL     1      11.477  39.742 203.139  1.00  0.00     0.105 A 
HETATM    4  C8  UNL     1      12.547  39.067 202.619  1.00  0.00     0.066 A 
HETATM    5  C9  UNL     1      13.722  39.741 202.440  1.00  0.00     0.055 A 
HETATM    6  N4  UNL     1      14.815  39.123 201.921  1.00  0.00    -0.307 N 
ATOM      7  H4  UNL     1      14.746  38.137 201.670  1.00  0.00     0.170 HD
HETATM    8  C10 UNL     1      15.978  39.756 201.725  1.00  0.00     0.327 A 
HETATM    9  O6  UNL     1      16.965  39.111 201.233  1.00  0.00    -0.247 OA
HETATM   10  N5  UNL     1      16.124  41.053 202.035  1.00  0.00    -0.275 N 
ATOM     11  H5  UNL     1      17.011  41.533 201.884  1.00  0.00     0.173 HD
HETATM   12  C11 UNL     1      15.046  41.715 202.562  1.00  0.00     0.262 A 
HETATM   13  O7  UNL     1      15.255  42.895 202.819  1.00  0.00    -0.267 OA
HETATM   14  C12 UNL     1      13.865  41.090 202.768  1.00  0.00     0.070 A 
ENDROOT
BRANCH   1  15
HETATM   15  C4  UNL     1      12.872  43.201 203.696  1.00  0.00     0.118 C 
BRANCH  15  16
HETATM   16  N2  UNL     1      11.636  43.961 203.692  1.00  0.00    -0.198 N 
HETATM   17  C3  UNL     1      11.650  45.293 204.196  1.00  0.00     0.721 C 
HETATM   18  N1  UNL     1      10.663  45.665 204.926  1.00  0.00    -0.094 N 
HETATM   19  N6  UNL     1      12.700  46.198 203.918  1.00  0.00    -0.070 N 
ATOM     20  H1  UNL     1       9.900  45.020 205.133  1.00  0.00     0.213 HD
ATOM     21  H6  UNL     1      12.697  46.754 203.063  1.00  0.00     0.212 HD
ATOM     22  H2  UNL     1      10.774  43.549 203.335  1.00  0.00     0.183 HD
BRANCH  18  23
HETATM   23  O3  UNL     1      10.650  46.937 205.422  1.00  0.00    -0.256 OA
BRANCH  23  24
HETATM   24  C2  UNL     1       9.484  47.740 205.300  1.00  0.00     0.314 C 
BRANCH  24  25
HETATM   25  C1  UNL     1       8.359  47.035 205.947  1.00  0.00     0.200 C 
HETATM   26  O1  UNL     1       8.554  46.090 206.750  1.00  0.00    -0.646 OA
HETATM   27  O2  UNL     1       7.037  47.401 205.686  1.00  0.00    -0.646 OA
ENDBRANCH  24  25
ENDBRANCH  23  24
ENDBRANCH  18  23
BRANCH  19  28
HETATM   28  N7  UNL     1      13.744  46.316 204.843  1.00  0.00    -0.024 N 
HETATM   29  O8  UNL     1      13.547  46.911 205.923  1.00  0.00    -0.516 OA
HETATM   30  O9  UNL     1      15.000  45.805 204.635  1.00  0.00    -0.516 OA
ENDBRANCH  19  28
ENDBRANCH  15  16
ENDBRANCH   1  15
BRANCH   3  31
HETATM   31  N3  UNL     1      10.228  39.093 203.348  1.00  0.00    -0.116 N 
HETATM   32  O4  UNL     1       9.631  39.188 204.428  1.00  0.00    -0.532 OA
HETATM   33  O5  UNL     1       9.684  38.355 202.343  1.00  0.00    -0.532 OA
ENDBRANCH   3  31
TORSDOF 7
ENDMDL
