MODEL 1
REMARK VINA RESULT: -8.196507003      0.000      0.000
REMARK  9 active torsions:
REMARK  status: ('A' for Active; 'I' for Inactive)
REMARK    1  A    between atoms: C2_2  and  N1_3 
REMARK    2  A    between atoms: C3_6  and  O1_7 
REMARK    3  A    between atoms: O1_7  and  C4_8 
REMARK    4  A    between atoms: C4_8  and  C5_9 
REMARK    5  A    between atoms: C5_9  and  O2_10 
REMARK    6  A    between atoms: C5_9  and  C6_12 
REMARK    7  A    between atoms: C7_13  and  O3_14 
REMARK    8  A    between atoms: C11_25  and  S1_26 
REMARK    9  A    between atoms: S1_26  and  N5_29 
ROOT
HETATM    1  C4  UNL     1      17.518  39.194 198.791  1.00  0.00     0.214 C 
ENDROOT
BRANCH   1   2
HETATM    2  O1  UNL     1      18.296  38.184 198.392  1.00  0.00    -0.332 OA
BRANCH   2   3
HETATM    3  C3  UNL     1      19.223  38.134 197.406  1.00  0.00     0.160 A 
HETATM    4  N2  UNL     1      19.994  39.410 197.379  1.00  0.00    -0.273 N 
HETATM    5  N1  UNL     1      20.908  39.432 196.463  1.00  0.00    -0.257 N 
ATOM      6  H2  UNL     1      19.819  40.187 198.017  1.00  0.00     0.189 HD
HETATM    7  C11 UNL     1      20.850  38.222 195.797  1.00  0.00     0.174 A 
HETATM    8  C10 UNL     1      19.838  37.570 196.438  1.00  0.00     0.103 A 
BRANCH   5   9
HETATM    9  C2  UNL     1      21.834  40.494 196.261  1.00  0.00     0.086 C 
HETATM   10  C1  UNL     1      21.543  41.894 196.623  1.00  0.00     0.057 C 
ENDBRANCH   5   9
BRANCH   7  11
HETATM   11  S1  UNL     1      21.805  37.685 194.477  1.00  0.00     0.276 S 
HETATM   12  O6  UNL     1      21.269  38.168 193.134  1.00  0.00    -0.199 OA
HETATM   13  O7  UNL     1      21.715  36.161 194.423  1.00  0.00    -0.199 OA
BRANCH  11  14
HETATM   14  N5  UNL     1      23.476  38.085 194.585  1.00  0.00    -0.319 N 
HETATM   15  C12 UNL     1      23.934  38.584 193.272  1.00  0.00     0.159 C 
ATOM     16  H5  UNL     1      24.055  37.993 195.419  1.00  0.00     0.171 HD
ENDBRANCH  11  14
ENDBRANCH   7  11
ENDBRANCH   2   3
ENDBRANCH   1   2
BRANCH   1  17
HETATM   17  C5  UNL     1      16.091  39.440 198.723  1.00  0.00     0.185 C 
BRANCH  17  18
HETATM   18  O2  UNL     1      15.419  38.509 197.860  1.00  0.00    -0.388 OA
ATOM     19  H2  UNL     1      14.762  38.930 197.317  1.00  0.00     0.210 HD
ENDBRANCH  17  18
BRANCH  17  20
HETATM   20  C6  UNL     1      15.321  39.541 199.975  1.00  0.00     0.091 A 
HETATM   21  C7  UNL     1      14.821  40.766 200.367  1.00  0.00     0.158 A 
HETATM   22  N3  UNL     1      13.996  40.937 201.373  1.00  0.00    -0.288 N 
HETATM   23  C8  UNL     1      13.577  39.870 202.085  1.00  0.00     0.329 A 
ATOM     24  H3  UNL     1      13.672  41.874 201.615  1.00  0.00     0.172 HD
HETATM   25  O4  UNL     1      12.760  40.016 203.027  1.00  0.00    -0.247 OA
HETATM   26  N4  UNL     1      14.032  38.639 201.763  1.00  0.00    -0.275 N 
HETATM   27  C9  UNL     1      14.906  38.454 200.710  1.00  0.00     0.262 A 
ATOM     28  H4  UNL     1      13.725  37.833 202.307  1.00  0.00     0.173 HD
HETATM   29  O5  UNL     1      15.301  37.289 200.455  1.00  0.00    -0.267 OA
BRANCH  21  30
HETATM   30  O3  UNL     1      15.227  41.902 199.640  1.00  0.00    -0.345 OA
ATOM     31  H3  UNL     1      15.305  42.724 200.111  1.00  0.00     0.219 HD
ENDBRANCH  21  30
ENDBRANCH  17  20
ENDBRANCH   1  17
TORSDOF 9
ENDMDL
MODEL 2
REMARK VINA RESULT: -8.189041922      1.476      1.669
REMARK  9 active torsions:
REMARK  status: ('A' for Active; 'I' for Inactive)
REMARK    1  A    between atoms: C2_2  and  N1_3 
REMARK    2  A    between atoms: C3_6  and  O1_7 
REMARK    3  A    between atoms: O1_7  and  C4_8 
REMARK    4  A    between atoms: C4_8  and  C5_9 
REMARK    5  A    between atoms: C5_9  and  O2_10 
REMARK    6  A    between atoms: C5_9  and  C6_12 
REMARK    7  A    between atoms: C7_13  and  O3_14 
REMARK    8  A    between atoms: C11_25  and  S1_26 
REMARK    9  A    between atoms: S1_26  and  N5_29 
ROOT
HETATM    1  C4  UNL     1      17.846  38.615 199.110  1.00  0.00     0.214 C 
ENDROOT
BRANCH   1   2
HETATM    2  O1  UNL     1      18.279  37.912 198.060  1.00  0.00    -0.332 OA
BRANCH   2   3
HETATM    3  C3  UNL     1      19.314  38.147 197.219  1.00  0.00     0.160 A 
HETATM    4  N2  UNL     1      19.816  39.537 197.422  1.00  0.00    -0.273 N 
HETATM    5  N1  UNL     1      20.816  39.833 196.654  1.00  0.00    -0.257 N 
ATOM      6  H2  UNL     1      19.414  40.188 198.096  1.00  0.00     0.189 HD
HETATM    7  C11 UNL     1      21.081  38.719 195.879  1.00  0.00     0.174 A 
HETATM    8  C10 UNL     1      20.144  37.823 196.304  1.00  0.00     0.103 A 
BRANCH   5   9
HETATM    9  C2  UNL     1      21.532  41.062 196.686  1.00  0.00     0.086 C 
HETATM   10  C1  UNL     1      20.928  42.355 196.313  1.00  0.00     0.057 C 
ENDBRANCH   5   9
BRANCH   7  11
HETATM   11  S1  UNL     1      22.280  38.524 194.668  1.00  0.00     0.276 S 
HETATM   12  O6  UNL     1      23.692  38.487 195.243  1.00  0.00    -0.199 OA
HETATM   13  O7  UNL     1      22.243  39.758 193.769  1.00  0.00    -0.199 OA
BRANCH  11  14
HETATM   14  N5  UNL     1      22.060  37.154 193.649  1.00  0.00    -0.319 N 
HETATM   15  C12 UNL     1      21.625  37.615 192.315  1.00  0.00     0.159 C 
ATOM     16  H5  UNL     1      22.207  36.183 193.922  1.00  0.00     0.171 HD
ENDBRANCH  11  14
ENDBRANCH   7  11
ENDBRANCH   2   3
ENDBRANCH   1   2
BRANCH   1  17
HETATM   17  C5  UNL     1      16.858  39.663 199.268  1.00  0.00     0.185 C 
BRANCH  17  18
HETATM   18  O2  UNL     1      16.529  40.295 198.020  1.00  0.00    -0.388 OA
ATOM     19  H2  UNL     1      15.631  40.603 197.997  1.00  0.00     0.210 HD
ENDBRANCH  17  18
BRANCH  17  20
HETATM   20  C6  UNL     1      15.599  39.362 199.973  1.00  0.00     0.091 A 
HETATM   21  C7  UNL     1      15.352  39.943 201.199  1.00  0.00     0.158 A 
HETATM   22  N3  UNL     1      14.206  39.867 201.833  1.00  0.00    -0.288 N 
HETATM   23  C8  UNL     1      13.175  39.197 201.276  1.00  0.00     0.329 A 
ATOM     24  H3  UNL     1      14.094  40.314 202.744  1.00  0.00     0.172 HD
HETATM   25  O4  UNL     1      12.063  39.147 201.856  1.00  0.00    -0.247 OA
HETATM   26  N4  UNL     1      13.347  38.595 200.079  1.00  0.00    -0.275 N 
HETATM   27  C9  UNL     1      14.554  38.665 199.410  1.00  0.00     0.262 A 
ATOM     28  H4  UNL     1      12.572  38.079 199.662  1.00  0.00     0.173 HD
HETATM   29  O5  UNL     1      14.661  38.084 198.302  1.00  0.00    -0.267 OA
BRANCH  21  30
HETATM   30  O3  UNL     1      16.401  40.660 201.807  1.00  0.00    -0.345 OA
ATOM     31  H3  UNL     1      16.409  40.714 202.756  1.00  0.00     0.219 HD
ENDBRANCH  21  30
ENDBRANCH  17  20
ENDBRANCH   1  17
TORSDOF 9
ENDMDL
MODEL 3
REMARK VINA RESULT: -8.138940854      9.044     14.383
REMARK  9 active torsions:
REMARK  status: ('A' for Active; 'I' for Inactive)
REMARK    1  A    between atoms: C2_2  and  N1_3 
REMARK    2  A    between atoms: C3_6  and  O1_7 
REMARK    3  A    between atoms: O1_7  and  C4_8 
REMARK    4  A    between atoms: C4_8  and  C5_9 
REMARK    5  A    between atoms: C5_9  and  O2_10 
REMARK    6  A    between atoms: C5_9  and  C6_12 
REMARK    7  A    between atoms: C7_13  and  O3_14 
REMARK    8  A    between atoms: C11_25  and  S1_26 
REMARK    9  A    between atoms: S1_26  and  N5_29 
ROOT
HETATM    1  C4  UNL     1      13.139  46.928 204.514  1.00  0.00     0.214 C 
ENDROOT
BRANCH   1   2
HETATM    2  O1  UNL     1      12.427  47.394 205.544  1.00  0.00    -0.332 OA
BRANCH   2   3
HETATM    3  C3  UNL     1      11.141  47.155 205.894  1.00  0.00     0.160 A 
HETATM    4  N2  UNL     1      10.230  47.950 205.020  1.00  0.00    -0.273 N 
HETATM    5  N1  UNL     1       8.977  47.766 205.292  1.00  0.00    -0.257 N 
ATOM      6  H2  UNL     1      10.559  48.574 204.284  1.00  0.00     0.189 HD
HETATM    7  C11 UNL     1       8.913  46.866 206.340  1.00  0.00     0.174 A 
HETATM    8  C10 UNL     1      10.226  46.597 206.590  1.00  0.00     0.103 A 
BRANCH   5   9
HETATM    9  C2  UNL     1       7.894  48.342 204.571  1.00  0.00     0.086 C 
HETATM   10  C1  UNL     1       8.032  49.559 203.750  1.00  0.00     0.057 C 
ENDBRANCH   5   9
BRANCH   7  11
HETATM   11  S1  UNL     1       7.522  46.259 207.140  1.00  0.00     0.276 S 
HETATM   12  O6  UNL     1       6.304  46.194 206.225  1.00  0.00    -0.199 OA
HETATM   13  O7  UNL     1       7.147  47.246 208.243  1.00  0.00    -0.199 OA
BRANCH  11  14
HETATM   14  N5  UNL     1       7.735  44.724 207.891  1.00  0.00    -0.319 N 
HETATM   15  C12 UNL     1       6.864  44.650 209.082  1.00  0.00     0.159 C 
ATOM     16  H5  UNL     1       8.359  43.987 207.566  1.00  0.00     0.171 HD
ENDBRANCH  11  14
ENDBRANCH   7  11
ENDBRANCH   2   3
ENDBRANCH   1   2
BRANCH   1  17
HETATM   17  C5  UNL     1      14.395  46.212 204.415  1.00  0.00     0.185 C 
BRANCH  17  18
HETATM   18  O2  UNL     1      15.243  46.437 205.554  1.00  0.00    -0.388 OA
ATOM     19  H2  UNL     1      15.179  45.739 206.195  1.00  0.00     0.210 HD
ENDBRANCH  17  18
BRANCH  17  20
HETATM   20  C6  UNL     1      14.376  44.764 204.140  1.00  0.00     0.091 A 
HETATM   21  C7  UNL     1      13.213  44.175 203.688  1.00  0.00     0.158 A 
HETATM   22  N3  UNL     1      13.131  42.935 203.266  1.00  0.00    -0.288 N 
HETATM   23  C8  UNL     1      14.235  42.160 203.247  1.00  0.00     0.329 A 
ATOM     24  H3  UNL     1      12.236  42.559 202.954  1.00  0.00     0.172 HD
HETATM   25  O4  UNL     1      14.178  40.983 202.813  1.00  0.00    -0.247 OA
HETATM   26  N4  UNL     1      15.409  42.667 203.684  1.00  0.00    -0.275 N 
HETATM   27  C9  UNL     1      15.500  43.970 204.136  1.00  0.00     0.262 A 
ATOM     28  H4  UNL     1      16.242  42.079 203.681  1.00  0.00     0.173 HD
HETATM   29  O5  UNL     1      16.614  44.391 204.534  1.00  0.00    -0.267 OA
BRANCH  21  30
HETATM   30  O3  UNL     1      12.041  44.958 203.682  1.00  0.00    -0.345 OA
ATOM     31  H3  UNL     1      11.284  44.622 204.147  1.00  0.00     0.219 HD
ENDBRANCH  21  30
ENDBRANCH  17  20
ENDBRANCH   1  17
TORSDOF 9
ENDMDL
MODEL 4
REMARK VINA RESULT: -8.136282898      4.082      6.903
REMARK  9 active torsions:
REMARK  status: ('A' for Active; 'I' for Inactive)
REMARK    1  A    between atoms: C2_2  and  N1_3 
REMARK    2  A    between atoms: C3_6  and  O1_7 
REMARK    3  A    between atoms: O1_7  and  C4_8 
REMARK    4  A    between atoms: C4_8  and  C5_9 
REMARK    5  A    between atoms: C5_9  and  O2_10 
REMARK    6  A    between atoms: C5_9  and  C6_12 
REMARK    7  A    between atoms: C7_13  and  O3_14 
REMARK    8  A    between atoms: C11_25  and  S1_26 
REMARK    9  A    between atoms: S1_26  and  N5_29 
ROOT
HETATM    1  C4  UNL     1      14.629  41.632 203.726  1.00  0.00     0.214 C 
ENDROOT
BRANCH   1   2
HETATM    2  O1  UNL     1      15.107  40.445 203.344  1.00  0.00    -0.332 OA
BRANCH   2   3
HETATM    3  C3  UNL     1      15.519  40.020 202.127  1.00  0.00     0.160 A 
HETATM    4  N2  UNL     1      14.504  39.090 201.552  1.00  0.00    -0.273 N 
HETATM    5  N1  UNL     1      14.828  38.647 200.379  1.00  0.00    -0.257 N 
ATOM      6  H2  UNL     1      13.644  38.829 202.034  1.00  0.00     0.189 HD
HETATM    7  C11 UNL     1      16.049  39.206 200.052  1.00  0.00     0.174 A 
HETATM    8  C10 UNL     1      16.334  39.973 201.144  1.00  0.00     0.103 A 
BRANCH   5   9
HETATM    9  C2  UNL     1      14.012  37.803 199.574  1.00  0.00     0.086 C 
HETATM   10  C1  UNL     1      12.710  38.227 199.028  1.00  0.00     0.057 C 
ENDBRANCH   5   9
BRANCH   7  11
HETATM   11  S1  UNL     1      16.982  38.972 198.632  1.00  0.00     0.276 S 
HETATM   12  O6  UNL     1      16.146  38.473 197.459  1.00  0.00    -0.199 OA
HETATM   13  O7  UNL     1      17.990  37.860 198.912  1.00  0.00    -0.199 OA
BRANCH  11  14
HETATM   14  N5  UNL     1      17.883  40.350 198.126  1.00  0.00    -0.319 N 
HETATM   15  C12 UNL     1      19.084  39.894 197.397  1.00  0.00     0.159 C 
ATOM     16  H5  UNL     1      17.628  41.321 198.301  1.00  0.00     0.171 HD
ENDBRANCH  11  14
ENDBRANCH   7  11
ENDBRANCH   2   3
ENDBRANCH   1   2
BRANCH   1  17
HETATM   17  C5  UNL     1      14.491  42.911 203.058  1.00  0.00     0.185 C 
BRANCH  17  18
HETATM   18  O2  UNL     1      13.722  42.814 201.848  1.00  0.00    -0.388 OA
ATOM     19  H2  UNL     1      13.608  41.914 201.565  1.00  0.00     0.210 HD
ENDBRANCH  17  18
BRANCH  17  20
HETATM   20  C6  UNL     1      13.996  44.070 203.823  1.00  0.00     0.091 A 
HETATM   21  C7  UNL     1      14.898  44.975 204.343  1.00  0.00     0.158 A 
HETATM   22  N3  UNL     1      14.560  46.114 204.900  1.00  0.00    -0.288 N 
HETATM   23  C8  UNL     1      13.259  46.463 204.975  1.00  0.00     0.329 A 
ATOM     24  H3  UNL     1      15.279  46.734 205.274  1.00  0.00     0.172 HD
HETATM   25  O4  UNL     1      12.925  47.567 205.473  1.00  0.00    -0.247 OA
HETATM   26  N4  UNL     1      12.318  45.621 204.493  1.00  0.00    -0.275 N 
HETATM   27  C9  UNL     1      12.667  44.417 203.912  1.00  0.00     0.262 A 
ATOM     28  H4  UNL     1      11.333  45.879 204.559  1.00  0.00     0.173 HD
HETATM   29  O5  UNL     1      11.753  43.670 203.483  1.00  0.00    -0.267 OA
BRANCH  21  30
HETATM   30  O3  UNL     1      16.267  44.650 204.273  1.00  0.00    -0.345 OA
ATOM     31  H3  UNL     1      16.798  44.805 205.045  1.00  0.00     0.219 HD
ENDBRANCH  21  30
ENDBRANCH  17  20
ENDBRANCH   1  17
TORSDOF 9
ENDMDL
MODEL 5
REMARK VINA RESULT: -8.119243066      1.047      1.228
REMARK  9 active torsions:
REMARK  status: ('A' for Active; 'I' for Inactive)
REMARK    1  A    between atoms: C2_2  and  N1_3 
REMARK    2  A    between atoms: C3_6  and  O1_7 
REMARK    3  A    between atoms: O1_7  and  C4_8 
REMARK    4  A    between atoms: C4_8  and  C5_9 
REMARK    5  A    between atoms: C5_9  and  O2_10 
REMARK    6  A    between atoms: C5_9  and  C6_12 
REMARK    7  A    between atoms: C7_13  and  O3_14 
REMARK    8  A    between atoms: C11_25  and  S1_26 
REMARK    9  A    between atoms: S1_26  and  N5_29 
ROOT
HETATM    1  C4  UNL     1      17.539  38.970 198.813  1.00  0.00     0.214 C 
ENDROOT
BRANCH   1   2
HETATM    2  O1  UNL     1      18.297  38.073 198.177  1.00  0.00    -0.332 OA
BRANCH   2   3
HETATM    3  C3  UNL     1      19.320  38.254 197.309  1.00  0.00     0.160 A 
HETATM    4  N2  UNL     1      19.889  39.622 197.485  1.00  0.00    -0.273 N 
HETATM    5  N1  UNL     1      20.882  39.865 196.690  1.00  0.00    -0.257 N 
ATOM      6  H2  UNL     1      19.533  40.296 198.162  1.00  0.00     0.189 HD
HETATM    7  C11 UNL     1      21.077  38.734 195.920  1.00  0.00     0.174 A 
HETATM    8  C10 UNL     1      20.112  37.885 196.376  1.00  0.00     0.103 A 
BRANCH   5   9
HETATM    9  C2  UNL     1      21.653  41.061 196.693  1.00  0.00     0.086 C 
HETATM   10  C1  UNL     1      21.093  42.380 196.344  1.00  0.00     0.057 C 
ENDBRANCH   5   9
BRANCH   7  11
HETATM   11  S1  UNL     1      22.236  38.474 194.682  1.00  0.00     0.276 S 
HETATM   12  O6  UNL     1      23.659  38.387 195.222  1.00  0.00    -0.199 OA
HETATM   13  O7  UNL     1      22.225  39.697 193.767  1.00  0.00    -0.199 OA
BRANCH  11  14
HETATM   14  N5  UNL     1      21.935  37.101 193.688  1.00  0.00    -0.319 N 
HETATM   15  C12 UNL     1      21.630  37.560 192.317  1.00  0.00     0.159 C 
ATOM     16  H5  UNL     1      21.962  36.130 193.995  1.00  0.00     0.171 HD
ENDBRANCH  11  14
ENDBRANCH   7  11
ENDBRANCH   2   3
ENDBRANCH   1   2
BRANCH   1  17
HETATM   17  C5  UNL     1      16.143  39.345 198.712  1.00  0.00     0.185 C 
BRANCH  17  18
HETATM   18  O2  UNL     1      15.417  38.501 197.803  1.00  0.00    -0.388 OA
ATOM     19  H2  UNL     1      15.450  38.821 196.909  1.00  0.00     0.210 HD
ENDBRANCH  17  18
BRANCH  17  20
HETATM   20  C6  UNL     1      15.346  39.482 199.944  1.00  0.00     0.091 A 
HETATM   21  C7  UNL     1      14.876  40.725 200.313  1.00  0.00     0.158 A 
HETATM   22  N3  UNL     1      14.032  40.931 201.297  1.00  0.00    -0.288 N 
HETATM   23  C8  UNL     1      13.564  39.884 202.008  1.00  0.00     0.329 A 
ATOM     24  H3  UNL     1      13.733  41.880 201.524  1.00  0.00     0.172 HD
HETATM   25  O4  UNL     1      12.729  40.065 202.929  1.00  0.00    -0.247 OA
HETATM   26  N4  UNL     1      13.987  38.637 201.708  1.00  0.00    -0.275 N 
HETATM   27  C9  UNL     1      14.880  38.414 200.678  1.00  0.00     0.262 A 
ATOM     28  H4  UNL     1      13.641  37.846 202.251  1.00  0.00     0.173 HD
HETATM   29  O5  UNL     1      15.244  37.236 200.442  1.00  0.00    -0.267 OA
BRANCH  21  30
HETATM   30  O3  UNL     1      15.335  41.842 199.587  1.00  0.00    -0.345 OA
ATOM     31  H3  UNL     1      15.390  42.673 200.042  1.00  0.00     0.219 HD
ENDBRANCH  21  30
ENDBRANCH  17  20
ENDBRANCH   1  17
TORSDOF 9
ENDMDL
