MODEL 1
REMARK VINA RESULT: -7.889374150      0.000      0.000
REMARK  7 active torsions:
REMARK  status: ('A' for Active; 'I' for Inactive)
REMARK    1  A    between atoms: C2_2  and  C3_3 
REMARK    2  A    between atoms: C3_3  and  N1_4 
REMARK    3  A    between atoms: N4_13  and  C9_14 
REMARK    4  A    between atoms: C10_17  and  N6_18 
REMARK    5  A    between atoms: N6_18  and  C11_20 
REMARK    6  A    between atoms: C11_20  and  C12_21 
REMARK    7  A    between atoms: C12_21  and  N7_22 
REMARK       I    between atoms: N9_28  and  C16_30 
REMARK       I    between atoms: C16_30  and  N10_31 
REMARK       I    between atoms: C16_30  and  N11_35 
ROOT
HETATM    1  C9  UNL     1      13.896  38.169 199.845  1.00  0.00     0.728 A 
HETATM    2  N5  UNL     1      14.802  38.532 198.925  1.00  0.00    -0.020 N 
ATOM      3  H5  UNL     1      14.964  37.920 198.125  1.00  0.00     0.203 HD
HETATM    4  C10 UNL     1      15.503  39.673 199.018  1.00  0.00     0.707 A 
HETATM    5  N8  UNL     1      15.295  40.487 200.071  1.00  0.00    -0.021 N 
ATOM      6  H8  UNL     1      15.817  41.358 200.162  1.00  0.00     0.203 HD
HETATM    7  C15 UNL     1      14.402  40.140 200.986  1.00  0.00     0.710 A 
HETATM    8  N9  UNL     1      14.157  40.870 202.006  1.00  0.00    -0.172 N 
ATOM      9  H9  UNL     1      13.452  40.504 202.644  1.00  0.00     0.181 HD
HETATM   10  C16 UNL     1      14.726  42.122 202.381  1.00  0.00     0.494 C 
HETATM   11  N10 UNL     1      13.658  43.112 202.379  1.00  0.00    -0.032 N 
ATOM     12 1H10 UNL     1      14.065  44.009 202.648  1.00  0.00     0.278 HD
ATOM     13 2H10 UNL     1      12.868  42.845 202.965  1.00  0.00     0.278 HD
ATOM     14 3H10 UNL     1      13.159  43.155 201.490  1.00  0.00     0.278 HD
HETATM   15  N11 UNL     1      15.189  42.018 203.781  1.00  0.00    -0.032 N 
ATOM     16 1H11 UNL     1      15.595  42.914 204.049  1.00  0.00     0.278 HD
ATOM     17 2H11 UNL     1      15.828  41.237 203.927  1.00  0.00     0.278 HD
ATOM     18 3H11 UNL     1      14.452  41.714 204.417  1.00  0.00     0.278 HD
HETATM   19  N12 UNL     1      13.689  38.975 200.888  1.00  0.00    -0.020 N 
ATOM     20  H12 UNL     1      13.006  38.726 201.604  1.00  0.00     0.203 HD
ENDROOT
BRANCH   1  21
HETATM   21  N4  UNL     1      13.156  36.940 199.707  1.00  0.00    -0.116 N 
HETATM   22  N1  UNL     1      11.858  37.022 199.161  1.00  0.00    -0.245 N 
HETATM   23  C4  UNL     1      11.064  35.853 199.269  1.00  0.00     0.206 C 
HETATM   24  N2  UNL     1       9.744  35.852 198.745  1.00  0.00    -0.062 NA
HETATM   25  N3  UNL     1      11.508  34.803 199.828  1.00  0.00    -0.353 N 
HETATM   26  C5  UNL     1      12.804  34.619 200.410  1.00  0.00     0.044 C 
ATOM     27  H3  UNL     1      10.874  34.006 199.869  1.00  0.00     0.163 HD
HETATM   28  C6  UNL     1      12.636  34.480 201.926  1.00  0.00     0.039 C 
HETATM   29  C7  UNL     1      13.343  33.289 199.895  1.00  0.00     0.039 C 
HETATM   30  C8  UNL     1      13.775  35.723 200.119  1.00  0.00     0.198 C 
BRANCH  22  31
HETATM   31  C3  UNL     1      11.392  38.252 198.521  1.00  0.00     0.179 C 
BRANCH  31  32
HETATM   32  C2  UNL     1      11.499  38.142 197.059  1.00  0.00    -0.015 C 
HETATM   33  C1  UNL     1      10.731  38.867 196.273  1.00  0.00     0.008 C 
ENDBRANCH  31  32
ENDBRANCH  22  31
ENDBRANCH   1  21
BRANCH   4  34
HETATM   34  N6  UNL     1      16.364  39.985 198.125  1.00  0.00    -0.224 N 
ATOM     35  H6  UNL     1      16.409  40.932 197.750  1.00  0.00     0.177 HD
BRANCH  34  36
HETATM   36  C11 UNL     1      17.272  38.957 197.660  1.00  0.00     0.157 C 
BRANCH  36  37
HETATM   37  C12 UNL     1      18.566  38.995 198.481  1.00  0.00     0.136 C 
BRANCH  37  38
HETATM   38  N7  UNL     1      19.620  39.259 197.568  1.00  0.00    -0.419 N 
HETATM   39  C13 UNL     1      19.778  40.596 197.123  1.00  0.00     0.142 C 
HETATM   40  C14 UNL     1      19.969  38.228 196.658  1.00  0.00     0.142 C 
ENDBRANCH  37  38
ENDBRANCH  36  37
ENDBRANCH  34  36
ENDBRANCH   4  34
TORSDOF 7
ENDMDL
MODEL 2
REMARK VINA RESULT: -7.768971853      1.360      3.287
REMARK  7 active torsions:
REMARK  status: ('A' for Active; 'I' for Inactive)
REMARK    1  A    between atoms: C2_2  and  C3_3 
REMARK    2  A    between atoms: C3_3  and  N1_4 
REMARK    3  A    between atoms: N4_13  and  C9_14 
REMARK    4  A    between atoms: C10_17  and  N6_18 
REMARK    5  A    between atoms: N6_18  and  C11_20 
REMARK    6  A    between atoms: C11_20  and  C12_21 
REMARK    7  A    between atoms: C12_21  and  N7_22 
REMARK       I    between atoms: N9_28  and  C16_30 
REMARK       I    between atoms: C16_30  and  N10_31 
REMARK       I    between atoms: C16_30  and  N11_35 
ROOT
HETATM    1  C9  UNL     1      13.197  38.109 199.070  1.00  0.00     0.728 A 
HETATM    2  N5  UNL     1      14.300  38.137 198.307  1.00  0.00    -0.020 N 
ATOM      3  H5  UNL     1      14.241  37.803 197.345  1.00  0.00     0.203 HD
HETATM    4  C10 UNL     1      15.479  38.588 198.763  1.00  0.00     0.707 A 
HETATM    5  N8  UNL     1      15.565  39.031 200.032  1.00  0.00    -0.021 N 
ATOM      6  H8  UNL     1      16.450  39.378 200.400  1.00  0.00     0.203 HD
HETATM    7  C15 UNL     1      14.483  39.010 200.796  1.00  0.00     0.710 A 
HETATM    8  N9  UNL     1      14.499  39.419 202.007  1.00  0.00    -0.172 N 
ATOM      9  H9  UNL     1      13.609  39.356 202.500  1.00  0.00     0.181 HD
HETATM   10  C16 UNL     1      15.580  39.950 202.769  1.00  0.00     0.494 C 
HETATM   11  N10 UNL     1      15.241  41.322 203.122  1.00  0.00    -0.032 N 
ATOM     12 1H10 UNL     1      16.014  41.703 203.667  1.00  0.00     0.278 HD
ATOM     13 2H10 UNL     1      14.344  41.399 203.601  1.00  0.00     0.278 HD
ATOM     14 3H10 UNL     1      15.010  41.895 202.310  1.00  0.00     0.278 HD
HETATM   15  N11 UNL     1      15.658  39.205 204.043  1.00  0.00    -0.032 N 
ATOM     16 1H11 UNL     1      16.431  39.585 204.588  1.00  0.00     0.278 HD
ATOM     17 2H11 UNL     1      15.733  38.197 203.905  1.00  0.00     0.278 HD
ATOM     18 3H11 UNL     1      14.776  39.208 204.555  1.00  0.00     0.278 HD
HETATM   19  N12 UNL     1      13.281  38.548 200.328  1.00  0.00    -0.020 N 
ATOM     20  H12 UNL     1      12.460  38.541 200.933  1.00  0.00     0.203 HD
ENDROOT
BRANCH   1  21
HETATM   21  N4  UNL     1      11.946  37.626 198.543  1.00  0.00    -0.116 N 
HETATM   22  N1  UNL     1      11.798  36.232 198.398  1.00  0.00    -0.245 N 
HETATM   23  C4  UNL     1      10.673  35.800 197.650  1.00  0.00     0.206 C 
HETATM   24  N2  UNL     1      10.452  34.411 197.455  1.00  0.00    -0.062 NA
HETATM   25  N3  UNL     1       9.858  36.633 197.147  1.00  0.00    -0.353 N 
HETATM   26  C5  UNL     1       9.918  38.061 197.237  1.00  0.00     0.044 C 
ATOM     27  H3  UNL     1       9.076  36.244 196.621  1.00  0.00     0.163 HD
HETATM   28  C6  UNL     1      10.221  38.620 195.844  1.00  0.00     0.039 C 
HETATM   29  C7  UNL     1       8.524  38.547 197.621  1.00  0.00     0.039 C 
HETATM   30  C8  UNL     1      10.936  38.577 198.210  1.00  0.00     0.198 C 
BRANCH  22  31
HETATM   31  C3  UNL     1      12.761  35.310 199.000  1.00  0.00     0.179 C 
BRANCH  31  32
HETATM   32  C2  UNL     1      12.331  34.931 200.353  1.00  0.00    -0.015 C 
HETATM   33  C1  UNL     1      13.147  35.060 201.378  1.00  0.00     0.008 C 
ENDBRANCH  31  32
ENDBRANCH  22  31
ENDBRANCH   1  21
BRANCH   4  34
HETATM   34  N6  UNL     1      16.511  38.594 198.009  1.00  0.00    -0.224 N 
ATOM     35  H6  UNL     1      16.601  37.931 197.239  1.00  0.00     0.177 HD
BRANCH  34  36
HETATM   36  C11 UNL     1      17.550  39.566 198.278  1.00  0.00     0.157 C 
BRANCH  36  37
HETATM   37  C12 UNL     1      18.878  38.849 198.544  1.00  0.00     0.136 C 
BRANCH  37  38
HETATM   38  N7  UNL     1      19.765  39.234 197.504  1.00  0.00    -0.419 N 
HETATM   39  C13 UNL     1      19.745  40.594 197.102  1.00  0.00     0.142 C 
HETATM   40  C14 UNL     1      20.064  38.268 196.510  1.00  0.00     0.142 C 
ENDBRANCH  37  38
ENDBRANCH  36  37
ENDBRANCH  34  36
ENDBRANCH   4  34
TORSDOF 7
ENDMDL
MODEL 3
REMARK VINA RESULT: -7.719525104      1.140      2.932
REMARK  7 active torsions:
REMARK  status: ('A' for Active; 'I' for Inactive)
REMARK    1  A    between atoms: C2_2  and  C3_3 
REMARK    2  A    between atoms: C3_3  and  N1_4 
REMARK    3  A    between atoms: N4_13  and  C9_14 
REMARK    4  A    between atoms: C10_17  and  N6_18 
REMARK    5  A    between atoms: N6_18  and  C11_20 
REMARK    6  A    between atoms: C11_20  and  C12_21 
REMARK    7  A    between atoms: C12_21  and  N7_22 
REMARK       I    between atoms: N9_28  and  C16_30 
REMARK       I    between atoms: C16_30  and  N10_31 
REMARK       I    between atoms: C16_30  and  N11_35 
ROOT
HETATM    1  C9  UNL     1      13.795  37.929 199.361  1.00  0.00     0.728 A 
HETATM    2  N5  UNL     1      14.765  38.263 198.496  1.00  0.00    -0.020 N 
ATOM      3  H5  UNL     1      14.902  37.688 197.665  1.00  0.00     0.203 HD
HETATM    4  C10 UNL     1      15.560  39.327 198.685  1.00  0.00     0.707 A 
HETATM    5  N8  UNL     1      15.384  40.092 199.780  1.00  0.00    -0.021 N 
ATOM      6  H8  UNL     1      15.978  40.905 199.943  1.00  0.00     0.203 HD
HETATM    7  C15 UNL     1      14.430  39.773 200.641  1.00  0.00     0.710 A 
HETATM    8  N9  UNL     1      14.212  40.460 201.697  1.00  0.00    -0.172 N 
ATOM      9  H9  UNL     1      13.452  40.121 202.287  1.00  0.00     0.181 HD
HETATM   10  C16 UNL     1      14.874  41.630 202.169  1.00  0.00     0.494 C 
HETATM   11  N10 UNL     1      13.899  42.712 202.195  1.00  0.00    -0.032 N 
ATOM     12 1H10 UNL     1      14.373  43.549 202.533  1.00  0.00     0.278 HD
ATOM     13 2H10 UNL     1      13.066  42.483 202.736  1.00  0.00     0.278 HD
ATOM     14 3H10 UNL     1      13.440  42.853 201.294  1.00  0.00     0.278 HD
HETATM   15  N11 UNL     1      15.271  41.400 203.574  1.00  0.00    -0.032 N 
ATOM     16 1H11 UNL     1      15.745  42.238 203.912  1.00  0.00     0.278 HD
ATOM     17 2H11 UNL     1      15.832  40.557 203.691  1.00  0.00     0.278 HD
ATOM     18 3H11 UNL     1      14.486  41.127 204.165  1.00  0.00     0.278 HD
HETATM   19  N12 UNL     1      13.620  38.686 200.446  1.00  0.00    -0.020 N 
ATOM     20  H12 UNL     1      12.891  38.458 201.122  1.00  0.00     0.203 HD
ENDROOT
BRANCH   1  21
HETATM   21  N4  UNL     1      12.954  36.784 199.120  1.00  0.00    -0.116 N 
HETATM   22  N1  UNL     1      13.328  35.566 199.723  1.00  0.00    -0.245 N 
HETATM   23  C4  UNL     1      12.638  34.412 199.273  1.00  0.00     0.206 C 
HETATM   24  N2  UNL     1      12.957  33.144 199.828  1.00  0.00    -0.062 NA
HETATM   25  N3  UNL     1      11.741  34.487 198.377  1.00  0.00    -0.353 N 
HETATM   26  C5  UNL     1      11.290  35.670 197.708  1.00  0.00     0.044 C 
ATOM     27  H3  UNL     1      11.294  33.613 198.106  1.00  0.00     0.163 HD
HETATM   28  C6  UNL     1      11.720  35.587 196.240  1.00  0.00     0.039 C 
HETATM   29  C7  UNL     1       9.765  35.645 197.728  1.00  0.00     0.039 C 
HETATM   30  C8  UNL     1      11.798  36.949 198.301  1.00  0.00     0.198 C 
BRANCH  22  31
HETATM   31  C3  UNL     1      14.365  35.528 200.754  1.00  0.00     0.179 C 
BRANCH  31  32
HETATM   32  C2  UNL     1      13.763  35.627 202.091  1.00  0.00    -0.015 C 
HETATM   33  C1  UNL     1      13.793  34.603 202.918  1.00  0.00     0.008 C 
ENDBRANCH  31  32
ENDBRANCH  22  31
ENDBRANCH   1  21
BRANCH   4  34
HETATM   34  N6  UNL     1      16.479  39.613 197.842  1.00  0.00    -0.224 N 
ATOM     35  H6  UNL     1      16.485  40.512 197.359  1.00  0.00     0.177 HD
BRANCH  34  36
HETATM   36  C11 UNL     1      17.510  38.628 197.592  1.00  0.00     0.157 C 
BRANCH  36  37
HETATM   37  C12 UNL     1      18.765  38.970 198.401  1.00  0.00     0.136 C 
BRANCH  37  38
HETATM   38  N7  UNL     1      19.793  39.249 197.462  1.00  0.00    -0.419 N 
HETATM   39  C13 UNL     1      19.909  40.586 197.003  1.00  0.00     0.142 C 
HETATM   40  C14 UNL     1      20.143  38.219 196.553  1.00  0.00     0.142 C 
ENDBRANCH  37  38
ENDBRANCH  36  37
ENDBRANCH  34  36
ENDBRANCH   4  34
TORSDOF 7
ENDMDL
MODEL 4
REMARK VINA RESULT: -7.667239771      1.315      5.535
REMARK  7 active torsions:
REMARK  status: ('A' for Active; 'I' for Inactive)
REMARK    1  A    between atoms: C2_2  and  C3_3 
REMARK    2  A    between atoms: C3_3  and  N1_4 
REMARK    3  A    between atoms: N4_13  and  C9_14 
REMARK    4  A    between atoms: C10_17  and  N6_18 
REMARK    5  A    between atoms: N6_18  and  C11_20 
REMARK    6  A    between atoms: C11_20  and  C12_21 
REMARK    7  A    between atoms: C12_21  and  N7_22 
REMARK       I    between atoms: N9_28  and  C16_30 
REMARK       I    between atoms: C16_30  and  N10_31 
REMARK       I    between atoms: C16_30  and  N11_35 
ROOT
HETATM    1  C9  UNL     1      14.307  38.524 199.687  1.00  0.00     0.728 A 
HETATM    2  N5  UNL     1      14.601  38.949 200.925  1.00  0.00    -0.020 N 
ATOM      3  H5  UNL     1      13.889  38.877 201.652  1.00  0.00     0.203 HD
HETATM    4  C10 UNL     1      15.798  39.466 201.243  1.00  0.00     0.707 A 
HETATM    5  N8  UNL     1      16.744  39.564 200.289  1.00  0.00    -0.021 N 
ATOM      6  H8  UNL     1      17.661  39.953 200.509  1.00  0.00     0.203 HD
HETATM    7  C15 UNL     1      16.467  39.147 199.063  1.00  0.00     0.710 A 
HETATM    8  N9  UNL     1      17.323  39.211 198.116  1.00  0.00    -0.172 N 
ATOM      9  H9  UNL     1      17.001  38.862 197.214  1.00  0.00     0.181 HD
HETATM   10  C16 UNL     1      18.662  39.698 198.136  1.00  0.00     0.494 C 
HETATM   11  N10 UNL     1      19.545  38.583 197.820  1.00  0.00    -0.032 N 
ATOM     12 1H10 UNL     1      20.503  38.932 197.835  1.00  0.00     0.278 HD
ATOM     13 2H10 UNL     1      19.304  38.123 196.943  1.00  0.00     0.278 HD
ATOM     14 3H10 UNL     1      19.406  37.782 198.436  1.00  0.00     0.278 HD
HETATM   15  N11 UNL     1      18.817  40.670 197.033  1.00  0.00    -0.032 N 
ATOM     16 1H11 UNL     1      19.775  41.019 197.048  1.00  0.00     0.278 HD
ATOM     17 2H11 UNL     1      18.125  41.419 197.070  1.00  0.00     0.278 HD
ATOM     18 3H11 UNL     1      18.553  40.283 196.127  1.00  0.00     0.278 HD
HETATM   19  N12 UNL     1      15.245  38.621 198.742  1.00  0.00    -0.020 N 
ATOM     20  H12 UNL     1      15.052  38.306 197.791  1.00  0.00     0.203 HD
ENDROOT
BRANCH   1  21
HETATM   21  N4  UNL     1      13.014  37.967 199.385  1.00  0.00    -0.116 N 
HETATM   22  N1  UNL     1      12.867  36.569 199.495  1.00  0.00    -0.245 N 
HETATM   23  C4  UNL     1      11.674  36.025 198.956  1.00  0.00     0.206 C 
HETATM   24  N2  UNL     1      11.449  34.625 199.024  1.00  0.00    -0.062 NA
HETATM   25  N3  UNL     1      10.800  36.766 198.407  1.00  0.00    -0.353 N 
HETATM   26  C5  UNL     1      10.854  38.188 198.247  1.00  0.00     0.044 C 
ATOM     27  H3  UNL     1       9.972  36.298 198.041  1.00  0.00     0.163 HD
HETATM   28  C6  UNL     1      11.001  38.500 196.755  1.00  0.00     0.039 C 
HETATM   29  C7  UNL     1       9.503  38.742 198.689  1.00  0.00     0.039 C 
HETATM   30  C8  UNL     1      11.963  38.854 199.004  1.00  0.00     0.198 C 
BRANCH  22  31
HETATM   31  C3  UNL     1      13.898  35.756 200.140  1.00  0.00     0.179 C 
BRANCH  31  32
HETATM   32  C2  UNL     1      13.569  35.539 201.555  1.00  0.00    -0.015 C 
HETATM   33  C1  UNL     1      13.697  34.347 202.099  1.00  0.00     0.008 C 
ENDBRANCH  31  32
ENDBRANCH  22  31
ENDBRANCH   1  21
BRANCH   4  34
HETATM   34  N6  UNL     1      16.041  39.867 202.433  1.00  0.00    -0.224 N 
ATOM     35  H6  UNL     1      16.980  39.802 202.825  1.00  0.00     0.177 HD
BRANCH  34  36
HETATM   36  C11 UNL     1      14.947  40.414 203.208  1.00  0.00     0.157 C 
BRANCH  36  37
HETATM   37  C12 UNL     1      14.943  41.943 203.095  1.00  0.00     0.136 C 
BRANCH  37  38
HETATM   38  N7  UNL     1      13.583  42.343 203.024  1.00  0.00    -0.419 N 
HETATM   39  C13 UNL     1      13.269  43.660 203.447  1.00  0.00     0.142 C 
HETATM   40  C14 UNL     1      12.597  41.344 203.229  1.00  0.00     0.142 C 
ENDBRANCH  37  38
ENDBRANCH  36  37
ENDBRANCH  34  36
ENDBRANCH   4  34
TORSDOF 7
ENDMDL
MODEL 5
REMARK VINA RESULT: -7.648692637      1.562      4.966
REMARK  7 active torsions:
REMARK  status: ('A' for Active; 'I' for Inactive)
REMARK    1  A    between atoms: C2_2  and  C3_3 
REMARK    2  A    between atoms: C3_3  and  N1_4 
REMARK    3  A    between atoms: N4_13  and  C9_14 
REMARK    4  A    between atoms: C10_17  and  N6_18 
REMARK    5  A    between atoms: N6_18  and  C11_20 
REMARK    6  A    between atoms: C11_20  and  C12_21 
REMARK    7  A    between atoms: C12_21  and  N7_22 
REMARK       I    between atoms: N9_28  and  C16_30 
REMARK       I    between atoms: C16_30  and  N10_31 
REMARK       I    between atoms: C16_30  and  N11_35 
ROOT
HETATM    1  C9  UNL     1      14.895  37.990 200.705  1.00  0.00     0.728 A 
HETATM    2  N5  UNL     1      15.006  39.044 201.526  1.00  0.00    -0.020 N 
ATOM      3  H5  UNL     1      14.333  39.149 202.286  1.00  0.00     0.203 HD
HETATM    4  C10 UNL     1      15.971  39.966 201.386  1.00  0.00     0.707 A 
HETATM    5  N8  UNL     1      16.863  39.835 200.386  1.00  0.00    -0.021 N 
ATOM      6  H8  UNL     1      17.604  40.524 200.261  1.00  0.00     0.203 HD
HETATM    7  C15 UNL     1      16.765  38.798 199.568  1.00  0.00     0.710 A 
HETATM    8  N9  UNL     1      17.583  38.616 198.603  1.00  0.00    -0.172 N 
ATOM      9  H9  UNL     1      17.411  37.784 198.038  1.00  0.00     0.181 HD
HETATM   10  C16 UNL     1      18.699  39.404 198.200  1.00  0.00     0.494 C 
HETATM   11  N10 UNL     1      19.896  38.588 198.350  1.00  0.00    -0.032 N 
ATOM     12 1H10 UNL     1      20.696  39.152 198.062  1.00  0.00     0.278 HD
ATOM     13 2H10 UNL     1      19.837  37.702 197.849  1.00  0.00     0.278 HD
ATOM     14 3H10 UNL     1      20.000  38.205 199.290  1.00  0.00     0.278 HD
HETATM   15  N11 UNL     1      18.570  39.685 196.755  1.00  0.00    -0.032 N 
ATOM     16 1H11 UNL     1      19.370  40.249 196.467  1.00  0.00     0.278 HD
ATOM     17 2H11 UNL     1      17.678  40.117 196.517  1.00  0.00     0.278 HD
ATOM     18 3H11 UNL     1      18.466  38.837 196.198  1.00  0.00     0.278 HD
HETATM   19  N12 UNL     1      15.779  37.859 199.714  1.00  0.00    -0.020 N 
ATOM     20  H12 UNL     1      15.722  37.067 199.073  1.00  0.00     0.203 HD
ENDROOT
BRANCH   1  21
HETATM   21  N4  UNL     1      13.851  37.015 200.892  1.00  0.00    -0.116 N 
HETATM   22  N1  UNL     1      12.588  37.300 200.334  1.00  0.00    -0.245 N 
HETATM   23  C4  UNL     1      11.523  36.458 200.742  1.00  0.00     0.206 C 
HETATM   24  N2  UNL     1      10.218  36.679 200.228  1.00  0.00    -0.062 NA
HETATM   25  N3  UNL     1      11.712  35.508 201.564  1.00  0.00    -0.353 N 
HETATM   26  C5  UNL     1      12.949  35.137 202.183  1.00  0.00     0.044 C 
ATOM     27  H3  UNL     1      10.895  34.950 201.809  1.00  0.00     0.163 HD
HETATM   28  C6  UNL     1      12.849  35.443 203.680  1.00  0.00     0.039 C 
HETATM   29  C7  UNL     1      13.085  33.624 202.044  1.00  0.00     0.039 C 
HETATM   30  C8  UNL     1      14.154  35.824 201.617  1.00  0.00     0.198 C 
BRANCH  22  31
HETATM   31  C3  UNL     1      12.420  38.403 199.387  1.00  0.00     0.179 C 
BRANCH  31  32
HETATM   32  C2  UNL     1      12.568  37.920 198.007  1.00  0.00    -0.015 C 
HETATM   33  C1  UNL     1      11.579  38.038 197.145  1.00  0.00     0.008 C 
ENDBRANCH  31  32
ENDBRANCH  22  31
ENDBRANCH   1  21
BRANCH   4  34
HETATM   34  N6  UNL     1      16.043  40.963 202.185  1.00  0.00    -0.224 N 
ATOM     35  H6  UNL     1      16.853  41.582 202.177  1.00  0.00     0.177 HD
BRANCH  34  36
HETATM   36  C11 UNL     1      14.943  41.188 203.100  1.00  0.00     0.157 C 
BRANCH  36  37
HETATM   37  C12 UNL     1      14.753  42.692 203.326  1.00  0.00     0.136 C 
BRANCH  37  38
HETATM   38  N7  UNL     1      13.360  42.946 203.228  1.00  0.00    -0.419 N 
HETATM   39  C13 UNL     1      12.889  44.191 203.718  1.00  0.00     0.142 C 
HETATM   40  C14 UNL     1      12.485  41.835 203.334  1.00  0.00     0.142 C 
ENDBRANCH  37  38
ENDBRANCH  36  37
ENDBRANCH  34  36
ENDBRANCH   4  34
TORSDOF 7
ENDMDL
