MODEL 1
REMARK VINA RESULT: -10.660951622      0.000      0.000
REMARK  7 active torsions:
REMARK  status: ('A' for Active; 'I' for Inactive)
REMARK    1  A    between atoms: O1_2  and  C2_3 
REMARK       I    between atoms: C2_3  and  N1_5 
REMARK       I    between atoms: N2_8  and  C5_9 
REMARK    2  A    between atoms: C5_9  and  C6_11 
REMARK    3  A    between atoms: C6_11  and  C7_12 
REMARK    4  A    between atoms: C7_12  and  N3_13 
REMARK       I    between atoms: N3_13  and  C8_15 
REMARK    5  A    between atoms: C8_15  and  C9_17 
REMARK    6  A    between atoms: C11_19  and  N4_20 
REMARK       I    between atoms: N4_20  and  C12_22 
REMARK       I    between atoms: C12_22  and  N5_24 
REMARK    7  A    between atoms: N5_24  and  C13_26 
ROOT
HETATM    1  C9  UNL     1      15.142 -14.388  15.095  1.00  0.00     0.084 C 
HETATM    2  C10 UNL     1      14.485 -15.580  15.680  1.00  0.00     0.045 C 
HETATM    3  C11 UNL     1      13.136 -15.882  15.033  1.00  0.00     0.036 C 
HETATM    4  C19 UNL     1      13.384 -16.918  13.987  1.00  0.00     0.035 C 
HETATM    5  C20 UNL     1      13.949 -16.317  12.724  1.00  0.00    -0.012 C 
HETATM    6  C21 UNL     1      12.926 -15.370  12.172  1.00  0.00     0.009 C 
HETATM    7  C22 UNL     1      12.834 -14.222  13.145  1.00  0.00    -0.012 C 
HETATM    8  C23 UNL     1      14.140 -13.465  13.080  1.00  0.00     0.010 C 
HETATM    9  C24 UNL     1      15.230 -14.349  13.606  1.00  0.00    -0.001 C 
HETATM   10  C25 UNL     1      15.282 -15.703  12.955  1.00  0.00     0.010 C 
HETATM   11  C26 UNL     1      12.480 -14.643  14.536  1.00  0.00     0.035 C 
ENDROOT
BRANCH   1  12
HETATM   12  C8  UNL     1      16.559 -14.287  15.612  1.00  0.00     0.222 C 
HETATM   13  N3  UNL     1      17.483 -15.229  15.109  1.00  0.00    -0.360 N 
ATOM     14  H3  UNL     1      17.134 -15.910  14.435  1.00  0.00     0.162 HD
HETATM   15  O4  UNL     1      16.888 -13.429  16.428  1.00  0.00    -0.273 OA
BRANCH  13  16
HETATM   16  C7  UNL     1      18.880 -15.312  15.466  1.00  0.00     0.132 C 
BRANCH  16  17
HETATM   17  C6  UNL     1      19.621 -16.090  14.433  1.00  0.00     0.122 C 
BRANCH  17  18
HETATM   18  C5  UNL     1      19.578 -17.523  14.757  1.00  0.00     0.221 C 
HETATM   19  N2  UNL     1      20.053 -18.507  13.852  1.00  0.00    -0.349 N 
HETATM   20  C4  UNL     1      20.602 -18.066  12.561  1.00  0.00     0.145 C 
HETATM   21  C27 UNL     1      20.027 -19.914  14.137  1.00  0.00     0.145 C 
HETATM   22  C3  UNL     1      22.046 -18.578  12.565  1.00  0.00     0.148 C 
HETATM   23  N1  UNL     1      21.969 -20.006  12.692  1.00  0.00    -0.325 N 
HETATM   24  C2  UNL     1      22.501 -20.828  11.679  1.00  0.00     0.362 C 
HETATM   25  C28 UNL     1      21.351 -20.591  13.846  1.00  0.00     0.148 C 
HETATM   26  O2  UNL     1      22.444 -22.083  11.771  1.00  0.00    -0.238 OA
HETATM   27  O3  UNL     1      19.112 -17.915  15.853  1.00  0.00    -0.273 OA
BRANCH  24  28
HETATM   28  O1  UNL     1      23.104 -20.300  10.545  1.00  0.00    -0.309 OA
HETATM   29  C1  UNL     1      22.363 -19.920   9.418  1.00  0.00     0.215 C 
ENDBRANCH  24  28
ENDBRANCH  17  18
ENDBRANCH  16  17
ENDBRANCH  13  16
ENDBRANCH   1  12
BRANCH   3  30
HETATM   30  N4  UNL     1      12.329 -16.457  16.079  1.00  0.00    -0.334 N 
HETATM   31  C12 UNL     1      10.895 -16.607  16.040  1.00  0.00     0.321 C 
HETATM   32  O5  UNL     1      10.281 -16.224  15.041  1.00  0.00    -0.247 OA
HETATM   33  N5  UNL     1      10.222 -17.185  17.138  1.00  0.00    -0.307 N 
ATOM     34  H5  UNL     1      10.815 -17.469  17.918  1.00  0.00     0.170 HD
ATOM     35  H4  UNL     1      12.812 -16.786  16.916  1.00  0.00     0.165 HD
BRANCH  33  36
HETATM   36  C13 UNL     1       8.845 -17.425  17.305  1.00  0.00     0.058 A 
HETATM   37  C14 UNL     1       7.975 -17.745  16.276  1.00  0.00     0.033 A 
HETATM   38  C15 UNL     1       6.616 -17.969  16.540  1.00  0.00     0.026 A 
HETATM   39  C16 UNL     1       6.131 -17.877  17.821  1.00  0.00     0.035 A 
HETATM   40 CL1  UNL     1       4.425 -18.166  18.120  1.00  0.00    -0.084 Cl
HETATM   41  C17 UNL     1       6.986 -17.561  18.850  1.00  0.00     0.050 A 
HETATM   42  C18 UNL     1       8.318 -17.339  18.599  1.00  0.00     0.062 A 
HETATM   43 CL2  UNL     1       9.405 -16.932  19.929  1.00  0.00    -0.082 Cl
ENDBRANCH  33  36
ENDBRANCH   3  30
TORSDOF 7
ENDMDL
MODEL 2
REMARK VINA RESULT: -10.641590866      4.222     12.065
REMARK  7 active torsions:
REMARK  status: ('A' for Active; 'I' for Inactive)
REMARK    1  A    between atoms: O1_2  and  C2_3 
REMARK       I    between atoms: C2_3  and  N1_5 
REMARK       I    between atoms: N2_8  and  C5_9 
REMARK    2  A    between atoms: C5_9  and  C6_11 
REMARK    3  A    between atoms: C6_11  and  C7_12 
REMARK    4  A    between atoms: C7_12  and  N3_13 
REMARK       I    between atoms: N3_13  and  C8_15 
REMARK    5  A    between atoms: C8_15  and  C9_17 
REMARK    6  A    between atoms: C11_19  and  N4_20 
REMARK       I    between atoms: N4_20  and  C12_22 
REMARK       I    between atoms: C12_22  and  N5_24 
REMARK    7  A    between atoms: N5_24  and  C13_26 
ROOT
HETATM    1  C9  UNL     1      12.892 -16.051  15.602  1.00  0.00     0.084 C 
HETATM    2  C10 UNL     1      14.326 -15.850  15.912  1.00  0.00     0.045 C 
HETATM    3  C11 UNL     1      15.198 -15.824  14.659  1.00  0.00     0.036 C 
HETATM    4  C19 UNL     1      15.394 -14.388  14.303  1.00  0.00     0.035 C 
HETATM    5  C20 UNL     1      14.196 -13.818  13.582  1.00  0.00    -0.012 C 
HETATM    6  C21 UNL     1      14.036 -14.573  12.298  1.00  0.00     0.009 C 
HETATM    7  C22 UNL     1      13.637 -15.978  12.670  1.00  0.00    -0.012 C 
HETATM    8  C23 UNL     1      12.247 -15.915  13.260  1.00  0.00     0.010 C 
HETATM    9  C24 UNL     1      12.312 -15.160  14.554  1.00  0.00    -0.001 C 
HETATM   10  C25 UNL     1      12.984 -13.820  14.443  1.00  0.00     0.010 C 
HETATM   11  C26 UNL     1      14.617 -16.658  13.573  1.00  0.00     0.035 C 
ENDROOT
BRANCH   1  12
HETATM   12  C8  UNL     1      12.069 -15.833  16.852  1.00  0.00     0.222 C 
HETATM   13  N3  UNL     1      11.270 -16.918  17.279  1.00  0.00    -0.360 N 
ATOM     14  H3  UNL     1      11.303 -17.769  16.719  1.00  0.00     0.162 HD
HETATM   15  O4  UNL     1      12.093 -14.768  17.462  1.00  0.00    -0.273 OA
BRANCH  13  16
HETATM   16  C7  UNL     1      10.411 -16.926  18.440  1.00  0.00     0.132 C 
BRANCH  16  17
HETATM   17  C6  UNL     1       9.070 -16.384  18.081  1.00  0.00     0.122 C 
BRANCH  17  18
HETATM   18  C5  UNL     1       8.488 -17.170  16.984  1.00  0.00     0.221 C 
HETATM   19  N2  UNL     1       7.334 -17.973  17.172  1.00  0.00    -0.349 N 
HETATM   20  C4  UNL     1       6.713 -18.008  18.505  1.00  0.00     0.145 C 
HETATM   21  C27 UNL     1       6.738 -18.751  16.122  1.00  0.00     0.145 C 
HETATM   22  C3  UNL     1       5.289 -17.491  18.277  1.00  0.00     0.148 C 
HETATM   23  N1  UNL     1       4.676 -18.391  17.342  1.00  0.00    -0.325 N 
HETATM   24  C2  UNL     1       3.524 -19.109  17.715  1.00  0.00     0.362 C 
HETATM   25  C28 UNL     1       5.238 -18.556  16.033  1.00  0.00     0.148 C 
HETATM   26  O2  UNL     1       2.970 -19.903  16.908  1.00  0.00    -0.238 OA
HETATM   27  O3  UNL     1       9.005 -17.151  15.842  1.00  0.00    -0.273 OA
BRANCH  24  28
HETATM   28  O1  UNL     1       2.951 -18.979  18.973  1.00  0.00    -0.309 OA
HETATM   29  C1  UNL     1       2.779 -20.076  19.829  1.00  0.00     0.215 C 
ENDBRANCH  24  28
ENDBRANCH  17  18
ENDBRANCH  16  17
ENDBRANCH  13  16
ENDBRANCH   1  12
BRANCH   3  30
HETATM   30  N4  UNL     1      16.463 -16.384  15.060  1.00  0.00    -0.334 N 
HETATM   31  C12 UNL     1      17.381 -17.080  14.192  1.00  0.00     0.321 C 
HETATM   32  O5  UNL     1      17.087 -17.221  13.002  1.00  0.00    -0.247 OA
HETATM   33  N5  UNL     1      18.590 -17.585  14.714  1.00  0.00    -0.307 N 
ATOM     34  H5  UNL     1      18.743 -17.421  15.709  1.00  0.00     0.170 HD
ATOM     35  H4  UNL     1      16.733 -16.279  16.039  1.00  0.00     0.165 HD
BRANCH  33  36
HETATM   36  C13 UNL     1      19.616 -18.286  14.051  1.00  0.00     0.058 A 
HETATM   37  C14 UNL     1      19.750 -19.665  14.052  1.00  0.00     0.033 A 
HETATM   38  C15 UNL     1      20.805 -20.275  13.359  1.00  0.00     0.026 A 
HETATM   39  C16 UNL     1      21.718 -19.515  12.669  1.00  0.00     0.035 A 
HETATM   40 CL1  UNL     1      23.026 -20.309  11.809  1.00  0.00    -0.084 Cl
HETATM   41  C17 UNL     1      21.593 -18.146  12.661  1.00  0.00     0.050 A 
HETATM   42  C18 UNL     1      20.563 -17.541  13.339  1.00  0.00     0.062 A 
HETATM   43 CL2  UNL     1      20.415 -15.782  13.322  1.00  0.00    -0.082 Cl
ENDBRANCH  33  36
ENDBRANCH   3  30
TORSDOF 7
ENDMDL
MODEL 3
REMARK VINA RESULT: -10.595150494      1.834      2.668
REMARK  7 active torsions:
REMARK  status: ('A' for Active; 'I' for Inactive)
REMARK    1  A    between atoms: O1_2  and  C2_3 
REMARK       I    between atoms: C2_3  and  N1_5 
REMARK       I    between atoms: N2_8  and  C5_9 
REMARK    2  A    between atoms: C5_9  and  C6_11 
REMARK    3  A    between atoms: C6_11  and  C7_12 
REMARK    4  A    between atoms: C7_12  and  N3_13 
REMARK       I    between atoms: N3_13  and  C8_15 
REMARK    5  A    between atoms: C8_15  and  C9_17 
REMARK    6  A    between atoms: C11_19  and  N4_20 
REMARK       I    between atoms: N4_20  and  C12_22 
REMARK       I    between atoms: C12_22  and  N5_24 
REMARK    7  A    between atoms: N5_24  and  C13_26 
ROOT
HETATM    1  C9  UNL     1      13.845 -16.154  14.913  1.00  0.00     0.084 C 
HETATM    2  C10 UNL     1      12.449 -16.605  14.708  1.00  0.00     0.045 C 
HETATM    3  C11 UNL     1      11.461 -15.882  15.621  1.00  0.00     0.036 C 
HETATM    4  C19 UNL     1      10.885 -14.759  14.824  1.00  0.00     0.035 C 
HETATM    5  C20 UNL     1      11.820 -13.576  14.760  1.00  0.00    -0.012 C 
HETATM    6  C21 UNL     1      12.011 -13.072  16.159  1.00  0.00     0.009 C 
HETATM    7  C22 UNL     1      12.777 -14.137  16.901  1.00  0.00    -0.012 C 
HETATM    8  C23 UNL     1      14.168 -14.190  16.313  1.00  0.00     0.010 C 
HETATM    9  C24 UNL     1      14.069 -14.678  14.898  1.00  0.00    -0.001 C 
HETATM   10  C25 UNL     1      13.086 -13.912  14.058  1.00  0.00     0.010 C 
HETATM   11  C26 UNL     1      12.099 -15.471  16.900  1.00  0.00     0.035 C 
ENDROOT
BRANCH   1  12
HETATM   12  C8  UNL     1      14.727 -16.732  13.829  1.00  0.00     0.222 C 
HETATM   13  N3  UNL     1      15.923 -16.034  13.549  1.00  0.00    -0.360 N 
ATOM     14  H3  UNL     1      16.109 -15.192  14.094  1.00  0.00     0.162 HD
HETATM   15  O4  UNL     1      14.418 -17.754  13.224  1.00  0.00    -0.273 OA
BRANCH  13  16
HETATM   16  C7  UNL     1      16.905 -16.408  12.559  1.00  0.00     0.132 C 
BRANCH  16  17
HETATM   17  C6  UNL     1      18.276 -16.258  13.123  1.00  0.00     0.122 C 
BRANCH  17  18
HETATM   18  C5  UNL     1      18.673 -17.495  13.810  1.00  0.00     0.221 C 
HETATM   19  N2  UNL     1      19.417 -18.508  13.153  1.00  0.00    -0.349 N 
HETATM   20  C4  UNL     1      19.793 -18.301  11.746  1.00  0.00     0.145 C 
HETATM   21  C27 UNL     1      19.823 -19.727  13.795  1.00  0.00     0.145 C 
HETATM   22  C3  UNL     1      21.325 -18.351  11.750  1.00  0.00     0.148 C 
HETATM   23  N1  UNL     1      21.688 -19.647  12.250  1.00  0.00    -0.325 N 
HETATM   24  C2  UNL     1      22.434 -20.525  11.441  1.00  0.00     0.362 C 
HETATM   25  C28 UNL     1      21.287 -20.044  13.568  1.00  0.00     0.148 C 
HETATM   26  O2  UNL     1      22.763 -21.666  11.860  1.00  0.00    -0.238 OA
HETATM   27  O3  UNL     1      18.360 -17.687  15.009  1.00  0.00    -0.273 OA
BRANCH  24  28
HETATM   28  O1  UNL     1      22.838 -20.178  10.158  1.00  0.00    -0.309 OA
HETATM   29  C1  UNL     1      21.949 -20.180   9.074  1.00  0.00     0.215 C 
ENDBRANCH  24  28
ENDBRANCH  17  18
ENDBRANCH  16  17
ENDBRANCH  13  16
ENDBRANCH   1  12
BRANCH   3  30
HETATM   30  N4  UNL     1      10.422 -16.841  15.897  1.00  0.00    -0.334 N 
HETATM   31  C12 UNL     1       9.335 -16.649  16.826  1.00  0.00     0.321 C 
HETATM   32  O5  UNL     1       9.261 -15.587  17.448  1.00  0.00    -0.247 OA
HETATM   33  N5  UNL     1       8.382 -17.674  17.008  1.00  0.00    -0.307 N 
ATOM     34  H5  UNL     1       8.529 -18.516  16.451  1.00  0.00     0.170 HD
ATOM     35  H4  UNL     1      10.457 -17.728  15.394  1.00  0.00     0.165 HD
BRANCH  33  36
HETATM   36  C13 UNL     1       7.256 -17.695  17.852  1.00  0.00     0.058 A 
HETATM   37  C14 UNL     1       7.289 -17.421  19.210  1.00  0.00     0.033 A 
HETATM   38  C15 UNL     1       6.113 -17.464  19.971  1.00  0.00     0.026 A 
HETATM   39  C16 UNL     1       4.912 -17.776  19.382  1.00  0.00     0.035 A 
HETATM   40 CL1  UNL     1       3.456 -17.819  20.362  1.00  0.00    -0.084 Cl
HETATM   41  C17 UNL     1       4.868 -18.049  18.035  1.00  0.00     0.050 A 
HETATM   42  C18 UNL     1       6.017 -18.010  17.283  1.00  0.00     0.062 A 
HETATM   43 CL2  UNL     1       5.946 -18.365  15.555  1.00  0.00    -0.082 Cl
ENDBRANCH  33  36
ENDBRANCH   3  30
TORSDOF 7
ENDMDL
MODEL 4
REMARK VINA RESULT: -10.524291726      1.503      2.214
REMARK  7 active torsions:
REMARK  status: ('A' for Active; 'I' for Inactive)
REMARK    1  A    between atoms: O1_2  and  C2_3 
REMARK       I    between atoms: C2_3  and  N1_5 
REMARK       I    between atoms: N2_8  and  C5_9 
REMARK    2  A    between atoms: C5_9  and  C6_11 
REMARK    3  A    between atoms: C6_11  and  C7_12 
REMARK    4  A    between atoms: C7_12  and  N3_13 
REMARK       I    between atoms: N3_13  and  C8_15 
REMARK    5  A    between atoms: C8_15  and  C9_17 
REMARK    6  A    between atoms: C11_19  and  N4_20 
REMARK       I    between atoms: N4_20  and  C12_22 
REMARK       I    between atoms: C12_22  and  N5_24 
REMARK    7  A    between atoms: N5_24  and  C13_26 
ROOT
HETATM    1  C9  UNL     1      14.178 -16.097  14.883  1.00  0.00     0.084 C 
HETATM    2  C10 UNL     1      12.838 -16.607  14.512  1.00  0.00     0.045 C 
HETATM    3  C11 UNL     1      11.723 -15.993  15.356  1.00  0.00     0.036 C 
HETATM    4  C19 UNL     1      11.165 -14.856  14.566  1.00  0.00     0.035 C 
HETATM    5  C20 UNL     1      12.031 -13.624  14.663  1.00  0.00    -0.012 C 
HETATM    6  C21 UNL     1      12.053 -13.195  16.099  1.00  0.00     0.009 C 
HETATM    7  C22 UNL     1      12.802 -14.262  16.856  1.00  0.00    -0.012 C 
HETATM    8  C23 UNL     1      14.245 -14.206  16.413  1.00  0.00     0.010 C 
HETATM    9  C24 UNL     1      14.316 -14.613  14.971  1.00  0.00    -0.001 C 
HETATM   10  C25 UNL     1      13.378 -13.851  14.077  1.00  0.00     0.010 C 
HETATM   11  C26 UNL     1      12.206 -15.626  16.714  1.00  0.00     0.035 C 
ENDROOT
BRANCH   1  12
HETATM   12  C8  UNL     1      15.196 -16.562  13.866  1.00  0.00     0.222 C 
HETATM   13  N3  UNL     1      16.275 -15.689  13.608  1.00  0.00    -0.360 N 
ATOM     14  H3  UNL     1      16.296 -14.809  14.123  1.00  0.00     0.162 HD
HETATM   15  O4  UNL     1      15.087 -17.643  13.293  1.00  0.00    -0.273 OA
BRANCH  13  16
HETATM   16  C7  UNL     1      17.354 -15.933  12.679  1.00  0.00     0.132 C 
BRANCH  16  17
HETATM   17  C6  UNL     1      18.650 -15.991  13.411  1.00  0.00     0.122 C 
BRANCH  17  18
HETATM   18  C5  UNL     1      18.831 -17.323  14.007  1.00  0.00     0.221 C 
HETATM   19  N2  UNL     1      19.498 -18.366  13.315  1.00  0.00    -0.349 N 
HETATM   20  C4  UNL     1      20.018 -18.092  11.966  1.00  0.00     0.145 C 
HETATM   21  C27 UNL     1      19.694 -19.677  13.867  1.00  0.00     0.145 C 
HETATM   22  C3  UNL     1      21.526 -18.341  12.081  1.00  0.00     0.148 C 
HETATM   23  N1  UNL     1      21.681 -19.711  12.482  1.00  0.00    -0.325 N 
HETATM   24  C2  UNL     1      22.381 -20.608  11.652  1.00  0.00     0.362 C 
HETATM   25  C28 UNL     1      21.122 -20.162  13.723  1.00  0.00     0.148 C 
HETATM   26  O2  UNL     1      22.529 -21.814  11.986  1.00  0.00    -0.238 OA
HETATM   27  O3  UNL     1      18.393 -17.572  15.155  1.00  0.00    -0.273 OA
BRANCH  24  28
HETATM   28  O1  UNL     1      22.934 -20.210  10.442  1.00  0.00    -0.309 OA
HETATM   29  C1  UNL     1      22.190 -20.197   9.254  1.00  0.00     0.215 C 
ENDBRANCH  24  28
ENDBRANCH  17  18
ENDBRANCH  16  17
ENDBRANCH  13  16
ENDBRANCH   1  12
BRANCH   3  30
HETATM   30  N4  UNL     1      10.719 -17.020  15.472  1.00  0.00    -0.334 N 
HETATM   31  C12 UNL     1       9.409 -16.845  16.049  1.00  0.00     0.321 C 
HETATM   32  O5  UNL     1       9.092 -15.735  16.485  1.00  0.00    -0.247 OA
HETATM   33  N5  UNL     1       8.518 -17.938  16.106  1.00  0.00    -0.307 N 
ATOM     34  H5  UNL     1       8.872 -18.814  15.722  1.00  0.00     0.170 HD
ATOM     35  H4  UNL     1      10.954 -17.947  15.116  1.00  0.00     0.165 HD
BRANCH  33  36
HETATM   36  C13 UNL     1       7.209 -17.986  16.620  1.00  0.00     0.058 A 
HETATM   37  C14 UNL     1       6.066 -18.095  15.844  1.00  0.00     0.033 A 
HETATM   38  C15 UNL     1       4.801 -18.139  16.446  1.00  0.00     0.026 A 
HETATM   39  C16 UNL     1       4.677 -18.075  17.812  1.00  0.00     0.035 A 
HETATM   40 CL1  UNL     1       3.079 -18.134  18.537  1.00  0.00    -0.084 Cl
HETATM   41  C17 UNL     1       5.804 -17.967  18.592  1.00  0.00     0.050 A 
HETATM   42  C18 UNL     1       7.047 -17.923  18.008  1.00  0.00     0.062 A 
HETATM   43 CL2  UNL     1       8.486 -17.782  19.021  1.00  0.00    -0.082 Cl
ENDBRANCH  33  36
ENDBRANCH   3  30
TORSDOF 7
ENDMDL
MODEL 5
REMARK VINA RESULT: -10.306316054      1.908      2.749
REMARK  7 active torsions:
REMARK  status: ('A' for Active; 'I' for Inactive)
REMARK    1  A    between atoms: O1_2  and  C2_3 
REMARK       I    between atoms: C2_3  and  N1_5 
REMARK       I    between atoms: N2_8  and  C5_9 
REMARK    2  A    between atoms: C5_9  and  C6_11 
REMARK    3  A    between atoms: C6_11  and  C7_12 
REMARK    4  A    between atoms: C7_12  and  N3_13 
REMARK       I    between atoms: N3_13  and  C8_15 
REMARK    5  A    between atoms: C8_15  and  C9_17 
REMARK    6  A    between atoms: C11_19  and  N4_20 
REMARK       I    between atoms: N4_20  and  C12_22 
REMARK       I    between atoms: C12_22  and  N5_24 
REMARK    7  A    between atoms: N5_24  and  C13_26 
ROOT
HETATM    1  C9  UNL     1      13.943 -15.912  15.623  1.00  0.00     0.084 C 
HETATM    2  C10 UNL     1      12.753 -16.610  15.084  1.00  0.00     0.045 C 
HETATM    3  C11 UNL     1      11.444 -15.958  15.520  1.00  0.00     0.036 C 
HETATM    4  C19 UNL     1      11.027 -15.050  14.411  1.00  0.00     0.035 C 
HETATM    5  C20 UNL     1      11.783 -13.744  14.438  1.00  0.00    -0.012 C 
HETATM    6  C21 UNL     1      11.449 -13.051  15.724  1.00  0.00     0.009 C 
HETATM    7  C22 UNL     1      12.055 -13.877  16.829  1.00  0.00    -0.012 C 
HETATM    8  C23 UNL     1      13.558 -13.768  16.708  1.00  0.00     0.010 C 
HETATM    9  C24 UNL     1      13.982 -14.432  15.432  1.00  0.00    -0.001 C 
HETATM   10  C25 UNL     1      13.239 -13.947  14.218  1.00  0.00     0.010 C 
HETATM   11  C26 UNL     1      11.579 -15.295  16.846  1.00  0.00     0.035 C 
ENDROOT
BRANCH   1  12
HETATM   12  C8  UNL     1      15.191 -16.461  14.970  1.00  0.00     0.222 C 
HETATM   13  N3  UNL     1      16.400 -16.301  15.683  1.00  0.00    -0.360 N 
ATOM     14  H3  UNL     1      16.349 -15.830  16.586  1.00  0.00     0.162 HD
HETATM   15  O4  UNL     1      15.155 -17.015  13.874  1.00  0.00    -0.273 OA
BRANCH  13  16
HETATM   16  C7  UNL     1      17.702 -16.748  15.246  1.00  0.00     0.132 C 
BRANCH  16  17
HETATM   17  C6  UNL     1      18.472 -15.599  14.691  1.00  0.00     0.122 C 
BRANCH  17  18
HETATM   18  C5  UNL     1      18.474 -15.659  13.222  1.00  0.00     0.221 C 
HETATM   19  N2  UNL     1      19.511 -16.306  12.503  1.00  0.00    -0.349 N 
HETATM   20  C4  UNL     1      20.607 -16.929  13.261  1.00  0.00     0.145 C 
HETATM   21  C27 UNL     1      19.543 -16.385  11.070  1.00  0.00     0.145 C 
HETATM   22  C3  UNL     1      20.553 -18.408  12.864  1.00  0.00     0.148 C 
HETATM   23  N1  UNL     1      20.748 -18.453  11.442  1.00  0.00    -0.325 N 
HETATM   24  C2  UNL     1      21.849 -19.151  10.910  1.00  0.00     0.362 C 
HETATM   25  C28 UNL     1      19.824 -17.787  10.571  1.00  0.00     0.148 C 
HETATM   26  O2  UNL     1      22.039 -19.203   9.665  1.00  0.00    -0.238 OA
HETATM   27  O3  UNL     1      17.547 -15.132  12.562  1.00  0.00    -0.273 OA
BRANCH  24  28
HETATM   28  O1  UNL     1      22.767 -19.805  11.721  1.00  0.00    -0.309 OA
HETATM   29  C1  UNL     1      22.696 -21.185  11.960  1.00  0.00     0.215 C 
ENDBRANCH  24  28
ENDBRANCH  17  18
ENDBRANCH  16  17
ENDBRANCH  13  16
ENDBRANCH   1  12
BRANCH   3  30
HETATM   30  N4  UNL     1      10.494 -17.036  15.624  1.00  0.00    -0.334 N 
HETATM   31  C12 UNL     1       9.134 -16.907  16.086  1.00  0.00     0.321 C 
HETATM   32  O5  UNL     1       8.719 -15.796  16.424  1.00  0.00    -0.247 OA
HETATM   33  N5  UNL     1       8.305 -18.048  16.145  1.00  0.00    -0.307 N 
ATOM     34  H5  UNL     1       8.738 -18.922  15.847  1.00  0.00     0.170 HD
ATOM     35  H4  UNL     1      10.809 -17.966  15.349  1.00  0.00     0.165 HD
BRANCH  33  36
HETATM   36  C13 UNL     1       6.963 -18.146  16.558  1.00  0.00     0.058 A 
HETATM   37  C14 UNL     1       5.903 -18.443  15.716  1.00  0.00     0.033 A 
HETATM   38  C15 UNL     1       4.598 -18.523  16.219  1.00  0.00     0.026 A 
HETATM   39  C16 UNL     1       4.351 -18.309  17.553  1.00  0.00     0.035 A 
HETATM   40 CL1  UNL     1       2.705 -18.418  18.154  1.00  0.00    -0.084 Cl
HETATM   41  C17 UNL     1       5.395 -18.015  18.398  1.00  0.00     0.050 A 
HETATM   42  C18 UNL     1       6.677 -17.934  17.911  1.00  0.00     0.062 A 
HETATM   43 CL2  UNL     1       8.008 -17.553  19.007  1.00  0.00    -0.082 Cl
ENDBRANCH  33  36
ENDBRANCH   3  30
TORSDOF 7
ENDMDL
