MODEL 1
REMARK VINA RESULT: -10.186900011      0.000      0.000
REMARK  7 active torsions:
REMARK  status: ('A' for Active; 'I' for Inactive)
REMARK    1  A    between atoms: C4_4  and  S1_5 
REMARK    2  A    between atoms: S1_5  and  N1_8 
REMARK       I    between atoms: N1_8  and  C6_10 
REMARK       I    between atoms: C6_10  and  N2_12 
REMARK    3  A    between atoms: N2_12  and  C7_14 
REMARK    4  A    between atoms: C20_27  and  C21_28 
REMARK       I    between atoms: C21_28  and  N3_30 
REMARK    5  A    between atoms: N3_30  and  C22_32 
REMARK    6  A    between atoms: C22_32  and  C24_34 
REMARK    7  A    between atoms: C24_34  and  N4_35 
ROOT
HETATM    1  C1  UNL     1       9.328 -13.749  12.684  1.00  0.00     0.050 C 
HETATM    2  C2  UNL     1      10.266 -14.492  13.539  1.00  0.00    -0.033 A 
HETATM    3  C3  UNL     1      11.609 -14.253  13.446  1.00  0.00     0.030 A 
HETATM    4  C4  UNL     1      12.550 -14.900  14.211  1.00  0.00     0.040 A 
HETATM    5  C17 UNL     1      12.068 -15.840  15.120  1.00  0.00     0.035 A 
HETATM    6  C18 UNL     1      10.714 -16.098  15.231  1.00  0.00    -0.005 A 
HETATM    7  C19 UNL     1      10.029 -16.986  16.032  1.00  0.00     0.049 A 
HETATM    8  C20 UNL     1       8.686 -16.837  15.712  1.00  0.00     0.102 A 
HETATM    9  N5  UNL     1       8.582 -15.902  14.765  1.00  0.00    -0.351 N 
ATOM     10  H5  UNL     1       7.704 -15.594  14.347  1.00  0.00     0.166 HD
HETATM   11  C30 UNL     1       9.801 -15.420  14.435  1.00  0.00     0.049 A 
ENDROOT
BRANCH   4  12
HETATM   12  S1  UNL     1      14.279 -14.657  14.074  1.00  0.00     0.056 S 
HETATM   13  C5  UNL     1      14.639 -13.547  12.718  1.00  0.00     0.142 C 
HETATM   14  O1  UNL     1      14.746 -14.020  15.361  1.00  0.00    -0.245 OA
BRANCH  12  15
HETATM   15  N1  UNL     1      14.939 -16.040  13.934  1.00  0.00    -0.265 N 
HETATM   16  C6  UNL     1      16.322 -16.231  14.144  1.00  0.00     0.328 C 
HETATM   17  O2  UNL     1      16.808 -17.214  13.454  1.00  0.00    -0.246 OA
HETATM   18  N2  UNL     1      17.193 -15.532  14.955  1.00  0.00    -0.333 N 
ATOM     19  H2  UNL     1      16.794 -14.767  15.498  1.00  0.00     0.165 HD
ATOM     20  H1  UNL     1      14.360 -16.842  13.683  1.00  0.00     0.180 HD
BRANCH  18  21
HETATM   21  C7  UNL     1      18.606 -15.766  15.116  1.00  0.00     0.035 C 
HETATM   22  C8  UNL     1      19.228 -15.512  13.749  1.00  0.00     0.035 C 
HETATM   23  C9  UNL     1      20.704 -15.784  13.736  1.00  0.00    -0.012 C 
HETATM   24  C10 UNL     1      20.922 -17.196  14.233  1.00  0.00     0.009 C 
HETATM   25  C14 UNL     1      21.341 -14.744  14.637  1.00  0.00     0.009 C 
HETATM   26  C11 UNL     1      20.439 -17.334  15.651  1.00  0.00    -0.012 C 
HETATM   27  C12 UNL     1      21.106 -16.284  16.502  1.00  0.00     0.009 C 
HETATM   28  C16 UNL     1      18.921 -17.121  15.643  1.00  0.00     0.035 C 
HETATM   29  C13 UNL     1      20.739 -14.923  16.004  1.00  0.00    -0.012 C 
HETATM   30  C15 UNL     1      19.250 -14.745  16.051  1.00  0.00     0.035 C 
ENDBRANCH  18  21
ENDBRANCH  12  15
ENDBRANCH   4  12
BRANCH   8  31
HETATM   31  C21 UNL     1       7.610 -17.626  16.303  1.00  0.00     0.268 C 
HETATM   32  O3  UNL     1       7.833 -18.340  17.330  1.00  0.00    -0.266 OA
HETATM   33  N3  UNL     1       6.321 -17.606  15.742  1.00  0.00    -0.347 N 
ATOM     34  H3  UNL     1       6.113 -17.031  14.927  1.00  0.00     0.163 HD
BRANCH  33  35
HETATM   35  C22 UNL     1       5.277 -18.442  16.369  1.00  0.00     0.119 C 
HETATM   36  C23 UNL     1       4.532 -19.046  15.218  1.00  0.00     0.038 C 
BRANCH  35  37
HETATM   37  C24 UNL     1       4.410 -17.575  17.215  1.00  0.00     0.082 C 
BRANCH  37  38
HETATM   38  N4  UNL     1       3.738 -18.187  18.281  1.00  0.00    -0.391 N 
HETATM   39  C25 UNL     1       3.900 -17.744  19.605  1.00  0.00     0.128 C 
HETATM   40  C26 UNL     1       3.642 -18.874  20.616  1.00  0.00     0.099 C 
HETATM   41  C27 UNL     1       2.432 -19.684  20.250  1.00  0.00     0.246 C 
HETATM   42  F1  UNL     1       2.762 -20.931  19.757  1.00  0.00    -0.206 F 
HETATM   43  F2  UNL     1       1.590 -19.849  21.346  1.00  0.00    -0.206 F 
HETATM   44  C28 UNL     1       1.592 -18.962  19.201  1.00  0.00     0.099 C 
HETATM   45  C29 UNL     1       2.383 -18.605  17.968  1.00  0.00     0.128 C 
ENDBRANCH  37  38
ENDBRANCH  35  37
ENDBRANCH  33  35
ENDBRANCH   8  31
TORSDOF 7
ENDMDL
MODEL 2
REMARK VINA RESULT: -9.788649337      1.086      1.364
REMARK  7 active torsions:
REMARK  status: ('A' for Active; 'I' for Inactive)
REMARK    1  A    between atoms: C4_4  and  S1_5 
REMARK    2  A    between atoms: S1_5  and  N1_8 
REMARK       I    between atoms: N1_8  and  C6_10 
REMARK       I    between atoms: C6_10  and  N2_12 
REMARK    3  A    between atoms: N2_12  and  C7_14 
REMARK    4  A    between atoms: C20_27  and  C21_28 
REMARK       I    between atoms: C21_28  and  N3_30 
REMARK    5  A    between atoms: N3_30  and  C22_32 
REMARK    6  A    between atoms: C22_32  and  C24_34 
REMARK    7  A    between atoms: C24_34  and  N4_35 
ROOT
HETATM    1  C1  UNL     1      11.742 -13.424  17.708  1.00  0.00     0.050 C 
HETATM    2  C2  UNL     1      11.814 -14.286  16.519  1.00  0.00    -0.033 A 
HETATM    3  C3  UNL     1      12.802 -14.090  15.593  1.00  0.00     0.030 A 
HETATM    4  C4  UNL     1      12.942 -14.855  14.459  1.00  0.00     0.040 A 
HETATM    5  C17 UNL     1      12.009 -15.874  14.282  1.00  0.00     0.035 A 
HETATM    6  C18 UNL     1      11.001 -16.090  15.204  1.00  0.00    -0.005 A 
HETATM    7  C19 UNL     1       9.975 -17.010  15.219  1.00  0.00     0.049 A 
HETATM    8  C20 UNL     1       9.248 -16.759  16.375  1.00  0.00     0.102 A 
HETATM    9  N5  UNL     1       9.820 -15.737  17.015  1.00  0.00    -0.351 N 
ATOM     10  H5  UNL     1       9.488 -15.346  17.897  1.00  0.00     0.166 HD
HETATM   11  C30 UNL     1      10.899 -15.291  16.334  1.00  0.00     0.049 A 
ENDROOT
BRANCH   4  12
HETATM   12  S1  UNL     1      14.160 -14.591  13.229  1.00  0.00     0.056 S 
HETATM   13  C5  UNL     1      13.412 -13.897  11.760  1.00  0.00     0.142 C 
HETATM   14  O1  UNL     1      15.152 -13.597  13.786  1.00  0.00    -0.245 OA
BRANCH  12  15
HETATM   15  N1  UNL     1      14.879 -15.929  12.984  1.00  0.00    -0.265 N 
HETATM   16  C6  UNL     1      16.217 -16.140  13.383  1.00  0.00     0.328 C 
HETATM   17  O2  UNL     1      16.839 -16.997  12.637  1.00  0.00    -0.246 OA
HETATM   18  N2  UNL     1      16.925 -15.572  14.423  1.00  0.00    -0.333 N 
ATOM     19  H2  UNL     1      16.420 -14.906  15.007  1.00  0.00     0.165 HD
ATOM     20  H1  UNL     1      14.375 -16.685  12.521  1.00  0.00     0.180 HD
BRANCH  18  21
HETATM   21  C7  UNL     1      18.302 -15.817  14.772  1.00  0.00     0.035 C 
HETATM   22  C8  UNL     1      19.115 -15.454  13.536  1.00  0.00     0.035 C 
HETATM   23  C9  UNL     1      20.581 -15.724  13.720  1.00  0.00    -0.012 C 
HETATM   24  C10 UNL     1      20.740 -17.170  14.132  1.00  0.00     0.009 C 
HETATM   25  C14 UNL     1      21.065 -14.759  14.785  1.00  0.00     0.009 C 
HETATM   26  C11 UNL     1      20.055 -17.422  15.447  1.00  0.00    -0.012 C 
HETATM   27  C12 UNL     1      20.577 -16.443  16.468  1.00  0.00     0.009 C 
HETATM   28  C16 UNL     1      18.552 -17.210  15.231  1.00  0.00     0.035 C 
HETATM   29  C13 UNL     1      20.270 -15.047  16.029  1.00  0.00    -0.012 C 
HETATM   30  C15 UNL     1      18.788 -14.874  15.870  1.00  0.00     0.035 C 
ENDBRANCH  18  21
ENDBRANCH  12  15
ENDBRANCH   4  12
BRANCH   8  31
HETATM   31  C21 UNL     1       8.041 -17.484  16.758  1.00  0.00     0.268 C 
HETATM   32  O3  UNL     1       7.993 -18.098  17.869  1.00  0.00    -0.266 OA
HETATM   33  N3  UNL     1       6.925 -17.510  15.905  1.00  0.00    -0.347 N 
ATOM     34  H3  UNL     1       6.933 -17.012  15.015  1.00  0.00     0.163 HD
BRANCH  33  35
HETATM   35  C22 UNL     1       5.738 -18.278  16.334  1.00  0.00     0.119 C 
HETATM   36  C23 UNL     1       5.081 -18.708  15.059  1.00  0.00     0.038 C 
BRANCH  35  37
HETATM   37  C24 UNL     1       4.863 -17.393  17.154  1.00  0.00     0.082 C 
BRANCH  37  38
HETATM   38  N4  UNL     1       4.092 -18.003  18.153  1.00  0.00    -0.391 N 
HETATM   39  C25 UNL     1       4.062 -17.504  19.467  1.00  0.00     0.128 C 
HETATM   40  C26 UNL     1       3.735 -18.610  20.484  1.00  0.00     0.099 C 
HETATM   41  C27 UNL     1       2.623 -19.497  20.005  1.00  0.00     0.246 C 
HETATM   42  F1  UNL     1       3.076 -20.742  19.610  1.00  0.00    -0.206 F 
HETATM   43  F2  UNL     1       1.657 -19.669  20.992  1.00  0.00    -0.206 F 
HETATM   44  C28 UNL     1       1.889 -18.861  18.829  1.00  0.00     0.099 C 
HETATM   45  C29 UNL     1       2.812 -18.505  17.691  1.00  0.00     0.128 C 
ENDBRANCH  37  38
ENDBRANCH  35  37
ENDBRANCH  33  35
ENDBRANCH   8  31
TORSDOF 7
ENDMDL
MODEL 3
REMARK VINA RESULT: -9.664259013      1.155      1.881
REMARK  7 active torsions:
REMARK  status: ('A' for Active; 'I' for Inactive)
REMARK    1  A    between atoms: C4_4  and  S1_5 
REMARK    2  A    between atoms: S1_5  and  N1_8 
REMARK       I    between atoms: N1_8  and  C6_10 
REMARK       I    between atoms: C6_10  and  N2_12 
REMARK    3  A    between atoms: N2_12  and  C7_14 
REMARK    4  A    between atoms: C20_27  and  C21_28 
REMARK       I    between atoms: C21_28  and  N3_30 
REMARK    5  A    between atoms: N3_30  and  C22_32 
REMARK    6  A    between atoms: C22_32  and  C24_34 
REMARK    7  A    between atoms: C24_34  and  N4_35 
ROOT
HETATM    1  C1  UNL     1      11.784 -13.500  17.676  1.00  0.00     0.050 C 
HETATM    2  C2  UNL     1      11.793 -14.310  16.449  1.00  0.00    -0.033 A 
HETATM    3  C3  UNL     1      12.738 -14.082  15.487  1.00  0.00     0.030 A 
HETATM    4  C4  UNL     1      12.819 -14.797  14.316  1.00  0.00     0.040 A 
HETATM    5  C17 UNL     1      11.869 -15.801  14.139  1.00  0.00     0.035 A 
HETATM    6  C18 UNL     1      10.904 -16.050  15.097  1.00  0.00    -0.005 A 
HETATM    7  C19 UNL     1       9.871 -16.963  15.120  1.00  0.00     0.049 A 
HETATM    8  C20 UNL     1       9.201 -16.757  16.319  1.00  0.00     0.102 A 
HETATM    9  N5  UNL     1       9.811 -15.767  16.975  1.00  0.00    -0.351 N 
ATOM     10  H5  UNL     1       9.525 -15.413  17.888  1.00  0.00     0.166 HD
HETATM   11  C30 UNL     1      10.862 -15.300  16.264  1.00  0.00     0.049 A 
ENDROOT
BRANCH   4  12
HETATM   12  S1  UNL     1      13.981 -14.489  13.043  1.00  0.00     0.056 S 
HETATM   13  C5  UNL     1      13.186 -13.661  11.671  1.00  0.00     0.142 C 
HETATM   14  O1  UNL     1      15.040 -13.576  13.614  1.00  0.00    -0.245 OA
BRANCH  12  15
HETATM   15  N1  UNL     1      14.631 -15.831  12.664  1.00  0.00    -0.265 N 
HETATM   16  C6  UNL     1      15.980 -16.118  12.965  1.00  0.00     0.328 C 
HETATM   17  O2  UNL     1      16.523 -16.941  12.126  1.00  0.00    -0.246 OA
HETATM   18  N2  UNL     1      16.769 -15.650  13.997  1.00  0.00    -0.333 N 
ATOM     19  H2  UNL     1      16.325 -15.010  14.655  1.00  0.00     0.165 HD
ATOM     20  H1  UNL     1      14.070 -16.534  12.181  1.00  0.00     0.180 HD
BRANCH  18  21
HETATM   21  C7  UNL     1      18.153 -15.969  14.245  1.00  0.00     0.035 C 
HETATM   22  C8  UNL     1      18.521 -15.249  15.535  1.00  0.00     0.035 C 
HETATM   23  C9  UNL     1      19.967 -15.429  15.895  1.00  0.00    -0.012 C 
HETATM   24  C10 UNL     1      20.800 -14.989  14.711  1.00  0.00     0.009 C 
HETATM   25  C14 UNL     1      20.149 -16.899  16.221  1.00  0.00     0.009 C 
HETATM   26  C11 UNL     1      20.510 -15.852  13.514  1.00  0.00    -0.012 C 
HETATM   27  C12 UNL     1      20.712 -17.298  13.890  1.00  0.00     0.009 C 
HETATM   28  C16 UNL     1      19.050 -15.610  13.114  1.00  0.00     0.035 C 
HETATM   29  C13 UNL     1      19.766 -17.670  14.987  1.00  0.00    -0.012 C 
HETATM   30  C15 UNL     1      18.351 -17.455  14.538  1.00  0.00     0.035 C 
ENDBRANCH  18  21
ENDBRANCH  12  15
ENDBRANCH   4  12
BRANCH   8  31
HETATM   31  C21 UNL     1       8.007 -17.489  16.726  1.00  0.00     0.268 C 
HETATM   32  O3  UNL     1       7.987 -18.110  17.835  1.00  0.00    -0.266 OA
HETATM   33  N3  UNL     1       6.870 -17.515  15.900  1.00  0.00    -0.347 N 
ATOM     34  H3  UNL     1       6.856 -17.013  15.013  1.00  0.00     0.163 HD
BRANCH  33  35
HETATM   35  C22 UNL     1       5.698 -18.291  16.353  1.00  0.00     0.119 C 
HETATM   36  C23 UNL     1       5.026 -18.738  15.091  1.00  0.00     0.038 C 
BRANCH  35  37
HETATM   37  C24 UNL     1       4.827 -17.408  17.180  1.00  0.00     0.082 C 
BRANCH  37  38
HETATM   38  N4  UNL     1       4.047 -18.022  18.168  1.00  0.00    -0.391 N 
HETATM   39  C25 UNL     1       4.029 -17.548  19.491  1.00  0.00     0.128 C 
HETATM   40  C26 UNL     1       3.683 -18.667  20.488  1.00  0.00     0.099 C 
HETATM   41  C27 UNL     1       2.554 -19.524  19.995  1.00  0.00     0.246 C 
HETATM   42  F1  UNL     1       2.982 -20.769  19.575  1.00  0.00    -0.206 F 
HETATM   43  F2  UNL     1       1.587 -19.696  20.981  1.00  0.00    -0.206 F 
HETATM   44  C28 UNL     1       1.829 -18.851  18.833  1.00  0.00     0.099 C 
HETATM   45  C29 UNL     1       2.756 -18.492  17.700  1.00  0.00     0.128 C 
ENDBRANCH  37  38
ENDBRANCH  35  37
ENDBRANCH  33  35
ENDBRANCH   8  31
TORSDOF 7
ENDMDL
MODEL 4
REMARK VINA RESULT: -9.175887907      2.357      3.085
REMARK  7 active torsions:
REMARK  status: ('A' for Active; 'I' for Inactive)
REMARK    1  A    between atoms: C4_4  and  S1_5 
REMARK    2  A    between atoms: S1_5  and  N1_8 
REMARK       I    between atoms: N1_8  and  C6_10 
REMARK       I    between atoms: C6_10  and  N2_12 
REMARK    3  A    between atoms: N2_12  and  C7_14 
REMARK    4  A    between atoms: C20_27  and  C21_28 
REMARK       I    between atoms: C21_28  and  N3_30 
REMARK    5  A    between atoms: N3_30  and  C22_32 
REMARK    6  A    between atoms: C22_32  and  C24_34 
REMARK    7  A    between atoms: C24_34  and  N4_35 
ROOT
HETATM    1  C1  UNL     1      10.230 -14.089  13.155  1.00  0.00     0.050 C 
HETATM    2  C2  UNL     1      11.268 -15.000  13.661  1.00  0.00    -0.033 A 
HETATM    3  C3  UNL     1      12.342 -15.314  12.875  1.00  0.00     0.030 A 
HETATM    4  C4  UNL     1      13.356 -16.152  13.275  1.00  0.00     0.040 A 
HETATM    5  C17 UNL     1      13.246 -16.687  14.557  1.00  0.00     0.035 A 
HETATM    6  C18 UNL     1      12.168 -16.384  15.368  1.00  0.00    -0.005 A 
HETATM    7  C19 UNL     1      11.851 -16.809  16.640  1.00  0.00     0.049 A 
HETATM    8  C20 UNL     1      10.643 -16.204  16.959  1.00  0.00     0.102 A 
HETATM    9  N5  UNL     1      10.264 -15.453  15.922  1.00  0.00    -0.351 N 
ATOM     10  H5  UNL     1       9.410 -14.897  15.890  1.00  0.00     0.166 HD
HETATM   11  C30 UNL     1      11.168 -15.533  14.920  1.00  0.00     0.049 A 
ENDROOT
BRANCH   4  12
HETATM   12  S1  UNL     1      14.714 -16.617  12.271  1.00  0.00     0.056 S 
HETATM   13  C5  UNL     1      14.134 -17.171  10.671  1.00  0.00     0.142 C 
HETATM   14  O1  UNL     1      15.571 -15.388  12.078  1.00  0.00    -0.245 OA
BRANCH  12  15
HETATM   15  N1  UNL     1      15.524 -17.676  13.037  1.00  0.00    -0.265 N 
HETATM   16  C6  UNL     1      16.761 -17.371  13.647  1.00  0.00     0.328 C 
HETATM   17  O2  UNL     1      17.558 -18.389  13.713  1.00  0.00    -0.246 OA
HETATM   18  N2  UNL     1      17.216 -16.173  14.160  1.00  0.00    -0.333 N 
ATOM     19  H2  UNL     1      16.574 -15.383  14.110  1.00  0.00     0.165 HD
ATOM     20  H1  UNL     1      15.158 -18.626  13.107  1.00  0.00     0.180 HD
BRANCH  18  21
HETATM   21  C7  UNL     1      18.502 -15.919  14.760  1.00  0.00     0.035 C 
HETATM   22  C8  UNL     1      19.423 -15.521  13.614  1.00  0.00     0.035 C 
HETATM   23  C9  UNL     1      20.834 -15.287  14.073  1.00  0.00    -0.012 C 
HETATM   24  C10 UNL     1      21.297 -16.528  14.804  1.00  0.00     0.009 C 
HETATM   25  C14 UNL     1      20.797 -14.064  14.968  1.00  0.00     0.009 C 
HETATM   26  C11 UNL     1      20.448 -16.770  16.022  1.00  0.00    -0.012 C 
HETATM   27  C12 UNL     1      20.453 -15.528  16.877  1.00  0.00     0.009 C 
HETATM   28  C16 UNL     1      19.026 -17.073  15.539  1.00  0.00     0.035 C 
HETATM   29  C13 UNL     1      19.871 -14.385  16.109  1.00  0.00    -0.012 C 
HETATM   30  C15 UNL     1      18.466 -14.710  15.692  1.00  0.00     0.035 C 
ENDBRANCH  18  21
ENDBRANCH  12  15
ENDBRANCH   4  12
BRANCH   8  31
HETATM   31  C21 UNL     1       9.922 -16.421  18.209  1.00  0.00     0.268 C 
HETATM   32  O3  UNL     1      10.328 -15.876  19.282  1.00  0.00    -0.266 OA
HETATM   33  N3  UNL     1       8.775 -17.233  18.238  1.00  0.00    -0.347 N 
ATOM     34  H3  UNL     1       8.420 -17.670  17.388  1.00  0.00     0.163 HD
BRANCH  33  35
HETATM   35  C22 UNL     1       8.098 -17.435  19.535  1.00  0.00     0.119 C 
HETATM   36  C23 UNL     1       8.529 -18.798  19.982  1.00  0.00     0.038 C 
BRANCH  35  37
HETATM   37  C24 UNL     1       6.625 -17.344  19.329  1.00  0.00     0.082 C 
BRANCH  37  38
HETATM   38  N4  UNL     1       6.134 -17.673  18.059  1.00  0.00    -0.391 N 
HETATM   39  C25 UNL     1       6.888 -18.443  17.156  1.00  0.00     0.128 C 
HETATM   40  C26 UNL     1       6.503 -18.142  15.698  1.00  0.00     0.099 C 
HETATM   41  C27 UNL     1       5.015 -18.045  15.523  1.00  0.00     0.246 C 
HETATM   42  F1  UNL     1       4.591 -16.743  15.337  1.00  0.00    -0.206 F 
HETATM   43  F2  UNL     1       4.586 -18.810  14.443  1.00  0.00    -0.206 F 
HETATM   44  C28 UNL     1       4.287 -18.615  16.736  1.00  0.00     0.099 C 
HETATM   45  C29 UNL     1       4.713 -17.965  18.029  1.00  0.00     0.128 C 
ENDBRANCH  37  38
ENDBRANCH  35  37
ENDBRANCH  33  35
ENDBRANCH   8  31
TORSDOF 7
ENDMDL
MODEL 5
REMARK VINA RESULT: -9.131405292      1.682      2.166
REMARK  7 active torsions:
REMARK  status: ('A' for Active; 'I' for Inactive)
REMARK    1  A    between atoms: C4_4  and  S1_5 
REMARK    2  A    between atoms: S1_5  and  N1_8 
REMARK       I    between atoms: N1_8  and  C6_10 
REMARK       I    between atoms: C6_10  and  N2_12 
REMARK    3  A    between atoms: N2_12  and  C7_14 
REMARK    4  A    between atoms: C20_27  and  C21_28 
REMARK       I    between atoms: C21_28  and  N3_30 
REMARK    5  A    between atoms: N3_30  and  C22_32 
REMARK    6  A    between atoms: C22_32  and  C24_34 
REMARK    7  A    between atoms: C24_34  and  N4_35 
ROOT
HETATM    1  C1  UNL     1      11.972 -12.992  13.207  1.00  0.00     0.050 C 
HETATM    2  C2  UNL     1      12.423 -14.371  13.447  1.00  0.00    -0.033 A 
HETATM    3  C3  UNL     1      13.476 -14.878  12.736  1.00  0.00     0.030 A 
HETATM    4  C4  UNL     1      13.962 -16.153  12.904  1.00  0.00     0.040 A 
HETATM    5  C17 UNL     1      13.322 -16.937  13.861  1.00  0.00     0.035 A 
HETATM    6  C18 UNL     1      12.255 -16.446  14.591  1.00  0.00    -0.005 A 
HETATM    7  C19 UNL     1      11.473 -17.043  15.556  1.00  0.00     0.049 A 
HETATM    8  C20 UNL     1      10.534 -16.093  15.935  1.00  0.00     0.102 A 
HETATM    9  N5  UNL     1      10.753 -14.983  15.226  1.00  0.00    -0.351 N 
ATOM     10  H5  UNL     1      10.207 -14.125  15.307  1.00  0.00     0.166 HD
HETATM   11  C30 UNL     1      11.799 -15.152  14.385  1.00  0.00     0.049 A 
ENDROOT
BRANCH   4  12
HETATM   12  S1  UNL     1      15.269 -16.848  11.968  1.00  0.00     0.056 S 
HETATM   13  C5  UNL     1      14.628 -17.598  10.477  1.00  0.00     0.142 C 
HETATM   14  O1  UNL     1      16.195 -15.717  11.585  1.00  0.00    -0.245 OA
BRANCH  12  15
HETATM   15  N1  UNL     1      16.029 -17.828  12.878  1.00  0.00    -0.265 N 
HETATM   16  C6  UNL     1      17.155 -17.428  13.630  1.00  0.00     0.328 C 
HETATM   17  O2  UNL     1      17.992 -18.393  13.842  1.00  0.00    -0.246 OA
HETATM   18  N2  UNL     1      17.471 -16.187  14.147  1.00  0.00    -0.333 N 
ATOM     19  H2  UNL     1      16.798 -15.440  13.980  1.00  0.00     0.165 HD
ATOM     20  H1  UNL     1      15.710 -18.795  12.939  1.00  0.00     0.180 HD
BRANCH  18  21
HETATM   21  C7  UNL     1      18.650 -15.835  14.898  1.00  0.00     0.035 C 
HETATM   22  C8  UNL     1      19.661 -15.336  13.874  1.00  0.00     0.035 C 
HETATM   23  C9  UNL     1      20.982 -14.991  14.500  1.00  0.00    -0.012 C 
HETATM   24  C10 UNL     1      21.463 -16.201  15.268  1.00  0.00     0.009 C 
HETATM   25  C14 UNL     1      20.733 -13.793  15.395  1.00  0.00     0.009 C 
HETATM   26  C11 UNL     1      20.501 -16.539  16.375  1.00  0.00    -0.012 C 
HETATM   27  C12 UNL     1      20.296 -15.319  17.236  1.00  0.00     0.009 C 
HETATM   28  C16 UNL     1      19.178 -16.955  15.723  1.00  0.00     0.035 C 
HETATM   29  C13 UNL     1      19.710 -14.216  16.415  1.00  0.00    -0.012 C 
HETATM   30  C15 UNL     1      18.399 -14.652  15.831  1.00  0.00     0.035 C 
ENDBRANCH  18  21
ENDBRANCH  12  15
ENDBRANCH   4  12
BRANCH   8  31
HETATM   31  C21 UNL     1       9.476 -16.329  16.911  1.00  0.00     0.268 C 
HETATM   32  O3  UNL     1       9.486 -15.716  18.024  1.00  0.00    -0.266 OA
HETATM   33  N3  UNL     1       8.438 -17.234  16.631  1.00  0.00    -0.347 N 
ATOM     34  H3  UNL     1       8.398 -17.728  15.739  1.00  0.00     0.163 HD
BRANCH  33  35
HETATM   35  C22 UNL     1       7.405 -17.451  17.665  1.00  0.00     0.119 C 
HETATM   36  C23 UNL     1       8.033 -18.401  18.638  1.00  0.00     0.038 C 
BRANCH  35  37
HETATM   37  C24 UNL     1       6.189 -18.020  17.019  1.00  0.00     0.082 C 
BRANCH  37  38
HETATM   38  N4  UNL     1       5.074 -18.243  17.837  1.00  0.00    -0.391 N 
HETATM   39  C25 UNL     1       4.595 -17.253  18.714  1.00  0.00     0.128 C 
HETATM   40  C26 UNL     1       3.857 -17.870  19.914  1.00  0.00     0.099 C 
HETATM   41  C27 UNL     1       2.949 -18.989  19.494  1.00  0.00     0.246 C 
HETATM   42  F1  UNL     1       3.443 -20.229  19.850  1.00  0.00    -0.206 F 
HETATM   43  F2  UNL     1       1.681 -18.841  20.050  1.00  0.00    -0.206 F 
HETATM   44  C28 UNL     1       2.731 -18.976  17.985  1.00  0.00     0.099 C 
HETATM   45  C29 UNL     1       4.024 -19.024  17.211  1.00  0.00     0.128 C 
ENDBRANCH  37  38
ENDBRANCH  35  37
ENDBRANCH  33  35
ENDBRANCH   8  31
TORSDOF 7
ENDMDL
