MODEL 1
REMARK VINA RESULT: -5.754634009      0.000      0.000
REMARK  2 active torsions:
REMARK  status: ('A' for Active; 'I' for Inactive)
REMARK    1  A    between atoms: C3_3  and  C4_4 
REMARK    2  A    between atoms: C6_6  and  N1_7 
ROOT
HETATM    1  C4  UNL     1      18.734  -8.025  99.105  1.00  0.00     0.210 C 
HETATM    2  C5  UNL     1      19.770  -8.789  98.303  1.00  0.00     0.069 C 
HETATM    3  C6  UNL     1      19.241 -10.172  98.081  1.00  0.00     0.187 C 
HETATM    4  C7  UNL     1      18.092 -10.551  98.939  1.00  0.00     0.060 C 
HETATM    5  C8  UNL     1      18.019  -9.913 100.269  1.00  0.00     0.235 C 
HETATM    6  N2  UNL     1      18.683  -8.661 100.402  1.00  0.00    -0.068 N 
ATOM      7  H21 UNL     1      18.256  -8.066 101.112  1.00  0.00     0.277 HD
ATOM      8  H22 UNL     1      19.605  -8.751 100.829  1.00  0.00     0.277 HD
ENDROOT
BRANCH   3   9
HETATM    9  N1  UNL     1      18.772 -10.218  96.685  1.00  0.00    -0.075 N 
ATOM     10  H13 UNL     1      18.700  -9.297  96.253  1.00  0.00     0.274 HD
ATOM     11  H12 UNL     1      19.459 -10.606  96.040  1.00  0.00     0.274 HD
ATOM     12  H11 UNL     1      17.891 -10.731  96.695  1.00  0.00     0.274 HD
ENDBRANCH   3   9
BRANCH   1  13
HETATM   13  C3  UNL     1      18.977  -6.587  99.149  1.00  0.00     0.001 C 
HETATM   14  C2  UNL     1      18.558  -5.865 100.170  1.00  0.00    -0.033 C 
HETATM   15  C1  UNL     1      18.799  -4.395 100.231  1.00  0.00     0.036 C 
ENDBRANCH   1  13
TORSDOF 2
ENDMDL
MODEL 2
REMARK VINA RESULT: -5.438137785      3.744      5.928
REMARK  2 active torsions:
REMARK  status: ('A' for Active; 'I' for Inactive)
REMARK    1  A    between atoms: C3_3  and  C4_4 
REMARK    2  A    between atoms: C6_6  and  N1_7 
ROOT
HETATM    1  C4  UNL     1      15.607  -8.430 102.071  1.00  0.00     0.210 C 
HETATM    2  C5  UNL     1      16.737  -7.423 102.167  1.00  0.00     0.069 C 
HETATM    3  C6  UNL     1      16.389  -6.456 103.255  1.00  0.00     0.187 C 
HETATM    4  C7  UNL     1      14.973  -6.487 103.696  1.00  0.00     0.060 C 
HETATM    5  C8  UNL     1      13.973  -6.886 102.686  1.00  0.00     0.235 C 
HETATM    6  N2  UNL     1      14.451  -7.693 101.614  1.00  0.00    -0.068 N 
ATOM      7  H21 UNL     1      13.727  -8.299 101.229  1.00  0.00     0.277 HD
ATOM      8  H22 UNL     1      14.641  -7.150 100.772  1.00  0.00     0.277 HD
ENDROOT
BRANCH   3   9
HETATM    9  N1  UNL     1      17.212  -6.827 104.419  1.00  0.00    -0.075 N 
ATOM     10  H13 UNL     1      17.556  -6.023 104.945  1.00  0.00     0.274 HD
ATOM     11  H12 UNL     1      16.675  -7.251 105.175  1.00  0.00     0.274 HD
ATOM     12  H11 UNL     1      17.956  -7.428 104.065  1.00  0.00     0.274 HD
ENDBRANCH   3   9
BRANCH   1  13
HETATM   13  C3  UNL     1      15.935  -9.597 101.258  1.00  0.00     0.001 C 
HETATM   14  C2  UNL     1      17.101  -9.684 100.647  1.00  0.00    -0.033 C 
HETATM   15  C1  UNL     1      17.452 -10.869  99.814  1.00  0.00     0.036 C 
ENDBRANCH   1  13
TORSDOF 2
ENDMDL
MODEL 3
REMARK VINA RESULT: -5.206824747      2.596      4.339
REMARK  2 active torsions:
REMARK  status: ('A' for Active; 'I' for Inactive)
REMARK    1  A    between atoms: C3_3  and  C4_4 
REMARK    2  A    between atoms: C6_6  and  N1_7 
ROOT
HETATM    1  C4  UNL     1      17.737  -8.236 100.669  1.00  0.00     0.210 C 
HETATM    2  C5  UNL     1      17.403  -9.415 101.564  1.00  0.00     0.069 C 
HETATM    3  C6  UNL     1      16.127  -9.094 102.278  1.00  0.00     0.187 C 
HETATM    4  C7  UNL     1      15.720  -7.668 102.228  1.00  0.00     0.060 C 
HETATM    5  C8  UNL     1      16.805  -6.672 102.123  1.00  0.00     0.235 C 
HETATM    6  N2  UNL     1      18.027  -7.131 101.555  1.00  0.00    -0.068 N 
ATOM      7  H21 UNL     1      18.547  -6.386 101.092  1.00  0.00     0.277 HD
ATOM      8  H22 UNL     1      18.722  -7.369 102.262  1.00  0.00     0.277 HD
ENDROOT
BRANCH   3   9
HETATM    9  N1  UNL     1      15.069  -9.869 101.608  1.00  0.00    -0.075 N 
ATOM     10  H13 UNL     1      14.799 -10.710 102.118  1.00  0.00     0.274 HD
ATOM     11  H12 UNL     1      14.158  -9.412 101.628  1.00  0.00     0.274 HD
ATOM     12  H11 UNL     1      15.406 -10.058 100.664  1.00  0.00     0.274 HD
ENDBRANCH   3   9
BRANCH   1  13
HETATM   13  C3  UNL     1      18.789  -8.522  99.699  1.00  0.00     0.001 C 
HETATM   14  C2  UNL     1      18.883  -9.713  99.140  1.00  0.00    -0.033 C 
HETATM   15  C1  UNL     1      19.952 -10.021  98.147  1.00  0.00     0.036 C 
ENDBRANCH   1  13
TORSDOF 2
ENDMDL
MODEL 4
REMARK VINA RESULT: -5.106553253      1.589      4.576
REMARK  2 active torsions:
REMARK  status: ('A' for Active; 'I' for Inactive)
REMARK    1  A    between atoms: C3_3  and  C4_4 
REMARK    2  A    between atoms: C6_6  and  N1_7 
ROOT
HETATM    1  C4  UNL     1      18.343  -8.309  99.593  1.00  0.00     0.210 C 
HETATM    2  C5  UNL     1      18.907  -7.513 100.754  1.00  0.00     0.069 C 
HETATM    3  C6  UNL     1      19.111  -6.107 100.282  1.00  0.00     0.187 C 
HETATM    4  C7  UNL     1      19.064  -5.925  98.811  1.00  0.00     0.060 C 
HETATM    5  C8  UNL     1      19.492  -7.073  97.986  1.00  0.00     0.235 C 
HETATM    6  N2  UNL     1      19.387  -8.356  98.595  1.00  0.00    -0.068 N 
ATOM      7  H21 UNL     1      19.242  -9.101  97.913  1.00  0.00     0.277 HD
ATOM      8  H22 UNL     1      20.275  -8.683  98.974  1.00  0.00     0.277 HD
ENDROOT
BRANCH   3   9
HETATM    9  N1  UNL     1      18.006  -5.315 100.850  1.00  0.00    -0.075 N 
ATOM     10  H13 UNL     1      17.165  -5.321 100.273  1.00  0.00     0.274 HD
ATOM     11  H12 UNL     1      17.592  -5.736 101.681  1.00  0.00     0.274 HD
ATOM     12  H11 UNL     1      18.378  -4.379 101.014  1.00  0.00     0.274 HD
ENDBRANCH   3   9
BRANCH   1  13
HETATM   13  C3  UNL     1      17.824  -9.617  99.983  1.00  0.00     0.001 C 
HETATM   14  C2  UNL     1      17.861 -10.633  99.142  1.00  0.00    -0.033 C 
HETATM   15  C1  UNL     1      17.336 -11.974  99.525  1.00  0.00     0.036 C 
ENDBRANCH   1  13
TORSDOF 2
ENDMDL
MODEL 5
REMARK VINA RESULT: -5.106198153      3.015      4.725
REMARK  2 active torsions:
REMARK  status: ('A' for Active; 'I' for Inactive)
REMARK    1  A    between atoms: C3_3  and  C4_4 
REMARK    2  A    between atoms: C6_6  and  N1_7 
ROOT
HETATM    1  C4  UNL     1      17.287  -9.271 101.026  1.00  0.00     0.210 C 
HETATM    2  C5  UNL     1      15.837  -9.640 101.271  1.00  0.00     0.069 C 
HETATM    3  C6  UNL     1      15.311  -8.726 102.334  1.00  0.00     0.187 C 
HETATM    4  C7  UNL     1      16.347  -7.984 103.094  1.00  0.00     0.060 C 
HETATM    5  C8  UNL     1      17.662  -8.640 103.238  1.00  0.00     0.235 C 
HETATM    6  N2  UNL     1      17.996  -9.601 102.242  1.00  0.00    -0.068 N 
ATOM      7  H21 UNL     1      19.002  -9.681 102.098  1.00  0.00     0.277 HD
ATOM      8  H22 UNL     1      17.821 -10.559 102.547  1.00  0.00     0.277 HD
ENDROOT
BRANCH   3   9
HETATM    9  N1  UNL     1      14.480  -7.723 101.646  1.00  0.00    -0.075 N 
ATOM     10  H13 UNL     1      13.484  -7.817 101.847  1.00  0.00     0.274 HD
ATOM     11  H12 UNL     1      14.594  -6.780 102.016  1.00  0.00     0.274 HD
ATOM     12  H11 UNL     1      14.702  -7.798 100.654  1.00  0.00     0.274 HD
ENDBRANCH   3   9
BRANCH   1  13
HETATM   13  C3  UNL     1      17.845  -9.876  99.821  1.00  0.00     0.001 C 
HETATM   14  C2  UNL     1      19.000  -9.465  99.334  1.00  0.00    -0.033 C 
HETATM   15  C1  UNL     1      19.584 -10.073  98.105  1.00  0.00     0.036 C 
ENDBRANCH   1  13
TORSDOF 2
ENDMDL
