MODEL 1
REMARK VINA RESULT: -8.543851315      0.000      0.000
REMARK  4 active torsions:
REMARK  status: ('A' for Active; 'I' for Inactive)
REMARK    1  A    between atoms: N1_2  and  C1_4 
REMARK    2  A    between atoms: C3_7  and  S2_8 
REMARK    3  A    between atoms: S2_8  and  C4_9 
REMARK    4  A    between atoms: C4_9  and  C5_10 
ROOT
HETATM    1  C1  UNL     1     -23.908  17.875 -17.388  1.00  0.00     0.115 C 
HETATM    2  C2  UNL     1     -24.499  19.085 -17.472  1.00  0.00     0.086 C 
HETATM    3  S1  UNL     1     -23.849  20.253 -18.674  1.00  0.00    -0.075 SA
HETATM    4  C3  UNL     1     -23.299  19.173 -20.030  1.00  0.00     0.109 C 
HETATM    5  N2  UNL     1     -22.858  18.046 -19.610  1.00  0.00    -0.364 N 
ATOM      6  H2  UNL     1     -22.534  17.392 -20.322  1.00  0.00     0.162 HD
HETATM    7  C9  UNL     1     -22.770  17.603 -18.253  1.00  0.00     0.080 C 
HETATM    8  C10 UNL     1     -22.423  16.105 -18.336  1.00  0.00     0.038 C 
HETATM    9  C11 UNL     1     -21.658  15.676 -17.143  1.00  0.00     0.003 C 
HETATM   10  C12 UNL     1     -20.166  15.868 -17.247  1.00  0.00     0.000 C 
HETATM   11  C13 UNL     1     -19.738  16.573 -18.482  1.00  0.00     0.000 C 
HETATM   12  C14 UNL     1     -20.397  17.900 -18.708  1.00  0.00     0.003 C 
HETATM   13  C15 UNL     1     -21.474  18.229 -17.700  1.00  0.00     0.038 C 
ENDROOT
BRANCH   4  14
HETATM   14  S2  UNL     1     -23.392  19.691 -21.675  1.00  0.00    -0.099 SA
BRANCH  14  15
HETATM   15  C4  UNL     1     -22.354  21.079 -22.074  1.00  0.00     0.146 C 
BRANCH  15  16
HETATM   16  C5  UNL     1     -20.926  20.734 -22.082  1.00  0.00     0.064 A 
HETATM   17  C6  UNL     1     -19.851  21.531 -22.287  1.00  0.00     0.037 A 
HETATM   18  C7  UNL     1     -18.714  20.720 -22.196  1.00  0.00     0.048 A 
HETATM   19  C8  UNL     1     -19.185  19.472 -21.939  1.00  0.00     0.121 A 
HETATM   20 BR1  UNL     1     -18.099  17.916 -21.706  1.00  0.00    -0.023 Br
HETATM   21  O3  UNL     1     -20.475  19.504 -21.876  1.00  0.00    -0.307 OA
ENDBRANCH  15  16
ENDBRANCH  14  15
ENDBRANCH   4  14
BRANCH   1  22
HETATM   22  N1  UNL     1     -24.459  16.970 -16.416  1.00  0.00    -0.117 N 
HETATM   23  O1  UNL     1     -24.098  16.985 -15.249  1.00  0.00    -0.532 OA
HETATM   24  O2  UNL     1     -25.394  16.082 -16.849  1.00  0.00    -0.532 OA
ENDBRANCH   1  22
TORSDOF 4
ENDMDL
MODEL 2
REMARK VINA RESULT: -8.196573728      2.495      3.757
REMARK  4 active torsions:
REMARK  status: ('A' for Active; 'I' for Inactive)
REMARK    1  A    between atoms: N1_2  and  C1_4 
REMARK    2  A    between atoms: C3_7  and  S2_8 
REMARK    3  A    between atoms: S2_8  and  C4_9 
REMARK    4  A    between atoms: C4_9  and  C5_10 
ROOT
HETATM    1  C1  UNL     1     -21.522  16.816 -16.407  1.00  0.00     0.115 C 
HETATM    2  C2  UNL     1     -20.946  15.624 -16.670  1.00  0.00     0.086 C 
HETATM    3  S1  UNL     1     -20.252  15.373 -18.309  1.00  0.00    -0.075 SA
HETATM    4  C3  UNL     1     -19.657  17.032 -18.755  1.00  0.00     0.109 C 
HETATM    5  N2  UNL     1     -20.394  17.963 -18.273  1.00  0.00    -0.364 N 
ATOM      6  H2  UNL     1     -20.112  18.919 -18.486  1.00  0.00     0.162 HD
HETATM    7  C9  UNL     1     -21.567  17.809 -17.470  1.00  0.00     0.080 C 
HETATM    8  C10 UNL     1     -21.899  19.223 -16.958  1.00  0.00     0.038 C 
HETATM    9  C11 UNL     1     -23.352  19.367 -16.719  1.00  0.00     0.003 C 
HETATM   10  C12 UNL     1     -24.153  19.786 -17.926  1.00  0.00     0.000 C 
HETATM   11  C13 UNL     1     -23.355  19.856 -19.178  1.00  0.00     0.000 C 
HETATM   12  C14 UNL     1     -22.613  18.600 -19.521  1.00  0.00     0.003 C 
HETATM   13  C15 UNL     1     -22.710  17.523 -18.464  1.00  0.00     0.038 C 
ENDROOT
BRANCH   4  14
HETATM   14  S2  UNL     1     -18.245  17.240 -19.727  1.00  0.00    -0.099 SA
BRANCH  14  15
HETATM   15  C4  UNL     1     -18.567  17.486 -21.459  1.00  0.00     0.146 C 
BRANCH  15  16
HETATM   16  C5  UNL     1     -19.074  18.832 -21.755  1.00  0.00     0.064 A 
HETATM   17  C6  UNL     1     -18.398  19.999 -21.873  1.00  0.00     0.037 A 
HETATM   18  C7  UNL     1     -19.339  20.994 -22.158  1.00  0.00     0.048 A 
HETATM   19  C8  UNL     1     -20.536  20.354 -22.194  1.00  0.00     0.121 A 
HETATM   20 BR1  UNL     1     -22.219  21.192 -22.543  1.00  0.00    -0.023 Br
HETATM   21  O3  UNL     1     -20.359  19.096 -21.957  1.00  0.00    -0.307 OA
ENDBRANCH  15  16
ENDBRANCH  14  15
ENDBRANCH   4  14
BRANCH   1  22
HETATM   22  N1  UNL     1     -22.062  16.978 -15.085  1.00  0.00    -0.117 N 
HETATM   23  O1  UNL     1     -21.373  17.370 -14.154  1.00  0.00    -0.532 OA
HETATM   24  O2  UNL     1     -23.373  16.666 -14.903  1.00  0.00    -0.532 OA
ENDBRANCH   1  22
TORSDOF 4
ENDMDL
MODEL 3
REMARK VINA RESULT: -8.020612338      2.906      4.054
REMARK  4 active torsions:
REMARK  status: ('A' for Active; 'I' for Inactive)
REMARK    1  A    between atoms: N1_2  and  C1_4 
REMARK    2  A    between atoms: C3_7  and  S2_8 
REMARK    3  A    between atoms: S2_8  and  C4_9 
REMARK    4  A    between atoms: C4_9  and  C5_10 
ROOT
HETATM    1  C1  UNL     1     -20.007  16.345 -16.469  1.00  0.00     0.115 C 
HETATM    2  C2  UNL     1     -19.217  15.389 -17.002  1.00  0.00     0.086 C 
HETATM    3  S1  UNL     1     -19.094  15.306 -18.793  1.00  0.00    -0.075 SA
HETATM    4  C3  UNL     1     -19.241  17.049 -19.290  1.00  0.00     0.109 C 
HETATM    5  N2  UNL     1     -20.017  17.714 -18.517  1.00  0.00    -0.364 N 
ATOM      6  H2  UNL     1     -20.141  18.701 -18.741  1.00  0.00     0.162 HD
HETATM    7  C9  UNL     1     -20.727  17.227 -17.376  1.00  0.00     0.080 C 
HETATM    8  C10 UNL     1     -21.285  18.481 -16.677  1.00  0.00     0.038 C 
HETATM    9  C11 UNL     1     -22.532  18.163 -15.946  1.00  0.00     0.003 C 
HETATM   10  C12 UNL     1     -23.790  18.255 -16.772  1.00  0.00     0.000 C 
HETATM   11  C13 UNL     1     -23.542  18.525 -18.212  1.00  0.00     0.000 C 
HETATM   12  C14 UNL     1     -22.612  17.558 -18.881  1.00  0.00     0.003 C 
HETATM   13  C15 UNL     1     -21.993  16.551 -17.939  1.00  0.00     0.038 C 
ENDROOT
BRANCH   4  14
HETATM   14  S2  UNL     1     -18.396  17.657 -20.668  1.00  0.00    -0.099 SA
BRANCH  14  15
HETATM   15  C4  UNL     1     -18.325  19.430 -20.771  1.00  0.00     0.146 C 
BRANCH  15  16
HETATM   16  C5  UNL     1     -19.531  20.011 -21.376  1.00  0.00     0.064 A 
HETATM   17  C6  UNL     1     -19.643  21.019 -22.272  1.00  0.00     0.037 A 
HETATM   18  C7  UNL     1     -21.008  21.195 -22.528  1.00  0.00     0.048 A 
HETATM   19  C8  UNL     1     -21.636  20.269 -21.758  1.00  0.00     0.121 A 
HETATM   20 BR1  UNL     1     -23.530  20.015 -21.675  1.00  0.00    -0.023 Br
HETATM   21  O3  UNL     1     -20.758  19.590 -21.097  1.00  0.00    -0.307 OA
ENDBRANCH  15  16
ENDBRANCH  14  15
ENDBRANCH   4  14
BRANCH   1  22
HETATM   22  N1  UNL     1     -20.076  16.380 -15.034  1.00  0.00    -0.117 N 
HETATM   23  O1  UNL     1     -19.225  16.946 -14.364  1.00  0.00    -0.532 OA
HETATM   24  O2  UNL     1     -21.124  15.745 -14.443  1.00  0.00    -0.532 OA
ENDBRANCH   1  22
TORSDOF 4
ENDMDL
MODEL 4
REMARK VINA RESULT: -7.866914478      1.955      2.662
REMARK  4 active torsions:
REMARK  status: ('A' for Active; 'I' for Inactive)
REMARK    1  A    between atoms: N1_2  and  C1_4 
REMARK    2  A    between atoms: C3_7  and  S2_8 
REMARK    3  A    between atoms: S2_8  and  C4_9 
REMARK    4  A    between atoms: C4_9  and  C5_10 
ROOT
HETATM    1  C1  UNL     1     -22.202  16.860 -15.915  1.00  0.00     0.115 C 
HETATM    2  C2  UNL     1     -22.826  17.807 -15.183  1.00  0.00     0.086 C 
HETATM    3  S1  UNL     1     -23.209  19.369 -15.987  1.00  0.00    -0.075 SA
HETATM    4  C3  UNL     1     -23.545  18.870 -17.703  1.00  0.00     0.109 C 
HETATM    5  N2  UNL     1     -22.830  17.873 -18.071  1.00  0.00    -0.364 N 
ATOM      6  H2  UNL     1     -22.972  17.542 -19.025  1.00  0.00     0.162 HD
HETATM    7  C9  UNL     1     -21.856  17.172 -17.294  1.00  0.00     0.080 C 
HETATM    8  C10 UNL     1     -21.497  15.923 -18.120  1.00  0.00     0.038 C 
HETATM    9  C11 UNL     1     -20.111  15.488 -17.838  1.00  0.00     0.003 C 
HETATM   10  C12 UNL     1     -19.054  16.157 -18.680  1.00  0.00     0.000 C 
HETATM   11  C13 UNL     1     -19.582  17.232 -19.559  1.00  0.00     0.000 C 
HETATM   12  C14 UNL     1     -20.359  18.299 -18.848  1.00  0.00     0.003 C 
HETATM   13  C15 UNL     1     -20.574  18.024 -17.378  1.00  0.00     0.038 C 
ENDROOT
BRANCH   4  14
HETATM   14  S2  UNL     1     -24.713  19.706 -18.661  1.00  0.00    -0.099 SA
BRANCH  14  15
HETATM   15  C4  UNL     1     -24.057  21.047 -19.627  1.00  0.00     0.146 C 
BRANCH  15  16
HETATM   16  C5  UNL     1     -23.072  20.600 -20.621  1.00  0.00     0.064 A 
HETATM   17  C6  UNL     1     -23.191  19.659 -21.586  1.00  0.00     0.037 A 
HETATM   18  C7  UNL     1     -21.968  19.607 -22.265  1.00  0.00     0.048 A 
HETATM   19  C8  UNL     1     -21.182  20.532 -21.655  1.00  0.00     0.121 A 
HETATM   20 BR1  UNL     1     -19.376  20.928 -22.140  1.00  0.00    -0.023 Br
HETATM   21  O3  UNL     1     -21.845  21.098 -20.701  1.00  0.00    -0.307 OA
ENDBRANCH  15  16
ENDBRANCH  14  15
ENDBRANCH   4  14
BRANCH   1  22
HETATM   22  N1  UNL     1     -21.917  15.625 -15.237  1.00  0.00    -0.117 N 
HETATM   23  O1  UNL     1     -22.775  14.770 -15.073  1.00  0.00    -0.532 OA
HETATM   24  O2  UNL     1     -20.652  15.445 -14.772  1.00  0.00    -0.532 OA
ENDBRANCH   1  22
TORSDOF 4
ENDMDL
MODEL 5
REMARK VINA RESULT: -7.733774677      2.491      3.415
REMARK  4 active torsions:
REMARK  status: ('A' for Active; 'I' for Inactive)
REMARK    1  A    between atoms: N1_2  and  C1_4 
REMARK    2  A    between atoms: C3_7  and  S2_8 
REMARK    3  A    between atoms: S2_8  and  C4_9 
REMARK    4  A    between atoms: C4_9  and  C5_10 
ROOT
HETATM    1  C1  UNL     1     -20.489  16.969 -16.263  1.00  0.00     0.115 C 
HETATM    2  C2  UNL     1     -21.127  17.874 -15.490  1.00  0.00     0.086 C 
HETATM    3  S1  UNL     1     -22.018  19.199 -16.315  1.00  0.00    -0.075 SA
HETATM    4  C3  UNL     1     -22.613  18.401 -17.836  1.00  0.00     0.109 C 
HETATM    5  N2  UNL     1     -21.797  17.518 -18.278  1.00  0.00    -0.364 N 
ATOM      6  H2  UNL     1     -22.073  17.032 -19.130  1.00  0.00     0.162 HD
HETATM    7  C9  UNL     1     -20.541  17.139 -17.708  1.00  0.00     0.080 C 
HETATM    8  C10 UNL     1     -20.109  15.877 -18.477  1.00  0.00     0.038 C 
HETATM    9  C11 UNL     1     -18.634  15.763 -18.513  1.00  0.00     0.003 C 
HETATM   10  C12 UNL     1     -17.971  16.495 -19.653  1.00  0.00     0.000 C 
HETATM   11  C13 UNL     1     -18.909  17.308 -20.467  1.00  0.00     0.000 C 
HETATM   12  C14 UNL     1     -19.724  18.297 -19.687  1.00  0.00     0.003 C 
HETATM   13  C15 UNL     1     -19.534  18.202 -18.191  1.00  0.00     0.038 C 
ENDROOT
BRANCH   4  14
HETATM   14  S2  UNL     1     -24.124  18.848 -18.544  1.00  0.00    -0.099 SA
BRANCH  14  15
HETATM   15  C4  UNL     1     -24.079  20.342 -19.507  1.00  0.00     0.146 C 
BRANCH  15  16
HETATM   16  C5  UNL     1     -23.141  20.260 -20.635  1.00  0.00     0.064 A 
HETATM   17  C6  UNL     1     -23.263  19.597 -21.808  1.00  0.00     0.037 A 
HETATM   18  C7  UNL     1     -22.094  19.834 -22.540  1.00  0.00     0.048 A 
HETATM   19  C8  UNL     1     -21.335  20.636 -21.749  1.00  0.00     0.121 A 
HETATM   20 BR1  UNL     1     -19.604  21.307 -22.207  1.00  0.00    -0.023 Br
HETATM   21  O3  UNL     1     -21.963  20.871 -20.645  1.00  0.00    -0.307 OA
ENDBRANCH  15  16
ENDBRANCH  14  15
ENDBRANCH   4  14
BRANCH   1  22
HETATM   22  N1  UNL     1     -19.791  15.924 -15.566  1.00  0.00    -0.117 N 
HETATM   23  O1  UNL     1     -20.238  14.789 -15.498  1.00  0.00    -0.532 OA
HETATM   24  O2  UNL     1     -18.611  16.249 -14.973  1.00  0.00    -0.532 OA
ENDBRANCH   1  22
TORSDOF 4
ENDMDL
