MODEL 1
REMARK VINA RESULT: -8.177504017      0.000      0.000
REMARK  13 active torsions:
REMARK  status: ('A' for Active; 'I' for Inactive)
REMARK    1  A    between atoms: C2_2  and  C3_3 
REMARK    2  A    between atoms: C3_3  and  O1_4 
REMARK    3  A    between atoms: O1_4  and  C4_5 
REMARK    4  A    between atoms: C5_6  and  C6_7 
REMARK    5  A    between atoms: C9_12  and  O4_13 
REMARK    6  A    between atoms: O4_13  and  C10_14 
REMARK    7  A    between atoms: C13_17  and  O5_18 
REMARK    8  A    between atoms: O5_18  and  C14_19 
REMARK    9  A    between atoms: C16_22  and  O7_23 
REMARK   10  A    between atoms: C17_25  and  O8_26 
REMARK   11  A    between atoms: C18_28  and  O9_29 
REMARK   12  A    between atoms: C19_31  and  N1_32 
REMARK   13  A    between atoms: C21_37  and  O10_38 
ROOT
HETATM    1  C10 UNL     1     142.447  13.896 -80.279  1.00  0.00     0.124 C 
HETATM    2  C11 UNL     1     142.554  15.383 -80.470  1.00  0.00     0.034 C 
HETATM    3  C12 UNL     1     142.934  16.137 -79.234  1.00  0.00     0.036 C 
HETATM    4  C13 UNL     1     144.140  15.548 -78.542  1.00  0.00     0.155 C 
HETATM    5  C19 UNL     1     143.698  14.173 -78.097  1.00  0.00     0.214 C 
HETATM    6  C20 UNL     1     143.201  13.302 -79.182  1.00  0.00     0.067 C 
ENDROOT
BRANCH   1   7
HETATM    7  O4  UNL     1     142.737  13.330 -81.514  1.00  0.00    -0.378 OA
BRANCH   7   8
HETATM    8  C9  UNL     1     143.822  12.524 -81.563  1.00  0.00     0.153 C 
HETATM    9  C8  UNL     1     143.501  11.104 -82.004  1.00  0.00     0.035 C 
HETATM   10  C7  UNL     1     144.777  10.507 -82.554  1.00  0.00     0.020 C 
HETATM   11  C5  UNL     1     145.024  11.146 -83.888  1.00  0.00     0.118 C 
HETATM   12  C4  UNL     1     145.040  12.644 -83.735  1.00  0.00     0.167 C 
HETATM   13  C21 UNL     1     144.995  13.074 -82.326  1.00  0.00     0.176 C 
BRANCH  11  14
HETATM   14  C6  UNL     1     146.287  10.595 -84.427  1.00  0.00     0.179 C 
HETATM   15  O2  UNL     1     147.339  11.277 -84.350  1.00  0.00    -0.648 OA
HETATM   16  O3  UNL     1     146.372   9.346 -85.022  1.00  0.00    -0.648 OA
ENDBRANCH  11  14
BRANCH  12  17
HETATM   17  O1  UNL     1     144.000  13.238 -84.454  1.00  0.00    -0.379 OA
BRANCH  17  18
HETATM   18  C3  UNL     1     144.463  13.957 -85.538  1.00  0.00     0.195 C 
BRANCH  18  19
HETATM   19  C2  UNL     1     144.429  15.412 -85.424  1.00  0.00    -0.011 C 
HETATM   20  C1  UNL     1     144.108  16.211 -86.463  1.00  0.00     0.009 C 
ENDBRANCH  18  19
ENDBRANCH  17  18
ENDBRANCH  12  17
BRANCH  13  21
HETATM   21  O10 UNL     1     145.164  14.426 -82.214  1.00  0.00    -0.390 OA
ATOM     22  H10 UNL     1     145.295  14.683 -81.309  1.00  0.00     0.210 HD
ENDBRANCH  13  21
ENDBRANCH   7   8
ENDBRANCH   1   7
BRANCH   5  23
HETATM   23  N1  UNL     1     142.642  14.379 -77.108  1.00  0.00    -0.072 N 
ATOM     24  H13 UNL     1     142.996  14.581 -76.174  1.00  0.00     0.274 HD
ATOM     25  H12 UNL     1     142.129  15.252 -77.240  1.00  0.00     0.274 HD
ATOM     26  H11 UNL     1     142.047  13.551 -77.145  1.00  0.00     0.274 HD
ENDBRANCH   5  23
BRANCH   4  27
HETATM   27  O5  UNL     1     144.319  16.287 -77.363  1.00  0.00    -0.351 OA
BRANCH  27  28
HETATM   28  C14 UNL     1     143.818  17.581 -77.495  1.00  0.00     0.291 C 
HETATM   29  O6  UNL     1     143.669  18.108 -76.231  1.00  0.00    -0.356 OA
HETATM   30  C15 UNL     1     143.138  19.388 -76.228  1.00  0.00     0.205 C 
HETATM   31  C16 UNL     1     143.486  20.178 -77.448  1.00  0.00     0.173 C 
HETATM   32  C17 UNL     1     144.874  19.820 -77.930  1.00  0.00     0.182 C 
HETATM   33  C18 UNL     1     144.881  18.358 -78.282  1.00  0.00     0.204 C 
BRANCH  31  34
HETATM   34  O7  UNL     1     142.535  20.041 -78.455  1.00  0.00    -0.391 OA
ATOM     35  H7  UNL     1     141.656  20.231 -78.149  1.00  0.00     0.210 HD
ENDBRANCH  31  34
BRANCH  32  36
HETATM   36  O8  UNL     1     145.194  20.537 -79.076  1.00  0.00    -0.390 OA
ATOM     37  H8  UNL     1     146.045  20.950 -78.987  1.00  0.00     0.210 HD
ENDBRANCH  32  36
BRANCH  33  38
HETATM   38  O9  UNL     1     146.125  17.834 -77.926  1.00  0.00    -0.388 OA
ATOM     39  H9  UNL     1     146.788  18.402 -78.300  1.00  0.00     0.210 HD
ENDBRANCH  33  38
ENDBRANCH  27  28
ENDBRANCH   4  27
TORSDOF 13
ENDMDL
MODEL 2
REMARK VINA RESULT: -8.076975189      1.404      2.624
REMARK  13 active torsions:
REMARK  status: ('A' for Active; 'I' for Inactive)
REMARK    1  A    between atoms: C2_2  and  C3_3 
REMARK    2  A    between atoms: C3_3  and  O1_4 
REMARK    3  A    between atoms: O1_4  and  C4_5 
REMARK    4  A    between atoms: C5_6  and  C6_7 
REMARK    5  A    between atoms: C9_12  and  O4_13 
REMARK    6  A    between atoms: O4_13  and  C10_14 
REMARK    7  A    between atoms: C13_17  and  O5_18 
REMARK    8  A    between atoms: O5_18  and  C14_19 
REMARK    9  A    between atoms: C16_22  and  O7_23 
REMARK   10  A    between atoms: C17_25  and  O8_26 
REMARK   11  A    between atoms: C18_28  and  O9_29 
REMARK   12  A    between atoms: C19_31  and  N1_32 
REMARK   13  A    between atoms: C21_37  and  O10_38 
ROOT
HETATM    1  C10 UNL     1     142.911  13.305 -79.647  1.00  0.00     0.124 C 
HETATM    2  C11 UNL     1     142.922  14.760 -80.028  1.00  0.00     0.034 C 
HETATM    3  C12 UNL     1     143.126  15.696 -78.879  1.00  0.00     0.036 C 
HETATM    4  C13 UNL     1     144.302  15.309 -78.014  1.00  0.00     0.155 C 
HETATM    5  C19 UNL     1     143.925  13.969 -77.426  1.00  0.00     0.214 C 
HETATM    6  C20 UNL     1     143.600  12.925 -78.420  1.00  0.00     0.067 C 
ENDROOT
BRANCH   1   7
HETATM    7  O4  UNL     1     143.358  12.613 -80.765  1.00  0.00    -0.378 OA
BRANCH   7   8
HETATM    8  C9  UNL     1     143.440  13.322 -81.914  1.00  0.00     0.153 C 
HETATM    9  C8  UNL     1     144.596  14.310 -81.934  1.00  0.00     0.035 C 
HETATM   10  C7  UNL     1     144.920  14.591 -83.384  1.00  0.00     0.020 C 
HETATM   11  C5  UNL     1     145.605  13.373 -83.928  1.00  0.00     0.118 C 
HETATM   12  C4  UNL     1     144.742  12.161 -83.695  1.00  0.00     0.167 C 
HETATM   13  C21 UNL     1     143.407  12.504 -83.175  1.00  0.00     0.176 C 
BRANCH  11  14
HETATM   14  C6  UNL     1     145.902  13.620 -85.357  1.00  0.00     0.179 C 
HETATM   15  O2  UNL     1     147.055  13.991 -85.690  1.00  0.00    -0.648 OA
HETATM   16  O3  UNL     1     144.960  13.462 -86.361  1.00  0.00    -0.648 OA
ENDBRANCH  11  14
BRANCH  12  17
HETATM   17  O1  UNL     1     145.372  11.248 -82.845  1.00  0.00    -0.379 OA
BRANCH  17  18
HETATM   18  C3  UNL     1     145.450   9.988 -83.404  1.00  0.00     0.195 C 
BRANCH  18  19
HETATM   19  C2  UNL     1     145.888   9.912 -84.794  1.00  0.00    -0.011 C 
HETATM   20  C1  UNL     1     147.139   9.539 -85.139  1.00  0.00     0.009 C 
ENDBRANCH  18  19
ENDBRANCH  17  18
ENDBRANCH  12  17
BRANCH  13  21
HETATM   21  O10 UNL     1     142.600  11.401 -83.118  1.00  0.00    -0.390 OA
ATOM     22  H10 UNL     1     142.023  11.435 -82.364  1.00  0.00     0.210 HD
ENDBRANCH  13  21
ENDBRANCH   7   8
ENDBRANCH   1   7
BRANCH   5  23
HETATM   23  N1  UNL     1     142.767  14.208 -76.566  1.00  0.00    -0.072 N 
ATOM     24  H13 UNL     1     142.643  15.189 -76.317  1.00  0.00     0.274 HD
ATOM     25  H12 UNL     1     141.875  14.086 -77.045  1.00  0.00     0.274 HD
ATOM     26  H11 UNL     1     142.878  13.596 -75.757  1.00  0.00     0.274 HD
ENDBRANCH   5  23
BRANCH   4  27
HETATM   27  O5  UNL     1     144.312  16.205 -76.936  1.00  0.00    -0.351 OA
BRANCH  27  28
HETATM   28  C14 UNL     1     143.824  17.456 -77.312  1.00  0.00     0.291 C 
HETATM   29  O6  UNL     1     143.601  18.185 -76.164  1.00  0.00    -0.356 OA
HETATM   30  C15 UNL     1     143.074  19.444 -76.407  1.00  0.00     0.205 C 
HETATM   31  C16 UNL     1     143.497  20.022 -77.719  1.00  0.00     0.173 C 
HETATM   32  C17 UNL     1     144.910  19.599 -78.051  1.00  0.00     0.182 C 
HETATM   33  C18 UNL     1     144.934  18.098 -78.153  1.00  0.00     0.204 C 
BRANCH  31  34
HETATM   34  O7  UNL     1     142.607  19.712 -78.744  1.00  0.00    -0.391 OA
ATOM     35  H7  UNL     1     142.279  20.487 -79.182  1.00  0.00     0.210 HD
ENDBRANCH  31  34
BRANCH  32  36
HETATM   36  O8  UNL     1     145.301  20.116 -79.279  1.00  0.00    -0.390 OA
ATOM     37  H8  UNL     1     144.543  20.366 -79.795  1.00  0.00     0.210 HD
ENDBRANCH  32  36
BRANCH  33  38
HETATM   38  O9  UNL     1     146.153  17.650 -77.640  1.00  0.00    -0.388 OA
ATOM     39  H9  UNL     1     145.957  17.057 -76.925  1.00  0.00     0.210 HD
ENDBRANCH  33  38
ENDBRANCH  27  28
ENDBRANCH   4  27
TORSDOF 13
ENDMDL
MODEL 3
REMARK VINA RESULT: -8.019769976      1.746      2.650
REMARK  13 active torsions:
REMARK  status: ('A' for Active; 'I' for Inactive)
REMARK    1  A    between atoms: C2_2  and  C3_3 
REMARK    2  A    between atoms: C3_3  and  O1_4 
REMARK    3  A    between atoms: O1_4  and  C4_5 
REMARK    4  A    between atoms: C5_6  and  C6_7 
REMARK    5  A    between atoms: C9_12  and  O4_13 
REMARK    6  A    between atoms: O4_13  and  C10_14 
REMARK    7  A    between atoms: C13_17  and  O5_18 
REMARK    8  A    between atoms: O5_18  and  C14_19 
REMARK    9  A    between atoms: C16_22  and  O7_23 
REMARK   10  A    between atoms: C17_25  and  O8_26 
REMARK   11  A    between atoms: C18_28  and  O9_29 
REMARK   12  A    between atoms: C19_31  and  N1_32 
REMARK   13  A    between atoms: C21_37  and  O10_38 
ROOT
HETATM    1  C10 UNL     1     144.427  15.168 -81.404  1.00  0.00     0.124 C 
HETATM    2  C11 UNL     1     144.459  16.481 -82.136  1.00  0.00     0.034 C 
HETATM    3  C12 UNL     1     143.653  17.565 -81.493  1.00  0.00     0.036 C 
HETATM    4  C13 UNL     1     143.944  17.710 -80.018  1.00  0.00     0.155 C 
HETATM    5  C19 UNL     1     143.493  16.404 -79.404  1.00  0.00     0.214 C 
HETATM    6  C20 UNL     1     144.125  15.199 -79.979  1.00  0.00     0.067 C 
ENDROOT
BRANCH   1   7
HETATM    7  O4  UNL     1     145.629  14.537 -81.697  1.00  0.00    -0.378 OA
BRANCH   7   8
HETATM    8  C9  UNL     1     145.621  13.185 -81.655  1.00  0.00     0.153 C 
HETATM    9  C8  UNL     1     144.340  12.570 -82.198  1.00  0.00     0.035 C 
HETATM   10  C7  UNL     1     144.666  11.155 -82.620  1.00  0.00     0.020 C 
HETATM   11  C5  UNL     1     145.470  11.245 -83.882  1.00  0.00     0.118 C 
HETATM   12  C4  UNL     1     146.667  12.131 -83.658  1.00  0.00     0.167 C 
HETATM   13  C21 UNL     1     146.832  12.518 -82.246  1.00  0.00     0.176 C 
BRANCH  11  14
HETATM   14  C6  UNL     1     145.823   9.868 -84.293  1.00  0.00     0.179 C 
HETATM   15  O2  UNL     1     144.913   9.080 -84.652  1.00  0.00    -0.648 OA
HETATM   16  O3  UNL     1     147.126   9.395 -84.303  1.00  0.00    -0.648 OA
ENDBRANCH  11  14
BRANCH  12  17
HETATM   17  O1  UNL     1     146.613  13.269 -84.467  1.00  0.00    -0.379 OA
BRANCH  17  18
HETATM   18  C3  UNL     1     145.781  13.092 -85.555  1.00  0.00     0.195 C 
BRANCH  18  19
HETATM   19  C2  UNL     1     144.622  13.974 -85.645  1.00  0.00    -0.011 C 
HETATM   20  C1  UNL     1     143.359  13.504 -85.719  1.00  0.00     0.009 C 
ENDBRANCH  18  19
ENDBRANCH  17  18
ENDBRANCH  12  17
BRANCH  13  21
HETATM   21  O10 UNL     1     148.006  13.192 -82.051  1.00  0.00    -0.390 OA
ATOM     22  H10 UNL     1     148.685  12.614 -81.723  1.00  0.00     0.210 HD
ENDBRANCH  13  21
ENDBRANCH   7   8
ENDBRANCH   1   7
BRANCH   5  23
HETATM   23  N1  UNL     1     142.045  16.339 -79.593  1.00  0.00    -0.072 N 
ATOM     24  H13 UNL     1     141.518  16.506 -78.737  1.00  0.00     0.274 HD
ATOM     25  H12 UNL     1     141.671  17.124 -80.127  1.00  0.00     0.274 HD
ATOM     26  H11 UNL     1     141.851  15.432 -80.017  1.00  0.00     0.274 HD
ENDBRANCH   5  23
BRANCH   4  27
HETATM   27  O5  UNL     1     143.057  18.682 -79.534  1.00  0.00    -0.351 OA
BRANCH  27  28
HETATM   28  C14 UNL     1     143.207  18.864 -78.160  1.00  0.00     0.291 C 
HETATM   29  O6  UNL     1     144.465  19.379 -77.935  1.00  0.00    -0.356 OA
HETATM   30  C15 UNL     1     144.749  19.569 -76.592  1.00  0.00     0.205 C 
HETATM   31  C16 UNL     1     143.541  19.873 -75.767  1.00  0.00     0.173 C 
HETATM   32  C17 UNL     1     142.549  20.691 -76.564  1.00  0.00     0.182 C 
HETATM   33  C18 UNL     1     142.128  19.877 -77.757  1.00  0.00     0.204 C 
BRANCH  31  34
HETATM   34  O7  UNL     1     142.960  18.724 -75.238  1.00  0.00    -0.391 OA
ATOM     35  H7  UNL     1     142.249  18.399 -75.776  1.00  0.00     0.210 HD
ENDBRANCH  31  34
BRANCH  32  36
HETATM   36  O8  UNL     1     141.415  20.958 -75.808  1.00  0.00    -0.390 OA
ATOM     37  H8  UNL     1     141.187  21.879 -75.859  1.00  0.00     0.210 HD
ENDBRANCH  32  36
BRANCH  33  38
HETATM   38  O9  UNL     1     141.955  20.748 -78.834  1.00  0.00    -0.388 OA
ATOM     39  H9  UNL     1     141.077  20.611 -79.169  1.00  0.00     0.210 HD
ENDBRANCH  33  38
ENDBRANCH  27  28
ENDBRANCH   4  27
TORSDOF 13
ENDMDL
MODEL 4
REMARK VINA RESULT: -8.002967204      1.893      8.577
REMARK  13 active torsions:
REMARK  status: ('A' for Active; 'I' for Inactive)
REMARK    1  A    between atoms: C2_2  and  C3_3 
REMARK    2  A    between atoms: C3_3  and  O1_4 
REMARK    3  A    between atoms: O1_4  and  C4_5 
REMARK    4  A    between atoms: C5_6  and  C6_7 
REMARK    5  A    between atoms: C9_12  and  O4_13 
REMARK    6  A    between atoms: O4_13  and  C10_14 
REMARK    7  A    between atoms: C13_17  and  O5_18 
REMARK    8  A    between atoms: O5_18  and  C14_19 
REMARK    9  A    between atoms: C16_22  and  O7_23 
REMARK   10  A    between atoms: C17_25  and  O8_26 
REMARK   11  A    between atoms: C18_28  and  O9_29 
REMARK   12  A    between atoms: C19_31  and  N1_32 
REMARK   13  A    between atoms: C21_37  and  O10_38 
ROOT
HETATM    1  C10 UNL     1     143.183  13.844 -79.324  1.00  0.00     0.124 C 
HETATM    2  C11 UNL     1     144.498  13.597 -80.009  1.00  0.00     0.034 C 
HETATM    3  C12 UNL     1     144.438  12.590 -81.114  1.00  0.00     0.036 C 
HETATM    4  C13 UNL     1     143.313  12.859 -82.085  1.00  0.00     0.155 C 
HETATM    5  C19 UNL     1     142.050  12.693 -81.272  1.00  0.00     0.214 C 
HETATM    6  C20 UNL     1     141.967  13.554 -80.075  1.00  0.00     0.067 C 
ENDROOT
BRANCH   1   7
HETATM    7  O4  UNL     1     143.237  15.147 -78.848  1.00  0.00    -0.378 OA
BRANCH   7   8
HETATM    8  C9  UNL     1     144.383  15.824 -79.089  1.00  0.00     0.153 C 
HETATM    9  C8  UNL     1     144.224  16.940 -80.111  1.00  0.00     0.035 C 
HETATM   10  C7  UNL     1     145.340  17.931 -79.869  1.00  0.00     0.020 C 
HETATM   11  C5  UNL     1     145.004  18.677 -78.613  1.00  0.00     0.118 C 
HETATM   12  C4  UNL     1     144.773  17.699 -77.492  1.00  0.00     0.167 C 
HETATM   13  C21 UNL     1     145.107  16.314 -77.865  1.00  0.00     0.176 C 
BRANCH  11  14
HETATM   14  C6  UNL     1     146.104  19.631 -78.346  1.00  0.00     0.179 C 
HETATM   15  O2  UNL     1     145.934  20.850 -78.597  1.00  0.00    -0.648 OA
HETATM   16  O3  UNL     1     147.328  19.245 -77.824  1.00  0.00    -0.648 OA
ENDBRANCH  11  14
BRANCH  12  17
HETATM   17  O1  UNL     1     143.457  17.769 -77.024  1.00  0.00    -0.379 OA
BRANCH  17  18
HETATM   18  C3  UNL     1     142.984  19.066 -77.000  1.00  0.00     0.195 C 
BRANCH  18  19
HETATM   19  C2  UNL     1     142.923  19.719 -75.696  1.00  0.00    -0.011 C 
HETATM   20  C1  UNL     1     141.758  20.108 -75.136  1.00  0.00     0.009 C 
ENDBRANCH  18  19
ENDBRANCH  17  18
ENDBRANCH  12  17
BRANCH  13  21
HETATM   21  O10 UNL     1     145.031  15.477 -76.785  1.00  0.00    -0.390 OA
ATOM     22  H10 UNL     1     144.268  15.670 -76.254  1.00  0.00     0.210 HD
ENDBRANCH  13  21
ENDBRANCH   7   8
ENDBRANCH   1   7
BRANCH   5  23
HETATM   23  N1  UNL     1     142.000  11.288 -80.871  1.00  0.00    -0.072 N 
ATOM     24  H13 UNL     1     142.173  11.144 -79.877  1.00  0.00     0.274 HD
ATOM     25  H12 UNL     1     141.060  10.893 -80.894  1.00  0.00     0.274 HD
ATOM     26  H11 UNL     1     142.661  10.794 -81.473  1.00  0.00     0.274 HD
ENDBRANCH   5  23
BRANCH   4  27
HETATM   27  O5  UNL     1     143.317  11.795 -82.999  1.00  0.00    -0.351 OA
BRANCH  27  28
HETATM   28  C14 UNL     1     144.598  11.553 -83.490  1.00  0.00     0.291 C 
HETATM   29  O6  UNL     1     144.655  10.237 -83.894  1.00  0.00    -0.356 OA
HETATM   30  C15 UNL     1     145.902   9.861 -84.370  1.00  0.00     0.205 C 
HETATM   31  C16 UNL     1     146.657  10.984 -85.004  1.00  0.00     0.173 C 
HETATM   32  C17 UNL     1     145.709  11.924 -85.714  1.00  0.00     0.182 C 
HETATM   33  C18 UNL     1     144.766  12.494 -84.690  1.00  0.00     0.204 C 
BRANCH  31  34
HETATM   34  O7  UNL     1     147.469  11.654 -84.094  1.00  0.00    -0.391 OA
ATOM     35  H7  UNL     1     147.796  11.080 -83.411  1.00  0.00     0.210 HD
ENDBRANCH  31  34
BRANCH  32  36
HETATM   36  O8  UNL     1     146.405  12.981 -86.288  1.00  0.00    -0.390 OA
ATOM     37  H8  UNL     1     145.967  13.806 -86.111  1.00  0.00     0.210 HD
ENDBRANCH  32  36
BRANCH  33  38
HETATM   38  O9  UNL     1     143.512  12.631 -85.287  1.00  0.00    -0.388 OA
ATOM     39  H9  UNL     1     143.145  11.759 -85.375  1.00  0.00     0.210 HD
ENDBRANCH  33  38
ENDBRANCH  27  28
ENDBRANCH   4  27
TORSDOF 13
ENDMDL
MODEL 5
REMARK VINA RESULT: -7.953501498      2.190      3.955
REMARK  13 active torsions:
REMARK  status: ('A' for Active; 'I' for Inactive)
REMARK    1  A    between atoms: C2_2  and  C3_3 
REMARK    2  A    between atoms: C3_3  and  O1_4 
REMARK    3  A    between atoms: O1_4  and  C4_5 
REMARK    4  A    between atoms: C5_6  and  C6_7 
REMARK    5  A    between atoms: C9_12  and  O4_13 
REMARK    6  A    between atoms: O4_13  and  C10_14 
REMARK    7  A    between atoms: C13_17  and  O5_18 
REMARK    8  A    between atoms: O5_18  and  C14_19 
REMARK    9  A    between atoms: C16_22  and  O7_23 
REMARK   10  A    between atoms: C17_25  and  O8_26 
REMARK   11  A    between atoms: C18_28  and  O9_29 
REMARK   12  A    between atoms: C19_31  and  N1_32 
REMARK   13  A    between atoms: C21_37  and  O10_38 
ROOT
HETATM    1  C10 UNL     1     144.255  15.794 -79.825  1.00  0.00     0.124 C 
HETATM    2  C11 UNL     1     144.480  15.448 -78.380  1.00  0.00     0.034 C 
HETATM    3  C12 UNL     1     144.635  16.633 -77.479  1.00  0.00     0.036 C 
HETATM    4  C13 UNL     1     143.543  17.658 -77.672  1.00  0.00     0.155 C 
HETATM    5  C19 UNL     1     143.724  18.156 -79.088  1.00  0.00     0.214 C 
HETATM    6  C20 UNL     1     143.687  17.104 -80.124  1.00  0.00     0.067 C 
ENDROOT
BRANCH   1   7
HETATM    7  O4  UNL     1     143.522  14.743 -80.360  1.00  0.00    -0.378 OA
BRANCH   7   8
HETATM    8  C9  UNL     1     143.912  14.300 -81.577  1.00  0.00     0.153 C 
HETATM    9  C8  UNL     1     145.413  14.074 -81.686  1.00  0.00     0.035 C 
HETATM   10  C7  UNL     1     145.637  13.087 -82.810  1.00  0.00     0.020 C 
HETATM   11  C5  UNL     1     145.204  11.742 -82.310  1.00  0.00     0.118 C 
HETATM   12  C4  UNL     1     143.786  11.821 -81.810  1.00  0.00     0.167 C 
HETATM   13  C21 UNL     1     143.149  13.117 -82.104  1.00  0.00     0.176 C 
BRANCH  11  14
HETATM   14  C6  UNL     1     145.388  10.769 -83.410  1.00  0.00     0.179 C 
HETATM   15  O2  UNL     1     144.765  10.935 -84.488  1.00  0.00    -0.648 OA
HETATM   16  O3  UNL     1     146.225   9.669 -83.312  1.00  0.00    -0.648 OA
ENDBRANCH  11  14
BRANCH  12  17
HETATM   17  O1  UNL     1     143.716  11.548 -80.441  1.00  0.00    -0.379 OA
BRANCH  17  18
HETATM   18  C3  UNL     1     142.523  10.946 -80.093  1.00  0.00     0.195 C 
BRANCH  18  19
HETATM   19  C2  UNL     1     141.982  11.271 -78.777  1.00  0.00    -0.011 C 
HETATM   20  C1  UNL     1     142.405  12.336 -78.064  1.00  0.00     0.009 C 
ENDBRANCH  18  19
ENDBRANCH  17  18
ENDBRANCH  12  17
BRANCH  13  21
HETATM   21  O10 UNL     1     141.821  13.103 -81.775  1.00  0.00    -0.390 OA
ATOM     22  H10 UNL     1     141.402  13.925 -82.002  1.00  0.00     0.210 HD
ENDBRANCH  13  21
ENDBRANCH   7   8
ENDBRANCH   1   7
BRANCH   5  23
HETATM   23  N1  UNL     1     145.018  18.836 -79.122  1.00  0.00    -0.072 N 
ATOM     24  H13 UNL     1     145.069  19.572 -79.826  1.00  0.00     0.274 HD
ATOM     25  H12 UNL     1     145.187  19.427 -78.308  1.00  0.00     0.274 HD
ATOM     26  H11 UNL     1     145.722  18.108 -79.247  1.00  0.00     0.274 HD
ENDBRANCH   5  23
BRANCH   4  27
HETATM   27  O5  UNL     1     143.868  18.743 -76.846  1.00  0.00    -0.351 OA
BRANCH  27  28
HETATM   28  C14 UNL     1     142.750  19.205 -76.153  1.00  0.00     0.291 C 
HETATM   29  O6  UNL     1     143.168  19.631 -74.911  1.00  0.00    -0.356 OA
HETATM   30  C15 UNL     1     142.133  20.081 -74.107  1.00  0.00     0.205 C 
HETATM   31  C16 UNL     1     140.998  20.674 -74.877  1.00  0.00     0.173 C 
HETATM   32  C17 UNL     1     141.512  21.391 -76.106  1.00  0.00     0.182 C 
HETATM   33  C18 UNL     1     142.211  20.382 -76.975  1.00  0.00     0.204 C 
BRANCH  31  34
HETATM   34  O7  UNL     1     140.025  19.731 -75.195  1.00  0.00    -0.391 OA
ATOM     35  H7  UNL     1     140.390  18.969 -75.628  1.00  0.00     0.210 HD
ENDBRANCH  31  34
BRANCH  32  36
HETATM   36  O8  UNL     1     140.459  21.927 -76.836  1.00  0.00    -0.390 OA
ATOM     37  H8  UNL     1     139.689  21.374 -76.771  1.00  0.00     0.210 HD
ENDBRANCH  32  36
BRANCH  33  38
HETATM   38  O9  UNL     1     143.308  21.010 -77.568  1.00  0.00    -0.388 OA
ATOM     39  H9  UNL     1     144.053  20.429 -77.468  1.00  0.00     0.210 HD
ENDBRANCH  33  38
ENDBRANCH  27  28
ENDBRANCH   4  27
TORSDOF 13
ENDMDL
