MODEL 1
REMARK VINA RESULT: -7.167285837      0.000      0.000
REMARK  8 active torsions:
REMARK  status: ('A' for Active; 'I' for Inactive)
REMARK    1  A    between atoms: C2_2  and  C3_4 
REMARK    2  A    between atoms: C3_4  and  C4_5 
REMARK    3  A    between atoms: N1_6  and  N2_8 
REMARK       I    between atoms: N2_8  and  C5_10 
REMARK    4  A    between atoms: C5_10  and  C6_12 
REMARK       I    between atoms: N6_16  and  C7_17 
REMARK    5  A    between atoms: C7_17  and  C8_19 
REMARK    6  A    between atoms: C12_23  and  C13_24 
REMARK    7  A    between atoms: N7_28  and  N8_30 
REMARK       I    between atoms: N8_30  and  C17_32 
REMARK    8  A    between atoms: C17_32  and  C18_34 
ROOT
HETATM    1  N2  UNL     1     143.581  16.172 -80.049  1.00  0.00    -0.267 N 
ATOM      2  H2  UNL     1     142.571  16.198 -79.915  1.00  0.00     0.190 HD
HETATM    3  C5  UNL     1     144.164  15.228 -80.894  1.00  0.00     0.277 C 
HETATM    4  O2  UNL     1     145.433  15.227 -81.033  1.00  0.00    -0.268 OA
ENDROOT
BRANCH   1   5
HETATM    5  N1  UNL     1     144.423  17.095 -79.381  1.00  0.00    -0.307 N 
HETATM    6  C4  UNL     1     143.960  18.091 -78.720  1.00  0.00     0.141 C 
ATOM      7  H1  UNL     1     145.434  16.962 -79.427  1.00  0.00     0.186 HD
BRANCH   6   8
HETATM    8  C3  UNL     1     144.861  19.005 -78.055  1.00  0.00     0.110 C 
HETATM    9  N7  UNL     1     144.367  19.964 -77.354  1.00  0.00    -0.293 N 
ATOM     10  H7  UNL     1     145.019  20.597 -76.891  1.00  0.00     0.187 HD
BRANCH   8  11
HETATM   11  C2  UNL     1     146.303  18.868 -78.154  1.00  0.00     0.174 C 
HETATM   12  C1  UNL     1     147.225  20.007 -78.215  1.00  0.00     0.098 C 
HETATM   13  O1  UNL     1     146.796  17.689 -78.190  1.00  0.00    -0.291 OA
ENDBRANCH   8  11
BRANCH   9  14
HETATM   14  N8  UNL     1     143.035  20.192 -77.187  1.00  0.00    -0.260 N 
HETATM   15  C17 UNL     1     142.486  20.263 -75.872  1.00  0.00     0.336 C 
HETATM   16  O4  UNL     1     143.239  20.112 -74.888  1.00  0.00    -0.259 OA
ATOM     17  H8  UNL     1     142.432  20.313 -78.000  1.00  0.00     0.190 HD
BRANCH  15  18
HETATM   18  C18 UNL     1     141.057  20.507 -75.666  1.00  0.00     0.271 C 
HETATM   19  O5  UNL     1     140.334  19.711 -75.008  1.00  0.00    -0.640 OA
HETATM   20  O6  UNL     1     140.488  21.647 -76.214  1.00  0.00    -0.640 OA
ENDBRANCH  15  18
ENDBRANCH   9  14
ENDBRANCH   6   8
ENDBRANCH   1   5
BRANCH   3  21
HETATM   21  C6  UNL     1     143.393  14.228 -81.636  1.00  0.00     0.312 C 
HETATM   22  N3  UNL     1     142.074  14.033 -80.936  1.00  0.00    -0.091 NA
HETATM   23  N4  UNL     1     142.538  13.490 -79.731  1.00  0.00    -0.015 NA
HETATM   24  N5  UNL     1     143.666  12.702 -79.993  1.00  0.00    -0.005 NA
HETATM   25  N6  UNL     1     143.857  12.853 -81.392  1.00  0.00    -0.216 N 
HETATM   26  C7  UNL     1     144.303  11.918 -82.311  1.00  0.00     0.243 C 
HETATM   27  O3  UNL     1     144.696  10.788 -81.825  1.00  0.00    -0.271 OA
BRANCH  26  28
HETATM   28  C8  UNL     1     144.350  12.133 -83.770  1.00  0.00     0.084 C 
HETATM   29  C9  UNL     1     143.042  12.541 -84.333  1.00  0.00     0.014 C 
HETATM   30  C10 UNL     1     143.302  13.652 -85.328  1.00  0.00     0.001 C 
HETATM   31  C11 UNL     1     144.570  14.261 -84.816  1.00  0.00     0.006 C 
HETATM   32  C12 UNL     1     145.354  13.215 -84.104  1.00  0.00     0.006 C 
BRANCH  32  33
HETATM   33  C13 UNL     1     146.495  12.681 -84.942  1.00  0.00    -0.047 C 
HETATM   34  C14 UNL     1     146.687  13.444 -86.217  1.00  0.00     0.015 C 
HETATM   35  C15 UNL     1     147.759  12.813 -84.122  1.00  0.00     0.015 C 
HETATM   36  C16 UNL     1     146.313  11.233 -85.276  1.00  0.00     0.015 C 
ENDBRANCH  32  33
ENDBRANCH  26  28
ENDBRANCH   3  21
TORSDOF 8
ENDMDL
MODEL 2
REMARK VINA RESULT: -7.156721327      2.793      8.921
REMARK  8 active torsions:
REMARK  status: ('A' for Active; 'I' for Inactive)
REMARK    1  A    between atoms: C2_2  and  C3_4 
REMARK    2  A    between atoms: C3_4  and  C4_5 
REMARK    3  A    between atoms: N1_6  and  N2_8 
REMARK       I    between atoms: N2_8  and  C5_10 
REMARK    4  A    between atoms: C5_10  and  C6_12 
REMARK       I    between atoms: N6_16  and  C7_17 
REMARK    5  A    between atoms: C7_17  and  C8_19 
REMARK    6  A    between atoms: C12_23  and  C13_24 
REMARK    7  A    between atoms: N7_28  and  N8_30 
REMARK       I    between atoms: N8_30  and  C17_32 
REMARK    8  A    between atoms: C17_32  and  C18_34 
ROOT
HETATM    1  N2  UNL     1     145.084  12.556 -81.083  1.00  0.00    -0.267 N 
ATOM      2  H2  UNL     1     144.638  11.909 -80.434  1.00  0.00     0.190 HD
HETATM    3  C5  UNL     1     145.108  13.925 -80.821  1.00  0.00     0.277 C 
HETATM    4  O2  UNL     1     145.674  14.702 -81.660  1.00  0.00    -0.268 OA
ENDROOT
BRANCH   1   5
HETATM    5  N1  UNL     1     145.693  12.083 -82.272  1.00  0.00    -0.307 N 
HETATM    6  C4  UNL     1     145.011  11.745 -83.304  1.00  0.00     0.141 C 
ATOM      7  H1  UNL     1     146.710  12.009 -82.309  1.00  0.00     0.186 HD
BRANCH   6   8
HETATM    8  C3  UNL     1     145.680  11.269 -84.493  1.00  0.00     0.110 C 
HETATM    9  N7  UNL     1     146.058  12.123 -85.377  1.00  0.00    -0.293 N 
ATOM     10  H7  UNL     1     146.530  11.768 -86.208  1.00  0.00     0.187 HD
BRANCH   8  11
HETATM   11  C2  UNL     1     145.938   9.857 -84.715  1.00  0.00     0.174 C 
HETATM   12  C1  UNL     1     147.252   9.319 -85.080  1.00  0.00     0.098 C 
HETATM   13  O1  UNL     1     144.966   9.038 -84.584  1.00  0.00    -0.291 OA
ENDBRANCH   8  11
BRANCH   9  14
HETATM   14  N8  UNL     1     145.873  13.469 -85.280  1.00  0.00    -0.260 N 
HETATM   15  C17 UNL     1     144.642  14.049 -85.710  1.00  0.00     0.336 C 
HETATM   16  O4  UNL     1     143.749  13.310 -86.173  1.00  0.00    -0.259 OA
ATOM     17  H8  UNL     1     146.612  14.060 -84.900  1.00  0.00     0.190 HD
BRANCH  15  18
HETATM   18  C18 UNL     1     144.419  15.493 -85.616  1.00  0.00     0.271 C 
HETATM   19  O5  UNL     1     144.390  16.091 -84.506  1.00  0.00    -0.640 OA
HETATM   20  O6  UNL     1     144.233  16.219 -86.783  1.00  0.00    -0.640 OA
ENDBRANCH  15  18
ENDBRANCH   9  14
ENDBRANCH   6   8
ENDBRANCH   1   5
BRANCH   3  21
HETATM   21  C6  UNL     1     144.513  14.525 -79.624  1.00  0.00     0.312 C 
HETATM   22  N3  UNL     1     143.589  13.514 -78.998  1.00  0.00    -0.091 NA
HETATM   23  N4  UNL     1     142.635  13.420 -80.019  1.00  0.00    -0.015 NA
HETATM   24  N5  UNL     1     142.493  14.675 -80.624  1.00  0.00    -0.005 NA
HETATM   25  N6  UNL     1     143.441  15.481 -79.939  1.00  0.00    -0.216 N 
HETATM   26  C7  UNL     1     143.348  16.819 -79.591  1.00  0.00     0.243 C 
HETATM   27  O3  UNL     1     142.312  17.450 -80.033  1.00  0.00    -0.271 OA
BRANCH  26  28
HETATM   28  C8  UNL     1     144.337  17.540 -78.766  1.00  0.00     0.084 C 
HETATM   29  C9  UNL     1     145.687  17.560 -79.374  1.00  0.00     0.014 C 
HETATM   30  C10 UNL     1     146.243  18.957 -79.197  1.00  0.00     0.001 C 
HETATM   31  C11 UNL     1     145.007  19.796 -79.124  1.00  0.00     0.006 C 
HETATM   32  C12 UNL     1     143.899  18.975 -78.565  1.00  0.00     0.006 C 
BRANCH  32  33
HETATM   33  C13 UNL     1     143.633  19.280 -77.107  1.00  0.00    -0.047 C 
HETATM   34  C14 UNL     1     142.468  20.201 -76.909  1.00  0.00     0.015 C 
HETATM   35  C15 UNL     1     143.318  17.970 -76.420  1.00  0.00     0.015 C 
HETATM   36  C16 UNL     1     144.830  19.876 -76.434  1.00  0.00     0.015 C 
ENDBRANCH  32  33
ENDBRANCH  26  28
ENDBRANCH   3  21
TORSDOF 8
ENDMDL
MODEL 3
REMARK VINA RESULT: -7.028820404      3.051      8.746
REMARK  8 active torsions:
REMARK  status: ('A' for Active; 'I' for Inactive)
REMARK    1  A    between atoms: C2_2  and  C3_4 
REMARK    2  A    between atoms: C3_4  and  C4_5 
REMARK    3  A    between atoms: N1_6  and  N2_8 
REMARK       I    between atoms: N2_8  and  C5_10 
REMARK    4  A    between atoms: C5_10  and  C6_12 
REMARK       I    between atoms: N6_16  and  C7_17 
REMARK    5  A    between atoms: C7_17  and  C8_19 
REMARK    6  A    between atoms: C12_23  and  C13_24 
REMARK    7  A    between atoms: N7_28  and  N8_30 
REMARK       I    between atoms: N8_30  and  C17_32 
REMARK    8  A    between atoms: C17_32  and  C18_34 
ROOT
HETATM    1  N2  UNL     1     144.299  11.847 -81.167  1.00  0.00    -0.267 N 
ATOM      2  H2  UNL     1     143.556  11.251 -80.803  1.00  0.00     0.190 HD
HETATM    3  C5  UNL     1     144.555  13.093 -80.596  1.00  0.00     0.277 C 
HETATM    4  O2  UNL     1     145.492  13.811 -81.081  1.00  0.00    -0.268 OA
ENDROOT
BRANCH   1   5
HETATM    5  N1  UNL     1     145.093  11.428 -82.262  1.00  0.00    -0.307 N 
HETATM    6  C4  UNL     1     144.812  11.744 -83.473  1.00  0.00     0.141 C 
ATOM      7  H1  UNL     1     145.917  10.854 -82.082  1.00  0.00     0.186 HD
BRANCH   6   8
HETATM    8  C3  UNL     1     145.654  11.292 -84.557  1.00  0.00     0.110 C 
HETATM    9  N7  UNL     1     146.148  12.162 -85.365  1.00  0.00    -0.293 N 
ATOM     10  H7  UNL     1     146.742  11.824 -86.122  1.00  0.00     0.187 HD
BRANCH   8  11
HETATM   11  C2  UNL     1     145.960   9.886 -84.755  1.00  0.00     0.174 C 
HETATM   12  C1  UNL     1     147.285   9.389 -85.137  1.00  0.00     0.098 C 
HETATM   13  O1  UNL     1     145.021   9.035 -84.586  1.00  0.00    -0.291 OA
ENDBRANCH   8  11
BRANCH   9  14
HETATM   14  N8  UNL     1     145.934  13.504 -85.280  1.00  0.00    -0.260 N 
HETATM   15  C17 UNL     1     144.711  14.061 -85.760  1.00  0.00     0.336 C 
HETATM   16  O4  UNL     1     143.850  13.304 -86.255  1.00  0.00    -0.259 OA
ATOM     17  H8  UNL     1     146.646  14.110 -84.873  1.00  0.00     0.190 HD
BRANCH  15  18
HETATM   18  C18 UNL     1     144.457  15.500 -85.679  1.00  0.00     0.271 C 
HETATM   19  O5  UNL     1     144.243  16.197 -86.708  1.00  0.00    -0.640 OA
HETATM   20  O6  UNL     1     144.454  16.110 -84.434  1.00  0.00    -0.640 OA
ENDBRANCH  15  18
ENDBRANCH   9  14
ENDBRANCH   6   8
ENDBRANCH   1   5
BRANCH   3  21
HETATM   21  C6  UNL     1     143.800  13.628 -79.459  1.00  0.00     0.312 C 
HETATM   22  N3  UNL     1     142.710  12.648 -79.113  1.00  0.00    -0.091 NA
HETATM   23  N4  UNL     1     141.949  12.737 -80.287  1.00  0.00    -0.015 NA
HETATM   24  N5  UNL     1     142.007  14.052 -80.767  1.00  0.00    -0.005 NA
HETATM   25  N6  UNL     1     142.872  14.702 -79.846  1.00  0.00    -0.216 N 
HETATM   26  C7  UNL     1     142.814  16.003 -79.376  1.00  0.00     0.243 C 
HETATM   27  O3  UNL     1     141.922  16.763 -79.916  1.00  0.00    -0.271 OA
BRANCH  26  28
HETATM   28  C8  UNL     1     143.689  16.552 -78.321  1.00  0.00     0.084 C 
HETATM   29  C9  UNL     1     144.787  15.631 -77.949  1.00  0.00     0.014 C 
HETATM   30  C10 UNL     1     146.046  16.459 -77.809  1.00  0.00     0.001 C 
HETATM   31  C11 UNL     1     145.780  17.618 -78.717  1.00  0.00     0.006 C 
HETATM   32  C12 UNL     1     144.311  17.850 -78.785  1.00  0.00     0.006 C 
BRANCH  32  33
HETATM   33  C13 UNL     1     143.874  19.019 -77.929  1.00  0.00    -0.047 C 
HETATM   34  C14 UNL     1     143.440  18.604 -76.556  1.00  0.00     0.015 C 
HETATM   35  C15 UNL     1     145.061  19.945 -77.786  1.00  0.00     0.015 C 
HETATM   36  C16 UNL     1     142.761  19.792 -78.566  1.00  0.00     0.015 C 
ENDBRANCH  32  33
ENDBRANCH  26  28
ENDBRANCH   3  21
TORSDOF 8
ENDMDL
MODEL 4
REMARK VINA RESULT: -6.896917831      1.640      3.773
REMARK  8 active torsions:
REMARK  status: ('A' for Active; 'I' for Inactive)
REMARK    1  A    between atoms: C2_2  and  C3_4 
REMARK    2  A    between atoms: C3_4  and  C4_5 
REMARK    3  A    between atoms: N1_6  and  N2_8 
REMARK       I    between atoms: N2_8  and  C5_10 
REMARK    4  A    between atoms: C5_10  and  C6_12 
REMARK       I    between atoms: N6_16  and  C7_17 
REMARK    5  A    between atoms: C7_17  and  C8_19 
REMARK    6  A    between atoms: C12_23  and  C13_24 
REMARK    7  A    between atoms: N7_28  and  N8_30 
REMARK       I    between atoms: N8_30  and  C17_32 
REMARK    8  A    between atoms: C17_32  and  C18_34 
ROOT
HETATM    1  N2  UNL     1     142.892  16.557 -78.403  1.00  0.00    -0.267 N 
ATOM      2  H2  UNL     1     142.429  15.849 -77.834  1.00  0.00     0.190 HD
HETATM    3  C5  UNL     1     143.471  16.221 -79.627  1.00  0.00     0.277 C 
HETATM    4  O2  UNL     1     144.044  17.136 -80.308  1.00  0.00    -0.268 OA
ENDROOT
BRANCH   1   5
HETATM    5  N1  UNL     1     142.962  17.903 -77.968  1.00  0.00    -0.307 N 
HETATM    6  C4  UNL     1     142.766  18.239 -76.746  1.00  0.00     0.141 C 
ATOM      7  H1  UNL     1     143.175  18.631 -78.650  1.00  0.00     0.186 HD
BRANCH   6   8
HETATM    8  C3  UNL     1     142.848  19.628 -76.352  1.00  0.00     0.110 C 
HETATM    9  N7  UNL     1     144.005  20.187 -76.287  1.00  0.00    -0.293 N 
ATOM     10  H7  UNL     1     144.042  21.167 -76.009  1.00  0.00     0.187 HD
BRANCH   8  11
HETATM   11  C2  UNL     1     141.665  20.406 -76.032  1.00  0.00     0.174 C 
HETATM   12  C1  UNL     1     141.355  21.702 -76.644  1.00  0.00     0.098 C 
HETATM   13  O1  UNL     1     140.847  19.934 -75.171  1.00  0.00    -0.291 OA
ENDBRANCH   8  11
BRANCH   9  14
HETATM   14  N8  UNL     1     145.182  19.561 -76.563  1.00  0.00    -0.260 N 
HETATM   15  C17 UNL     1     145.683  19.547 -77.899  1.00  0.00     0.336 C 
HETATM   16  O4  UNL     1     145.030  20.111 -78.800  1.00  0.00    -0.259 OA
ATOM     17  H8  UNL     1     145.705  19.104 -75.816  1.00  0.00     0.190 HD
BRANCH  15  18
HETATM   18  C18 UNL     1     146.946  18.881 -78.221  1.00  0.00     0.271 C 
HETATM   19  O5  UNL     1     146.984  17.692 -78.638  1.00  0.00    -0.640 OA
HETATM   20  O6  UNL     1     148.132  19.582 -78.060  1.00  0.00    -0.640 OA
ENDBRANCH  15  18
ENDBRANCH   9  14
ENDBRANCH   6   8
ENDBRANCH   1   5
BRANCH   3  21
HETATM   21  C6  UNL     1     143.458  14.863 -80.177  1.00  0.00     0.312 C 
HETATM   22  N3  UNL     1     143.025  13.916 -79.088  1.00  0.00    -0.091 NA
HETATM   23  N4  UNL     1     144.107  14.074 -78.212  1.00  0.00    -0.015 NA
HETATM   24  N5  UNL     1     145.271  14.283 -78.961  1.00  0.00    -0.005 NA
HETATM   25  N6  UNL     1     144.805  14.286 -80.303  1.00  0.00    -0.216 N 
HETATM   26  C7  UNL     1     145.433  13.801 -81.438  1.00  0.00     0.243 C 
HETATM   27  O3  UNL     1     146.645  13.383 -81.282  1.00  0.00    -0.271 OA
BRANCH  26  28
HETATM   28  C8  UNL     1     144.812  13.736 -82.775  1.00  0.00     0.084 C 
HETATM   29  C9  UNL     1     144.537  15.075 -83.347  1.00  0.00     0.014 C 
HETATM   30  C10 UNL     1     144.940  15.037 -84.805  1.00  0.00     0.001 C 
HETATM   31  C11 UNL     1     145.995  13.976 -84.827  1.00  0.00     0.006 C 
HETATM   32  C12 UNL     1     145.722  13.002 -83.736  1.00  0.00     0.006 C 
BRANCH  32  33
HETATM   33  C13 UNL     1     145.086  11.728 -84.247  1.00  0.00    -0.047 C 
HETATM   34  C14 UNL     1     146.038  10.571 -84.269  1.00  0.00     0.015 C 
HETATM   35  C15 UNL     1     143.949  11.382 -83.310  1.00  0.00     0.015 C 
HETATM   36  C16 UNL     1     144.515  11.900 -85.620  1.00  0.00     0.015 C 
ENDBRANCH  32  33
ENDBRANCH  26  28
ENDBRANCH   3  21
TORSDOF 8
ENDMDL
MODEL 5
REMARK VINA RESULT: -6.777111451      4.787      9.282
REMARK  8 active torsions:
REMARK  status: ('A' for Active; 'I' for Inactive)
REMARK    1  A    between atoms: C2_2  and  C3_4 
REMARK    2  A    between atoms: C3_4  and  C4_5 
REMARK    3  A    between atoms: N1_6  and  N2_8 
REMARK       I    between atoms: N2_8  and  C5_10 
REMARK    4  A    between atoms: C5_10  and  C6_12 
REMARK       I    between atoms: N6_16  and  C7_17 
REMARK    5  A    between atoms: C7_17  and  C8_19 
REMARK    6  A    between atoms: C12_23  and  C13_24 
REMARK    7  A    between atoms: N7_28  and  N8_30 
REMARK       I    between atoms: N8_30  and  C17_32 
REMARK    8  A    between atoms: C17_32  and  C18_34 
ROOT
HETATM    1  N2  UNL     1     142.118  11.814 -79.316  1.00  0.00    -0.267 N 
ATOM      2  H2  UNL     1     142.113  11.511 -78.343  1.00  0.00     0.190 HD
HETATM    3  C5  UNL     1     142.842  12.940 -79.708  1.00  0.00     0.277 C 
HETATM    4  O2  UNL     1     142.821  13.288 -80.935  1.00  0.00    -0.268 OA
ENDROOT
BRANCH   1   5
HETATM    5  N1  UNL     1     141.390  11.102 -80.300  1.00  0.00    -0.307 N 
HETATM    6  C4  UNL     1     140.752  10.021 -80.032  1.00  0.00     0.141 C 
ATOM      7  H1  UNL     1     141.371  11.460 -81.255  1.00  0.00     0.186 HD
BRANCH   6   8
HETATM    8  C3  UNL     1     140.023   9.331 -81.072  1.00  0.00     0.110 C 
HETATM    9  N7  UNL     1     138.826   8.927 -80.828  1.00  0.00    -0.293 N 
ATOM     10  H7  UNL     1     138.328   8.444 -81.575  1.00  0.00     0.187 HD
BRANCH   8  11
HETATM   11  C2  UNL     1     140.602   9.085 -82.381  1.00  0.00     0.174 C 
HETATM   12  C1  UNL     1     140.012   8.182 -83.374  1.00  0.00     0.098 C 
HETATM   13  O1  UNL     1     141.687   9.690 -82.684  1.00  0.00    -0.291 OA
ENDBRANCH   8  11
BRANCH   9  14
HETATM   14  N8  UNL     1     138.179   9.100 -79.643  1.00  0.00    -0.260 N 
HETATM   15  C17 UNL     1     136.966   8.394 -79.386  1.00  0.00     0.336 C 
HETATM   16  O4  UNL     1     136.512   7.625 -80.258  1.00  0.00    -0.259 OA
ATOM     17  H8  UNL     1     138.562   9.732 -78.940  1.00  0.00     0.190 HD
BRANCH  15  18
HETATM   18  C18 UNL     1     136.252   8.563 -78.119  1.00  0.00     0.271 C 
HETATM   19  O5  UNL     1     135.795   9.681 -77.756  1.00  0.00    -0.640 OA
HETATM   20  O6  UNL     1     136.077   7.460 -77.297  1.00  0.00    -0.640 OA
ENDBRANCH  15  18
ENDBRANCH   9  14
ENDBRANCH   6   8
ENDBRANCH   1   5
BRANCH   3  21
HETATM   21  C6  UNL     1     143.632  13.751 -78.778  1.00  0.00     0.312 C 
HETATM   22  N3  UNL     1     143.643  13.061 -77.439  1.00  0.00    -0.091 NA
HETATM   23  N4  UNL     1     142.280  13.156 -77.128  1.00  0.00    -0.015 NA
HETATM   24  N5  UNL     1     141.781  14.362 -77.636  1.00  0.00    -0.005 NA
HETATM   25  N6  UNL     1     142.904  14.933 -78.292  1.00  0.00    -0.216 N 
HETATM   26  C7  UNL     1     143.261  16.268 -78.391  1.00  0.00     0.243 C 
HETATM   27  O3  UNL     1     142.416  17.119 -77.914  1.00  0.00    -0.271 OA
BRANCH  26  28
HETATM   28  C8  UNL     1     144.519  16.756 -78.990  1.00  0.00     0.084 C 
HETATM   29  C9  UNL     1     144.805  16.139 -80.306  1.00  0.00     0.014 C 
HETATM   30  C10 UNL     1     145.296  17.237 -81.225  1.00  0.00     0.001 C 
HETATM   31  C11 UNL     1     144.655  18.460 -80.647  1.00  0.00     0.006 C 
HETATM   32  C12 UNL     1     144.454  18.255 -79.186  1.00  0.00     0.006 C 
BRANCH  32  33
HETATM   33  C13 UNL     1     145.494  18.974 -78.356  1.00  0.00    -0.047 C 
HETATM   34  C14 UNL     1     144.942  19.512 -77.071  1.00  0.00     0.015 C 
HETATM   35  C15 UNL     1     146.576  17.972 -78.018  1.00  0.00     0.015 C 
HETATM   36  C16 UNL     1     146.130  20.100 -79.109  1.00  0.00     0.015 C 
ENDBRANCH  32  33
ENDBRANCH  26  28
ENDBRANCH   3  21
TORSDOF 8
ENDMDL
