MODEL 1
REMARK VINA RESULT: -8.429001843      0.000      0.000
REMARK  10 active torsions:
REMARK  status: ('A' for Active; 'I' for Inactive)
REMARK    1  A    between atoms: C3_3  and  C4_4 
REMARK       I    between atoms: C4_4  and  N1_6 
REMARK    2  A    between atoms: N1_6  and  C5_8 
REMARK    3  A    between atoms: C7_10  and  O2_11 
REMARK    4  A    between atoms: O2_11  and  C8_12 
REMARK    5  A    between atoms: C11_16  and  O4_17 
REMARK    6  A    between atoms: C12_19  and  O5_20 
REMARK    7  A    between atoms: O5_20  and  C13_21 
REMARK    8  A    between atoms: C16_24  and  O6_25 
REMARK    9  A    between atoms: C18_29  and  O8_30 
REMARK   10  A    between atoms: C19_33  and  C20_34 
ROOT
HETATM    1  C8  UNL     1     145.166  14.129 -81.838  1.00  0.00     0.294 C 
HETATM    2  O3  UNL     1     145.779  14.597 -83.000  1.00  0.00    -0.351 OA
HETATM    3  C9  UNL     1     145.526  13.782 -84.096  1.00  0.00     0.152 C 
HETATM    4  C10 UNL     1     144.144  14.046 -84.675  1.00  0.00     0.042 C 
HETATM    5  C11 UNL     1     145.798  12.339 -83.864  1.00  0.00     0.178 C 
HETATM    6  C12 UNL     1     145.392  11.827 -82.522  1.00  0.00     0.189 C 
HETATM    7  C18 UNL     1     145.900  12.837 -81.480  1.00  0.00     0.205 C 
ENDROOT
BRANCH   1   8
HETATM    8  O2  UNL     1     145.247  15.073 -80.858  1.00  0.00    -0.329 OA
BRANCH   8   9
HETATM    9  C7  UNL     1     143.979  15.270 -80.324  1.00  0.00     0.266 C 
HETATM   10  C6  UNL     1     143.993  15.459 -78.828  1.00  0.00     0.089 C 
HETATM   11  C5  UNL     1     144.200  16.939 -78.698  1.00  0.00     0.129 C 
HETATM   12  C19 UNL     1     143.882  17.479 -80.044  1.00  0.00     0.248 C 
HETATM   13  O9  UNL     1     143.502  16.458 -80.866  1.00  0.00    -0.343 OA
BRANCH  11  14
HETATM   14  N1  UNL     1     143.312  17.504 -77.662  1.00  0.00    -0.350 N 
HETATM   15  C4  UNL     1     143.763  18.593 -76.928  1.00  0.00     0.241 C 
HETATM   16  O1  UNL     1     144.951  19.012 -77.237  1.00  0.00    -0.269 OA
ATOM     17  H1  UNL     1     142.390  17.103 -77.490  1.00  0.00     0.163 HD
BRANCH  15  18
HETATM   18  C3  UNL     1     143.101  19.295 -75.899  1.00  0.00     0.070 C 
HETATM   19  C2  UNL     1     142.305  20.297 -75.970  1.00  0.00    -0.026 C 
HETATM   20  C1  UNL     1     141.856  21.001 -77.160  1.00  0.00     0.036 C 
ENDBRANCH  15  18
ENDBRANCH  11  14
BRANCH  12  21
HETATM   21  C20 UNL     1     144.992  18.282 -80.638  1.00  0.00     0.205 C 
HETATM   22  O10 UNL     1     144.975  18.637 -81.860  1.00  0.00    -0.646 OA
HETATM   23  O11 UNL     1     146.093  18.681 -79.897  1.00  0.00    -0.646 OA
ENDBRANCH  12  21
ENDBRANCH   8   9
ENDBRANCH   1   8
BRANCH   7  24
HETATM   24  O8  UNL     1     147.255  12.995 -81.718  1.00  0.00    -0.388 OA
ATOM     25  H8  UNL     1     147.670  12.142 -81.760  1.00  0.00     0.210 HD
ENDBRANCH   7  24
BRANCH   6  26
HETATM   26  O5  UNL     1     144.000  11.872 -82.429  1.00  0.00    -0.351 OA
BRANCH  26  27
HETATM   27  C13 UNL     1     143.483  10.909 -81.584  1.00  0.00     0.260 C 
HETATM   28  C14 UNL     1     142.090  10.582 -82.066  1.00  0.00     0.063 C 
HETATM   29  C15 UNL     1     141.218  10.002 -80.975  1.00  0.00     0.038 C 
HETATM   30  C16 UNL     1     141.233  10.902 -79.782  1.00  0.00     0.142 C 
HETATM   31  C17 UNL     1     142.233  12.012 -79.985  1.00  0.00     0.202 C 
HETATM   32  O7  UNL     1     143.453  11.419 -80.265  1.00  0.00    -0.359 OA
BRANCH  30  33
HETATM   33  O6  UNL     1     139.968  11.370 -79.474  1.00  0.00    -0.393 OA
ATOM     34  H6  UNL     1     139.846  12.270 -79.751  1.00  0.00     0.210 HD
ENDBRANCH  30  33
ENDBRANCH  26  27
ENDBRANCH   6  26
BRANCH   5  35
HETATM   35  O4  UNL     1     147.182  12.137 -83.988  1.00  0.00    -0.390 OA
ATOM     36  H4  UNL     1     147.601  12.516 -83.223  1.00  0.00     0.210 HD
ENDBRANCH   5  35
TORSDOF 10
ENDMDL
MODEL 2
REMARK VINA RESULT: -7.774502676      2.061      4.036
REMARK  10 active torsions:
REMARK  status: ('A' for Active; 'I' for Inactive)
REMARK    1  A    between atoms: C3_3  and  C4_4 
REMARK       I    between atoms: C4_4  and  N1_6 
REMARK    2  A    between atoms: N1_6  and  C5_8 
REMARK    3  A    between atoms: C7_10  and  O2_11 
REMARK    4  A    between atoms: O2_11  and  C8_12 
REMARK    5  A    between atoms: C11_16  and  O4_17 
REMARK    6  A    between atoms: C12_19  and  O5_20 
REMARK    7  A    between atoms: O5_20  and  C13_21 
REMARK    8  A    between atoms: C16_24  and  O6_25 
REMARK    9  A    between atoms: C18_29  and  O8_30 
REMARK   10  A    between atoms: C19_33  and  C20_34 
ROOT
HETATM    1  C8  UNL     1     145.006  15.750 -80.140  1.00  0.00     0.294 C 
HETATM    2  O3  UNL     1     143.789  15.620 -79.471  1.00  0.00    -0.351 OA
HETATM    3  C9  UNL     1     143.330  14.309 -79.458  1.00  0.00     0.152 C 
HETATM    4  C10 UNL     1     144.044  13.483 -78.398  1.00  0.00     0.042 C 
HETATM    5  C11 UNL     1     143.306  13.654 -80.793  1.00  0.00     0.178 C 
HETATM    6  C12 UNL     1     144.475  13.963 -81.670  1.00  0.00     0.189 C 
HETATM    7  C18 UNL     1     144.694  15.484 -81.612  1.00  0.00     0.205 C 
ENDROOT
BRANCH   1   8
HETATM    8  O2  UNL     1     145.524  16.993 -79.924  1.00  0.00    -0.329 OA
BRANCH   8   9
HETATM    9  C7  UNL     1     144.549  17.938 -80.220  1.00  0.00     0.266 C 
HETATM   10  C6  UNL     1     143.492  18.048 -79.150  1.00  0.00     0.089 C 
HETATM   11  C5  UNL     1     144.089  19.059 -78.218  1.00  0.00     0.129 C 
HETATM   12  C19 UNL     1     145.167  19.703 -79.009  1.00  0.00     0.248 C 
HETATM   13  O9  UNL     1     145.192  19.170 -80.265  1.00  0.00    -0.343 OA
BRANCH  11  14
HETATM   14  N1  UNL     1     143.072  20.039 -77.786  1.00  0.00    -0.350 N 
HETATM   15  C4  UNL     1     142.520  19.904 -76.519  1.00  0.00     0.241 C 
HETATM   16  O1  UNL     1     142.967  18.903 -75.827  1.00  0.00    -0.269 OA
ATOM     17  H1  UNL     1     142.782  20.797 -78.404  1.00  0.00     0.163 HD
BRANCH  15  18
HETATM   18  C3  UNL     1     141.544  20.709 -75.894  1.00  0.00     0.070 C 
HETATM   19  C2  UNL     1     141.135  20.709 -74.680  1.00  0.00    -0.026 C 
HETATM   20  C1  UNL     1     141.577  19.858 -73.587  1.00  0.00     0.036 C 
ENDBRANCH  15  18
ENDBRANCH  11  14
BRANCH  12  21
HETATM   21  C20 UNL     1     146.507  19.633 -78.353  1.00  0.00     0.205 C 
HETATM   22  O10 UNL     1     146.857  18.623 -77.663  1.00  0.00    -0.646 OA
HETATM   23  O11 UNL     1     147.435  20.657 -78.458  1.00  0.00    -0.646 OA
ENDBRANCH  12  21
ENDBRANCH   8   9
ENDBRANCH   1   8
BRANCH   7  24
HETATM   24  O8  UNL     1     143.482  16.066 -81.939  1.00  0.00    -0.388 OA
ATOM     25  H8  UNL     1     143.606  16.997 -82.081  1.00  0.00     0.210 HD
ENDBRANCH   7  24
BRANCH   6  26
HETATM   26  O5  UNL     1     145.620  13.405 -81.100  1.00  0.00    -0.351 OA
BRANCH  26  27
HETATM   27  C13 UNL     1     146.438  12.785 -82.026  1.00  0.00     0.260 C 
HETATM   28  C14 UNL     1     146.117  13.371 -83.380  1.00  0.00     0.063 C 
HETATM   29  C15 UNL     1     146.492  12.448 -84.517  1.00  0.00     0.038 C 
HETATM   30  C16 UNL     1     145.881  11.102 -84.299  1.00  0.00     0.142 C 
HETATM   31  C17 UNL     1     145.224  11.047 -82.943  1.00  0.00     0.202 C 
HETATM   32  O7  UNL     1     146.185  11.393 -82.007  1.00  0.00    -0.359 OA
BRANCH  30  33
HETATM   33  O6  UNL     1     145.021  10.754 -85.325  1.00  0.00    -0.393 OA
ATOM     34  H6  UNL     1     144.710  11.515 -85.801  1.00  0.00     0.210 HD
ENDBRANCH  30  33
ENDBRANCH  26  27
ENDBRANCH   6  26
BRANCH   5  35
HETATM   35  O4  UNL     1     142.152  14.090 -81.465  1.00  0.00    -0.390 OA
ATOM     36  H4  UNL     1     141.540  14.411 -80.813  1.00  0.00     0.210 HD
ENDBRANCH   5  35
TORSDOF 10
ENDMDL
MODEL 3
REMARK VINA RESULT: -7.700030562      1.118      1.543
REMARK  10 active torsions:
REMARK  status: ('A' for Active; 'I' for Inactive)
REMARK    1  A    between atoms: C3_3  and  C4_4 
REMARK       I    between atoms: C4_4  and  N1_6 
REMARK    2  A    between atoms: N1_6  and  C5_8 
REMARK    3  A    between atoms: C7_10  and  O2_11 
REMARK    4  A    between atoms: O2_11  and  C8_12 
REMARK    5  A    between atoms: C11_16  and  O4_17 
REMARK    6  A    between atoms: C12_19  and  O5_20 
REMARK    7  A    between atoms: O5_20  and  C13_21 
REMARK    8  A    between atoms: C16_24  and  O6_25 
REMARK    9  A    between atoms: C18_29  and  O8_30 
REMARK   10  A    between atoms: C19_33  and  C20_34 
ROOT
HETATM    1  C8  UNL     1     145.062  14.711 -81.771  1.00  0.00     0.294 C 
HETATM    2  O3  UNL     1     145.539  15.251 -82.965  1.00  0.00    -0.351 OA
HETATM    3  C9  UNL     1     145.226  14.462 -84.065  1.00  0.00     0.152 C 
HETATM    4  C10 UNL     1     143.783  14.669 -84.503  1.00  0.00     0.042 C 
HETATM    5  C11 UNL     1     145.593  13.029 -83.915  1.00  0.00     0.178 C 
HETATM    6  C12 UNL     1     145.342  12.450 -82.562  1.00  0.00     0.189 C 
HETATM    7  C18 UNL     1     145.893  13.450 -81.533  1.00  0.00     0.205 C 
ENDROOT
BRANCH   1   8
HETATM    8  O2  UNL     1     145.186  15.624 -80.766  1.00  0.00    -0.329 OA
BRANCH   8   9
HETATM    9  C7  UNL     1     144.590  16.812 -81.170  1.00  0.00     0.266 C 
HETATM   10  C6  UNL     1     143.309  17.108 -80.432  1.00  0.00     0.089 C 
HETATM   11  C5  UNL     1     143.802  17.848 -79.224  1.00  0.00     0.129 C 
HETATM   12  C19 UNL     1     145.188  18.249 -79.574  1.00  0.00     0.248 C 
HETATM   13  O9  UNL     1     145.477  17.832 -80.841  1.00  0.00    -0.343 OA
BRANCH  11  14
HETATM   14  N1  UNL     1     142.951  19.022 -78.944  1.00  0.00    -0.350 N 
HETATM   15  C4  UNL     1     142.912  19.515 -77.646  1.00  0.00     0.241 C 
HETATM   16  O1  UNL     1     143.646  18.874 -76.791  1.00  0.00    -0.269 OA
ATOM     17  H1  UNL     1     142.405  19.460 -79.686  1.00  0.00     0.163 HD
BRANCH  15  18
HETATM   18  C3  UNL     1     142.181  20.612 -77.144  1.00  0.00     0.070 C 
HETATM   19  C2  UNL     1     141.694  20.808 -75.976  1.00  0.00    -0.026 C 
HETATM   20  C1  UNL     1     141.764  19.930 -74.818  1.00  0.00     0.036 C 
ENDBRANCH  15  18
ENDBRANCH  11  14
BRANCH  12  21
HETATM   21  C20 UNL     1     146.208  17.776 -78.591  1.00  0.00     0.205 C 
HETATM   22  O10 UNL     1     147.134  18.543 -78.173  1.00  0.00    -0.646 OA
HETATM   23  O11 UNL     1     146.202  16.487 -78.082  1.00  0.00    -0.646 OA
ENDBRANCH  12  21
ENDBRANCH   8   9
ENDBRANCH   1   8
BRANCH   7  24
HETATM   24  O8  UNL     1     147.209  13.691 -81.888  1.00  0.00    -0.388 OA
ATOM     25  H8  UNL     1     147.585  12.903 -82.264  1.00  0.00     0.210 HD
ENDBRANCH   7  24
BRANCH   6  26
HETATM   26  O5  UNL     1     143.964  12.415 -82.340  1.00  0.00    -0.351 OA
BRANCH  26  27
HETATM   27  C13 UNL     1     143.567  11.331 -81.579  1.00  0.00     0.260 C 
HETATM   28  C14 UNL     1     142.218  10.887 -82.093  1.00  0.00     0.063 C 
HETATM   29  C15 UNL     1     141.425  10.121 -81.057  1.00  0.00     0.038 C 
HETATM   30  C16 UNL     1     141.342  10.915 -79.794  1.00  0.00     0.142 C 
HETATM   31  C17 UNL     1     142.206  12.146 -79.901  1.00  0.00     0.202 C 
HETATM   32  O7  UNL     1     143.485  11.723 -80.223  1.00  0.00    -0.359 OA
BRANCH  30  33
HETATM   33  O6  UNL     1     140.034  11.206 -79.453  1.00  0.00    -0.393 OA
ATOM     34  H6  UNL     1     139.910  11.231 -78.512  1.00  0.00     0.210 HD
ENDBRANCH  30  33
ENDBRANCH  26  27
ENDBRANCH   6  26
BRANCH   5  35
HETATM   35  O4  UNL     1     146.968  12.908 -84.174  1.00  0.00    -0.390 OA
ATOM     36  H4  UNL     1     147.093  12.153 -84.737  1.00  0.00     0.210 HD
ENDBRANCH   5  35
TORSDOF 10
ENDMDL
MODEL 4
REMARK VINA RESULT: -7.351569479      1.929      2.683
REMARK  10 active torsions:
REMARK  status: ('A' for Active; 'I' for Inactive)
REMARK    1  A    between atoms: C3_3  and  C4_4 
REMARK       I    between atoms: C4_4  and  N1_6 
REMARK    2  A    between atoms: N1_6  and  C5_8 
REMARK    3  A    between atoms: C7_10  and  O2_11 
REMARK    4  A    between atoms: O2_11  and  C8_12 
REMARK    5  A    between atoms: C11_16  and  O4_17 
REMARK    6  A    between atoms: C12_19  and  O5_20 
REMARK    7  A    between atoms: O5_20  and  C13_21 
REMARK    8  A    between atoms: C16_24  and  O6_25 
REMARK    9  A    between atoms: C18_29  and  O8_30 
REMARK   10  A    between atoms: C19_33  and  C20_34 
ROOT
HETATM    1  C8  UNL     1     144.777  14.870 -82.905  1.00  0.00     0.294 C 
HETATM    2  O3  UNL     1     145.327  14.961 -84.184  1.00  0.00    -0.351 OA
HETATM    3  C9  UNL     1     145.217  13.770 -84.891  1.00  0.00     0.152 C 
HETATM    4  C10 UNL     1     143.819  13.592 -85.464  1.00  0.00     0.042 C 
HETATM    5  C11 UNL     1     145.707  12.573 -84.157  1.00  0.00     0.178 C 
HETATM    6  C12 UNL     1     145.367  12.541 -82.703  1.00  0.00     0.189 C 
HETATM    7  C18 UNL     1     145.699  13.928 -82.130  1.00  0.00     0.205 C 
ENDROOT
BRANCH   1   8
HETATM    8  O2  UNL     1     144.698  16.112 -82.346  1.00  0.00    -0.329 OA
BRANCH   8   9
HETATM    9  C7  UNL     1     143.471  16.233 -81.706  1.00  0.00     0.266 C 
HETATM   10  C6  UNL     1     143.200  15.112 -80.735  1.00  0.00     0.089 C 
HETATM   11  C5  UNL     1     143.829  15.626 -79.474  1.00  0.00     0.129 C 
HETATM   12  C19 UNL     1     144.015  17.079 -79.717  1.00  0.00     0.248 C 
HETATM   13  O9  UNL     1     143.531  17.400 -80.952  1.00  0.00    -0.343 OA
BRANCH  11  14
HETATM   14  N1  UNL     1     142.952  15.378 -78.311  1.00  0.00    -0.350 N 
HETATM   15  C4  UNL     1     143.235  14.295 -77.490  1.00  0.00     0.241 C 
HETATM   16  O1  UNL     1     144.268  13.593 -77.839  1.00  0.00    -0.269 OA
ATOM     17  H1  UNL     1     142.158  15.988 -78.117  1.00  0.00     0.163 HD
BRANCH  15  18
HETATM   18  C3  UNL     1     142.548  13.864 -76.336  1.00  0.00     0.070 C 
HETATM   19  C2  UNL     1     141.348  13.434 -76.208  1.00  0.00    -0.026 C 
HETATM   20  C1  UNL     1     140.341  13.269 -77.245  1.00  0.00     0.036 C 
ENDBRANCH  15  18
ENDBRANCH  11  14
BRANCH  12  21
HETATM   21  C20 UNL     1     145.427  17.533 -79.543  1.00  0.00     0.205 C 
HETATM   22  O10 UNL     1     145.969  18.348 -80.355  1.00  0.00    -0.646 OA
HETATM   23  O11 UNL     1     146.220  17.093 -78.494  1.00  0.00    -0.646 OA
ENDBRANCH  12  21
ENDBRANCH   8   9
ENDBRANCH   1   8
BRANCH   7  24
HETATM   24  O8  UNL     1     147.015  14.187 -82.470  1.00  0.00    -0.388 OA
ATOM     25  H8  UNL     1     147.553  13.437 -82.245  1.00  0.00     0.210 HD
ENDBRANCH   7  24
BRANCH   6  26
HETATM   26  O5  UNL     1     143.983  12.409 -82.571  1.00  0.00    -0.351 OA
BRANCH  26  27
HETATM   27  C13 UNL     1     143.612  11.273 -81.877  1.00  0.00     0.260 C 
HETATM   28  C14 UNL     1     142.266  10.839 -82.403  1.00  0.00     0.063 C 
HETATM   29  C15 UNL     1     141.497   9.996 -81.411  1.00  0.00     0.038 C 
HETATM   30  C16 UNL     1     141.415  10.707 -80.099  1.00  0.00     0.142 C 
HETATM   31  C17 UNL     1     142.257  11.957 -80.136  1.00  0.00     0.202 C 
HETATM   32  O7  UNL     1     143.540  11.578 -80.497  1.00  0.00    -0.359 OA
BRANCH  30  33
HETATM   33  O6  UNL     1     140.106  10.954 -79.727  1.00  0.00    -0.393 OA
ATOM     34  H6  UNL     1     139.618  10.150 -79.593  1.00  0.00     0.210 HD
ENDBRANCH  30  33
ENDBRANCH  26  27
ENDBRANCH   6  26
BRANCH   5  35
HETATM   35  O4  UNL     1     147.107  12.549 -84.260  1.00  0.00    -0.390 OA
ATOM     36  H4  UNL     1     147.452  13.233 -83.698  1.00  0.00     0.210 HD
ENDBRANCH   5  35
TORSDOF 10
ENDMDL
MODEL 5
REMARK VINA RESULT: -7.203467737      2.373      7.188
REMARK  10 active torsions:
REMARK  status: ('A' for Active; 'I' for Inactive)
REMARK    1  A    between atoms: C3_3  and  C4_4 
REMARK       I    between atoms: C4_4  and  N1_6 
REMARK    2  A    between atoms: N1_6  and  C5_8 
REMARK    3  A    between atoms: C7_10  and  O2_11 
REMARK    4  A    between atoms: O2_11  and  C8_12 
REMARK    5  A    between atoms: C11_16  and  O4_17 
REMARK    6  A    between atoms: C12_19  and  O5_20 
REMARK    7  A    between atoms: O5_20  and  C13_21 
REMARK    8  A    between atoms: C16_24  and  O6_25 
REMARK    9  A    between atoms: C18_29  and  O8_30 
REMARK   10  A    between atoms: C19_33  and  C20_34 
ROOT
HETATM    1  C8  UNL     1     144.304  17.375 -77.715  1.00  0.00     0.294 C 
HETATM    2  O3  UNL     1     144.341  18.466 -76.847  1.00  0.00    -0.351 OA
HETATM    3  C9  UNL     1     144.333  19.680 -77.524  1.00  0.00     0.152 C 
HETATM    4  C10 UNL     1     142.930  20.047 -77.985  1.00  0.00     0.042 C 
HETATM    5  C11 UNL     1     145.352  19.789 -78.601  1.00  0.00     0.178 C 
HETATM    6  C12 UNL     1     145.546  18.551 -79.415  1.00  0.00     0.189 C 
HETATM    7  C18 UNL     1     145.654  17.376 -78.430  1.00  0.00     0.205 C 
ENDROOT
BRANCH   1   8
HETATM    8  O2  UNL     1     144.078  16.230 -77.010  1.00  0.00    -0.329 OA
BRANCH   8   9
HETATM    9  C7  UNL     1     142.891  15.661 -77.454  1.00  0.00     0.266 C 
HETATM   10  C6  UNL     1     142.925  15.294 -78.916  1.00  0.00     0.089 C 
HETATM   11  C5  UNL     1     143.495  13.908 -78.882  1.00  0.00     0.129 C 
HETATM   12  C19 UNL     1     143.347  13.479 -77.468  1.00  0.00     0.248 C 
HETATM   13  O9  UNL     1     142.737  14.470 -76.753  1.00  0.00    -0.343 OA
BRANCH  11  14
HETATM   14  N1  UNL     1     142.758  13.015 -79.799  1.00  0.00    -0.350 N 
HETATM   15  C4  UNL     1     143.460  12.401 -80.829  1.00  0.00     0.241 C 
HETATM   16  O1  UNL     1     144.724  12.684 -80.879  1.00  0.00    -0.269 OA
ATOM     17  H1  UNL     1     141.758  12.854 -79.680  1.00  0.00     0.163 HD
BRANCH  15  18
HETATM   18  C3  UNL     1     142.977  11.519 -81.818  1.00  0.00     0.070 C 
HETATM   19  C2  UNL     1     143.610  10.900 -82.744  1.00  0.00    -0.026 C 
HETATM   20  C1  UNL     1     145.034  10.939 -83.036  1.00  0.00     0.036 C 
ENDBRANCH  15  18
ENDBRANCH  11  14
BRANCH  12  21
HETATM   21  C20 UNL     1     144.634  13.056 -76.839  1.00  0.00     0.205 C 
HETATM   22  O10 UNL     1     144.727  11.971 -76.181  1.00  0.00    -0.646 OA
HETATM   23  O11 UNL     1     145.788  13.816 -76.937  1.00  0.00    -0.646 OA
ENDBRANCH  12  21
ENDBRANCH   8   9
ENDBRANCH   1   8
BRANCH   7  24
HETATM   24  O8  UNL     1     146.653  17.710 -77.532  1.00  0.00    -0.388 OA
ATOM     25  H8  UNL     1     147.078  16.918 -77.223  1.00  0.00     0.210 HD
ENDBRANCH   7  24
BRANCH   6  26
HETATM   26  O5  UNL     1     144.382  18.311 -80.147  1.00  0.00    -0.351 OA
BRANCH  26  27
HETATM   27  C13 UNL     1     144.625  18.074 -81.487  1.00  0.00     0.260 C 
HETATM   28  C14 UNL     1     143.355  17.523 -82.088  1.00  0.00     0.063 C 
HETATM   29  C15 UNL     1     143.608  16.715 -83.342  1.00  0.00     0.038 C 
HETATM   30  C16 UNL     1     144.635  15.665 -83.069  1.00  0.00     0.142 C 
HETATM   31  C17 UNL     1     145.205  15.848 -81.685  1.00  0.00     0.202 C 
HETATM   32  O7  UNL     1     145.684  17.145 -81.607  1.00  0.00    -0.359 OA
BRANCH  30  33
HETATM   33  O6  UNL     1     144.139  14.391 -83.280  1.00  0.00    -0.393 OA
ATOM     34  H6  UNL     1     144.595  13.945 -83.983  1.00  0.00     0.210 HD
ENDBRANCH  30  33
ENDBRANCH  26  27
ENDBRANCH   6  26
BRANCH   5  35
HETATM   35  O4  UNL     1     146.584  20.091 -77.999  1.00  0.00    -0.390 OA
ATOM     36  H4  UNL     1     147.272  19.750 -78.558  1.00  0.00     0.210 HD
ENDBRANCH   5  35
TORSDOF 10
ENDMDL
