MODEL 1
REMARK VINA RESULT: -9.977421935      0.000      0.000
REMARK  12 active torsions:
REMARK  status: ('A' for Active; 'I' for Inactive)
REMARK    1  A    between atoms: C2_2  and  O1_3 
REMARK    2  A    between atoms: C4_6  and  O2_7 
REMARK    3  A    between atoms: O2_7  and  C5_8 
REMARK    4  A    between atoms: C5_8  and  C6_10 
REMARK    5  A    between atoms: C9_13  and  N1_14 
REMARK    6  A    between atoms: C11_19  and  O4_20 
REMARK    7  A    between atoms: C13_23  and  O5_24 
REMARK    8  A    between atoms: C14_26  and  O6_27 
REMARK    9  A    between atoms: O6_27  and  S1_28 
REMARK   10  A    between atoms: C15_31  and  N4_32 
REMARK   11  A    between atoms: N4_32  and  N5_34 
REMARK   12  A    between atoms: N5_34  and  N6_35 
ROOT
HETATM    1  C1  UNL     1     142.205  13.251 -80.923  1.00  0.00     0.048 C 
HETATM    2  C2  UNL     1     143.667  12.928 -80.957  1.00  0.00     0.082 C 
HETATM    3  C3  UNL     1     144.554  14.001 -80.444  1.00  0.00     0.075 C 
HETATM    4  C4  UNL     1     144.315  15.255 -81.258  1.00  0.00     0.166 C 
HETATM    5  C13 UNL     1     144.199  15.022 -82.714  1.00  0.00     0.180 C 
HETATM    6  C14 UNL     1     144.494  13.665 -83.215  1.00  0.00     0.202 C 
HETATM    7  C15 UNL     1     144.130  12.526 -82.330  1.00  0.00     0.181 C 
ENDROOT
BRANCH   4   8
HETATM    8  O2  UNL     1     145.353  16.163 -80.914  1.00  0.00    -0.313 OA
BRANCH   8   9
HETATM    9  C5  UNL     1     145.237  17.531 -80.993  1.00  0.00     0.263 C 
HETATM   10  O3  UNL     1     145.624  18.092 -82.051  1.00  0.00    -0.265 OA
BRANCH   9  11
HETATM   11  C6  UNL     1     144.689  18.383 -79.916  1.00  0.00     0.088 C 
HETATM   12  C7  UNL     1     145.721  18.481 -78.817  1.00  0.00     0.017 C 
HETATM   13  C8  UNL     1     145.177  19.361 -77.732  1.00  0.00     0.028 C 
HETATM   14  C9  UNL     1     143.886  18.845 -77.165  1.00  0.00     0.112 C 
HETATM   15  C11 UNL     1     143.278  17.733 -77.944  1.00  0.00     0.141 C 
HETATM   16  C12 UNL     1     143.373  17.883 -79.429  1.00  0.00     0.048 C 
BRANCH  14  17
HETATM   17  N1  UNL     1     142.947  19.931 -77.077  1.00  0.00    -0.360 N 
HETATM   18  C10 UNL     1     142.315  20.137 -75.973  1.00  0.00     0.197 C 
HETATM   19  N2  UNL     1     142.522  19.314 -74.834  1.00  0.00    -0.067 NA
HETATM   20  N3  UNL     1     141.392  21.201 -75.881  1.00  0.00    -0.067 NA
ATOM     21  H1  UNL     1     142.782  20.534 -77.883  1.00  0.00     0.162 HD
ENDBRANCH  14  17
BRANCH  15  22
HETATM   22  O4  UNL     1     143.757  16.469 -77.571  1.00  0.00    -0.393 OA
ATOM     23  H4  UNL     1     143.314  15.756 -78.014  1.00  0.00     0.210 HD
ENDBRANCH  15  22
ENDBRANCH   9  11
ENDBRANCH   8   9
ENDBRANCH   4   8
BRANCH   5  24
HETATM   24  O5  UNL     1     145.005  15.934 -83.437  1.00  0.00    -0.390 OA
ATOM     25  H5  UNL     1     145.051  15.691 -84.355  1.00  0.00     0.210 HD
ENDBRANCH   5  24
BRANCH   2  26
HETATM   26  O1  UNL     1     143.851  11.797 -80.128  1.00  0.00    -0.388 OA
ATOM     27  H1  UNL     1     144.784  11.618 -80.118  1.00  0.00     0.210 HD
ENDBRANCH   2  26
BRANCH   6  28
HETATM   28  O6  UNL     1     143.824  13.490 -84.435  1.00  0.00    -0.252 OA
BRANCH  28  29
HETATM   29  S1  UNL     1     144.753  13.926 -85.764  1.00  0.00     0.401 S 
HETATM   30  O7  UNL     1     146.216  13.993 -85.340  1.00  0.00    -0.179 OA
HETATM   31  O8  UNL     1     144.309  15.413 -86.434  1.00  0.00    -0.179 OA
ENDBRANCH  28  29
ENDBRANCH   6  28
BRANCH   7  32
HETATM   32  N4  UNL     1     145.280  11.632 -82.129  1.00  0.00    -0.242 N 
ATOM     33  H4  UNL     1     145.726  11.618 -81.211  1.00  0.00     0.197 HD
BRANCH  32  34
HETATM   34  N5  UNL     1     145.726  10.913 -82.994  1.00  0.00    -0.248 NA
BRANCH  34  35
HETATM   35  N6  UNL     1     146.066  10.221 -83.949  1.00  0.00    -0.261 N 
ATOM     36  H62 UNL     1     146.680  11.008 -84.152  1.00  0.00     0.193 HD
ATOM     37  H61 UNL     1     146.272   9.566 -84.703  1.00  0.00     0.193 HD
ENDBRANCH  34  35
ENDBRANCH  32  34
ENDBRANCH   7  32
TORSDOF 12
ENDMDL
MODEL 2
REMARK VINA RESULT: -9.898109131      0.793      1.056
REMARK  12 active torsions:
REMARK  status: ('A' for Active; 'I' for Inactive)
REMARK    1  A    between atoms: C2_2  and  O1_3 
REMARK    2  A    between atoms: C4_6  and  O2_7 
REMARK    3  A    between atoms: O2_7  and  C5_8 
REMARK    4  A    between atoms: C5_8  and  C6_10 
REMARK    5  A    between atoms: C9_13  and  N1_14 
REMARK    6  A    between atoms: C11_19  and  O4_20 
REMARK    7  A    between atoms: C13_23  and  O5_24 
REMARK    8  A    between atoms: C14_26  and  O6_27 
REMARK    9  A    between atoms: O6_27  and  S1_28 
REMARK   10  A    between atoms: C15_31  and  N4_32 
REMARK   11  A    between atoms: N4_32  and  N5_34 
REMARK   12  A    between atoms: N5_34  and  N6_35 
ROOT
HETATM    1  C1  UNL     1     142.198  13.434 -81.020  1.00  0.00     0.048 C 
HETATM    2  C2  UNL     1     143.666  13.145 -80.938  1.00  0.00     0.082 C 
HETATM    3  C3  UNL     1     144.494  14.264 -80.426  1.00  0.00     0.075 C 
HETATM    4  C4  UNL     1     144.286  15.467 -81.322  1.00  0.00     0.166 C 
HETATM    5  C13 UNL     1     144.275  15.154 -82.767  1.00  0.00     0.180 C 
HETATM    6  C14 UNL     1     144.631  13.780 -83.172  1.00  0.00     0.202 C 
HETATM    7  C15 UNL     1     144.230  12.681 -82.253  1.00  0.00     0.181 C 
ENDROOT
BRANCH   4   8
HETATM    8  O2  UNL     1     145.279  16.417 -80.959  1.00  0.00    -0.313 OA
BRANCH   8   9
HETATM    9  C5  UNL     1     145.103  17.779 -81.023  1.00  0.00     0.263 C 
HETATM   10  O3  UNL     1     145.443  18.365 -82.083  1.00  0.00    -0.265 OA
BRANCH   9  11
HETATM   11  C6  UNL     1     144.541  18.597 -79.927  1.00  0.00     0.088 C 
HETATM   12  C7  UNL     1     145.619  18.804 -78.889  1.00  0.00     0.017 C 
HETATM   13  C8  UNL     1     145.059  19.651 -77.786  1.00  0.00     0.028 C 
HETATM   14  C9  UNL     1     143.852  19.033 -77.141  1.00  0.00     0.112 C 
HETATM   15  C11 UNL     1     143.304  17.859 -77.871  1.00  0.00     0.141 C 
HETATM   16  C12 UNL     1     143.304  17.991 -79.361  1.00  0.00     0.048 C 
BRANCH  14  17
HETATM   17  N1  UNL     1     142.826  20.033 -77.014  1.00  0.00    -0.360 N 
HETATM   18  C10 UNL     1     142.251  20.212 -75.874  1.00  0.00     0.197 C 
HETATM   19  N2  UNL     1     142.607  19.443 -74.734  1.00  0.00    -0.067 NA
HETATM   20  N3  UNL     1     141.244  21.193 -75.743  1.00  0.00    -0.067 NA
ATOM     21  H1  UNL     1     142.555  20.596 -77.819  1.00  0.00     0.162 HD
ENDBRANCH  14  17
BRANCH  15  22
HETATM   22  O4  UNL     1     143.914  16.649 -77.511  1.00  0.00    -0.393 OA
ATOM     23  H4  UNL     1     143.598  15.907 -78.013  1.00  0.00     0.210 HD
ENDBRANCH  15  22
ENDBRANCH   9  11
ENDBRANCH   8   9
ENDBRANCH   4   8
BRANCH   5  24
HETATM   24  O5  UNL     1     145.110  16.045 -83.484  1.00  0.00    -0.390 OA
ATOM     25  H5  UNL     1     145.935  15.629 -83.708  1.00  0.00     0.210 HD
ENDBRANCH   5  24
BRANCH   2  26
HETATM   26  O1  UNL     1     143.816  12.064 -80.038  1.00  0.00    -0.388 OA
ATOM     27  H1  UNL     1     144.210  11.354 -80.530  1.00  0.00     0.210 HD
ENDBRANCH   2  26
BRANCH   6  28
HETATM   28  O6  UNL     1     144.050  13.524 -84.424  1.00  0.00    -0.252 OA
BRANCH  28  29
HETATM   29  S1  UNL     1     145.165  13.030 -85.577  1.00  0.00     0.401 S 
HETATM   30  O7  UNL     1     145.674  11.642 -85.206  1.00  0.00    -0.179 OA
HETATM   31  O8  UNL     1     146.484  14.075 -85.726  1.00  0.00    -0.179 OA
ENDBRANCH  28  29
ENDBRANCH   6  28
BRANCH   7  32
HETATM   32  N4  UNL     1     145.382  11.827 -81.925  1.00  0.00    -0.242 N 
ATOM     33  H4  UNL     1     145.222  10.827 -81.803  1.00  0.00     0.197 HD
BRANCH  32  34
HETATM   34  N5  UNL     1     146.508  12.249 -81.793  1.00  0.00    -0.248 NA
BRANCH  34  35
HETATM   35  N6  UNL     1     147.591  12.801 -81.627  1.00  0.00    -0.261 N 
ATOM     36  H62 UNL     1     147.468  12.495 -80.662  1.00  0.00     0.193 HD
ATOM     37  H61 UNL     1     148.488  13.286 -81.603  1.00  0.00     0.193 HD
ENDBRANCH  34  35
ENDBRANCH  32  34
ENDBRANCH   7  32
TORSDOF 12
ENDMDL
MODEL 3
REMARK VINA RESULT: -9.479083753      3.224      7.780
REMARK  12 active torsions:
REMARK  status: ('A' for Active; 'I' for Inactive)
REMARK    1  A    between atoms: C2_2  and  O1_3 
REMARK    2  A    between atoms: C4_6  and  O2_7 
REMARK    3  A    between atoms: O2_7  and  C5_8 
REMARK    4  A    between atoms: C5_8  and  C6_10 
REMARK    5  A    between atoms: C9_13  and  N1_14 
REMARK    6  A    between atoms: C11_19  and  O4_20 
REMARK    7  A    between atoms: C13_23  and  O5_24 
REMARK    8  A    between atoms: C14_26  and  O6_27 
REMARK    9  A    between atoms: O6_27  and  S1_28 
REMARK   10  A    between atoms: C15_31  and  N4_32 
REMARK   11  A    between atoms: N4_32  and  N5_34 
REMARK   12  A    between atoms: N5_34  and  N6_35 
ROOT
HETATM    1  C1  UNL     1     144.569  18.529 -78.041  1.00  0.00     0.048 C 
HETATM    2  C2  UNL     1     145.188  17.287 -78.604  1.00  0.00     0.082 C 
HETATM    3  C3  UNL     1     145.038  17.125 -80.071  1.00  0.00     0.075 C 
HETATM    4  C4  UNL     1     143.563  17.126 -80.408  1.00  0.00     0.166 C 
HETATM    5  C13 UNL     1     142.727  16.327 -79.485  1.00  0.00     0.180 C 
HETATM    6  C14 UNL     1     143.421  15.502 -78.476  1.00  0.00     0.202 C 
HETATM    7  C15 UNL     1     144.692  16.043 -77.921  1.00  0.00     0.181 C 
ENDROOT
BRANCH   4   8
HETATM    8  O2  UNL     1     143.458  16.712 -81.764  1.00  0.00    -0.313 OA
BRANCH   8   9
HETATM    9  C5  UNL     1     144.465  16.085 -82.459  1.00  0.00     0.263 C 
HETATM   10  O3  UNL     1     145.364  16.805 -82.965  1.00  0.00    -0.265 OA
BRANCH   9  11
HETATM   11  C6  UNL     1     144.558  14.621 -82.649  1.00  0.00     0.088 C 
HETATM   12  C7  UNL     1     145.651  14.095 -81.748  1.00  0.00     0.017 C 
HETATM   13  C8  UNL     1     145.734  12.608 -81.922  1.00  0.00     0.028 C 
HETATM   14  C9  UNL     1     146.017  12.210 -83.342  1.00  0.00     0.112 C 
HETATM   15  C11 UNL     1     145.904  13.323 -84.323  1.00  0.00     0.141 C 
HETATM   16  C12 UNL     1     144.765  14.260 -84.079  1.00  0.00     0.048 C 
BRANCH  14  17
HETATM   17  N1  UNL     1     145.117  11.153 -83.719  1.00  0.00    -0.360 N 
HETATM   18  C10 UNL     1     145.594  10.016 -84.095  1.00  0.00     0.197 C 
HETATM   19  N2  UNL     1     146.993   9.779 -84.148  1.00  0.00    -0.067 NA
HETATM   20  N3  UNL     1     144.715   8.975 -84.466  1.00  0.00    -0.067 NA
ATOM     21  H1  UNL     1     144.109  11.302 -83.689  1.00  0.00     0.162 HD
ENDBRANCH  14  17
BRANCH  15  22
HETATM   22  O4  UNL     1     147.090  14.057 -84.465  1.00  0.00    -0.393 OA
ATOM     23  H4  UNL     1     146.962  14.994 -84.375  1.00  0.00     0.210 HD
ENDBRANCH  15  22
ENDBRANCH   9  11
ENDBRANCH   8   9
ENDBRANCH   4   8
BRANCH   5  24
HETATM   24  O5  UNL     1     141.848  15.481 -80.202  1.00  0.00    -0.390 OA
ATOM     25  H5  UNL     1     142.266  14.653 -80.406  1.00  0.00     0.210 HD
ENDBRANCH   5  24
BRANCH   2  26
HETATM   26  O1  UNL     1     146.574  17.366 -78.329  1.00  0.00    -0.388 OA
ATOM     27  H1  UNL     1     146.959  16.558 -78.646  1.00  0.00     0.210 HD
ENDBRANCH   2  26
BRANCH   6  28
HETATM   28  O6  UNL     1     142.543  15.287 -77.403  1.00  0.00    -0.252 OA
BRANCH  28  29
HETATM   29  S1  UNL     1     142.261  13.660 -77.100  1.00  0.00     0.401 S 
HETATM   30  O7  UNL     1     142.019  13.472 -75.607  1.00  0.00    -0.179 OA
HETATM   31  O8  UNL     1     143.534  12.658 -77.579  1.00  0.00    -0.179 OA
ENDBRANCH  28  29
ENDBRANCH   6  28
BRANCH   7  32
HETATM   32  N4  UNL     1     145.774  15.054 -78.036  1.00  0.00    -0.242 N 
ATOM     33  H4  UNL     1     146.273  14.984 -78.923  1.00  0.00     0.197 HD
BRANCH  32  34
HETATM   34  N5  UNL     1     146.104  14.318 -77.133  1.00  0.00    -0.248 NA
BRANCH  34  35
HETATM   35  N6  UNL     1     146.329  13.493 -76.253  1.00  0.00    -0.261 N 
ATOM     36  H62 UNL     1     146.374  12.842 -77.037  1.00  0.00     0.193 HD
ATOM     37  H61 UNL     1     146.506  12.895 -75.446  1.00  0.00     0.193 HD
ENDBRANCH  34  35
ENDBRANCH  32  34
ENDBRANCH   7  32
TORSDOF 12
ENDMDL
MODEL 4
REMARK VINA RESULT: -9.293611877      3.225      7.689
REMARK  12 active torsions:
REMARK  status: ('A' for Active; 'I' for Inactive)
REMARK    1  A    between atoms: C2_2  and  O1_3 
REMARK    2  A    between atoms: C4_6  and  O2_7 
REMARK    3  A    between atoms: O2_7  and  C5_8 
REMARK    4  A    between atoms: C5_8  and  C6_10 
REMARK    5  A    between atoms: C9_13  and  N1_14 
REMARK    6  A    between atoms: C11_19  and  O4_20 
REMARK    7  A    between atoms: C13_23  and  O5_24 
REMARK    8  A    between atoms: C14_26  and  O6_27 
REMARK    9  A    between atoms: O6_27  and  S1_28 
REMARK   10  A    between atoms: C15_31  and  N4_32 
REMARK   11  A    between atoms: N4_32  and  N5_34 
REMARK   12  A    between atoms: N5_34  and  N6_35 
ROOT
HETATM    1  C1  UNL     1     144.535  18.487 -77.937  1.00  0.00     0.048 C 
HETATM    2  C2  UNL     1     145.194  17.247 -78.458  1.00  0.00     0.082 C 
HETATM    3  C3  UNL     1     145.104  17.062 -79.926  1.00  0.00     0.075 C 
HETATM    4  C4  UNL     1     143.642  17.035 -80.320  1.00  0.00     0.166 C 
HETATM    5  C13 UNL     1     142.784  16.237 -79.418  1.00  0.00     0.180 C 
HETATM    6  C14 UNL     1     143.451  15.437 -78.371  1.00  0.00     0.202 C 
HETATM    7  C15 UNL     1     144.690  16.005 -77.776  1.00  0.00     0.181 C 
ENDROOT
BRANCH   4   8
HETATM    8  O2  UNL     1     143.596  16.600 -81.672  1.00  0.00    -0.313 OA
BRANCH   8   9
HETATM    9  C5  UNL     1     144.704  16.248 -82.408  1.00  0.00     0.263 C 
HETATM   10  O3  UNL     1     145.454  17.172 -82.817  1.00  0.00    -0.265 OA
BRANCH   9  11
HETATM   11  C6  UNL     1     145.068  14.856 -82.747  1.00  0.00     0.088 C 
HETATM   12  C7  UNL     1     144.460  14.521 -84.090  1.00  0.00     0.017 C 
HETATM   13  C8  UNL     1     144.844  13.117 -84.448  1.00  0.00     0.028 C 
HETATM   14  C9  UNL     1     144.387  12.117 -83.425  1.00  0.00     0.112 C 
HETATM   15  C11 UNL     1     143.884  12.720 -82.162  1.00  0.00     0.141 C 
HETATM   16  C12 UNL     1     144.665  13.901 -81.678  1.00  0.00     0.048 C 
BRANCH  14  17
HETATM   17  N1  UNL     1     145.475  11.226 -83.125  1.00  0.00    -0.360 N 
HETATM   18  C10 UNL     1     145.679  10.197 -83.874  1.00  0.00     0.197 C 
HETATM   19  N2  UNL     1     144.853   9.919 -84.995  1.00  0.00    -0.067 NA
HETATM   20  N3  UNL     1     146.746   9.319 -83.584  1.00  0.00    -0.067 NA
ATOM     21  H1  UNL     1     146.080  11.406 -82.324  1.00  0.00     0.162 HD
ENDBRANCH  14  17
BRANCH  15  22
HETATM   22  O4  UNL     1     142.523  13.050 -82.210  1.00  0.00    -0.393 OA
ATOM     23  H4  UNL     1     142.147  13.215 -81.353  1.00  0.00     0.210 HD
ENDBRANCH  15  22
ENDBRANCH   9  11
ENDBRANCH   8   9
ENDBRANCH   4   8
BRANCH   5  24
HETATM   24  O5  UNL     1     141.946  15.367 -80.156  1.00  0.00    -0.390 OA
ATOM     25  H5  UNL     1     141.251  15.020 -79.609  1.00  0.00     0.210 HD
ENDBRANCH   5  24
BRANCH   2  26
HETATM   26  O1  UNL     1     146.567  17.351 -78.130  1.00  0.00    -0.388 OA
ATOM     27  H1  UNL     1     146.844  16.488 -77.848  1.00  0.00     0.210 HD
ENDBRANCH   2  26
BRANCH   6  28
HETATM   28  O6  UNL     1     142.535  15.223 -77.329  1.00  0.00    -0.252 OA
BRANCH  28  29
HETATM   29  S1  UNL     1     142.246  13.597 -77.031  1.00  0.00     0.401 S 
HETATM   30  O7  UNL     1     141.924  13.418 -75.552  1.00  0.00    -0.179 OA
HETATM   31  O8  UNL     1     143.549  12.600 -77.433  1.00  0.00    -0.179 OA
ENDBRANCH  28  29
ENDBRANCH   6  28
BRANCH   7  32
HETATM   32  N4  UNL     1     145.792  15.031 -77.834  1.00  0.00    -0.242 N 
ATOM     33  H4  UNL     1     146.384  15.022 -78.664  1.00  0.00     0.197 HD
BRANCH  32  34
HETATM   34  N5  UNL     1     146.030  14.241 -76.949  1.00  0.00    -0.248 NA
BRANCH  34  35
HETATM   35  N6  UNL     1     146.309  13.349 -76.154  1.00  0.00    -0.261 N 
ATOM     36  H62 UNL     1     147.027  13.120 -76.841  1.00  0.00     0.193 HD
ATOM     37  H61 UNL     1     146.454  12.649 -75.426  1.00  0.00     0.193 HD
ENDBRANCH  34  35
ENDBRANCH  32  34
ENDBRANCH   7  32
TORSDOF 12
ENDMDL
MODEL 5
REMARK VINA RESULT: -9.289613953      2.200      3.569
REMARK  12 active torsions:
REMARK  status: ('A' for Active; 'I' for Inactive)
REMARK    1  A    between atoms: C2_2  and  O1_3 
REMARK    2  A    between atoms: C4_6  and  O2_7 
REMARK    3  A    between atoms: O2_7  and  C5_8 
REMARK    4  A    between atoms: C5_8  and  C6_10 
REMARK    5  A    between atoms: C9_13  and  N1_14 
REMARK    6  A    between atoms: C11_19  and  O4_20 
REMARK    7  A    between atoms: C13_23  and  O5_24 
REMARK    8  A    between atoms: C14_26  and  O6_27 
REMARK    9  A    between atoms: O6_27  and  S1_28 
REMARK   10  A    between atoms: C15_31  and  N4_32 
REMARK   11  A    between atoms: N4_32  and  N5_34 
REMARK   12  A    between atoms: N5_34  and  N6_35 
ROOT
HETATM    1  C1  UNL     1     146.393  12.605 -81.969  1.00  0.00     0.048 C 
HETATM    2  C2  UNL     1     145.012  12.734 -82.535  1.00  0.00     0.082 C 
HETATM    3  C3  UNL     1     144.516  14.126 -82.657  1.00  0.00     0.075 C 
HETATM    4  C4  UNL     1     144.540  14.769 -81.287  1.00  0.00     0.166 C 
HETATM    5  C13 UNL     1     144.046  13.899 -80.198  1.00  0.00     0.180 C 
HETATM    6  C14 UNL     1     143.438  12.608 -80.577  1.00  0.00     0.202 C 
HETATM    7  C15 UNL     1     144.005  11.921 -81.769  1.00  0.00     0.181 C 
ENDROOT
BRANCH   4   8
HETATM    8  O2  UNL     1     143.823  15.991 -81.401  1.00  0.00    -0.313 OA
BRANCH   8   9
HETATM    9  C5  UNL     1     144.402  17.235 -81.310  1.00  0.00     0.263 C 
HETATM   10  O3  UNL     1     145.251  17.552 -82.183  1.00  0.00    -0.265 OA
BRANCH   9  11
HETATM   11  C6  UNL     1     144.089  18.223 -80.255  1.00  0.00     0.088 C 
HETATM   12  C7  UNL     1     145.371  18.565 -79.532  1.00  0.00     0.017 C 
HETATM   13  C8  UNL     1     145.063  19.581 -78.474  1.00  0.00     0.028 C 
HETATM   14  C9  UNL     1     144.043  19.092 -77.486  1.00  0.00     0.112 C 
HETATM   15  C11 UNL     1     143.362  17.832 -77.884  1.00  0.00     0.141 C 
HETATM   16  C12 UNL     1     143.023  17.734 -79.337  1.00  0.00     0.048 C 
BRANCH  14  17
HETATM   17  N1  UNL     1     143.057  20.120 -77.284  1.00  0.00    -0.360 N 
HETATM   18  C10 UNL     1     142.422  20.181 -76.165  1.00  0.00     0.197 C 
HETATM   19  N2  UNL     1     142.671  19.254 -75.119  1.00  0.00    -0.067 NA
HETATM   20  N3  UNL     1     141.453  21.188 -75.962  1.00  0.00    -0.067 NA
ATOM     21  H1  UNL     1     142.862  20.796 -78.023  1.00  0.00     0.162 HD
ENDBRANCH  14  17
BRANCH  15  22
HETATM   22  O4  UNL     1     144.057  16.679 -77.490  1.00  0.00    -0.393 OA
ATOM     23  H4  UNL     1     143.485  15.950 -77.283  1.00  0.00     0.210 HD
ENDBRANCH  15  22
ENDBRANCH   9  11
ENDBRANCH   8   9
ENDBRANCH   4   8
BRANCH   5  24
HETATM   24  O5  UNL     1     143.117  14.588 -79.382  1.00  0.00    -0.390 OA
ATOM     25  H5  UNL     1     143.325  14.476 -78.462  1.00  0.00     0.210 HD
ENDBRANCH   5  24
BRANCH   2  26
HETATM   26  O1  UNL     1     145.057  12.187 -83.838  1.00  0.00    -0.388 OA
ATOM     27  H1  UNL     1     145.369  12.877 -84.411  1.00  0.00     0.210 HD
ENDBRANCH   2  26
BRANCH   6  28
HETATM   28  O6  UNL     1     143.548  11.731 -79.487  1.00  0.00    -0.252 OA
BRANCH  28  29
HETATM   29  S1  UNL     1     142.099  11.519 -78.666  1.00  0.00     0.401 S 
HETATM   30  O7  UNL     1     140.974  11.370 -79.683  1.00  0.00    -0.179 OA
HETATM   31  O8  UNL     1     141.727  12.796 -77.622  1.00  0.00    -0.179 OA
ENDBRANCH  28  29
ENDBRANCH   6  28
BRANCH   7  32
HETATM   32  N4  UNL     1     142.943  11.578 -82.728  1.00  0.00    -0.242 N 
ATOM     33  H4  UNL     1     142.869  12.128 -83.583  1.00  0.00     0.197 HD
BRANCH  32  34
HETATM   34  N5  UNL     1     142.154  10.677 -82.555  1.00  0.00    -0.248 NA
BRANCH  34  35
HETATM   35  N6  UNL     1     141.359   9.796 -82.242  1.00  0.00    -0.261 N 
ATOM     36  H62 UNL     1     141.479  10.181 -81.306  1.00  0.00     0.193 HD
ATOM     37  H61 UNL     1     140.698   9.033 -82.096  1.00  0.00     0.193 HD
ENDBRANCH  34  35
ENDBRANCH  32  34
ENDBRANCH   7  32
TORSDOF 12
ENDMDL
