MODEL 1
REMARK VINA RESULT: -7.865516523      0.000      0.000
REMARK  13 active torsions:
REMARK  status: ('A' for Active; 'I' for Inactive)
REMARK    1  A    between atoms: C2_2  and  C3_3 
REMARK    2  A    between atoms: C3_3  and  O1_4 
REMARK    3  A    between atoms: C6_7  and  O2_9 
REMARK    4  A    between atoms: C8_11  and  O3_12 
REMARK    5  A    between atoms: C9_14  and  O4_15 
REMARK    6  A    between atoms: O4_15  and  C10_16 
REMARK    7  A    between atoms: C11_17  and  O5_18 
REMARK    8  A    between atoms: O5_18  and  C12_19 
REMARK    9  A    between atoms: C18_26  and  C19_27 
REMARK   10  A    between atoms: C19_27  and  O7_28 
REMARK   11  A    between atoms: C20_30  and  O8_31 
REMARK   12  A    between atoms: C21_33  and  N1_34 
REMARK   13  A    between atoms: C22_38  and  O9_39 
ROOT
HETATM    1  C10 UNL     1     144.393  14.357 -81.497  1.00  0.00     0.210 C 
HETATM    2  C11 UNL     1     144.508  15.838 -81.746  1.00  0.00     0.291 C 
HETATM    3  O6  UNL     1     144.970  16.062 -83.020  1.00  0.00    -0.349 OA
HETATM    4  C18 UNL     1     144.465  15.215 -83.968  1.00  0.00     0.179 C 
HETATM    5  C20 UNL     1     145.157  13.868 -83.821  1.00  0.00     0.182 C 
HETATM    6  C21 UNL     1     145.337  13.530 -82.355  1.00  0.00     0.248 C 
ENDROOT
BRANCH   1   7
HETATM    7  O4  UNL     1     143.099  13.889 -81.704  1.00  0.00    -0.368 OA
BRANCH   7   8
HETATM    8  C9  UNL     1     142.439  13.568 -80.494  1.00  0.00     0.185 C 
HETATM    9  C8  UNL     1     142.714  12.127 -80.252  1.00  0.00     0.183 C 
HETATM   10  C6  UNL     1     142.533  11.687 -78.831  1.00  0.00     0.086 C 
HETATM   11  C5  UNL     1     143.367  12.545 -77.947  1.00  0.00     0.085 C 
HETATM   12  C7  UNL     1     141.089  11.588 -78.489  1.00  0.00     0.049 C 
HETATM   13  C3  UNL     1     142.943  13.955 -78.029  1.00  0.00     0.108 C 
HETATM   14  C22 UNL     1     142.855  14.501 -79.430  1.00  0.00     0.188 C 
BRANCH   9  15
HETATM   15  O3  UNL     1     141.799  11.382 -81.025  1.00  0.00    -0.390 OA
ATOM     16  H3  UNL     1     142.244  11.163 -81.836  1.00  0.00     0.210 HD
ENDBRANCH   9  15
BRANCH  10  17
HETATM   17  O2  UNL     1     143.073  10.380 -78.753  1.00  0.00    -0.387 OA
ATOM     18  H2  UNL     1     142.350   9.779 -78.892  1.00  0.00     0.210 HD
ENDBRANCH  10  17
BRANCH  13  19
HETATM   19  C2  UNL     1     143.968  14.822 -77.336  1.00  0.00     0.003 C 
HETATM   20  C1  UNL     1     145.216  14.741 -77.755  1.00  0.00     0.010 C 
ENDBRANCH  13  19
BRANCH  13  21
HETATM   21  O1  UNL     1     141.744  14.158 -77.384  1.00  0.00    -0.378 OA
HETATM   22  C4  UNL     1     141.614  13.646 -76.127  1.00  0.00     0.203 C 
ENDBRANCH  13  21
BRANCH  14  23
HETATM   23  O9  UNL     1     141.980  15.611 -79.330  1.00  0.00    -0.390 OA
ATOM     24  H9  UNL     1     141.538  15.647 -80.170  1.00  0.00     0.210 HD
ENDBRANCH  14  23
ENDBRANCH   7   8
ENDBRANCH   1   7
BRANCH   2  25
HETATM   25  O5  UNL     1     145.400  16.362 -80.814  1.00  0.00    -0.353 OA
BRANCH  25  26
HETATM   26  C12 UNL     1     145.175  17.670 -80.460  1.00  0.00     0.124 C 
HETATM   27  C13 UNL     1     145.977  18.096 -79.246  1.00  0.00     0.032 C 
HETATM   28  C14 UNL     1     145.505  19.500 -78.896  1.00  0.00     0.002 C 
HETATM   29  C15 UNL     1     144.095  19.502 -78.371  1.00  0.00     0.000 C 
HETATM   30  C16 UNL     1     143.433  18.232 -78.792  1.00  0.00     0.002 C 
HETATM   31  C17 UNL     1     143.721  17.995 -80.263  1.00  0.00     0.032 C 
ENDBRANCH  25  26
ENDBRANCH   2  25
BRANCH   6  32
HETATM   32  N1  UNL     1     146.721  13.692 -81.969  1.00  0.00    -0.070 N 
ATOM     33  H13 UNL     1     147.237  14.229 -82.666  1.00  0.00     0.274 HD
ATOM     34  H12 UNL     1     146.809  14.326 -81.175  1.00  0.00     0.274 HD
ATOM     35  H11 UNL     1     147.181  12.801 -81.779  1.00  0.00     0.274 HD
ENDBRANCH   6  32
BRANCH   5  36
HETATM   36  O8  UNL     1     146.416  13.976 -84.391  1.00  0.00    -0.391 OA
ATOM     37  H8  UNL     1     146.845  14.731 -84.003  1.00  0.00     0.210 HD
ENDBRANCH   5  36
BRANCH   4  38
HETATM   38  C19 UNL     1     144.762  15.829 -85.336  1.00  0.00     0.198 C 
BRANCH  38  39
HETATM   39  O7  UNL     1     144.349  15.011 -86.363  1.00  0.00    -0.398 OA
ATOM     40  H7  UNL     1     143.462  15.213 -86.639  1.00  0.00     0.209 HD
ENDBRANCH  38  39
ENDBRANCH   4  38
TORSDOF 13
ENDMDL
MODEL 2
REMARK VINA RESULT: -7.665536045      2.211      5.436
REMARK  13 active torsions:
REMARK  status: ('A' for Active; 'I' for Inactive)
REMARK    1  A    between atoms: C2_2  and  C3_3 
REMARK    2  A    between atoms: C3_3  and  O1_4 
REMARK    3  A    between atoms: C6_7  and  O2_9 
REMARK    4  A    between atoms: C8_11  and  O3_12 
REMARK    5  A    between atoms: C9_14  and  O4_15 
REMARK    6  A    between atoms: O4_15  and  C10_16 
REMARK    7  A    between atoms: C11_17  and  O5_18 
REMARK    8  A    between atoms: O5_18  and  C12_19 
REMARK    9  A    between atoms: C18_26  and  C19_27 
REMARK   10  A    between atoms: C19_27  and  O7_28 
REMARK   11  A    between atoms: C20_30  and  O8_31 
REMARK   12  A    between atoms: C21_33  and  N1_34 
REMARK   13  A    between atoms: C22_38  and  O9_39 
ROOT
HETATM    1  C10 UNL     1     144.227  13.210 -82.592  1.00  0.00     0.210 C 
HETATM    2  C11 UNL     1     143.906  11.811 -82.133  1.00  0.00     0.291 C 
HETATM    3  O6  UNL     1     144.382  10.901 -83.045  1.00  0.00    -0.349 OA
HETATM    4  C18 UNL     1     145.600  11.216 -83.584  1.00  0.00     0.179 C 
HETATM    5  C20 UNL     1     145.397  12.322 -84.608  1.00  0.00     0.182 C 
HETATM    6  C21 UNL     1     144.382  13.325 -84.100  1.00  0.00     0.248 C 
ENDROOT
BRANCH   1   7
HETATM    7  O4  UNL     1     145.384  13.704 -81.999  1.00  0.00    -0.368 OA
BRANCH   7   8
HETATM    8  C9  UNL     1     145.161  14.915 -81.301  1.00  0.00     0.185 C 
HETATM    9  C8  UNL     1     144.401  15.788 -82.233  1.00  0.00     0.183 C 
HETATM   10  C6  UNL     1     143.650  16.904 -81.573  1.00  0.00     0.086 C 
HETATM   11  C5  UNL     1     142.757  16.336 -80.526  1.00  0.00     0.085 C 
HETATM   12  C7  UNL     1     144.580  17.981 -81.139  1.00  0.00     0.049 C 
HETATM   13  C3  UNL     1     143.540  15.652 -79.481  1.00  0.00     0.108 C 
HETATM   14  C22 UNL     1     144.523  14.635 -80.000  1.00  0.00     0.188 C 
BRANCH   9  15
HETATM   15  O3  UNL     1     145.329  16.388 -83.109  1.00  0.00    -0.390 OA
ATOM     16  H3  UNL     1     145.082  17.303 -83.182  1.00  0.00     0.210 HD
ENDBRANCH   9  15
BRANCH  10  17
HETATM   17  O2  UNL     1     142.808  17.454 -82.569  1.00  0.00    -0.387 OA
ATOM     18  H2  UNL     1     143.347  18.038 -83.089  1.00  0.00     0.210 HD
ENDBRANCH  10  17
BRANCH  13  19
HETATM   19  C2  UNL     1     142.603  14.869 -78.592  1.00  0.00     0.003 C 
HETATM   20  C1  UNL     1     143.103  14.355 -77.485  1.00  0.00     0.010 C 
ENDBRANCH  13  19
BRANCH  13  21
HETATM   21  O1  UNL     1     144.199  16.553 -78.675  1.00  0.00    -0.378 OA
HETATM   22  C4  UNL     1     143.439  17.464 -78.002  1.00  0.00     0.203 C 
ENDBRANCH  13  21
BRANCH  14  23
HETATM   23  O9  UNL     1     145.479  14.495 -78.963  1.00  0.00    -0.390 OA
ATOM     24  H9  UNL     1     146.131  15.161 -79.144  1.00  0.00     0.210 HD
ENDBRANCH  14  23
ENDBRANCH   7   8
ENDBRANCH   1   7
BRANCH   2  25
HETATM   25  O5  UNL     1     142.522  11.702 -82.025  1.00  0.00    -0.353 OA
BRANCH  25  26
HETATM   26  C12 UNL     1     142.029  11.759 -80.744  1.00  0.00     0.124 C 
HETATM   27  C13 UNL     1     142.998  11.204 -79.718  1.00  0.00     0.032 C 
HETATM   28  C14 UNL     1     142.251  11.195 -78.391  1.00  0.00     0.002 C 
HETATM   29  C15 UNL     1     141.145  10.176 -78.377  1.00  0.00     0.000 C 
HETATM   30  C16 UNL     1     140.806   9.828 -79.789  1.00  0.00     0.002 C 
HETATM   31  C17 UNL     1     140.682  11.110 -80.592  1.00  0.00     0.032 C 
ENDBRANCH  25  26
ENDBRANCH   2  25
BRANCH   6  32
HETATM   32  N1  UNL     1     143.126  13.167 -84.799  1.00  0.00    -0.070 N 
ATOM     33  H13 UNL     1     142.744  12.232 -84.661  1.00  0.00     0.274 HD
ATOM     34  H12 UNL     1     142.388  13.713 -84.356  1.00  0.00     0.274 HD
ATOM     35  H11 UNL     1     143.201  13.389 -85.792  1.00  0.00     0.274 HD
ENDBRANCH   6  32
BRANCH   5  36
HETATM   36  O8  UNL     1     144.884  11.743 -85.758  1.00  0.00    -0.391 OA
ATOM     37  H8  UNL     1     144.139  11.211 -85.506  1.00  0.00     0.210 HD
ENDBRANCH   5  36
BRANCH   4  38
HETATM   38  C19 UNL     1     146.146   9.954 -84.252  1.00  0.00     0.198 C 
BRANCH  38  39
HETATM   39  O7  UNL     1     145.137   9.104 -84.642  1.00  0.00    -0.398 OA
ATOM     40  H7  UNL     1     144.575   9.501 -85.297  1.00  0.00     0.209 HD
ENDBRANCH  38  39
ENDBRANCH   4  38
TORSDOF 13
ENDMDL
MODEL 3
REMARK VINA RESULT: -7.399256600      1.935      6.466
REMARK  13 active torsions:
REMARK  status: ('A' for Active; 'I' for Inactive)
REMARK    1  A    between atoms: C2_2  and  C3_3 
REMARK    2  A    between atoms: C3_3  and  O1_4 
REMARK    3  A    between atoms: C6_7  and  O2_9 
REMARK    4  A    between atoms: C8_11  and  O3_12 
REMARK    5  A    between atoms: C9_14  and  O4_15 
REMARK    6  A    between atoms: O4_15  and  C10_16 
REMARK    7  A    between atoms: C11_17  and  O5_18 
REMARK    8  A    between atoms: O5_18  and  C12_19 
REMARK    9  A    between atoms: C18_26  and  C19_27 
REMARK   10  A    between atoms: C19_27  and  O7_28 
REMARK   11  A    between atoms: C20_30  and  O8_31 
REMARK   12  A    between atoms: C21_33  and  N1_34 
REMARK   13  A    between atoms: C22_38  and  O9_39 
ROOT
HETATM    1  C10 UNL     1     144.139  15.184 -79.991  1.00  0.00     0.210 C 
HETATM    2  C11 UNL     1     142.833  15.298 -79.249  1.00  0.00     0.291 C 
HETATM    3  O6  UNL     1     142.802  16.474 -78.540  1.00  0.00    -0.349 OA
HETATM    4  C18 UNL     1     143.352  17.546 -79.187  1.00  0.00     0.179 C 
HETATM    5  C20 UNL     1     144.866  17.410 -79.133  1.00  0.00     0.182 C 
HETATM    6  C21 UNL     1     145.269  15.965 -79.340  1.00  0.00     0.248 C 
ENDROOT
BRANCH   1   7
HETATM    7  O4  UNL     1     144.029  15.604 -81.313  1.00  0.00    -0.368 OA
BRANCH   7   8
HETATM    8  C9  UNL     1     144.947  14.949 -82.168  1.00  0.00     0.185 C 
HETATM    9  C8  UNL     1     145.029  13.548 -81.679  1.00  0.00     0.183 C 
HETATM   10  C6  UNL     1     145.549  12.565 -82.683  1.00  0.00     0.086 C 
HETATM   11  C5  UNL     1     144.723  12.650 -83.918  1.00  0.00     0.085 C 
HETATM   12  C7  UNL     1     147.018  12.713 -82.856  1.00  0.00     0.049 C 
HETATM   13  C3  UNL     1     144.819  13.991 -84.524  1.00  0.00     0.108 C 
HETATM   14  C22 UNL     1     144.539  15.127 -83.576  1.00  0.00     0.188 C 
BRANCH   9  15
HETATM   15  O3  UNL     1     145.928  13.528 -80.592  1.00  0.00    -0.390 OA
ATOM     16  H3  UNL     1     145.721  14.283 -80.054  1.00  0.00     0.210 HD
ENDBRANCH   9  15
BRANCH  10  17
HETATM   17  O2  UNL     1     145.319  11.281 -82.130  1.00  0.00    -0.387 OA
ATOM     18  H2  UNL     1     144.852  11.416 -81.315  1.00  0.00     0.210 HD
ENDBRANCH  10  17
BRANCH  13  19
HETATM   19  C2  UNL     1     143.775  14.121 -85.608  1.00  0.00     0.003 C 
HETATM   20  C1  UNL     1     142.980  13.088 -85.813  1.00  0.00     0.010 C 
ENDBRANCH  13  19
BRANCH  13  21
HETATM   21  O1  UNL     1     146.044  14.186 -85.122  1.00  0.00    -0.378 OA
HETATM   22  C4  UNL     1     146.442  13.270 -86.050  1.00  0.00     0.203 C 
ENDBRANCH  13  21
BRANCH  14  23
HETATM   23  O9  UNL     1     145.164  16.253 -84.167  1.00  0.00    -0.390 OA
ATOM     24  H9  UNL     1     145.093  16.940 -83.515  1.00  0.00     0.210 HD
ENDBRANCH  14  23
ENDBRANCH   7   8
ENDBRANCH   1   7
BRANCH   2  25
HETATM   25  O5  UNL     1     142.737  14.213 -78.381  1.00  0.00    -0.353 OA
BRANCH  25  26
HETATM   26  C12 UNL     1     142.826  12.978 -78.977  1.00  0.00     0.124 C 
HETATM   27  C13 UNL     1     142.023  12.887 -80.259  1.00  0.00     0.032 C 
HETATM   28  C14 UNL     1     142.098  11.433 -80.705  1.00  0.00     0.002 C 
HETATM   29  C15 UNL     1     141.338  10.523 -79.780  1.00  0.00     0.000 C 
HETATM   30  C16 UNL     1     141.149  11.226 -78.476  1.00  0.00     0.002 C 
HETATM   31  C17 UNL     1     142.471  11.844 -78.058  1.00  0.00     0.032 C 
ENDBRANCH  25  26
ENDBRANCH   2  25
BRANCH   6  32
HETATM   32  N1  UNL     1     145.698  15.379 -78.089  1.00  0.00    -0.070 N 
ATOM     33  H13 UNL     1     146.328  16.004 -77.587  1.00  0.00     0.274 HD
ATOM     34  H12 UNL     1     144.931  15.345 -77.417  1.00  0.00     0.274 HD
ATOM     35  H11 UNL     1     146.117  14.457 -78.213  1.00  0.00     0.274 HD
ENDBRANCH   6  32
BRANCH   5  36
HETATM   36  O8  UNL     1     145.279  17.790 -77.865  1.00  0.00    -0.391 OA
ATOM     37  H8  UNL     1     145.837  17.100 -77.524  1.00  0.00     0.210 HD
ENDBRANCH   5  36
BRANCH   4  38
HETATM   38  C19 UNL     1     142.896  18.808 -78.455  1.00  0.00     0.198 C 
BRANCH  38  39
HETATM   39  O7  UNL     1     142.826  18.613 -77.095  1.00  0.00    -0.398 OA
ATOM     40  H7  UNL     1     142.219  17.917 -76.870  1.00  0.00     0.209 HD
ENDBRANCH  38  39
ENDBRANCH   4  38
TORSDOF 13
ENDMDL
MODEL 4
REMARK VINA RESULT: -7.319422578      1.833      5.830
REMARK  13 active torsions:
REMARK  status: ('A' for Active; 'I' for Inactive)
REMARK    1  A    between atoms: C2_2  and  C3_3 
REMARK    2  A    between atoms: C3_3  and  O1_4 
REMARK    3  A    between atoms: C6_7  and  O2_9 
REMARK    4  A    between atoms: C8_11  and  O3_12 
REMARK    5  A    between atoms: C9_14  and  O4_15 
REMARK    6  A    between atoms: O4_15  and  C10_16 
REMARK    7  A    between atoms: C11_17  and  O5_18 
REMARK    8  A    between atoms: O5_18  and  C12_19 
REMARK    9  A    between atoms: C18_26  and  C19_27 
REMARK   10  A    between atoms: C19_27  and  O7_28 
REMARK   11  A    between atoms: C20_30  and  O8_31 
REMARK   12  A    between atoms: C21_33  and  N1_34 
REMARK   13  A    between atoms: C22_38  and  O9_39 
ROOT
HETATM    1  C10 UNL     1     144.158  14.818 -80.884  1.00  0.00     0.210 C 
HETATM    2  C11 UNL     1     144.050  15.692 -79.662  1.00  0.00     0.291 C 
HETATM    3  O6  UNL     1     143.485  14.982 -78.630  1.00  0.00    -0.349 OA
HETATM    4  C18 UNL     1     143.892  13.678 -78.545  1.00  0.00     0.179 C 
HETATM    5  C20 UNL     1     143.191  12.886 -79.637  1.00  0.00     0.182 C 
HETATM    6  C21 UNL     1     143.129  13.699 -80.914  1.00  0.00     0.248 C 
ENDROOT
BRANCH   1   7
HETATM    7  O4  UNL     1     145.421  14.248 -81.012  1.00  0.00    -0.368 OA
BRANCH   7   8
HETATM    8  C9  UNL     1     145.901  14.286 -82.342  1.00  0.00     0.185 C 
HETATM    9  C8  UNL     1     146.547  12.969 -82.579  1.00  0.00     0.183 C 
HETATM   10  C6  UNL     1     146.698  12.597 -84.023  1.00  0.00     0.086 C 
HETATM   11  C5  UNL     1     145.367  12.665 -84.684  1.00  0.00     0.085 C 
HETATM   12  C7  UNL     1     147.794  13.379 -84.657  1.00  0.00     0.049 C 
HETATM   13  C3  UNL     1     144.824  14.035 -84.635  1.00  0.00     0.108 C 
HETATM   14  C22 UNL     1     144.807  14.653 -83.262  1.00  0.00     0.188 C 
BRANCH   9  15
HETATM   15  O3  UNL     1     147.848  13.028 -82.039  1.00  0.00    -0.390 OA
ATOM     16  H3  UNL     1     147.964  13.910 -81.706  1.00  0.00     0.210 HD
ENDBRANCH   9  15
BRANCH  10  17
HETATM   17  O2  UNL     1     147.090  11.237 -84.039  1.00  0.00    -0.387 OA
ATOM     18  H2  UNL     1     146.671  10.842 -84.795  1.00  0.00     0.210 HD
ENDBRANCH  10  17
BRANCH  13  19
HETATM   19  C2  UNL     1     143.377  14.010 -85.070  1.00  0.00     0.003 C 
HETATM   20  C1  UNL     1     142.976  12.978 -85.787  1.00  0.00     0.010 C 
ENDBRANCH  13  19
BRANCH  13  21
HETATM   21  O1  UNL     1     145.490  14.870 -85.504  1.00  0.00    -0.378 OA
HETATM   22  C4  UNL     1     144.739  15.742 -86.236  1.00  0.00     0.203 C 
ENDBRANCH  13  21
BRANCH  14  23
HETATM   23  O9  UNL     1     144.760  16.050 -83.496  1.00  0.00    -0.390 OA
ATOM     24  H9  UNL     1     143.972  16.343 -83.053  1.00  0.00     0.210 HD
ENDBRANCH  14  23
ENDBRANCH   7   8
ENDBRANCH   1   7
BRANCH   2  25
HETATM   25  O5  UNL     1     143.249  16.784 -79.985  1.00  0.00    -0.353 OA
BRANCH  25  26
HETATM   26  C12 UNL     1     143.753  18.008 -79.614  1.00  0.00     0.124 C 
HETATM   27  C13 UNL     1     145.266  18.016 -79.524  1.00  0.00     0.032 C 
HETATM   28  C14 UNL     1     145.651  19.377 -78.960  1.00  0.00     0.002 C 
HETATM   29  C15 UNL     1     145.239  19.523 -77.521  1.00  0.00     0.000 C 
HETATM   30  C16 UNL     1     144.181  18.511 -77.227  1.00  0.00     0.002 C 
HETATM   31  C17 UNL     1     143.154  18.541 -78.344  1.00  0.00     0.032 C 
ENDBRANCH  25  26
ENDBRANCH   2  25
BRANCH   6  32
HETATM   32  N1  UNL     1     141.786  14.187 -81.135  1.00  0.00    -0.070 N 
ATOM     33  H13 UNL     1     141.774  15.203 -81.222  1.00  0.00     0.274 HD
ATOM     34  H12 UNL     1     141.454  13.940 -82.066  1.00  0.00     0.274 HD
ATOM     35  H11 UNL     1     141.133  13.873 -80.417  1.00  0.00     0.274 HD
ENDBRANCH   6  32
BRANCH   5  36
HETATM   36  O8  UNL     1     141.890  12.651 -79.219  1.00  0.00    -0.391 OA
ATOM     37  H8  UNL     1     141.379  12.417 -79.985  1.00  0.00     0.210 HD
ENDBRANCH   5  36
BRANCH   4  38
HETATM   38  C19 UNL     1     143.492  13.163 -77.162  1.00  0.00     0.198 C 
BRANCH  38  39
HETATM   39  O7  UNL     1     142.545  13.967 -76.571  1.00  0.00    -0.398 OA
ATOM     40  H7  UNL     1     141.676  13.798 -76.913  1.00  0.00     0.209 HD
ENDBRANCH  38  39
ENDBRANCH   4  38
TORSDOF 13
ENDMDL
MODEL 5
REMARK VINA RESULT: -7.090730892      1.068      2.729
REMARK  13 active torsions:
REMARK  status: ('A' for Active; 'I' for Inactive)
REMARK    1  A    between atoms: C2_2  and  C3_3 
REMARK    2  A    between atoms: C3_3  and  O1_4 
REMARK    3  A    between atoms: C6_7  and  O2_9 
REMARK    4  A    between atoms: C8_11  and  O3_12 
REMARK    5  A    between atoms: C9_14  and  O4_15 
REMARK    6  A    between atoms: O4_15  and  C10_16 
REMARK    7  A    between atoms: C11_17  and  O5_18 
REMARK    8  A    between atoms: O5_18  and  C12_19 
REMARK    9  A    between atoms: C18_26  and  C19_27 
REMARK   10  A    between atoms: C19_27  and  O7_28 
REMARK   11  A    between atoms: C20_30  and  O8_31 
REMARK   12  A    between atoms: C21_33  and  N1_34 
REMARK   13  A    between atoms: C22_38  and  O9_39 
ROOT
HETATM    1  C10 UNL     1     144.780  14.702 -81.412  1.00  0.00     0.210 C 
HETATM    2  C11 UNL     1     144.675  16.069 -82.035  1.00  0.00     0.291 C 
HETATM    3  O6  UNL     1     144.844  15.975 -83.395  1.00  0.00    -0.349 OA
HETATM    4  C18 UNL     1     144.259  14.880 -83.969  1.00  0.00     0.179 C 
HETATM    5  C20 UNL     1     145.113  13.662 -83.654  1.00  0.00     0.182 C 
HETATM    6  C21 UNL     1     145.620  13.733 -82.228  1.00  0.00     0.248 C 
ENDROOT
BRANCH   1   7
HETATM    7  O4  UNL     1     143.532  14.123 -81.203  1.00  0.00    -0.368 OA
BRANCH   7   8
HETATM    8  C9  UNL     1     143.521  13.242 -80.095  1.00  0.00     0.185 C 
HETATM    9  C8  UNL     1     143.122  14.067 -78.925  1.00  0.00     0.183 C 
HETATM   10  C6  UNL     1     142.585  13.287 -77.764  1.00  0.00     0.086 C 
HETATM   11  C5  UNL     1     141.454  12.439 -78.229  1.00  0.00     0.085 C 
HETATM   12  C7  UNL     1     143.684  12.589 -77.044  1.00  0.00     0.049 C 
HETATM   13  C3  UNL     1     141.906  11.468 -79.243  1.00  0.00     0.108 C 
HETATM   14  C22 UNL     1     142.671  12.072 -80.391  1.00  0.00     0.188 C 
BRANCH   9  15
HETATM   15  O3  UNL     1     144.273  14.738 -78.463  1.00  0.00    -0.390 OA
ATOM     16  H3  UNL     1     144.082  15.029 -77.579  1.00  0.00     0.210 HD
ENDBRANCH   9  15
BRANCH  10  17
HETATM   17  O2  UNL     1     142.037  14.239 -76.870  1.00  0.00    -0.387 OA
ATOM     18  H2  UNL     1     142.442  14.083 -76.025  1.00  0.00     0.210 HD
ENDBRANCH  10  17
BRANCH  13  19
HETATM   19  C2  UNL     1     140.700  10.817 -79.878  1.00  0.00     0.003 C 
HETATM   20  C1  UNL     1     139.531  11.006 -79.297  1.00  0.00     0.010 C 
ENDBRANCH  13  19
BRANCH  13  21
HETATM   21  O1  UNL     1     142.653  10.461 -78.675  1.00  0.00    -0.378 OA
HETATM   22  C4  UNL     1     141.993   9.335 -78.281  1.00  0.00     0.203 C 
ENDBRANCH  13  21
BRANCH  14  23
HETATM   23  O9  UNL     1     143.423  10.997 -80.928  1.00  0.00    -0.390 OA
ATOM     24  H9  UNL     1     143.857  10.607 -80.179  1.00  0.00     0.210 HD
ENDBRANCH  14  23
ENDBRANCH   7   8
ENDBRANCH   1   7
BRANCH   2  25
HETATM   25  O5  UNL     1     145.671  16.870 -81.483  1.00  0.00    -0.353 OA
BRANCH  25  26
HETATM   26  C12 UNL     1     145.220  17.950 -80.762  1.00  0.00     0.124 C 
HETATM   27  C13 UNL     1     145.820  18.018 -79.372  1.00  0.00     0.032 C 
HETATM   28  C14 UNL     1     145.112  19.162 -78.659  1.00  0.00     0.002 C 
HETATM   29  C15 UNL     1     143.671  18.839 -78.376  1.00  0.00     0.000 C 
HETATM   30  C16 UNL     1     143.250  17.726 -79.278  1.00  0.00     0.002 C 
HETATM   31  C17 UNL     1     143.722  18.035 -80.687  1.00  0.00     0.032 C 
ENDBRANCH  25  26
ENDBRANCH   2  25
BRANCH   6  32
HETATM   32  N1  UNL     1     147.026  14.070 -82.212  1.00  0.00    -0.070 N 
ATOM     33  H13 UNL     1     147.308  14.514 -83.086  1.00  0.00     0.274 HD
ATOM     34  H12 UNL     1     147.212  14.841 -81.570  1.00  0.00     0.274 HD
ATOM     35  H11 UNL     1     147.618  13.267 -82.001  1.00  0.00     0.274 HD
ENDBRANCH   6  32
BRANCH   5  36
HETATM   36  O8  UNL     1     146.212  13.687 -84.498  1.00  0.00    -0.391 OA
ATOM     37  H8  UNL     1     145.963  13.259 -85.309  1.00  0.00     0.210 HD
ENDBRANCH   5  36
BRANCH   4  38
HETATM   38  C19 UNL     1     144.204  15.126 -85.477  1.00  0.00     0.198 C 
BRANCH  38  39
HETATM   39  O7  UNL     1     144.872  16.275 -85.832  1.00  0.00    -0.398 OA
ATOM     40  H7  UNL     1     145.196  16.744 -85.071  1.00  0.00     0.209 HD
ENDBRANCH  38  39
ENDBRANCH   4  38
TORSDOF 13
ENDMDL
