MODEL 1
REMARK VINA RESULT: -4.646652082      0.000      0.000
REMARK  3 active torsions:
REMARK  status: ('A' for Active; 'I' for Inactive)
REMARK    1  A    between atoms: C1_4  and  C2_6 
REMARK    2  A    between atoms: C2_6  and  N3_7 
REMARK    3  A    between atoms: C4_14  and  N5_15 
ROOT
HETATM    1  C2  UNL     1      21.855  -1.530  -3.707  1.00  0.00     0.241 C 
HETATM    2  C3  UNL     1      22.361  -2.864  -3.291  1.00  0.00     0.264 C 
HETATM    3  O3  UNL     1      23.172  -3.531  -3.979  1.00  0.00    -0.270 OA
HETATM    4  N4  UNL     1      21.750  -3.146  -2.043  1.00  0.00    -0.302 N 
ATOM      5  H4  UNL     1      21.670  -4.076  -1.633  1.00  0.00     0.166 HD
HETATM    6  C4  UNL     1      21.264  -1.947  -1.440  1.00  0.00     0.370 C 
HETATM    7  N6  UNL     1      19.862  -1.695  -1.528  1.00  0.00    -0.021 N 
ATOM      8  H61 UNL     1      19.265  -1.765  -0.703  1.00  0.00     0.282 HD
ATOM      9  H62 UNL     1      19.243  -2.347  -2.010  1.00  0.00     0.282 HD
HETATM   10  C5  UNL     1      20.178  -0.409  -2.105  1.00  0.00     0.252 C 
HETATM   11  C6  UNL     1      21.538  -0.857  -2.435  1.00  0.00     0.149 C 
ENDROOT
BRANCH   1  12
HETATM   12  C1  UNL     1      20.731  -1.717  -4.648  1.00  0.00     0.132 C 
HETATM   13  N1  UNL     1      20.508  -0.874  -5.583  1.00  0.00    -0.388 N 
ATOM     14  H12 UNL     1      19.732  -1.003  -6.233  1.00  0.00     0.157 HD
ATOM     15  H11 UNL     1      21.121  -0.063  -5.672  1.00  0.00     0.157 HD
HETATM   16  N2  UNL     1      19.880  -2.841  -4.526  1.00  0.00    -0.085 NA
ENDBRANCH   1  12
BRANCH   1  17
HETATM   17  N3  UNL     1      22.955  -0.853  -4.395  1.00  0.00    -0.127 N 
HETATM   18  O1  UNL     1      23.626   0.010  -3.814  1.00  0.00    -0.535 OA
HETATM   19  O2  UNL     1      23.294  -1.130  -5.696  1.00  0.00    -0.535 OA
ENDBRANCH   1  17
BRANCH   6  20
HETATM   20  N5  UNL     1      21.756  -1.671  -0.105  1.00  0.00    -0.025 N 
ATOM     21  H53 UNL     1      22.648  -2.144   0.042  1.00  0.00     0.279 HD
ATOM     22  H52 UNL     1      22.054  -0.697  -0.039  1.00  0.00     0.279 HD
ATOM     23  H51 UNL     1      21.116  -1.892   0.656  1.00  0.00     0.279 HD
ENDBRANCH   6  20
TORSDOF 3
ENDMDL
MODEL 2
REMARK VINA RESULT: -4.549519925      1.794      3.762
REMARK  3 active torsions:
REMARK  status: ('A' for Active; 'I' for Inactive)
REMARK    1  A    between atoms: C1_4  and  C2_6 
REMARK    2  A    between atoms: C2_6  and  N3_7 
REMARK    3  A    between atoms: C4_14  and  N5_15 
ROOT
HETATM    1  C2  UNL     1      21.704  -1.886  -2.398  1.00  0.00     0.241 C 
HETATM    2  C3  UNL     1      22.558  -0.853  -3.039  1.00  0.00     0.264 C 
HETATM    3  O3  UNL     1      23.364  -0.138  -2.396  1.00  0.00    -0.270 OA
HETATM    4  N4  UNL     1      22.251  -0.892  -4.424  1.00  0.00    -0.302 N 
ATOM      5  H4  UNL     1      22.452  -0.141  -5.084  1.00  0.00     0.166 HD
HETATM    6  C4  UNL     1      21.624  -2.128  -4.764  1.00  0.00     0.370 C 
HETATM    7  N6  UNL     1      20.207  -2.114  -4.938  1.00  0.00    -0.021 N 
ATOM      8  H61 UNL     1      19.793  -2.218  -5.865  1.00  0.00     0.282 HD
ATOM      9  H62 UNL     1      19.674  -1.253  -4.816  1.00  0.00     0.282 HD
HETATM   10  C5  UNL     1      20.125  -3.181  -3.967  1.00  0.00     0.252 C 
HETATM   11  C6  UNL     1      21.472  -2.871  -3.468  1.00  0.00     0.149 C 
ENDROOT
BRANCH   1  12
HETATM   12  C1  UNL     1      20.503  -1.233  -1.835  1.00  0.00     0.132 C 
HETATM   13  N1  UNL     1      19.937  -1.689  -0.784  1.00  0.00    -0.388 N 
ATOM     14  H12 UNL     1      19.108  -1.239  -0.396  1.00  0.00     0.157 HD
ATOM     15  H11 UNL     1      20.327  -2.517  -0.334  1.00  0.00     0.157 HD
HETATM   16  N2  UNL     1      19.961  -0.084  -2.459  1.00  0.00    -0.085 NA
ENDBRANCH   1  12
BRANCH   1  17
HETATM   17  N3  UNL     1      22.489  -2.472  -1.311  1.00  0.00    -0.127 N 
HETATM   18  O1  UNL     1      23.050  -3.567  -1.457  1.00  0.00    -0.535 OA
HETATM   19  O2  UNL     1      22.642  -1.855  -0.094  1.00  0.00    -0.535 OA
ENDBRANCH   1  17
BRANCH   6  20
HETATM   20  N5  UNL     1      22.267  -2.891  -5.814  1.00  0.00    -0.025 N 
ATOM     21  H53 UNL     1      21.872  -3.831  -5.853  1.00  0.00     0.279 HD
ATOM     22  H52 UNL     1      21.982  -2.536  -6.727  1.00  0.00     0.279 HD
ATOM     23  H51 UNL     1      23.284  -2.943  -5.763  1.00  0.00     0.279 HD
ENDBRANCH   6  20
TORSDOF 3
ENDMDL
MODEL 3
REMARK VINA RESULT: -4.520230918      2.247      3.920
REMARK  3 active torsions:
REMARK  status: ('A' for Active; 'I' for Inactive)
REMARK    1  A    between atoms: C1_4  and  C2_6 
REMARK    2  A    between atoms: C2_6  and  N3_7 
REMARK    3  A    between atoms: C4_14  and  N5_15 
ROOT
HETATM    1  C2  UNL     1      21.222  -1.585  -2.764  1.00  0.00     0.241 C 
HETATM    2  C3  UNL     1      20.705  -2.413  -3.884  1.00  0.00     0.264 C 
HETATM    3  O3  UNL     1      19.609  -3.022  -3.833  1.00  0.00    -0.270 OA
HETATM    4  N4  UNL     1      21.677  -2.335  -4.914  1.00  0.00    -0.302 N 
ATOM      5  H4  UNL     1      21.759  -2.995  -5.687  1.00  0.00     0.166 HD
HETATM    6  C4  UNL     1      22.525  -1.204  -4.718  1.00  0.00     0.370 C 
HETATM    7  N6  UNL     1      23.820  -1.446  -4.170  1.00  0.00    -0.021 N 
ATOM      8  H61 UNL     1      24.658  -1.353  -4.745  1.00  0.00     0.282 HD
ATOM      9  H62 UNL     1      24.115  -2.391  -3.925  1.00  0.00     0.282 HD
HETATM   10  C5  UNL     1      23.515  -0.476  -3.144  1.00  0.00     0.252 C 
HETATM   11  C6  UNL     1      22.077  -0.584  -3.425  1.00  0.00     0.149 C 
ENDROOT
BRANCH   1  12
HETATM   12  C1  UNL     1      21.885  -2.468  -1.782  1.00  0.00     0.132 C 
HETATM   13  N1  UNL     1      21.870  -2.194  -0.533  1.00  0.00    -0.388 N 
ATOM     14  H12 UNL     1      22.328  -2.803   0.145  1.00  0.00     0.157 HD
ATOM     15  H11 UNL     1      21.390  -1.350  -0.221  1.00  0.00     0.157 HD
HETATM   16  N2  UNL     1      22.552  -3.639  -2.215  1.00  0.00    -0.085 NA
ENDBRANCH   1  12
BRANCH   1  17
HETATM   17  N3  UNL     1      20.064  -0.947  -2.136  1.00  0.00    -0.127 N 
HETATM   18  O1  UNL     1      19.724   0.200  -2.457  1.00  0.00    -0.535 OA
HETATM   19  O2  UNL     1      19.308  -1.572  -1.175  1.00  0.00    -0.535 OA
ENDBRANCH   1  17
BRANCH   6  20
HETATM   20  N5  UNL     1      22.599  -0.274  -5.827  1.00  0.00    -0.025 N 
ATOM     21  H53 UNL     1      21.785  -0.389  -6.433  1.00  0.00     0.279 HD
ATOM     22  H52 UNL     1      22.445   0.678  -5.495  1.00  0.00     0.279 HD
ATOM     23  H51 UNL     1      23.454  -0.316  -6.382  1.00  0.00     0.279 HD
ENDBRANCH   6  20
TORSDOF 3
ENDMDL
MODEL 4
REMARK VINA RESULT: -4.213880922      2.548      3.761
REMARK  3 active torsions:
REMARK  status: ('A' for Active; 'I' for Inactive)
REMARK    1  A    between atoms: C1_4  and  C2_6 
REMARK    2  A    between atoms: C2_6  and  N3_7 
REMARK    3  A    between atoms: C4_14  and  N5_15 
ROOT
HETATM    1  C2  UNL     1      21.859  -1.839  -1.936  1.00  0.00     0.241 C 
HETATM    2  C3  UNL     1      23.154  -1.775  -1.209  1.00  0.00     0.264 C 
HETATM    3  O3  UNL     1      23.354  -1.006  -0.237  1.00  0.00    -0.270 OA
HETATM    4  N4  UNL     1      24.008  -2.714  -1.841  1.00  0.00    -0.302 N 
ATOM      5  H4  UNL     1      25.025  -2.716  -1.767  1.00  0.00     0.166 HD
HETATM    6  C4  UNL     1      23.246  -3.657  -2.594  1.00  0.00     0.370 C 
HETATM    7  N6  UNL     1      23.193  -3.473  -4.008  1.00  0.00    -0.021 N 
ATOM      8  H61 UNL     1      23.681  -4.112  -4.637  1.00  0.00     0.282 HD
ATOM      9  H62 UNL     1      23.678  -2.693  -4.452  1.00  0.00     0.282 HD
HETATM   10  C5  UNL     1      21.752  -3.491  -3.909  1.00  0.00     0.252 C 
HETATM   11  C6  UNL     1      21.817  -3.212  -2.467  1.00  0.00     0.149 C 
ENDROOT
BRANCH   1  12
HETATM   12  C1  UNL     1      21.814  -0.748  -2.931  1.00  0.00     0.132 C 
HETATM   13  N1  UNL     1      20.704  -0.367  -3.441  1.00  0.00    -0.388 N 
ATOM     14  H12 UNL     1      20.673   0.386  -4.128  1.00  0.00     0.157 HD
ATOM     15  H11 UNL     1      19.844  -0.830  -3.149  1.00  0.00     0.157 HD
HETATM   16  N2  UNL     1      23.007  -0.105  -3.337  1.00  0.00    -0.085 NA
ENDBRANCH   1  12
BRANCH   1  17
HETATM   17  N3  UNL     1      20.804  -1.633  -0.943  1.00  0.00    -0.127 N 
HETATM   18  O1  UNL     1      20.666  -2.419   0.004  1.00  0.00    -0.535 OA
HETATM   19  O2  UNL     1      19.926  -0.579  -1.007  1.00  0.00    -0.535 OA
ENDBRANCH   1  17
BRANCH   6  20
HETATM   20  N5  UNL     1      23.465  -5.051  -2.262  1.00  0.00    -0.025 N 
ATOM     21  H53 UNL     1      24.447  -5.203  -2.032  1.00  0.00     0.279 HD
ATOM     22  H52 UNL     1      23.032  -5.267  -1.363  1.00  0.00     0.279 HD
ATOM     23  H51 UNL     1      23.163  -5.725  -2.964  1.00  0.00     0.279 HD
ENDBRANCH   6  20
TORSDOF 3
ENDMDL
MODEL 5
REMARK VINA RESULT: -4.198424210      2.337      3.728
REMARK  3 active torsions:
REMARK  status: ('A' for Active; 'I' for Inactive)
REMARK    1  A    between atoms: C1_4  and  C2_6 
REMARK    2  A    between atoms: C2_6  and  N3_7 
REMARK    3  A    between atoms: C4_14  and  N5_15 
ROOT
HETATM    1  C2  UNL     1      21.874  -2.199  -3.083  1.00  0.00     0.241 C 
HETATM    2  C3  UNL     1      21.866  -2.686  -1.679  1.00  0.00     0.264 C 
HETATM    3  O3  UNL     1      21.086  -2.236  -0.805  1.00  0.00    -0.270 OA
HETATM    4  N4  UNL     1      22.868  -3.687  -1.603  1.00  0.00    -0.302 N 
ATOM      5  H4  UNL     1      23.298  -4.014  -0.739  1.00  0.00     0.166 HD
HETATM    6  C4  UNL     1      23.190  -4.174  -2.906  1.00  0.00     0.370 C 
HETATM    7  N6  UNL     1      24.392  -3.691  -3.505  1.00  0.00    -0.021 N 
ATOM      8  H61 UNL     1      25.202  -4.302  -3.617  1.00  0.00     0.282 HD
ATOM      9  H62 UNL     1      24.986  -3.021  -3.017  1.00  0.00     0.282 HD
HETATM   10  C5  UNL     1      23.605  -3.289  -4.648  1.00  0.00     0.252 C 
HETATM   11  C6  UNL     1      22.368  -3.351  -3.857  1.00  0.00     0.149 C 
ENDROOT
BRANCH   1  12
HETATM   12  C1  UNL     1      22.681  -0.963  -3.158  1.00  0.00     0.132 C 
HETATM   13  N1  UNL     1      22.559  -0.156  -4.142  1.00  0.00    -0.388 N 
ATOM     14  H12 UNL     1      23.116   0.697  -4.194  1.00  0.00     0.157 HD
ATOM     15  H11 UNL     1      21.893  -0.378  -4.882  1.00  0.00     0.157 HD
HETATM   16  N2  UNL     1      23.605  -0.655  -2.133  1.00  0.00    -0.085 NA
ENDBRANCH   1  12
BRANCH   1  17
HETATM   17  N3  UNL     1      20.486  -1.893  -3.434  1.00  0.00    -0.127 N 
HETATM   18  O1  UNL     1      19.764  -2.751  -3.959  1.00  0.00    -0.535 OA
HETATM   19  O2  UNL     1      19.921  -0.662  -3.208  1.00  0.00    -0.535 OA
ENDBRANCH   1  17
BRANCH   6  20
HETATM   20  N5  UNL     1      23.057  -5.605  -3.093  1.00  0.00    -0.025 N 
ATOM     21  H53 UNL     1      23.981  -6.034  -3.159  1.00  0.00     0.279 HD
ATOM     22  H52 UNL     1      22.716  -6.038  -2.234  1.00  0.00     0.279 HD
ATOM     23  H51 UNL     1      22.481  -5.896  -3.882  1.00  0.00     0.279 HD
ENDBRANCH   6  20
TORSDOF 3
ENDMDL
