MODEL 1
REMARK VINA RESULT: -5.419665110      0.000      0.000
REMARK  5 active torsions:
REMARK  status: ('A' for Active; 'I' for Inactive)
REMARK    1  A    between atoms: N1_1  and  C1_4 
REMARK    2  A    between atoms: C4_14  and  N5_15 
REMARK    3  A    between atoms: N5_15  and  C5_17 
REMARK    4  A    between atoms: C5_17  and  C6_18 
REMARK    5  A    between atoms: C6_18  and  N6_19 
ROOT
HETATM    1  C1  UNL     1      23.093  -2.694  -0.178  1.00  0.00     0.681 A 
HETATM    2  N2  UNL     1      22.039  -1.945   0.213  1.00  0.00    -0.141 N 
ATOM      3  H2  UNL     1      22.014  -1.543   1.150  1.00  0.00     0.189 HD
HETATM    4  C2  UNL     1      21.026  -1.733  -0.642  1.00  0.00     0.350 A 
HETATM    5  O1  UNL     1      20.025  -1.044  -0.326  1.00  0.00    -0.245 OA
HETATM    6  N3  UNL     1      21.110  -2.287  -1.871  1.00  0.00    -0.199 N 
HETATM    7  C3  UNL     1      20.092  -2.080  -2.749  1.00  0.00     0.338 A 
HETATM    8  O2  UNL     1      19.127  -1.381  -2.357  1.00  0.00    -0.246 OA
HETATM    9  N4  UNL     1      20.097  -2.596  -3.992  1.00  0.00    -0.294 N 
ATOM     10  H4  UNL     1      19.317  -2.423  -4.627  1.00  0.00     0.172 HD
HETATM   11  C4  UNL     1      21.144  -3.342  -4.385  1.00  0.00     0.108 A 
HETATM   12  C7  UNL     1      22.205  -3.583  -3.538  1.00  0.00     0.098 A 
HETATM   13  C8  UNL     1      22.158  -3.034  -2.269  1.00  0.00     0.139 A 
HETATM   14  N7  UNL     1      23.185  -3.244  -1.390  1.00  0.00    -0.176 N 
ATOM     15  H7  UNL     1      23.995  -3.805  -1.653  1.00  0.00     0.186 HD
ENDROOT
BRANCH  11  16
HETATM   16  N5  UNL     1      21.173  -3.847  -5.571  1.00  0.00    -0.374 N 
ATOM     17  H5  UNL     1      20.957  -3.270  -6.383  1.00  0.00     0.161 HD
BRANCH  16  18
HETATM   18  C5  UNL     1      21.510  -5.223  -5.732  1.00  0.00     0.148 C 
BRANCH  18  19
HETATM   19  C6  UNL     1      20.315  -6.117  -5.911  1.00  0.00     0.249 C 
BRANCH  19  20
HETATM   20  N6  UNL     1      19.838  -6.684  -4.690  1.00  0.00    -0.078 N 
ATOM     21  H63 UNL     1      20.614  -7.027  -4.124  1.00  0.00     0.274 HD
ATOM     22  H62 UNL     1      19.483  -5.957  -4.069  1.00  0.00     0.274 HD
ATOM     23  H61 UNL     1      19.140  -7.416  -4.826  1.00  0.00     0.274 HD
ENDBRANCH  19  20
ENDBRANCH  18  19
ENDBRANCH  16  18
ENDBRANCH  11  16
BRANCH   1  24
HETATM   24  N1  UNL     1      24.060  -2.890   0.651  1.00  0.00    -0.234 N 
ATOM     25  H12 UNL     1      24.596  -3.753   0.567  1.00  0.00     0.174 HD
ATOM     26  H11 UNL     1      24.255  -2.181   1.358  1.00  0.00     0.174 HD
ENDBRANCH   1  24
TORSDOF 5
ENDMDL
MODEL 2
REMARK VINA RESULT: -5.289657992      2.411      2.836
REMARK  5 active torsions:
REMARK  status: ('A' for Active; 'I' for Inactive)
REMARK    1  A    between atoms: N1_1  and  C1_4 
REMARK    2  A    between atoms: C4_14  and  N5_15 
REMARK    3  A    between atoms: N5_15  and  C5_17 
REMARK    4  A    between atoms: C5_17  and  C6_18 
REMARK    5  A    between atoms: C6_18  and  N6_19 
ROOT
HETATM    1  C1  UNL     1      22.861  -2.537  -0.079  1.00  0.00     0.681 A 
HETATM    2  N2  UNL     1      21.689  -1.986   0.305  1.00  0.00    -0.141 N 
ATOM      3  H2  UNL     1      21.411  -2.001   1.286  1.00  0.00     0.189 HD
HETATM    4  C2  UNL     1      20.893  -1.418  -0.615  1.00  0.00     0.350 A 
HETATM    5  O1  UNL     1      19.795  -0.892  -0.309  1.00  0.00    -0.245 OA
HETATM    6  N3  UNL     1      21.309  -1.424  -1.900  1.00  0.00    -0.199 N 
HETATM    7  C3  UNL     1      20.514  -0.852  -2.845  1.00  0.00     0.338 A 
HETATM    8  O2  UNL     1      19.432  -0.350  -2.458  1.00  0.00    -0.246 OA
HETATM    9  N4  UNL     1      20.854  -0.816  -4.146  1.00  0.00    -0.294 N 
ATOM     10  H4  UNL     1      20.235  -0.380  -4.830  1.00  0.00     0.172 HD
HETATM   11  C4  UNL     1      22.020  -1.363  -4.532  1.00  0.00     0.108 A 
HETATM   12  C7  UNL     1      22.865  -1.956  -3.619  1.00  0.00     0.098 A 
HETATM   13  C8  UNL     1      22.477  -1.971  -2.290  1.00  0.00     0.139 A 
HETATM   14  N7  UNL     1      23.279  -2.548  -1.345  1.00  0.00    -0.176 N 
ATOM     15  H7  UNL     1      24.171  -2.973  -1.601  1.00  0.00     0.186 HD
ENDROOT
BRANCH  11  16
HETATM   16  N5  UNL     1      22.368  -1.342  -5.773  1.00  0.00    -0.374 N 
ATOM     17  H5  UNL     1      23.342  -1.194  -6.033  1.00  0.00     0.161 HD
BRANCH  16  18
HETATM   18  C5  UNL     1      21.373  -1.527  -6.777  1.00  0.00     0.148 C 
BRANCH  18  19
HETATM   19  C6  UNL     1      21.247  -0.364  -7.720  1.00  0.00     0.249 C 
BRANCH  19  20
HETATM   20  N6  UNL     1      20.175   0.522  -7.395  1.00  0.00    -0.078 N 
ATOM     21  H63 UNL     1      19.718   0.234  -6.529  1.00  0.00     0.274 HD
ATOM     22  H62 UNL     1      20.534   1.431  -7.103  1.00  0.00     0.274 HD
ATOM     23  H61 UNL     1      19.492   0.628  -8.145  1.00  0.00     0.274 HD
ENDBRANCH  19  20
ENDBRANCH  18  19
ENDBRANCH  16  18
ENDBRANCH  11  16
BRANCH   1  24
HETATM   24  N1  UNL     1      23.616  -3.079   0.814  1.00  0.00    -0.234 N 
ATOM     25  H12 UNL     1      23.237  -3.200   1.753  1.00  0.00     0.174 HD
ATOM     26  H11 UNL     1      24.559  -3.366   0.554  1.00  0.00     0.174 HD
ENDBRANCH   1  24
TORSDOF 5
ENDMDL
MODEL 3
REMARK VINA RESULT: -5.196248230      2.481      5.096
REMARK  5 active torsions:
REMARK  status: ('A' for Active; 'I' for Inactive)
REMARK    1  A    between atoms: N1_1  and  C1_4 
REMARK    2  A    between atoms: C4_14  and  N5_15 
REMARK    3  A    between atoms: N5_15  and  C5_17 
REMARK    4  A    between atoms: C5_17  and  C6_18 
REMARK    5  A    between atoms: C6_18  and  N6_19 
ROOT
HETATM    1  C1  UNL     1      22.009  -1.449  -4.481  1.00  0.00     0.681 A 
HETATM    2  N2  UNL     1      20.841  -0.863  -4.138  1.00  0.00    -0.141 N 
ATOM      3  H2  UNL     1      20.252  -0.435  -4.852  1.00  0.00     0.189 HD
HETATM    4  C2  UNL     1      20.462  -0.851  -2.851  1.00  0.00     0.350 A 
HETATM    5  O1  UNL     1      19.386  -0.321  -2.481  1.00  0.00    -0.245 OA
HETATM    6  N3  UNL     1      21.279  -1.434  -1.946  1.00  0.00    -0.199 N 
HETATM    7  C3  UNL     1      20.908  -1.431  -0.637  1.00  0.00     0.338 A 
HETATM    8  O2  UNL     1      19.818  -0.880  -0.350  1.00  0.00    -0.246 OA
HETATM    9  N4  UNL     1      21.662  -1.989   0.327  1.00  0.00    -0.294 N 
ATOM     10  H4  UNL     1      21.356  -1.969   1.300  1.00  0.00     0.172 HD
HETATM   11  C4  UNL     1      22.826  -2.572  -0.011  1.00  0.00     0.108 A 
HETATM   12  C7  UNL     1      23.252  -2.606  -1.321  1.00  0.00     0.098 A 
HETATM   13  C8  UNL     1      22.444  -2.020  -2.281  1.00  0.00     0.139 A 
HETATM   14  N7  UNL     1      22.822  -2.026  -3.595  1.00  0.00    -0.176 N 
ATOM     15  H7  UNL     1      23.697  -2.459  -3.888  1.00  0.00     0.186 HD
ENDROOT
BRANCH  11  16
HETATM   16  N5  UNL     1      23.567  -3.114   0.894  1.00  0.00    -0.374 N 
ATOM     17  H5  UNL     1      23.509  -2.802   1.863  1.00  0.00     0.161 HD
BRANCH  16  18
HETATM   18  C5  UNL     1      24.469  -4.153   0.523  1.00  0.00     0.148 C 
BRANCH  18  19
HETATM   19  C6  UNL     1      25.835  -4.009   1.135  1.00  0.00     0.249 C 
BRANCH  19  20
HETATM   20  N6  UNL     1      26.438  -2.737   0.894  1.00  0.00    -0.078 N 
ATOM     21  H63 UNL     1      26.193  -2.391  -0.034  1.00  0.00     0.274 HD
ATOM     22  H62 UNL     1      25.999  -2.016   1.466  1.00  0.00     0.274 HD
ATOM     23  H61 UNL     1      27.450  -2.735   1.024  1.00  0.00     0.274 HD
ENDBRANCH  19  20
ENDBRANCH  18  19
ENDBRANCH  16  18
ENDBRANCH  11  16
BRANCH   1  24
HETATM   24  N1  UNL     1      22.363  -1.454  -5.721  1.00  0.00    -0.234 N 
ATOM     25  H12 UNL     1      22.055  -0.681  -6.311  1.00  0.00     0.174 HD
ATOM     26  H11 UNL     1      22.934  -2.224  -6.067  1.00  0.00     0.174 HD
ENDBRANCH   1  24
TORSDOF 5
ENDMDL
MODEL 4
REMARK VINA RESULT: -5.153208417      2.681      5.698
REMARK  5 active torsions:
REMARK  status: ('A' for Active; 'I' for Inactive)
REMARK    1  A    between atoms: N1_1  and  C1_4 
REMARK    2  A    between atoms: C4_14  and  N5_15 
REMARK    3  A    between atoms: N5_15  and  C5_17 
REMARK    4  A    between atoms: C5_17  and  C6_18 
REMARK    5  A    between atoms: C6_18  and  N6_19 
ROOT
HETATM    1  C1  UNL     1      20.859  -1.141  -3.938  1.00  0.00     0.681 A 
HETATM    2  N2  UNL     1      19.852  -1.368  -3.066  1.00  0.00    -0.141 N 
ATOM      3  H2  UNL     1      18.883  -1.344  -3.382  1.00  0.00     0.189 HD
HETATM    4  C2  UNL     1      20.138  -1.625  -1.780  1.00  0.00     0.350 A 
HETATM    5  O1  UNL     1      19.238  -1.843  -0.931  1.00  0.00    -0.245 OA
HETATM    6  N3  UNL     1      21.438  -1.647  -1.413  1.00  0.00    -0.199 N 
HETATM    7  C3  UNL     1      21.744  -1.907  -0.113  1.00  0.00     0.338 A 
HETATM    8  O2  UNL     1      20.788  -2.112   0.672  1.00  0.00    -0.246 OA
HETATM    9  N4  UNL     1      23.011  -1.946   0.334  1.00  0.00    -0.294 N 
ATOM     10  H4  UNL     1      23.208  -2.144   1.315  1.00  0.00     0.172 HD
HETATM   11  C4  UNL     1      24.016  -1.722  -0.531  1.00  0.00     0.108 A 
HETATM   12  C7  UNL     1      23.766  -1.454  -1.859  1.00  0.00     0.098 A 
HETATM   13  C8  UNL     1      22.447  -1.423  -2.277  1.00  0.00     0.139 A 
HETATM   14  N7  UNL     1      22.145  -1.160  -3.585  1.00  0.00    -0.176 N 
ATOM     15  H7  UNL     1      22.881  -0.985  -4.269  1.00  0.00     0.186 HD
ENDROOT
BRANCH  11  16
HETATM   16  N5  UNL     1      25.240  -1.754  -0.127  1.00  0.00    -0.374 N 
ATOM     17  H5  UNL     1      25.529  -2.415   0.593  1.00  0.00     0.161 HD
BRANCH  16  18
HETATM   18  C5  UNL     1      26.185  -0.853  -0.699  1.00  0.00     0.148 C 
BRANCH  18  19
HETATM   19  C6  UNL     1      26.787   0.098   0.297  1.00  0.00     0.249 C 
BRANCH  19  20
HETATM   20  N6  UNL     1      25.839   0.997   0.874  1.00  0.00    -0.078 N 
ATOM     21  H63 UNL     1      26.082   1.965   0.660  1.00  0.00     0.274 HD
ATOM     22  H62 UNL     1      24.943   0.936   0.391  1.00  0.00     0.274 HD
ATOM     23  H61 UNL     1      25.716   0.871   1.879  1.00  0.00     0.274 HD
ENDBRANCH  19  20
ENDBRANCH  18  19
ENDBRANCH  16  18
ENDBRANCH  11  16
BRANCH   1  24
HETATM   24  N1  UNL     1      20.572  -0.895  -5.170  1.00  0.00    -0.234 N 
ATOM     25  H12 UNL     1      21.342  -0.745  -5.821  1.00  0.00     0.174 HD
ATOM     26  H11 UNL     1      19.592  -0.859  -5.450  1.00  0.00     0.174 HD
ENDBRANCH   1  24
TORSDOF 5
ENDMDL
MODEL 5
REMARK VINA RESULT: -5.120902944      2.385      2.756
REMARK  5 active torsions:
REMARK  status: ('A' for Active; 'I' for Inactive)
REMARK    1  A    between atoms: N1_1  and  C1_4 
REMARK    2  A    between atoms: C4_14  and  N5_15 
REMARK    3  A    between atoms: N5_15  and  C5_17 
REMARK    4  A    between atoms: C5_17  and  C6_18 
REMARK    5  A    between atoms: C6_18  and  N6_19 
ROOT
HETATM    1  C1  UNL     1      23.907  -2.486  -0.226  1.00  0.00     0.681 A 
HETATM    2  N2  UNL     1      22.806  -2.433   0.555  1.00  0.00    -0.141 N 
ATOM      3  H2  UNL     1      22.870  -2.650   1.549  1.00  0.00     0.189 HD
HETATM    4  C2  UNL     1      21.627  -2.093   0.011  1.00  0.00     0.350 A 
HETATM    5  O1  UNL     1      20.575  -2.029   0.694  1.00  0.00    -0.245 OA
HETATM    6  N3  UNL     1      21.597  -1.815  -1.311  1.00  0.00    -0.199 N 
HETATM    7  C3  UNL     1      20.410  -1.467  -1.876  1.00  0.00     0.338 A 
HETATM    8  O2  UNL     1      19.405  -1.428  -1.126  1.00  0.00    -0.246 OA
HETATM    9  N4  UNL     1      20.293  -1.175  -3.184  1.00  0.00    -0.294 N 
ATOM     10  H4  UNL     1      19.388  -0.919  -3.578  1.00  0.00     0.172 HD
HETATM   11  C4  UNL     1      21.387  -1.227  -3.964  1.00  0.00     0.108 A 
HETATM   12  C7  UNL     1      22.616  -1.571  -3.446  1.00  0.00     0.098 A 
HETATM   13  C8  UNL     1      22.691  -1.864  -2.095  1.00  0.00     0.139 A 
HETATM   14  N7  UNL     1      23.887  -2.213  -1.531  1.00  0.00    -0.176 N 
ATOM     15  H7  UNL     1      24.738  -2.263  -2.092  1.00  0.00     0.186 HD
ENDROOT
BRANCH  11  16
HETATM   16  N5  UNL     1      21.301  -0.951  -5.221  1.00  0.00    -0.374 N 
ATOM     17  H5  UNL     1      21.809  -0.158  -5.611  1.00  0.00     0.161 HD
BRANCH  16  18
HETATM   18  C5  UNL     1      20.487  -1.769  -6.058  1.00  0.00     0.148 C 
BRANCH  18  19
HETATM   19  C6  UNL     1      20.135  -1.124  -7.369  1.00  0.00     0.249 C 
BRANCH  19  20
HETATM   20  N6  UNL     1      20.198   0.303  -7.338  1.00  0.00    -0.078 N 
ATOM     21  H63 UNL     1      19.318   0.696  -7.004  1.00  0.00     0.274 HD
ATOM     22  H62 UNL     1      20.820   0.620  -6.595  1.00  0.00     0.274 HD
ATOM     23  H61 UNL     1      20.462   0.718  -8.232  1.00  0.00     0.274 HD
ENDBRANCH  19  20
ENDBRANCH  18  19
ENDBRANCH  16  18
ENDBRANCH  11  16
BRANCH   1  24
HETATM   24  N1  UNL     1      25.034  -2.814   0.307  1.00  0.00    -0.234 N 
ATOM     25  H12 UNL     1      25.383  -2.244   1.077  1.00  0.00     0.174 HD
ATOM     26  H11 UNL     1      25.533  -3.625  -0.055  1.00  0.00     0.174 HD
ENDBRANCH   1  24
TORSDOF 5
ENDMDL
