MODEL 1
REMARK VINA RESULT: -7.506890607      0.000      0.000
REMARK  4 active torsions:
REMARK  status: ('A' for Active; 'I' for Inactive)
REMARK    1  A    between atoms: C4_4  and  N1_5 
REMARK       I    between atoms: N1_5  and  C5_7 
REMARK    2  A    between atoms: C6_11  and  S2_12 
REMARK    3  A    between atoms: S2_12  and  N3_15 
REMARK       I    between atoms: N3_15  and  C7_17 
REMARK    4  A    between atoms: C7_17  and  C8_19 
ROOT
HETATM    1  C8  UNL     1       8.794  -9.048 -26.013  1.00  0.00     0.227 C 
HETATM    2  C9  UNL     1       7.983 -10.024 -26.768  1.00  0.00     0.068 C 
HETATM    3  N4  UNL     1       7.354 -10.779 -27.374  1.00  0.00    -0.197 NA
ENDROOT
BRANCH   1   4
HETATM    4  C7  UNL     1      10.015  -8.703 -26.778  1.00  0.00     0.244 C 
HETATM    5  N3  UNL     1      10.072  -8.987 -28.167  1.00  0.00    -0.249 N 
ATOM      6  H3  UNL     1       9.280  -9.425 -28.638  1.00  0.00     0.182 HD
HETATM    7  O4  UNL     1      10.986  -8.165 -26.196  1.00  0.00    -0.272 OA
BRANCH   5   8
HETATM    8  S2  UNL     1      11.500  -8.582 -29.050  1.00  0.00     0.272 S 
HETATM    9  O2  UNL     1      11.554  -7.098 -29.256  1.00  0.00    -0.200 OA
HETATM   10  O3  UNL     1      11.422  -9.226 -30.389  1.00  0.00    -0.200 OA
BRANCH   8  11
HETATM   11  C6  UNL     1      12.918  -9.099 -28.144  1.00  0.00     0.128 A 
HETATM   12  C2  UNL     1      13.228 -10.340 -27.652  1.00  0.00    -0.029 A 
HETATM   13  C1  UNL     1      12.263 -11.486 -27.876  1.00  0.00     0.050 C 
HETATM   14  C3  UNL     1      14.384 -10.467 -26.991  1.00  0.00     0.046 A 
HETATM   15  C4  UNL     1      15.159  -9.347 -26.863  1.00  0.00     0.079 A 
HETATM   16  S1  UNL     1      14.250  -8.152 -27.669  1.00  0.00    -0.058 SA
BRANCH  15  17
HETATM   17  N1  UNL     1      16.436  -9.223 -26.201  1.00  0.00    -0.305 N 
HETATM   18  C5  UNL     1      17.597  -9.624 -26.906  1.00  0.00     0.333 C 
HETATM   19  N2  UNL     1      18.864  -9.514 -26.283  1.00  0.00    -0.040 NA
HETATM   20  O1  UNL     1      17.504 -10.072 -28.067  1.00  0.00    -0.251 OA
ATOM     21  H1  UNL     1      16.501  -8.856 -25.252  1.00  0.00     0.171 HD
ENDBRANCH  15  17
ENDBRANCH   8  11
ENDBRANCH   5   8
ENDBRANCH   1   4
TORSDOF 4
ENDMDL
MODEL 2
REMARK VINA RESULT: -7.492665291      4.647      5.808
REMARK  4 active torsions:
REMARK  status: ('A' for Active; 'I' for Inactive)
REMARK    1  A    between atoms: C4_4  and  N1_5 
REMARK       I    between atoms: N1_5  and  C5_7 
REMARK    2  A    between atoms: C6_11  and  S2_12 
REMARK    3  A    between atoms: S2_12  and  N3_15 
REMARK       I    between atoms: N3_15  and  C7_17 
REMARK    4  A    between atoms: C7_17  and  C8_19 
ROOT
HETATM    1  C8  UNL     1      15.286  -4.942 -31.260  1.00  0.00     0.227 C 
HETATM    2  C9  UNL     1      15.054  -5.706 -32.502  1.00  0.00     0.068 C 
HETATM    3  N4  UNL     1      14.880  -6.317 -33.466  1.00  0.00    -0.197 NA
ENDROOT
BRANCH   1   4
HETATM    4  C7  UNL     1      15.073  -5.815 -30.081  1.00  0.00     0.244 C 
HETATM    5  N3  UNL     1      14.316  -5.331 -28.983  1.00  0.00    -0.249 N 
ATOM      6  H3  UNL     1      13.921  -4.390 -29.002  1.00  0.00     0.182 HD
HETATM    7  O4  UNL     1      15.560  -6.969 -30.062  1.00  0.00    -0.272 OA
BRANCH   5   8
HETATM    8  S2  UNL     1      14.073  -6.355 -27.614  1.00  0.00     0.272 S 
HETATM    9  O2  UNL     1      13.124  -7.458 -27.979  1.00  0.00    -0.200 OA
HETATM   10  O3  UNL     1      13.443  -5.551 -26.532  1.00  0.00    -0.200 OA
BRANCH   8  11
HETATM   11  C6  UNL     1      15.613  -7.048 -27.117  1.00  0.00     0.128 A 
HETATM   12  C2  UNL     1      16.763  -6.415 -26.724  1.00  0.00    -0.029 A 
HETATM   13  C1  UNL     1      16.796  -4.901 -26.684  1.00  0.00     0.050 C 
HETATM   14  C3  UNL     1      17.806  -7.185 -26.392  1.00  0.00     0.046 A 
HETATM   15  C4  UNL     1      17.635  -8.540 -26.475  1.00  0.00     0.079 A 
HETATM   16  S1  UNL     1      16.025  -8.697 -27.011  1.00  0.00    -0.058 SA
BRANCH  15  17
HETATM   17  N1  UNL     1      18.597  -9.575 -26.176  1.00  0.00    -0.305 N 
HETATM   18  C5  UNL     1      18.751  -9.976 -24.826  1.00  0.00     0.333 C 
HETATM   19  N2  UNL     1      19.686 -10.988 -24.502  1.00  0.00    -0.040 NA
HETATM   20  O1  UNL     1      18.067  -9.441 -23.929  1.00  0.00    -0.251 OA
ATOM     21  H1  UNL     1      19.150 -10.005 -26.916  1.00  0.00     0.171 HD
ENDBRANCH  15  17
ENDBRANCH   8  11
ENDBRANCH   5   8
ENDBRANCH   1   4
TORSDOF 4
ENDMDL
MODEL 3
REMARK VINA RESULT: -7.370839305      2.796      3.859
REMARK  4 active torsions:
REMARK  status: ('A' for Active; 'I' for Inactive)
REMARK    1  A    between atoms: C4_4  and  N1_5 
REMARK       I    between atoms: N1_5  and  C5_7 
REMARK    2  A    between atoms: C6_11  and  S2_12 
REMARK    3  A    between atoms: S2_12  and  N3_15 
REMARK       I    between atoms: N3_15  and  C7_17 
REMARK    4  A    between atoms: C7_17  and  C8_19 
ROOT
HETATM    1  C8  UNL     1      11.334  -9.742 -27.338  1.00  0.00     0.227 C 
HETATM    2  C9  UNL     1      11.898 -10.531 -28.452  1.00  0.00     0.068 C 
HETATM    3  N4  UNL     1      12.343 -11.132 -29.331  1.00  0.00    -0.197 NA
ENDROOT
BRANCH   1   4
HETATM    4  C7  UNL     1      12.217  -8.591 -27.034  1.00  0.00     0.244 C 
HETATM    5  N3  UNL     1      12.913  -7.948 -28.090  1.00  0.00    -0.249 N 
ATOM      6  H3  UNL     1      12.808  -8.273 -29.051  1.00  0.00     0.182 HD
HETATM    7  O4  UNL     1      12.342  -8.195 -25.852  1.00  0.00    -0.272 OA
BRANCH   5   8
HETATM    8  S2  UNL     1      13.939  -6.607 -27.726  1.00  0.00     0.272 S 
HETATM    9  O2  UNL     1      13.331  -5.802 -26.616  1.00  0.00    -0.200 OA
HETATM   10  O3  UNL     1      14.019  -5.737 -28.930  1.00  0.00    -0.200 OA
BRANCH   8  11
HETATM   11  C6  UNL     1      15.520  -7.196 -27.224  1.00  0.00     0.128 A 
HETATM   12  C2  UNL     1      16.642  -6.486 -26.885  1.00  0.00    -0.029 A 
HETATM   13  C1  UNL     1      16.598  -4.972 -26.920  1.00  0.00     0.050 C 
HETATM   14  C3  UNL     1      17.728  -7.185 -26.535  1.00  0.00     0.046 A 
HETATM   15  C4  UNL     1      17.627  -8.549 -26.547  1.00  0.00     0.079 A 
HETATM   16  S1  UNL     1      16.018  -8.814 -27.044  1.00  0.00    -0.058 SA
BRANCH  15  17
HETATM   17  N1  UNL     1      18.645  -9.518 -26.216  1.00  0.00    -0.305 N 
HETATM   18  C5  UNL     1      18.715  -9.986 -24.881  1.00  0.00     0.333 C 
HETATM   19  N2  UNL     1      19.703 -10.936 -24.526  1.00  0.00    -0.040 NA
HETATM   20  O1  UNL     1      17.911  -9.564 -24.024  1.00  0.00    -0.251 OA
ATOM     21  H1  UNL     1      19.296  -9.856 -26.924  1.00  0.00     0.171 HD
ENDBRANCH  15  17
ENDBRANCH   8  11
ENDBRANCH   5   8
ENDBRANCH   1   4
TORSDOF 4
ENDMDL
MODEL 4
REMARK VINA RESULT: -7.356134499      2.863      6.513
REMARK  4 active torsions:
REMARK  status: ('A' for Active; 'I' for Inactive)
REMARK    1  A    between atoms: C4_4  and  N1_5 
REMARK       I    between atoms: N1_5  and  C5_7 
REMARK    2  A    between atoms: C6_11  and  S2_12 
REMARK    3  A    between atoms: S2_12  and  N3_15 
REMARK       I    between atoms: N3_15  and  C7_17 
REMARK    4  A    between atoms: C7_17  and  C8_19 
ROOT
HETATM    1  C8  UNL     1      17.274  -7.985 -25.511  1.00  0.00     0.227 C 
HETATM    2  C9  UNL     1      17.761  -9.099 -26.349  1.00  0.00     0.068 C 
HETATM    3  N4  UNL     1      18.125  -9.977 -27.004  1.00  0.00    -0.197 NA
ENDROOT
BRANCH   1   4
HETATM    4  C7  UNL     1      15.896  -7.614 -25.911  1.00  0.00     0.244 C 
HETATM    5  N3  UNL     1      15.190  -8.437 -26.826  1.00  0.00    -0.249 N 
ATOM      6  H3  UNL     1      15.625  -9.278 -27.207  1.00  0.00     0.182 HD
HETATM    7  O4  UNL     1      15.366  -6.580 -25.442  1.00  0.00    -0.272 OA
BRANCH   5   8
HETATM    8  S2  UNL     1      13.585  -7.996 -27.287  1.00  0.00     0.272 S 
HETATM    9  O2  UNL     1      13.635  -6.794 -28.182  1.00  0.00    -0.200 OA
HETATM   10  O3  UNL     1      12.832  -7.620 -26.060  1.00  0.00    -0.200 OA
BRANCH   8  11
HETATM   11  C6  UNL     1      12.830  -9.335 -28.146  1.00  0.00     0.128 A 
HETATM   12  C2  UNL     1      12.518  -9.446 -29.475  1.00  0.00    -0.029 A 
HETATM   13  C1  UNL     1      12.834  -8.295 -30.408  1.00  0.00     0.050 C 
HETATM   14  C3  UNL     1      11.942 -10.584 -29.878  1.00  0.00     0.046 A 
HETATM   15  C4  UNL     1      11.714 -11.541 -28.926  1.00  0.00     0.079 A 
HETATM   16  S1  UNL     1      12.311 -10.823 -27.501  1.00  0.00    -0.058 SA
BRANCH  15  17
HETATM   17  N1  UNL     1      11.112 -12.842 -29.103  1.00  0.00    -0.305 N 
HETATM   18  C5  UNL     1       9.720 -12.972 -28.876  1.00  0.00     0.333 C 
HETATM   19  N2  UNL     1       9.101 -14.235 -29.041  1.00  0.00    -0.040 NA
HETATM   20  O1  UNL     1       9.043 -11.980 -28.534  1.00  0.00    -0.251 OA
ATOM     21  H1  UNL     1      11.674 -13.646 -29.382  1.00  0.00     0.171 HD
ENDBRANCH  15  17
ENDBRANCH   8  11
ENDBRANCH   5   8
ENDBRANCH   1   4
TORSDOF 4
ENDMDL
MODEL 5
REMARK VINA RESULT: -7.328050974      2.803      3.314
REMARK  4 active torsions:
REMARK  status: ('A' for Active; 'I' for Inactive)
REMARK    1  A    between atoms: C4_4  and  N1_5 
REMARK       I    between atoms: N1_5  and  C5_7 
REMARK    2  A    between atoms: C6_11  and  S2_12 
REMARK    3  A    between atoms: S2_12  and  N3_15 
REMARK       I    between atoms: N3_15  and  C7_17 
REMARK    4  A    between atoms: C7_17  and  C8_19 
ROOT
HETATM    1  C8  UNL     1       7.105  -9.202 -26.248  1.00  0.00     0.227 C 
HETATM    2  C9  UNL     1       6.534 -10.404 -25.607  1.00  0.00     0.068 C 
HETATM    3  N4  UNL     1       6.088 -11.351 -25.123  1.00  0.00    -0.197 NA
ENDROOT
BRANCH   1   4
HETATM    4  C7  UNL     1       8.076  -9.597 -27.294  1.00  0.00     0.244 C 
HETATM    5  N3  UNL     1       8.546 -10.935 -27.340  1.00  0.00    -0.249 N 
ATOM      6  H3  UNL     1       8.220 -11.621 -26.659  1.00  0.00     0.182 HD
HETATM    7  O4  UNL     1       8.474  -8.751 -28.129  1.00  0.00    -0.272 OA
BRANCH   5   8
HETATM    8  S2  UNL     1       9.678 -11.386 -28.564  1.00  0.00     0.272 S 
HETATM    9  O2  UNL     1       9.115 -11.051 -29.912  1.00  0.00    -0.200 OA
HETATM   10  O3  UNL     1       9.871 -12.861 -28.503  1.00  0.00    -0.200 OA
BRANCH   8  11
HETATM   11  C6  UNL     1      11.185 -10.508 -28.324  1.00  0.00     0.128 A 
HETATM   12  C2  UNL     1      12.151 -10.178 -29.238  1.00  0.00    -0.029 A 
HETATM   13  C1  UNL     1      11.972 -10.591 -30.685  1.00  0.00     0.050 C 
HETATM   14  C3  UNL     1      13.213  -9.498 -28.791  1.00  0.00     0.046 A 
HETATM   15  C4  UNL     1      13.244  -9.190 -27.458  1.00  0.00     0.079 A 
HETATM   16  S1  UNL     1      11.790  -9.859 -26.871  1.00  0.00    -0.058 SA
BRANCH  15  17
HETATM   17  N1  UNL     1      14.268  -8.472 -26.737  1.00  0.00    -0.305 N 
HETATM   18  C5  UNL     1      14.051  -7.101 -26.454  1.00  0.00     0.333 C 
HETATM   19  N2  UNL     1      15.037  -6.370 -25.748  1.00  0.00    -0.040 NA
HETATM   20  O1  UNL     1      12.999  -6.542 -26.824  1.00  0.00    -0.251 OA
ATOM     21  H1  UNL     1      15.124  -8.939 -26.439  1.00  0.00     0.171 HD
ENDBRANCH  15  17
ENDBRANCH   8  11
ENDBRANCH   5   8
ENDBRANCH   1   4
TORSDOF 4
ENDMDL
