MODEL 1
REMARK VINA RESULT: -7.376272154      0.000      0.000
REMARK  7 active torsions:
REMARK  status: ('A' for Active; 'I' for Inactive)
REMARK    1  A    between atoms: C6_8  and  O3_9 
REMARK    2  A    between atoms: C7_11  and  C8_12 
REMARK    3  A    between atoms: C8_12  and  O4_13 
REMARK    4  A    between atoms: C13_20  and  O6_21 
REMARK    5  A    between atoms: O6_21  and  C14_22 
REMARK    6  A    between atoms: C14_22  and  C15_23 
REMARK    7  A    between atoms: C15_23  and  O7_24 
ROOT
HETATM    1  C1  UNL     1       8.944  -5.063 -30.390  1.00  0.00     0.078 C 
HETATM    2  C2  UNL     1       8.966  -6.509 -30.828  1.00  0.00     0.158 C 
HETATM    3  C3  UNL     1       8.268  -6.658 -32.153  1.00  0.00     0.078 C 
HETATM    4  O1  UNL     1       8.392  -7.346 -29.871  1.00  0.00    -0.345 OA
HETATM    5  C4  UNL     1       9.421  -7.908 -29.171  1.00  0.00     0.188 C 
HETATM    6  C5  UNL     1      10.445  -8.076 -30.309  1.00  0.00     0.186 C 
HETATM    7  O2  UNL     1      10.329  -6.868 -30.920  1.00  0.00    -0.345 OA
HETATM    8  C6  UNL     1      11.729  -8.369 -29.621  1.00  0.00     0.166 C 
HETATM    9  C7  UNL     1      11.613  -9.782 -29.088  1.00  0.00     0.068 C 
HETATM   10  C9  UNL     1      10.386 -10.064 -28.335  1.00  0.00     0.170 C 
HETATM   11  O5  UNL     1      10.972  -9.605 -27.151  1.00  0.00    -0.371 OA
HETATM   12  C10 UNL     1      12.212  -9.924 -27.715  1.00  0.00     0.069 C 
HETATM   13  C11 UNL     1      13.295  -8.940 -27.381  1.00  0.00     0.047 C 
HETATM   14  C12 UNL     1      12.588 -11.334 -27.315  1.00  0.00     0.047 C 
HETATM   15  C13 UNL     1       9.169  -9.299 -28.660  1.00  0.00     0.183 C 
ENDROOT
BRANCH  15  16
HETATM   16  O6  UNL     1       8.396  -9.174 -27.507  1.00  0.00    -0.379 OA
BRANCH  16  17
HETATM   17  C14 UNL     1       7.812 -10.349 -27.110  1.00  0.00     0.194 C 
BRANCH  17  18
HETATM   18  C15 UNL     1       6.862 -10.230 -25.962  1.00  0.00     0.190 C 
BRANCH  18  19
HETATM   19  O7  UNL     1       5.837 -11.170 -26.047  1.00  0.00    -0.399 OA
ATOM     20  H7  UNL     1       5.924 -11.842 -25.381  1.00  0.00     0.209 HD
ENDBRANCH  18  19
ENDBRANCH  17  18
ENDBRANCH  16  17
ENDBRANCH  15  16
BRANCH   9  21
HETATM   21  C8  UNL     1      12.024 -10.851 -30.073  1.00  0.00     0.182 C 
BRANCH  21  22
HETATM   22  O4  UNL     1      10.947 -11.490 -30.662  1.00  0.00    -0.400 OA
ATOM     23  H4  UNL     1      10.619 -11.036 -31.430  1.00  0.00     0.209 HD
ENDBRANCH  21  22
ENDBRANCH   9  21
BRANCH   8  24
HETATM   24  O3  UNL     1      12.850  -8.179 -30.381  1.00  0.00    -0.392 OA
ATOM     25  H3  UNL     1      13.261  -8.974 -30.697  1.00  0.00     0.210 HD
ENDBRANCH   8  24
TORSDOF 7
ENDMDL
MODEL 2
REMARK VINA RESULT: -7.322082674      3.736      7.208
REMARK  7 active torsions:
REMARK  status: ('A' for Active; 'I' for Inactive)
REMARK    1  A    between atoms: C6_8  and  O3_9 
REMARK    2  A    between atoms: C7_11  and  C8_12 
REMARK    3  A    between atoms: C8_12  and  O4_13 
REMARK    4  A    between atoms: C13_20  and  O6_21 
REMARK    5  A    between atoms: O6_21  and  C14_22 
REMARK    6  A    between atoms: C14_22  and  C15_23 
REMARK    7  A    between atoms: C15_23  and  O7_24 
ROOT
HETATM    1  C1  UNL     1      17.368 -10.244 -24.942  1.00  0.00     0.078 C 
HETATM    2  C2  UNL     1      17.083  -9.616 -26.286  1.00  0.00     0.158 C 
HETATM    3  C3  UNL     1      18.310  -9.677 -27.155  1.00  0.00     0.078 C 
HETATM    4  O1  UNL     1      16.634  -8.302 -26.156  1.00  0.00    -0.345 OA
HETATM    5  C4  UNL     1      15.275  -8.336 -26.277  1.00  0.00     0.188 C 
HETATM    6  C5  UNL     1      15.138  -9.447 -27.334  1.00  0.00     0.186 C 
HETATM    7  O2  UNL     1      16.018 -10.357 -26.845  1.00  0.00    -0.345 OA
HETATM    8  C6  UNL     1      13.698  -9.813 -27.313  1.00  0.00     0.166 C 
HETATM    9  C7  UNL     1      12.956  -8.663 -27.962  1.00  0.00     0.068 C 
HETATM   10  C9  UNL     1      13.302  -7.333 -27.452  1.00  0.00     0.170 C 
HETATM   11  O5  UNL     1      12.351  -7.443 -26.433  1.00  0.00    -0.371 OA
HETATM   12  C10 UNL     1      11.667  -8.344 -27.256  1.00  0.00     0.069 C 
HETATM   13  C11 UNL     1      11.044  -9.487 -26.508  1.00  0.00     0.047 C 
HETATM   14  C12 UNL     1      10.648  -7.586 -28.078  1.00  0.00     0.047 C 
HETATM   15  C13 UNL     1      14.653  -7.118 -26.902  1.00  0.00     0.183 C 
ENDROOT
BRANCH  15  16
HETATM   16  O6  UNL     1      14.583  -6.143 -25.909  1.00  0.00    -0.379 OA
BRANCH  16  17
HETATM   17  C14 UNL     1      15.500  -5.137 -26.064  1.00  0.00     0.194 C 
BRANCH  17  18
HETATM   18  C15 UNL     1      16.349  -4.859 -24.865  1.00  0.00     0.190 C 
BRANCH  18  19
HETATM   19  O7  UNL     1      17.307  -5.853 -24.676  1.00  0.00    -0.399 OA
ATOM     20  H7  UNL     1      18.107  -5.500 -24.304  1.00  0.00     0.209 HD
ENDBRANCH  18  19
ENDBRANCH  17  18
ENDBRANCH  16  17
ENDBRANCH  15  16
BRANCH   9  21
HETATM   21  C8  UNL     1      12.846  -8.768 -29.465  1.00  0.00     0.182 C 
BRANCH  21  22
HETATM   22  O4  UNL     1      13.494  -7.741 -30.130  1.00  0.00    -0.400 OA
ATOM     23  H4  UNL     1      13.841  -8.004 -30.975  1.00  0.00     0.209 HD
ENDBRANCH  21  22
ENDBRANCH   9  21
BRANCH   8  24
HETATM   24  O3  UNL     1      13.399 -11.023 -27.876  1.00  0.00    -0.392 OA
ATOM     25  H3  UNL     1      12.735 -11.525 -27.421  1.00  0.00     0.210 HD
ENDBRANCH   8  24
TORSDOF 7
ENDMDL
MODEL 3
REMARK VINA RESULT: -7.016883566      1.560      4.434
REMARK  7 active torsions:
REMARK  status: ('A' for Active; 'I' for Inactive)
REMARK    1  A    between atoms: C6_8  and  O3_9 
REMARK    2  A    between atoms: C7_11  and  C8_12 
REMARK    3  A    between atoms: C8_12  and  O4_13 
REMARK    4  A    between atoms: C13_20  and  O6_21 
REMARK    5  A    between atoms: O6_21  and  C14_22 
REMARK    6  A    between atoms: C14_22  and  C15_23 
REMARK    7  A    between atoms: C15_23  and  O7_24 
ROOT
HETATM    1  C1  UNL     1      10.003 -12.275 -29.581  1.00  0.00     0.078 C 
HETATM    2  C2  UNL     1      10.590 -11.246 -28.642  1.00  0.00     0.158 C 
HETATM    3  C3  UNL     1      11.636 -11.882 -27.768  1.00  0.00     0.078 C 
HETATM    4  O1  UNL     1       9.604 -10.634 -27.867  1.00  0.00    -0.345 OA
HETATM    5  C4  UNL     1       9.332  -9.431 -28.453  1.00  0.00     0.188 C 
HETATM    6  C5  UNL     1      10.745  -9.055 -28.935  1.00  0.00     0.186 C 
HETATM    7  O2  UNL     1      11.145 -10.240 -29.464  1.00  0.00    -0.345 OA
HETATM    8  C6  UNL     1      10.534  -7.926 -29.879  1.00  0.00     0.166 C 
HETATM    9  C7  UNL     1      10.158  -6.728 -29.032  1.00  0.00     0.068 C 
HETATM   10  C9  UNL     1       9.097  -6.970 -28.050  1.00  0.00     0.170 C 
HETATM   11  O5  UNL     1       8.111  -6.678 -28.999  1.00  0.00    -0.371 OA
HETATM   12  C10 UNL     1       9.069  -5.903 -29.662  1.00  0.00     0.069 C 
HETATM   13  C11 UNL     1       8.981  -5.990 -31.158  1.00  0.00     0.047 C 
HETATM   14  C12 UNL     1       8.973  -4.475 -29.173  1.00  0.00     0.047 C 
HETATM   15  C13 UNL     1       8.932  -8.331 -27.509  1.00  0.00     0.183 C 
ENDROOT
BRANCH  15  16
HETATM   16  O6  UNL     1       7.588  -8.531 -27.199  1.00  0.00    -0.379 OA
BRANCH  16  17
HETATM   17  C14 UNL     1       7.375  -8.870 -25.888  1.00  0.00     0.194 C 
BRANCH  17  18
HETATM   18  C15 UNL     1       6.857 -10.255 -25.666  1.00  0.00     0.190 C 
BRANCH  18  19
HETATM   19  O7  UNL     1       6.609 -10.908 -26.871  1.00  0.00    -0.399 OA
ATOM     20  H7  UNL     1       7.143 -11.689 -26.962  1.00  0.00     0.209 HD
ENDBRANCH  18  19
ENDBRANCH  17  18
ENDBRANCH  16  17
ENDBRANCH  15  16
BRANCH   9  21
HETATM   21  C8  UNL     1      11.339  -5.935 -28.523  1.00  0.00     0.182 C 
BRANCH  21  22
HETATM   22  O4  UNL     1      11.857  -6.433 -27.339  1.00  0.00    -0.400 OA
ATOM     23  H4  UNL     1      12.374  -7.221 -27.461  1.00  0.00     0.209 HD
ENDBRANCH  21  22
ENDBRANCH   9  21
BRANCH   8  24
HETATM   24  O3  UNL     1      11.580  -7.673 -30.722  1.00  0.00    -0.392 OA
ATOM     25  H3  UNL     1      11.840  -6.761 -30.778  1.00  0.00     0.210 HD
ENDBRANCH   8  24
TORSDOF 7
ENDMDL
MODEL 4
REMARK VINA RESULT: -6.937642244      3.425      6.751
REMARK  7 active torsions:
REMARK  status: ('A' for Active; 'I' for Inactive)
REMARK    1  A    between atoms: C6_8  and  O3_9 
REMARK    2  A    between atoms: C7_11  and  C8_12 
REMARK    3  A    between atoms: C8_12  and  O4_13 
REMARK    4  A    between atoms: C13_20  and  O6_21 
REMARK    5  A    between atoms: O6_21  and  C14_22 
REMARK    6  A    between atoms: C14_22  and  C15_23 
REMARK    7  A    between atoms: C15_23  and  O7_24 
ROOT
HETATM    1  C1  UNL     1      17.275 -10.105 -24.997  1.00  0.00     0.078 C 
HETATM    2  C2  UNL     1      16.968  -9.581 -26.381  1.00  0.00     0.158 C 
HETATM    3  C3  UNL     1      18.179  -9.715 -27.264  1.00  0.00     0.078 C 
HETATM    4  O1  UNL     1      16.527  -8.258 -26.345  1.00  0.00    -0.345 OA
HETATM    5  C4  UNL     1      15.165  -8.294 -26.439  1.00  0.00     0.188 C 
HETATM    6  C5  UNL     1      15.005  -9.482 -27.405  1.00  0.00     0.186 C 
HETATM    7  O2  UNL     1      15.891 -10.358 -26.862  1.00  0.00    -0.345 OA
HETATM    8  C6  UNL     1      13.564  -9.839 -27.329  1.00  0.00     0.166 C 
HETATM    9  C7  UNL     1      12.816  -8.738 -28.053  1.00  0.00     0.068 C 
HETATM   10  C9  UNL     1      13.176  -7.374 -27.653  1.00  0.00     0.170 C 
HETATM   11  O5  UNL     1      12.242  -7.401 -26.611  1.00  0.00    -0.371 OA
HETATM   12  C10 UNL     1      11.540  -8.359 -27.350  1.00  0.00     0.069 C 
HETATM   13  C11 UNL     1      10.926  -9.438 -26.505  1.00  0.00     0.047 C 
HETATM   14  C12 UNL     1      10.510  -7.661 -28.210  1.00  0.00     0.047 C 
HETATM   15  C13 UNL     1      14.537  -7.125 -27.145  1.00  0.00     0.183 C 
ENDROOT
BRANCH  15  16
HETATM   16  O6  UNL     1      14.489  -6.076 -26.229  1.00  0.00    -0.379 OA
BRANCH  16  17
HETATM   17  C14 UNL     1      14.684  -4.844 -26.798  1.00  0.00     0.194 C 
BRANCH  17  18
HETATM   18  C15 UNL     1      13.668  -3.808 -26.437  1.00  0.00     0.190 C 
BRANCH  18  19
HETATM   19  O7  UNL     1      12.373  -4.249 -26.701  1.00  0.00    -0.399 OA
ATOM     20  H7  UNL     1      11.802  -4.122 -25.952  1.00  0.00     0.209 HD
ENDBRANCH  18  19
ENDBRANCH  17  18
ENDBRANCH  16  17
ENDBRANCH  15  16
BRANCH   9  21
HETATM   21  C8  UNL     1      12.678  -8.958 -29.541  1.00  0.00     0.182 C 
BRANCH  21  22
HETATM   22  O4  UNL     1      13.239  -7.942 -30.294  1.00  0.00    -0.400 OA
ATOM     23  H4  UNL     1      12.864  -7.872 -31.165  1.00  0.00     0.209 HD
ENDBRANCH  21  22
ENDBRANCH   9  21
BRANCH   8  24
HETATM   24  O3  UNL     1      13.251 -11.086 -27.792  1.00  0.00    -0.392 OA
ATOM     25  H3  UNL     1      13.527 -11.803 -27.234  1.00  0.00     0.210 HD
ENDBRANCH   8  24
TORSDOF 7
ENDMDL
MODEL 5
REMARK VINA RESULT: -6.831511513      1.576      4.667
REMARK  7 active torsions:
REMARK  status: ('A' for Active; 'I' for Inactive)
REMARK    1  A    between atoms: C6_8  and  O3_9 
REMARK    2  A    between atoms: C7_11  and  C8_12 
REMARK    3  A    between atoms: C8_12  and  O4_13 
REMARK    4  A    between atoms: C13_20  and  O6_21 
REMARK    5  A    between atoms: O6_21  and  C14_22 
REMARK    6  A    between atoms: C14_22  and  C15_23 
REMARK    7  A    between atoms: C15_23  and  O7_24 
ROOT
HETATM    1  C1  UNL     1       8.699  -6.762 -32.206  1.00  0.00     0.078 C 
HETATM    2  C2  UNL     1       9.201  -6.526 -30.800  1.00  0.00     0.158 C 
HETATM    3  C3  UNL     1       8.773  -5.167 -30.320  1.00  0.00     0.078 C 
HETATM    4  O1  UNL     1      10.587  -6.665 -30.719  1.00  0.00    -0.345 OA
HETATM    5  C4  UNL     1      10.829  -7.913 -30.220  1.00  0.00     0.188 C 
HETATM    6  C5  UNL     1       9.651  -8.031 -29.236  1.00  0.00     0.186 C 
HETATM    7  O2  UNL     1       8.641  -7.553 -30.009  1.00  0.00    -0.345 OA
HETATM    8  C6  UNL     1       9.605  -9.471 -28.872  1.00  0.00     0.166 C 
HETATM    9  C7  UNL     1      10.797  -9.719 -27.971  1.00  0.00     0.068 C 
HETATM   10  C9  UNL     1      12.076  -9.210 -28.477  1.00  0.00     0.170 C 
HETATM   11  O5  UNL     1      12.298 -10.393 -29.190  1.00  0.00    -0.371 OA
HETATM   12  C10 UNL     1      11.469 -11.033 -28.263  1.00  0.00     0.069 C 
HETATM   13  C11 UNL     1      10.587 -12.085 -28.871  1.00  0.00     0.047 C 
HETATM   14  C12 UNL     1      12.319 -11.589 -27.142  1.00  0.00     0.047 C 
HETATM   15  C13 UNL     1      12.064  -8.040 -29.373  1.00  0.00     0.183 C 
ENDROOT
BRANCH  15  16
HETATM   16  O6  UNL     1      13.148  -8.132 -30.244  1.00  0.00    -0.379 OA
BRANCH  16  17
HETATM   17  C14 UNL     1      14.051  -7.111 -30.103  1.00  0.00     0.194 C 
BRANCH  17  18
HETATM   18  C15 UNL     1      14.354  -6.352 -31.355  1.00  0.00     0.190 C 
BRANCH  18  19
HETATM   19  O7  UNL     1      14.854  -7.187 -32.352  1.00  0.00    -0.399 OA
ATOM     20  H7  UNL     1      14.261  -7.907 -32.534  1.00  0.00     0.209 HD
ENDBRANCH  18  19
ENDBRANCH  17  18
ENDBRANCH  16  17
ENDBRANCH  15  16
BRANCH   9  21
HETATM   21  C8  UNL     1      10.532  -9.454 -26.507  1.00  0.00     0.182 C 
BRANCH  21  22
HETATM   22  O4  UNL     1      11.335  -8.456 -25.982  1.00  0.00    -0.400 OA
ATOM     23  H4  UNL     1      11.296  -8.407 -25.034  1.00  0.00     0.209 HD
ENDBRANCH  21  22
ENDBRANCH   9  21
BRANCH   8  24
HETATM   24  O3  UNL     1       8.427  -9.892 -28.321  1.00  0.00    -0.392 OA
ATOM     25  H3  UNL     1       7.792 -10.230 -28.941  1.00  0.00     0.210 HD
ENDBRANCH   8  24
TORSDOF 7
ENDMDL
