MODEL 1
REMARK VINA RESULT: -8.150322238      0.000      0.000
REMARK  6 active torsions:
REMARK  status: ('A' for Active; 'I' for Inactive)
REMARK    1  A    between atoms: O1_2  and  C2_3 
REMARK    2  A    between atoms: C4_5  and  C5_6 
REMARK    3  A    between atoms: N1_7  and  N2_9 
REMARK       I    between atoms: N2_9  and  C6_11 
REMARK    4  A    between atoms: C6_11  and  C7_13 
REMARK       I    between atoms: C7_13  and  N3_15 
REMARK       I    between atoms: N3_15  and  C8_17 
REMARK    5  A    between atoms: C11_21  and  O5_22 
REMARK    6  A    between atoms: C13_24  and  O6_25 
ROOT
HETATM    1  C5  UNL     1      11.436  -8.528 -26.437  1.00  0.00     0.118 C 
HETATM    2  N1  UNL     1      12.410  -8.809 -27.254  1.00  0.00    -0.308 N 
ATOM      3  H1  UNL     1      12.229  -9.462 -28.015  1.00  0.00     0.186 HD
ENDROOT
BRANCH   1   4
HETATM    4  C4  UNL     1      10.113  -9.123 -26.593  1.00  0.00    -0.014 A 
HETATM    5  C3  UNL     1       9.025  -8.701 -25.861  1.00  0.00     0.052 A 
HETATM    6  C2  UNL     1       7.789  -9.316 -26.061  1.00  0.00     0.104 A 
HETATM    7  C13 UNL     1       7.608 -10.335 -26.970  1.00  0.00     0.133 A 
HETATM    8  C11 UNL     1       8.704 -10.748 -27.697  1.00  0.00     0.104 A 
HETATM    9  C10 UNL     1       9.935 -10.132 -27.493  1.00  0.00     0.052 A 
BRANCH   6  10
HETATM   10  O1  UNL     1       6.692  -8.907 -25.338  1.00  0.00    -0.353 OA
HETATM   11  C1  UNL     1       6.044  -7.665 -25.538  1.00  0.00     0.210 C 
ENDBRANCH   6  10
BRANCH   7  12
HETATM   12  O6  UNL     1       6.350 -10.938 -27.153  1.00  0.00    -0.356 OA
ATOM     13  H6  UNL     1       6.270 -11.853 -27.394  1.00  0.00     0.218 HD
ENDBRANCH   7  12
BRANCH   8  14
HETATM   14  O5  UNL     1       8.539 -11.771 -28.613  1.00  0.00    -0.353 OA
HETATM   15  C12 UNL     1       9.680 -12.431 -29.133  1.00  0.00     0.210 C 
ENDBRANCH   8  14
ENDBRANCH   1   4
BRANCH   2  16
HETATM   16  N2  UNL     1      13.671  -8.270 -27.142  1.00  0.00    -0.262 N 
HETATM   17  C6  UNL     1      14.838  -9.101 -27.051  1.00  0.00     0.328 C 
HETATM   18  O2  UNL     1      14.734 -10.348 -27.070  1.00  0.00    -0.261 OA
ATOM     19  H2  UNL     1      13.780  -7.256 -27.124  1.00  0.00     0.190 HD
BRANCH  17  20
HETATM   20  C7  UNL     1      16.156  -8.507 -26.934  1.00  0.00     0.317 C 
HETATM   21  O3  UNL     1      16.405  -7.468 -27.562  1.00  0.00    -0.262 OA
HETATM   22  N3  UNL     1      17.130  -9.119 -26.110  1.00  0.00    -0.290 N 
HETATM   23  C8  UNL     1      18.432  -8.603 -25.945  1.00  0.00     0.220 C 
ATOM     24  H3  UNL     1      16.879  -9.973 -25.612  1.00  0.00     0.172 HD
HETATM   25  C9  UNL     1      18.900  -7.367 -26.622  1.00  0.00     0.117 C 
HETATM   26  O4  UNL     1      19.238  -9.203 -25.198  1.00  0.00    -0.274 OA
ENDBRANCH  17  20
ENDBRANCH   2  16
TORSDOF 6
ENDMDL
MODEL 2
REMARK VINA RESULT: -8.046131755      0.989      2.983
REMARK  6 active torsions:
REMARK  status: ('A' for Active; 'I' for Inactive)
REMARK    1  A    between atoms: O1_2  and  C2_3 
REMARK    2  A    between atoms: C4_5  and  C5_6 
REMARK    3  A    between atoms: N1_7  and  N2_9 
REMARK       I    between atoms: N2_9  and  C6_11 
REMARK    4  A    between atoms: C6_11  and  C7_13 
REMARK       I    between atoms: C7_13  and  N3_15 
REMARK       I    between atoms: N3_15  and  C8_17 
REMARK    5  A    between atoms: C11_21  and  O5_22 
REMARK    6  A    between atoms: C13_24  and  O6_25 
ROOT
HETATM    1  C5  UNL     1      11.521  -8.476 -26.602  1.00  0.00     0.118 C 
HETATM    2  N1  UNL     1      12.581  -8.876 -27.242  1.00  0.00    -0.308 N 
ATOM      3  H1  UNL     1      12.494  -9.676 -27.869  1.00  0.00     0.186 HD
ENDROOT
BRANCH   1   4
HETATM    4  C4  UNL     1      10.233  -9.142 -26.766  1.00  0.00    -0.014 A 
HETATM    5  C3  UNL     1      10.048 -10.180 -27.653  1.00  0.00     0.052 A 
HETATM    6  C2  UNL     1       8.789 -10.770 -27.758  1.00  0.00     0.104 A 
HETATM    7  C13 UNL     1       7.712 -10.357 -27.005  1.00  0.00     0.133 A 
HETATM    8  C11 UNL     1       7.909  -9.318 -26.120  1.00  0.00     0.104 A 
HETATM    9  C10 UNL     1       9.168  -8.732 -26.020  1.00  0.00     0.052 A 
BRANCH   6  10
HETATM   10  O1  UNL     1       8.587 -11.807 -28.640  1.00  0.00    -0.353 OA
HETATM   11  C1  UNL     1       9.635 -12.608 -29.155  1.00  0.00     0.210 C 
ENDBRANCH   6  10
BRANCH   7  12
HETATM   12  O6  UNL     1       6.452 -10.971 -27.130  1.00  0.00    -0.356 OA
ATOM     13  H6  UNL     1       5.676 -10.592 -26.735  1.00  0.00     0.218 HD
ENDBRANCH   7  12
BRANCH   8  14
HETATM   14  O5  UNL     1       6.838  -8.892 -25.357  1.00  0.00    -0.353 OA
HETATM   15  C12 UNL     1       6.169  -7.691 -25.705  1.00  0.00     0.210 C 
ENDBRANCH   8  14
ENDBRANCH   1   4
BRANCH   2  16
HETATM   16  N2  UNL     1      13.813  -8.277 -27.116  1.00  0.00    -0.262 N 
HETATM   17  C6  UNL     1      15.017  -9.050 -27.000  1.00  0.00     0.328 C 
HETATM   18  O2  UNL     1      14.974 -10.300 -27.011  1.00  0.00    -0.261 OA
ATOM     19  H2  UNL     1      13.873  -7.258 -27.104  1.00  0.00     0.190 HD
BRANCH  17  20
HETATM   20  C7  UNL     1      16.303  -8.391 -26.869  1.00  0.00     0.317 C 
HETATM   21  O3  UNL     1      17.315  -8.956 -27.306  1.00  0.00    -0.262 OA
HETATM   22  N3  UNL     1      16.379  -7.122 -26.246  1.00  0.00    -0.290 N 
HETATM   23  C8  UNL     1      17.590  -6.420 -26.081  1.00  0.00     0.220 C 
ATOM     24  H3  UNL     1      15.519  -6.696 -25.902  1.00  0.00     0.172 HD
HETATM   25  C9  UNL     1      18.898  -6.948 -26.544  1.00  0.00     0.117 C 
HETATM   26  O4  UNL     1      17.577  -5.300 -25.519  1.00  0.00    -0.274 OA
ENDBRANCH  17  20
ENDBRANCH   2  16
TORSDOF 6
ENDMDL
MODEL 3
REMARK VINA RESULT: -7.755318777      1.967      8.918
REMARK  6 active torsions:
REMARK  status: ('A' for Active; 'I' for Inactive)
REMARK    1  A    between atoms: O1_2  and  C2_3 
REMARK    2  A    between atoms: C4_5  and  C5_6 
REMARK    3  A    between atoms: N1_7  and  N2_9 
REMARK       I    between atoms: N2_9  and  C6_11 
REMARK    4  A    between atoms: C6_11  and  C7_13 
REMARK       I    between atoms: C7_13  and  N3_15 
REMARK       I    between atoms: N3_15  and  C8_17 
REMARK    5  A    between atoms: C11_21  and  O5_22 
REMARK    6  A    between atoms: C13_24  and  O6_25 
ROOT
HETATM    1  C5  UNL     1      14.139  -9.447 -26.958  1.00  0.00     0.118 C 
HETATM    2  N1  UNL     1      13.112  -8.728 -27.308  1.00  0.00    -0.308 N 
ATOM      3  H1  UNL     1      13.255  -7.733 -27.481  1.00  0.00     0.186 HD
ENDROOT
BRANCH   1   4
HETATM    4  C4  UNL     1      15.468  -8.861 -26.813  1.00  0.00    -0.014 A 
HETATM    5  C3  UNL     1      15.698  -7.511 -26.963  1.00  0.00     0.052 A 
HETATM    6  C2  UNL     1      16.994  -7.020 -26.811  1.00  0.00     0.104 A 
HETATM    7  C13 UNL     1      18.065  -7.835 -26.513  1.00  0.00     0.133 A 
HETATM    8  C11 UNL     1      17.822  -9.184 -26.364  1.00  0.00     0.104 A 
HETATM    9  C10 UNL     1      16.526  -9.669 -26.518  1.00  0.00     0.052 A 
BRANCH   6  10
HETATM   10  O1  UNL     1      17.242  -5.675 -26.958  1.00  0.00    -0.353 OA
HETATM   11  C1  UNL     1      16.336  -4.666 -26.550  1.00  0.00     0.210 C 
ENDBRANCH   6  10
BRANCH   7  12
HETATM   12  O6  UNL     1      19.363  -7.313 -26.364  1.00  0.00    -0.356 OA
ATOM     13  H6  UNL     1      19.837  -6.949 -27.102  1.00  0.00     0.218 HD
ENDBRANCH   7  12
BRANCH   8  14
HETATM   14  O5  UNL     1      18.886 -10.015 -26.065  1.00  0.00    -0.353 OA
HETATM   15  C12 UNL     1      19.074 -10.451 -24.729  1.00  0.00     0.210 C 
ENDBRANCH   8  14
ENDBRANCH   1   4
BRANCH   2  16
HETATM   16  N2  UNL     1      11.844  -9.240 -27.456  1.00  0.00    -0.262 N 
HETATM   17  C6  UNL     1      10.857  -9.114 -26.422  1.00  0.00     0.328 C 
HETATM   18  O2  UNL     1      11.130  -8.529 -25.350  1.00  0.00    -0.261 OA
ATOM     19  H2  UNL     1      11.599  -9.722 -28.322  1.00  0.00     0.190 HD
BRANCH  17  20
HETATM   20  C7  UNL     1       9.527  -9.664 -26.604  1.00  0.00     0.317 C 
HETATM   21  O3  UNL     1       9.338 -10.493 -27.505  1.00  0.00    -0.262 OA
HETATM   22  N3  UNL     1       8.474  -9.245 -25.756  1.00  0.00    -0.290 N 
HETATM   23  C8  UNL     1       7.156  -9.733 -25.871  1.00  0.00     0.220 C 
ATOM     24  H3  UNL     1       8.677  -8.560 -25.029  1.00  0.00     0.172 HD
HETATM   25  C9  UNL     1       6.751 -10.731 -26.893  1.00  0.00     0.117 C 
HETATM   26  O4  UNL     1       6.277  -9.314 -25.082  1.00  0.00    -0.274 OA
ENDBRANCH  17  20
ENDBRANCH   2  16
TORSDOF 6
ENDMDL
MODEL 4
REMARK VINA RESULT: -7.718606955      1.956      9.149
REMARK  6 active torsions:
REMARK  status: ('A' for Active; 'I' for Inactive)
REMARK    1  A    between atoms: O1_2  and  C2_3 
REMARK    2  A    between atoms: C4_5  and  C5_6 
REMARK    3  A    between atoms: N1_7  and  N2_9 
REMARK       I    between atoms: N2_9  and  C6_11 
REMARK    4  A    between atoms: C6_11  and  C7_13 
REMARK       I    between atoms: C7_13  and  N3_15 
REMARK       I    between atoms: N3_15  and  C8_17 
REMARK    5  A    between atoms: C11_21  and  O5_22 
REMARK    6  A    between atoms: C13_24  and  O6_25 
ROOT
HETATM    1  C5  UNL     1      14.179  -9.572 -27.009  1.00  0.00     0.118 C 
HETATM    2  N1  UNL     1      13.164  -8.830 -27.343  1.00  0.00    -0.308 N 
ATOM      3  H1  UNL     1      13.326  -7.838 -27.514  1.00  0.00     0.186 HD
ENDROOT
BRANCH   1   4
HETATM    4  C4  UNL     1      15.522  -9.017 -26.878  1.00  0.00    -0.014 A 
HETATM    5  C3  UNL     1      16.603  -9.783 -26.501  1.00  0.00     0.052 A 
HETATM    6  C2  UNL     1      17.858  -9.185 -26.395  1.00  0.00     0.104 A 
HETATM    7  C13 UNL     1      18.066  -7.848 -26.655  1.00  0.00     0.133 A 
HETATM    8  C11 UNL     1      16.977  -7.091 -27.031  1.00  0.00     0.104 A 
HETATM    9  C10 UNL     1      15.726  -7.693 -27.134  1.00  0.00     0.052 A 
BRANCH   6  10
HETATM   10  O1  UNL     1      18.948  -9.936 -26.020  1.00  0.00    -0.353 OA
HETATM   11  C1  UNL     1      19.103 -10.496 -24.729  1.00  0.00     0.210 C 
ENDBRANCH   6  10
BRANCH   7  12
HETATM   12  O6  UNL     1      19.344  -7.269 -26.541  1.00  0.00    -0.356 OA
ATOM     13  H6  UNL     1      19.492  -6.354 -26.746  1.00  0.00     0.218 HD
ENDBRANCH   7  12
BRANCH   8  14
HETATM   14  O5  UNL     1      17.168  -5.747 -27.294  1.00  0.00    -0.353 OA
HETATM   15  C12 UNL     1      16.356  -4.787 -26.640  1.00  0.00     0.210 C 
ENDBRANCH   8  14
ENDBRANCH   1   4
BRANCH   2  16
HETATM   16  N2  UNL     1      11.883  -9.314 -27.478  1.00  0.00    -0.262 N 
HETATM   17  C6  UNL     1      10.905  -9.152 -26.439  1.00  0.00     0.328 C 
HETATM   18  O2  UNL     1      11.198  -8.561 -25.376  1.00  0.00    -0.261 OA
ATOM     19  H2  UNL     1      11.622  -9.800 -28.336  1.00  0.00     0.190 HD
BRANCH  17  20
HETATM   20  C7  UNL     1       9.562  -9.672 -26.608  1.00  0.00     0.317 C 
HETATM   21  O3  UNL     1       9.347 -10.506 -27.498  1.00  0.00    -0.262 OA
HETATM   22  N3  UNL     1       8.524  -9.221 -25.757  1.00  0.00    -0.290 N 
HETATM   23  C8  UNL     1       7.194  -9.678 -25.859  1.00  0.00     0.220 C 
ATOM     24  H3  UNL     1       8.748  -8.533 -25.039  1.00  0.00     0.172 HD
HETATM   25  C9  UNL     1       6.760 -10.677 -26.868  1.00  0.00     0.117 C 
HETATM   26  O4  UNL     1       6.331  -9.231 -25.069  1.00  0.00    -0.274 OA
ENDBRANCH  17  20
ENDBRANCH   2  16
TORSDOF 6
ENDMDL
MODEL 5
REMARK VINA RESULT: -7.379556320      1.899      2.426
REMARK  6 active torsions:
REMARK  status: ('A' for Active; 'I' for Inactive)
REMARK    1  A    between atoms: O1_2  and  C2_3 
REMARK    2  A    between atoms: C4_5  and  C5_6 
REMARK    3  A    between atoms: N1_7  and  N2_9 
REMARK       I    between atoms: N2_9  and  C6_11 
REMARK    4  A    between atoms: C6_11  and  C7_13 
REMARK       I    between atoms: C7_13  and  N3_15 
REMARK       I    between atoms: N3_15  and  C8_17 
REMARK    5  A    between atoms: C11_21  and  O5_22 
REMARK    6  A    between atoms: C13_24  and  O6_25 
ROOT
HETATM    1  C5  UNL     1      11.330  -9.341 -26.555  1.00  0.00     0.118 C 
HETATM    2  N1  UNL     1      12.215  -8.845 -27.370  1.00  0.00    -0.308 N 
ATOM      3  H1  UNL     1      11.896  -8.206 -28.098  1.00  0.00     0.186 HD
ENDROOT
BRANCH   1   4
HETATM    4  C4  UNL     1       9.915  -9.003 -26.665  1.00  0.00    -0.014 A 
HETATM    5  C3  UNL     1       8.959  -9.556 -25.841  1.00  0.00     0.052 A 
HETATM    6  C2  UNL     1       7.624  -9.187 -26.003  1.00  0.00     0.104 A 
HETATM    7  C13 UNL     1       7.216  -8.284 -26.960  1.00  0.00     0.133 A 
HETATM    8  C11 UNL     1       8.182  -7.737 -27.779  1.00  0.00     0.104 A 
HETATM    9  C10 UNL     1       9.513  -8.109 -27.613  1.00  0.00     0.052 A 
BRANCH   6  10
HETATM   10  O1  UNL     1       6.657  -9.729 -25.189  1.00  0.00    -0.353 OA
HETATM   11  C1  UNL     1       6.056 -10.990 -25.424  1.00  0.00     0.210 C 
ENDBRANCH   6  10
BRANCH   7  12
HETATM   12  O6  UNL     1       5.862  -7.928 -27.102  1.00  0.00    -0.356 OA
ATOM     13  H6  UNL     1       5.341  -8.248 -27.828  1.00  0.00     0.218 HD
ENDBRANCH   7  12
BRANCH   8  14
HETATM   14  O5  UNL     1       7.789  -6.829 -28.745  1.00  0.00    -0.353 OA
HETATM   15  C12 UNL     1       8.768  -6.227 -29.574  1.00  0.00     0.210 C 
ENDBRANCH   8  14
ENDBRANCH   1   4
BRANCH   2  16
HETATM   16  N2  UNL     1      13.557  -9.138 -27.301  1.00  0.00    -0.262 N 
HETATM   17  C6  UNL     1      14.513  -8.174 -26.835  1.00  0.00     0.328 C 
HETATM   18  O2  UNL     1      14.145  -7.032 -26.479  1.00  0.00    -0.261 OA
ATOM     19  H2  UNL     1      13.881 -10.062 -27.587  1.00  0.00     0.190 HD
BRANCH  17  20
HETATM   20  C7  UNL     1      15.923  -8.509 -26.772  1.00  0.00     0.317 C 
HETATM   21  O3  UNL     1      16.713  -7.935 -27.535  1.00  0.00    -0.262 OA
HETATM   22  N3  UNL     1      16.371  -9.481 -25.845  1.00  0.00    -0.290 N 
HETATM   23  C8  UNL     1      17.723  -9.861 -25.725  1.00  0.00     0.220 C 
ATOM     24  H3  UNL     1      15.684  -9.927 -25.238  1.00  0.00     0.172 HD
HETATM   25  C9  UNL     1      18.803  -9.276 -26.559  1.00  0.00     0.117 C 
HETATM   26  O4  UNL     1      18.042 -10.730 -24.880  1.00  0.00    -0.274 OA
ENDBRANCH  17  20
ENDBRANCH   2  16
TORSDOF 6
ENDMDL
