MODEL 1
REMARK VINA RESULT: -6.603163992      0.000      0.000
REMARK  3 active torsions:
REMARK  status: ('A' for Active; 'I' for Inactive)
REMARK    1  A    between atoms: C2_2  and  N1_3 
REMARK    2  A    between atoms: N1_3  and  C3_4 
REMARK    3  A    between atoms: N1_3  and  C9_10 
ROOT
HETATM    1  N1  UNL     1     -66.426 -32.960 -31.396  1.00  0.00     0.099 N 
ENDROOT
BRANCH   1   2
HETATM    2  C2  UNL     1     -66.307 -31.842 -30.445  1.00  0.00     0.269 C 
HETATM    3  C1  UNL     1     -67.601 -31.169 -30.148  1.00  0.00     0.037 C 
ENDBRANCH   1   2
BRANCH   1   4
HETATM    4  C3  UNL     1     -65.632 -34.105 -31.056  1.00  0.00     0.223 C 
HETATM    5  C4  UNL     1     -64.689 -33.925 -29.900  1.00  0.00     0.036 C 
HETATM    6  C5  UNL     1     -63.837 -35.208 -29.785  1.00  0.00     0.002 C 
HETATM    7  C6  UNL     1     -64.626 -36.443 -29.576  1.00  0.00     0.000 C 
HETATM    8  C7  UNL     1     -65.666 -36.516 -30.674  1.00  0.00     0.002 C 
HETATM    9  C8  UNL     1     -66.510 -35.245 -30.475  1.00  0.00     0.036 C 
ENDBRANCH   1   4
BRANCH   1  10
HETATM   10  C9  UNL     1     -66.073 -32.358 -32.655  1.00  0.00     0.250 C 
HETATM   11  C10 UNL     1     -66.679 -33.089 -33.861  1.00  0.00     0.065 C 
HETATM   12  C11 UNL     1     -65.679 -32.867 -35.005  1.00  0.00     0.234 C 
HETATM   13  N2  UNL     1     -64.883 -31.736 -34.531  1.00  0.00    -0.073 N 
HETATM   14  C12 UNL     1     -64.709 -32.122 -33.083  1.00  0.00     0.268 C 
ATOM     15  H22 UNL     1     -64.023 -31.552 -35.048  1.00  0.00     0.277 HD
ATOM     16  H21 UNL     1     -65.280 -30.812 -34.699  1.00  0.00     0.277 HD
ENDBRANCH   1  10
TORSDOF 3
ENDMDL
MODEL 2
REMARK VINA RESULT: -6.597924814      1.539      3.669
REMARK  3 active torsions:
REMARK  status: ('A' for Active; 'I' for Inactive)
REMARK    1  A    between atoms: C2_2  and  N1_3 
REMARK    2  A    between atoms: N1_3  and  C3_4 
REMARK    3  A    between atoms: N1_3  and  C9_10 
ROOT
HETATM    1  N1  UNL     1     -65.870 -32.760 -30.496  1.00  0.00     0.099 N 
ENDROOT
BRANCH   1   2
HETATM    2  C2  UNL     1     -66.406 -32.635 -31.861  1.00  0.00     0.269 C 
HETATM    3  C1  UNL     1     -65.393 -32.205 -32.865  1.00  0.00     0.037 C 
ENDBRANCH   1   2
BRANCH   1   4
HETATM    4  C3  UNL     1     -65.638 -34.113 -30.079  1.00  0.00     0.223 C 
HETATM    5  C4  UNL     1     -66.141 -35.178 -31.012  1.00  0.00     0.036 C 
HETATM    6  C5  UNL     1     -65.922 -36.544 -30.325  1.00  0.00     0.002 C 
HETATM    7  C6  UNL     1     -64.512 -36.831 -29.982  1.00  0.00     0.000 C 
HETATM    8  C7  UNL     1     -63.990 -35.665 -29.167  1.00  0.00     0.002 C 
HETATM    9  C8  UNL     1     -64.126 -34.458 -30.111  1.00  0.00     0.036 C 
ENDBRANCH   1   4
BRANCH   1  10
HETATM   10  C9  UNL     1     -66.844 -32.062 -29.698  1.00  0.00     0.250 C 
HETATM   11  C10 UNL     1     -67.887 -32.997 -29.069  1.00  0.00     0.065 C 
HETATM   12  C11 UNL     1     -69.162 -32.151 -28.952  1.00  0.00     0.234 C 
HETATM   13  N2  UNL     1     -68.662 -30.783 -29.078  1.00  0.00    -0.073 N 
HETATM   14  C12 UNL     1     -67.658 -30.969 -30.189  1.00  0.00     0.268 C 
ATOM     15  H22 UNL     1     -69.369 -30.065 -29.234  1.00  0.00     0.277 HD
ATOM     16  H21 UNL     1     -68.303 -30.361 -28.222  1.00  0.00     0.277 HD
ENDBRANCH   1  10
TORSDOF 3
ENDMDL
MODEL 3
REMARK VINA RESULT: -6.551405198      1.737      4.641
REMARK  3 active torsions:
REMARK  status: ('A' for Active; 'I' for Inactive)
REMARK    1  A    between atoms: C2_2  and  N1_3 
REMARK    2  A    between atoms: N1_3  and  C3_4 
REMARK    3  A    between atoms: N1_3  and  C9_10 
ROOT
HETATM    1  N1  UNL     1     -66.220 -33.952 -30.421  1.00  0.00     0.099 N 
ENDROOT
BRANCH   1   2
HETATM    2  C2  UNL     1     -67.666 -33.770 -30.210  1.00  0.00     0.269 C 
HETATM    3  C1  UNL     1     -67.996 -32.748 -29.179  1.00  0.00     0.037 C 
ENDBRANCH   1   2
BRANCH   1   4
HETATM    4  C3  UNL     1     -65.781 -33.654 -31.754  1.00  0.00     0.223 C 
HETATM    5  C4  UNL     1     -66.870 -33.409 -32.760  1.00  0.00     0.036 C 
HETATM    6  C5  UNL     1     -66.202 -33.247 -34.143  1.00  0.00     0.002 C 
HETATM    7  C6  UNL     1     -65.221 -32.141 -34.216  1.00  0.00     0.000 C 
HETATM    8  C7  UNL     1     -64.223 -32.337 -33.093  1.00  0.00     0.002 C 
HETATM    9  C8  UNL     1     -65.079 -32.272 -31.816  1.00  0.00     0.036 C 
ENDBRANCH   1   4
BRANCH   1  10
HETATM   10  C9  UNL     1     -66.003 -35.320 -30.027  1.00  0.00     0.250 C 
HETATM   11  C10 UNL     1     -64.531 -35.629 -29.718  1.00  0.00     0.065 C 
HETATM   12  C11 UNL     1     -64.352 -37.111 -30.073  1.00  0.00     0.234 C 
HETATM   13  N2  UNL     1     -65.726 -37.609 -30.112  1.00  0.00    -0.073 N 
HETATM   14  C12 UNL     1     -66.403 -36.463 -30.823  1.00  0.00     0.268 C 
ATOM     15  H22 UNL     1     -65.852 -38.530 -30.533  1.00  0.00     0.277 HD
ATOM     16  H21 UNL     1     -66.128 -37.873 -29.213  1.00  0.00     0.277 HD
ENDBRANCH   1  10
TORSDOF 3
ENDMDL
MODEL 4
REMARK VINA RESULT: -6.539574737      1.811      4.899
REMARK  3 active torsions:
REMARK  status: ('A' for Active; 'I' for Inactive)
REMARK    1  A    between atoms: C2_2  and  N1_3 
REMARK    2  A    between atoms: N1_3  and  C3_4 
REMARK    3  A    between atoms: N1_3  and  C9_10 
ROOT
HETATM    1  N1  UNL     1     -66.596 -34.264 -31.051  1.00  0.00     0.099 N 
ENDROOT
BRANCH   1   2
HETATM    2  C2  UNL     1     -67.482 -35.402 -31.346  1.00  0.00     0.269 C 
HETATM    3  C1  UNL     1     -66.894 -36.724 -30.997  1.00  0.00     0.037 C 
ENDBRANCH   1   2
BRANCH   1   4
HETATM    4  C3  UNL     1     -65.879 -33.770 -32.190  1.00  0.00     0.223 C 
HETATM    5  C4  UNL     1     -66.675 -33.643 -33.458  1.00  0.00     0.036 C 
HETATM    6  C5  UNL     1     -65.701 -33.234 -34.585  1.00  0.00     0.002 C 
HETATM    7  C6  UNL     1     -64.986 -31.963 -34.336  1.00  0.00     0.000 C 
HETATM    8  C7  UNL     1     -64.317 -32.069 -32.981  1.00  0.00     0.002 C 
HETATM    9  C8  UNL     1     -65.485 -32.281 -32.002  1.00  0.00     0.036 C 
ENDBRANCH   1   4
BRANCH   1  10
HETATM   10  C9  UNL     1     -65.749 -34.773 -30.004  1.00  0.00     0.250 C 
HETATM   11  C10 UNL     1     -65.878 -33.987 -28.691  1.00  0.00     0.065 C 
HETATM   12  C11 UNL     1     -64.502 -34.102 -28.021  1.00  0.00     0.234 C 
HETATM   13  N2  UNL     1     -63.891 -35.235 -28.716  1.00  0.00    -0.073 N 
HETATM   14  C12 UNL     1     -64.315 -34.936 -30.133  1.00  0.00     0.268 C 
ATOM     15  H22 UNL     1     -62.890 -35.358 -28.568  1.00  0.00     0.277 HD
ATOM     16  H21 UNL     1     -64.141 -36.159 -28.363  1.00  0.00     0.277 HD
ENDBRANCH   1  10
TORSDOF 3
ENDMDL
MODEL 5
REMARK VINA RESULT: -6.532891516      2.005      4.870
REMARK  3 active torsions:
REMARK  status: ('A' for Active; 'I' for Inactive)
REMARK    1  A    between atoms: C2_2  and  N1_3 
REMARK    2  A    between atoms: N1_3  and  C3_4 
REMARK    3  A    between atoms: N1_3  and  C9_10 
ROOT
HETATM    1  N1  UNL     1     -65.178 -34.509 -30.309  1.00  0.00     0.099 N 
ENDROOT
BRANCH   1   2
HETATM    2  C2  UNL     1     -65.892 -33.764 -29.260  1.00  0.00     0.269 C 
HETATM    3  C1  UNL     1     -65.192 -33.762 -27.945  1.00  0.00     0.037 C 
ENDBRANCH   1   2
BRANCH   1   4
HETATM    4  C3  UNL     1     -65.555 -34.145 -31.645  1.00  0.00     0.223 C 
HETATM    5  C4  UNL     1     -66.877 -33.444 -31.782  1.00  0.00     0.036 C 
HETATM    6  C5  UNL     1     -67.159 -33.266 -33.289  1.00  0.00     0.002 C 
HETATM    7  C6  UNL     1     -66.126 -32.491 -34.012  1.00  0.00     0.000 C 
HETATM    8  C7  UNL     1     -64.785 -33.138 -33.731  1.00  0.00     0.002 C 
HETATM    9  C8  UNL     1     -64.631 -33.031 -32.204  1.00  0.00     0.036 C 
ENDBRANCH   1   4
BRANCH   1  10
HETATM   10  C9  UNL     1     -65.454 -35.883 -29.979  1.00  0.00     0.250 C 
HETATM   11  C10 UNL     1     -64.184 -36.733 -29.834  1.00  0.00     0.065 C 
HETATM   12  C11 UNL     1     -64.603 -38.150 -30.248  1.00  0.00     0.234 C 
HETATM   13  N2  UNL     1     -66.061 -38.102 -30.158  1.00  0.00    -0.073 N 
HETATM   14  C12 UNL     1     -66.320 -36.744 -30.761  1.00  0.00     0.268 C 
ATOM     15  H22 UNL     1     -66.558 -38.882 -30.589  1.00  0.00     0.277 HD
ATOM     16  H21 UNL     1     -66.454 -38.258 -29.229  1.00  0.00     0.277 HD
ENDBRANCH   1  10
TORSDOF 3
ENDMDL
