MODEL 1
REMARK VINA RESULT: -6.797028296      0.000      0.000
REMARK  2 active torsions:
REMARK  status: ('A' for Active; 'I' for Inactive)
REMARK    1  A    between atoms: C2_2  and  C3_3 
REMARK    2  A    between atoms: C3_3  and  C4_4 
ROOT
HETATM    1  C4  UNL     1     -64.617 -36.504 -30.269  1.00  0.00     0.121 C 
HETATM    2  C5  UNL     1     -63.995 -35.681 -29.221  1.00  0.00     0.033 C 
HETATM    3  C6  UNL     1     -64.408 -34.274 -29.100  1.00  0.00     0.014 C 
HETATM    4  C7  UNL     1     -65.616 -33.861 -29.866  1.00  0.00    -0.016 C 
HETATM    5  C8  UNL     1     -66.500 -32.940 -29.085  1.00  0.00     0.031 C 
HETATM    6  C9  UNL     1     -66.756 -31.625 -29.710  1.00  0.00     0.114 C 
HETATM    7  N1  UNL     1     -66.974 -31.609 -31.108  1.00  0.00    -0.421 N 
ATOM      8  H1  UNL     1     -67.504 -30.866 -31.561  1.00  0.00     0.153 HD
HETATM    9  C10 UNL     1     -66.412 -32.687 -31.846  1.00  0.00     0.114 C 
HETATM   10  C11 UNL     1     -65.188 -33.208 -31.150  1.00  0.00     0.031 C 
HETATM   11  C12 UNL     1     -66.430 -35.126 -30.146  1.00  0.00     0.177 C 
HETATM   12  O1  UNL     1     -65.636 -35.900 -30.984  1.00  0.00    -0.385 OA
ENDROOT
BRANCH   1  13
HETATM   13  C3  UNL     1     -65.186 -37.807 -29.713  1.00  0.00     0.031 C 
BRANCH  13  14
HETATM   14  C2  UNL     1     -65.731 -38.683 -30.815  1.00  0.00    -0.002 C 
HETATM   15  C1  UNL     1     -67.236 -38.777 -30.780  1.00  0.00     0.005 C 
ENDBRANCH  13  14
ENDBRANCH   1  13
TORSDOF 2
ENDMDL
MODEL 2
REMARK VINA RESULT: -6.710278093      2.369      4.570
REMARK  2 active torsions:
REMARK  status: ('A' for Active; 'I' for Inactive)
REMARK    1  A    between atoms: C2_2  and  C3_3 
REMARK    2  A    between atoms: C3_3  and  C4_4 
ROOT
HETATM    1  C4  UNL     1     -66.782 -34.084 -32.789  1.00  0.00     0.121 C 
HETATM    2  C5  UNL     1     -67.817 -34.110 -31.745  1.00  0.00     0.033 C 
HETATM    3  C6  UNL     1     -67.395 -34.273 -30.346  1.00  0.00     0.014 C 
HETATM    4  C7  UNL     1     -65.941 -34.125 -30.063  1.00  0.00    -0.016 C 
HETATM    5  C8  UNL     1     -65.679 -33.366 -28.800  1.00  0.00     0.031 C 
HETATM    6  C9  UNL     1     -64.889 -34.086 -27.778  1.00  0.00     0.114 C 
HETATM    7  N1  UNL     1     -63.800 -34.863 -28.238  1.00  0.00    -0.421 N 
ATOM      8  H1  UNL     1     -63.004 -35.080 -27.639  1.00  0.00     0.153 HD
HETATM    9  C10 UNL     1     -63.876 -35.323 -29.582  1.00  0.00     0.114 C 
HETATM   10  C11 UNL     1     -65.311 -35.487 -29.992  1.00  0.00     0.031 C 
HETATM   11  C12 UNL     1     -65.337 -33.306 -31.206  1.00  0.00     0.177 C 
HETATM   12  O1  UNL     1     -65.474 -34.097 -32.340  1.00  0.00    -0.385 OA
ENDROOT
BRANCH   1  13
HETATM   13  C3  UNL     1     -66.918 -32.866 -33.700  1.00  0.00     0.031 C 
BRANCH  13  14
HETATM   14  C2  UNL     1     -65.824 -32.832 -34.739  1.00  0.00    -0.002 C 
HETATM   15  C1  UNL     1     -64.841 -31.714 -34.498  1.00  0.00     0.005 C 
ENDBRANCH  13  14
ENDBRANCH   1  13
TORSDOF 2
ENDMDL
MODEL 3
REMARK VINA RESULT: -6.618066138      1.356      1.541
REMARK  2 active torsions:
REMARK  status: ('A' for Active; 'I' for Inactive)
REMARK    1  A    between atoms: C2_2  and  C3_3 
REMARK    2  A    between atoms: C3_3  and  C4_4 
ROOT
HETATM    1  C4  UNL     1     -64.966 -35.454 -30.194  1.00  0.00     0.121 C 
HETATM    2  C5  UNL     1     -64.986 -35.027 -28.787  1.00  0.00     0.033 C 
HETATM    3  C6  UNL     1     -65.742 -33.816 -28.434  1.00  0.00     0.014 C 
HETATM    4  C7  UNL     1     -66.651 -33.265 -29.477  1.00  0.00    -0.016 C 
HETATM    5  C8  UNL     1     -67.953 -32.794 -28.909  1.00  0.00     0.031 C 
HETATM    6  C9  UNL     1     -68.275 -31.372 -29.154  1.00  0.00     0.114 C 
HETATM    7  N1  UNL     1     -67.967 -30.855 -30.433  1.00  0.00    -0.421 N 
ATOM      8  H1  UNL     1     -68.460 -30.051 -30.822  1.00  0.00     0.153 HD
HETATM    9  C10 UNL     1     -66.932 -31.518 -31.150  1.00  0.00     0.114 C 
HETATM   10  C11 UNL     1     -65.957 -32.140 -30.193  1.00  0.00     0.031 C 
HETATM   11  C12 UNL     1     -66.976 -34.406 -30.444  1.00  0.00     0.177 C 
HETATM   12  O1  UNL     1     -65.770 -34.728 -31.055  1.00  0.00    -0.385 OA
ENDROOT
BRANCH   1  13
HETATM   13  C3  UNL     1     -65.364 -36.919 -30.355  1.00  0.00     0.031 C 
BRANCH  13  14
HETATM   14  C2  UNL     1     -64.212 -37.840 -30.037  1.00  0.00    -0.002 C 
HETATM   15  C1  UNL     1     -64.610 -39.294 -30.093  1.00  0.00     0.005 C 
ENDBRANCH  13  14
ENDBRANCH   1  13
TORSDOF 2
ENDMDL
MODEL 4
REMARK VINA RESULT: -6.282815059      1.491      2.499
REMARK  2 active torsions:
REMARK  status: ('A' for Active; 'I' for Inactive)
REMARK    1  A    between atoms: C2_2  and  C3_3 
REMARK    2  A    between atoms: C3_3  and  C4_4 
ROOT
HETATM    1  C4  UNL     1     -65.577 -35.149 -30.413  1.00  0.00     0.121 C 
HETATM    2  C5  UNL     1     -65.302 -34.165 -31.470  1.00  0.00     0.033 C 
HETATM    3  C6  UNL     1     -65.998 -32.870 -31.419  1.00  0.00     0.014 C 
HETATM    4  C7  UNL     1     -66.719 -32.546 -30.157  1.00  0.00    -0.016 C 
HETATM    5  C8  UNL     1     -66.548 -31.115 -29.752  1.00  0.00     0.031 C 
HETATM    6  C9  UNL     1     -67.800 -30.342 -29.611  1.00  0.00     0.114 C 
HETATM    7  N1  UNL     1     -68.897 -30.999 -29.008  1.00  0.00    -0.421 N 
ATOM      8  H1  UNL     1     -69.642 -30.483 -28.540  1.00  0.00     0.153 HD
HETATM    9  C10 UNL     1     -68.905 -32.419 -29.091  1.00  0.00     0.114 C 
HETATM   10  C11 UNL     1     -68.177 -32.869 -30.324  1.00  0.00     0.031 C 
HETATM   11  C12 UNL     1     -66.098 -33.398 -29.048  1.00  0.00     0.177 C 
HETATM   12  O1  UNL     1     -66.392 -34.714 -29.383  1.00  0.00    -0.385 OA
ENDROOT
BRANCH   1  13
HETATM   13  C3  UNL     1     -64.296 -35.668 -29.766  1.00  0.00     0.031 C 
BRANCH  13  14
HETATM   14  C2  UNL     1     -64.243 -37.177 -29.785  1.00  0.00    -0.002 C 
HETATM   15  C1  UNL     1     -65.446 -37.783 -30.464  1.00  0.00     0.005 C 
ENDBRANCH  13  14
ENDBRANCH   1  13
TORSDOF 2
ENDMDL
MODEL 5
REMARK VINA RESULT: -6.177105320      2.298      4.892
REMARK  2 active torsions:
REMARK  status: ('A' for Active; 'I' for Inactive)
REMARK    1  A    between atoms: C2_2  and  C3_3 
REMARK    2  A    between atoms: C3_3  and  C4_4 
ROOT
HETATM    1  C4  UNL     1     -66.269 -31.925 -30.356  1.00  0.00     0.121 C 
HETATM    2  C5  UNL     1     -66.583 -32.616 -31.616  1.00  0.00     0.033 C 
HETATM    3  C6  UNL     1     -66.186 -34.025 -31.758  1.00  0.00     0.014 C 
HETATM    4  C7  UNL     1     -65.741 -34.725 -30.521  1.00  0.00    -0.016 C 
HETATM    5  C8  UNL     1     -66.262 -36.126 -30.439  1.00  0.00     0.031 C 
HETATM    6  C9  UNL     1     -65.232 -37.180 -30.330  1.00  0.00     0.114 C 
HETATM    7  N1  UNL     1     -64.124 -36.912 -29.494  1.00  0.00    -0.421 N 
ATOM      8  H1  UNL     1     -63.579 -37.660 -29.065  1.00  0.00     0.153 HD
HETATM    9  C10 UNL     1     -63.810 -35.541 -29.282  1.00  0.00     0.114 C 
HETATM   10  C11 UNL     1     -64.239 -34.723 -30.466  1.00  0.00     0.031 C 
HETATM   11  C12 UNL     1     -66.329 -33.962 -29.332  1.00  0.00     0.177 C 
HETATM   12  O1  UNL     1     -65.723 -32.712 -29.358  1.00  0.00    -0.385 OA
ENDROOT
BRANCH   1  13
HETATM   13  C3  UNL     1     -67.496 -31.246 -29.754  1.00  0.00     0.031 C 
BRANCH  13  14
HETATM   14  C2  UNL     1     -68.736 -32.085 -29.941  1.00  0.00    -0.002 C 
HETATM   15  C1  UNL     1     -69.499 -32.275 -28.653  1.00  0.00     0.005 C 
ENDBRANCH  13  14
ENDBRANCH   1  13
TORSDOF 2
ENDMDL
