MODEL 1
REMARK VINA RESULT: -6.823749304      0.000      0.000
REMARK  3 active torsions:
REMARK  status: ('A' for Active; 'I' for Inactive)
REMARK    1  A    between atoms: C3_6  and  C4_7 
REMARK    2  A    between atoms: C4_7  and  C5_8 
REMARK    3  A    between atoms: C5_8  and  C6_9 
ROOT
HETATM    1  C4  UNL     1     -64.297 -35.186 -30.022  1.00  0.00     0.033 C 
ENDROOT
BRANCH   1   2
HETATM    2  C3  UNL     1     -64.964 -36.491 -29.556  1.00  0.00     0.186 C 
HETATM    3  N1  UNL     1     -64.035 -37.611 -29.772  1.00  0.00    -0.071 N 
HETATM    4  C2  UNL     1     -64.991 -38.728 -29.795  1.00  0.00     0.233 C 
ATOM      5  H12 UNL     1     -63.270 -37.692 -29.102  1.00  0.00     0.277 HD
ATOM      6  H11 UNL     1     -63.423 -37.532 -30.584  1.00  0.00     0.277 HD
HETATM    7  C1  UNL     1     -65.960 -38.248 -30.858  1.00  0.00     0.029 C 
HETATM    8  C12 UNL     1     -66.140 -36.779 -30.463  1.00  0.00     0.034 C 
ENDBRANCH   1   2
BRANCH   1   9
HETATM    9  C5  UNL     1     -65.392 -34.208 -30.227  1.00  0.00     0.009 C 
BRANCH   9  10
HETATM   10  C6  UNL     1     -65.063 -32.938 -30.910  1.00  0.00     0.017 C 
HETATM   11  C7  UNL     1     -66.327 -32.190 -31.268  1.00  0.00     0.039 C 
HETATM   12  C8  UNL     1     -66.624 -32.761 -32.637  1.00  0.00     0.122 C 
HETATM   13  C9  UNL     1     -65.912 -31.865 -33.650  1.00  0.00     0.034 C 
HETATM   14  O1  UNL     1     -65.811 -33.904 -32.768  1.00  0.00    -0.380 OA
HETATM   15  C10 UNL     1     -64.461 -32.099 -33.200  1.00  0.00     0.035 C 
HETATM   16  C11 UNL     1     -64.599 -33.312 -32.330  1.00  0.00     0.126 C 
ENDBRANCH   9  10
ENDBRANCH   1   9
TORSDOF 3
ENDMDL
MODEL 2
REMARK VINA RESULT: -6.708451668      1.288      1.881
REMARK  3 active torsions:
REMARK  status: ('A' for Active; 'I' for Inactive)
REMARK    1  A    between atoms: C3_6  and  C4_7 
REMARK    2  A    between atoms: C4_7  and  C5_8 
REMARK    3  A    between atoms: C5_8  and  C6_9 
ROOT
HETATM    1  C4  UNL     1     -65.910 -34.829 -29.782  1.00  0.00     0.033 C 
ENDROOT
BRANCH   1   2
HETATM    2  C3  UNL     1     -65.549 -36.088 -30.589  1.00  0.00     0.186 C 
HETATM    3  N1  UNL     1     -66.694 -37.010 -30.583  1.00  0.00    -0.071 N 
HETATM    4  C2  UNL     1     -66.002 -38.271 -30.891  1.00  0.00     0.233 C 
ATOM      5  H12 UNL     1     -67.469 -36.764 -31.199  1.00  0.00     0.277 HD
ATOM      6  H11 UNL     1     -67.262 -37.009 -29.735  1.00  0.00     0.277 HD
HETATM    7  C1  UNL     1     -64.936 -38.277 -29.813  1.00  0.00     0.029 C 
HETATM    8  C12 UNL     1     -64.449 -36.826 -29.860  1.00  0.00     0.034 C 
ENDBRANCH   1   2
BRANCH   1   9
HETATM    9  C5  UNL     1     -65.827 -33.689 -30.725  1.00  0.00     0.009 C 
BRANCH   9  10
HETATM   10  C6  UNL     1     -65.437 -33.978 -32.123  1.00  0.00     0.017 C 
HETATM   11  C7  UNL     1     -64.240 -33.143 -32.518  1.00  0.00     0.039 C 
HETATM   12  C8  UNL     1     -64.917 -31.896 -33.044  1.00  0.00     0.122 C 
HETATM   13  C9  UNL     1     -65.145 -32.119 -34.539  1.00  0.00     0.034 C 
HETATM   14  O1  UNL     1     -66.258 -31.972 -32.620  1.00  0.00    -0.380 OA
HETATM   15  C10 UNL     1     -66.087 -33.331 -34.461  1.00  0.00     0.035 C 
HETATM   16  C11 UNL     1     -66.497 -33.312 -33.019  1.00  0.00     0.126 C 
ENDBRANCH   9  10
ENDBRANCH   1   9
TORSDOF 3
ENDMDL
MODEL 3
REMARK VINA RESULT: -6.696554159      1.682      2.385
REMARK  3 active torsions:
REMARK  status: ('A' for Active; 'I' for Inactive)
REMARK    1  A    between atoms: C3_6  and  C4_7 
REMARK    2  A    between atoms: C4_7  and  C5_8 
REMARK    3  A    between atoms: C5_8  and  C6_9 
ROOT
HETATM    1  C4  UNL     1     -64.438 -35.032 -30.194  1.00  0.00     0.033 C 
ENDROOT
BRANCH   1   2
HETATM    2  C3  UNL     1     -65.045 -36.333 -29.641  1.00  0.00     0.186 C 
HETATM    3  N1  UNL     1     -64.078 -37.427 -29.814  1.00  0.00    -0.071 N 
HETATM    4  C2  UNL     1     -64.991 -38.579 -29.754  1.00  0.00     0.233 C 
ATOM      5  H12 UNL     1     -63.298 -37.442 -29.156  1.00  0.00     0.277 HD
ATOM      6  H11 UNL     1     -63.485 -37.372 -30.641  1.00  0.00     0.277 HD
HETATM    7  C1  UNL     1     -65.997 -38.197 -30.821  1.00  0.00     0.029 C 
HETATM    8  C12 UNL     1     -66.226 -36.716 -30.505  1.00  0.00     0.034 C 
ENDBRANCH   1   2
BRANCH   1   9
HETATM    9  C5  UNL     1     -65.579 -34.183 -30.610  1.00  0.00     0.009 C 
BRANCH   9  10
HETATM   10  C6  UNL     1     -65.960 -33.058 -29.728  1.00  0.00     0.017 C 
HETATM   11  C7  UNL     1     -67.227 -33.388 -28.972  1.00  0.00     0.039 C 
HETATM   12  C8  UNL     1     -68.280 -32.889 -29.937  1.00  0.00     0.122 C 
HETATM   13  C9  UNL     1     -68.548 -31.428 -29.574  1.00  0.00     0.034 C 
HETATM   14  O1  UNL     1     -67.616 -32.677 -31.161  1.00  0.00    -0.380 OA
HETATM   15  C10 UNL     1     -67.151 -30.850 -29.852  1.00  0.00     0.035 C 
HETATM   16  C11 UNL     1     -66.512 -31.951 -30.644  1.00  0.00     0.126 C 
ENDBRANCH   9  10
ENDBRANCH   1   9
TORSDOF 3
ENDMDL
MODEL 4
REMARK VINA RESULT: -6.649792809      0.850      1.130
REMARK  3 active torsions:
REMARK  status: ('A' for Active; 'I' for Inactive)
REMARK    1  A    between atoms: C3_6  and  C4_7 
REMARK    2  A    between atoms: C4_7  and  C5_8 
REMARK    3  A    between atoms: C5_8  and  C6_9 
ROOT
HETATM    1  C4  UNL     1     -64.732 -35.259 -29.589  1.00  0.00     0.033 C 
ENDROOT
BRANCH   1   2
HETATM    2  C3  UNL     1     -64.943 -36.500 -30.472  1.00  0.00     0.186 C 
HETATM    3  N1  UNL     1     -66.360 -36.890 -30.426  1.00  0.00    -0.071 N 
HETATM    4  C2  UNL     1     -66.247 -38.298 -30.834  1.00  0.00     0.233 C 
ATOM      5  H12 UNL     1     -66.999 -36.316 -30.977  1.00  0.00     0.277 HD
ATOM      6  H11 UNL     1     -66.841 -36.719 -29.542  1.00  0.00     0.277 HD
HETATM    7  C1  UNL     1     -65.224 -38.800 -29.833  1.00  0.00     0.029 C 
HETATM    8  C12 UNL     1     -64.199 -37.662 -29.852  1.00  0.00     0.034 C 
ENDBRANCH   1   2
BRANCH   1   9
HETATM    9  C5  UNL     1     -65.725 -34.254 -30.037  1.00  0.00     0.009 C 
BRANCH   9  10
HETATM   10  C6  UNL     1     -65.218 -33.015 -30.667  1.00  0.00     0.017 C 
HETATM   11  C7  UNL     1     -66.368 -32.144 -31.117  1.00  0.00     0.039 C 
HETATM   12  C8  UNL     1     -66.602 -32.670 -32.516  1.00  0.00     0.122 C 
HETATM   13  C9  UNL     1     -65.722 -31.839 -33.449  1.00  0.00     0.034 C 
HETATM   14  O1  UNL     1     -65.895 -33.886 -32.598  1.00  0.00    -0.380 OA
HETATM   15  C10 UNL     1     -64.345 -32.218 -32.883  1.00  0.00     0.035 C 
HETATM   16  C11 UNL     1     -64.673 -33.420 -32.049  1.00  0.00     0.126 C 
ENDBRANCH   9  10
ENDBRANCH   1   9
TORSDOF 3
ENDMDL
MODEL 5
REMARK VINA RESULT: -6.586594440      1.788      2.461
REMARK  3 active torsions:
REMARK  status: ('A' for Active; 'I' for Inactive)
REMARK    1  A    between atoms: C3_6  and  C4_7 
REMARK    2  A    between atoms: C4_7  and  C5_8 
REMARK    3  A    between atoms: C5_8  and  C6_9 
ROOT
HETATM    1  C4  UNL     1     -64.405 -35.630 -29.468  1.00  0.00     0.033 C 
ENDROOT
BRANCH   1   2
HETATM    2  C3  UNL     1     -64.792 -36.747 -30.452  1.00  0.00     0.186 C 
HETATM    3  N1  UNL     1     -66.235 -37.009 -30.341  1.00  0.00    -0.071 N 
HETATM    4  C2  UNL     1     -66.286 -38.370 -30.895  1.00  0.00     0.233 C 
ATOM      5  H12 UNL     1     -66.848 -36.324 -30.784  1.00  0.00     0.277 HD
ATOM      6  H11 UNL     1     -66.639 -36.890 -29.413  1.00  0.00     0.277 HD
HETATM    7  C1  UNL     1     -65.256 -39.066 -30.026  1.00  0.00     0.029 C 
HETATM    8  C12 UNL     1     -64.127 -38.031 -30.006  1.00  0.00     0.034 C 
ENDBRANCH   1   2
BRANCH   1   9
HETATM    9  C5  UNL     1     -64.554 -34.353 -30.206  1.00  0.00     0.009 C 
BRANCH   9  10
HETATM   10  C6  UNL     1     -65.217 -33.229 -29.510  1.00  0.00     0.017 C 
HETATM   11  C7  UNL     1     -66.443 -33.717 -28.770  1.00  0.00     0.039 C 
HETATM   12  C8  UNL     1     -67.502 -33.581 -29.842  1.00  0.00     0.122 C 
HETATM   13  C9  UNL     1     -68.087 -32.175 -29.704  1.00  0.00     0.034 C 
HETATM   14  O1  UNL     1     -66.809 -33.395 -31.054  1.00  0.00    -0.380 OA
HETATM   15  C10 UNL     1     -66.820 -31.357 -30.000  1.00  0.00     0.035 C 
HETATM   16  C11 UNL     1     -65.916 -32.393 -30.598  1.00  0.00     0.126 C 
ENDBRANCH   9  10
ENDBRANCH   1   9
TORSDOF 3
ENDMDL
