MODEL 1
REMARK VINA RESULT: -5.100599149      0.000      0.000
REMARK  5 active torsions:
REMARK  status: ('A' for Active; 'I' for Inactive)
REMARK    1  A    between atoms: N1_2  and  C3_4 
REMARK    2  A    between atoms: C3_4  and  C4_5 
REMARK    3  A    between atoms: C4_5  and  N2_6 
REMARK    4  A    between atoms: N2_6  and  C5_9 
REMARK    5  A    between atoms: C5_9  and  C8_12 
ROOT
HETATM    1  N2  UNL     1     -65.403 -34.279 -31.241  1.00  0.00    -0.065 N 
ATOM      2  H21 UNL     1     -64.498 -34.514 -31.650  1.00  0.00     0.278 HD
ATOM      3  H22 UNL     1     -65.068 -33.763 -30.428  1.00  0.00     0.278 HD
ENDROOT
BRANCH   1   4
HETATM    4  C4  UNL     1     -66.146 -35.445 -30.870  1.00  0.00     0.252 C 
BRANCH   4   5
HETATM    5  C3  UNL     1     -65.294 -36.423 -30.051  1.00  0.00     0.143 C 
BRANCH   5   6
HETATM    6  N1  UNL     1     -65.567 -37.726 -30.591  1.00  0.00    -0.419 N 
HETATM    7  C1  UNL     1     -64.845 -38.782 -29.958  1.00  0.00     0.142 C 
HETATM    8  C2  UNL     1     -66.926 -38.016 -30.877  1.00  0.00     0.142 C 
ENDBRANCH   5   6
ENDBRANCH   4   5
ENDBRANCH   1   4
BRANCH   1   9
HETATM    9  C5  UNL     1     -66.200 -33.455 -32.119  1.00  0.00     0.125 C 
HETATM   10  C6  UNL     1     -67.337 -34.246 -32.749  1.00  0.00     0.046 C 
HETATM   11  C7  UNL     1     -66.712 -32.283 -31.305  1.00  0.00     0.046 C 
BRANCH   9  12
HETATM   12  C8  UNL     1     -65.402 -32.878 -33.265  1.00  0.00    -0.019 C 
HETATM   13  C9  UNL     1     -63.952 -32.797 -32.794  1.00  0.00     0.017 C 
HETATM   14  C10 UNL     1     -65.858 -31.502 -33.652  1.00  0.00     0.017 C 
HETATM   15  C11 UNL     1     -65.461 -33.747 -34.495  1.00  0.00     0.017 C 
ENDBRANCH   9  12
ENDBRANCH   1   9
TORSDOF 5
ENDMDL
MODEL 2
REMARK VINA RESULT: -5.013932035      1.506      3.058
REMARK  5 active torsions:
REMARK  status: ('A' for Active; 'I' for Inactive)
REMARK    1  A    between atoms: N1_2  and  C3_4 
REMARK    2  A    between atoms: C3_4  and  C4_5 
REMARK    3  A    between atoms: C4_5  and  N2_6 
REMARK    4  A    between atoms: N2_6  and  C5_9 
REMARK    5  A    between atoms: C5_9  and  C8_12 
ROOT
HETATM    1  N2  UNL     1     -65.456 -34.662 -30.819  1.00  0.00    -0.065 N 
ATOM      2  H21 UNL     1     -64.844 -34.651 -31.636  1.00  0.00     0.278 HD
ATOM      3  H22 UNL     1     -64.766 -34.405 -30.114  1.00  0.00     0.278 HD
ENDROOT
BRANCH   1   4
HETATM    4  C4  UNL     1     -66.012 -35.959 -30.581  1.00  0.00     0.252 C 
BRANCH   4   5
HETATM    5  C3  UNL     1     -64.955 -36.944 -30.064  1.00  0.00     0.143 C 
BRANCH   5   6
HETATM    6  N1  UNL     1     -65.581 -38.236 -30.084  1.00  0.00    -0.419 N 
HETATM    7  C1  UNL     1     -66.782 -38.291 -30.851  1.00  0.00     0.142 C 
HETATM    8  C2  UNL     1     -64.716 -39.350 -30.242  1.00  0.00     0.142 C 
ENDBRANCH   5   6
ENDBRANCH   4   5
ENDBRANCH   1   4
BRANCH   1   9
HETATM    9  C5  UNL     1     -66.518 -33.690 -30.921  1.00  0.00     0.125 C 
HETATM   10  C6  UNL     1     -66.239 -32.672 -32.019  1.00  0.00     0.046 C 
HETATM   11  C7  UNL     1     -67.808 -34.446 -31.169  1.00  0.00     0.046 C 
BRANCH   9  12
HETATM   12  C8  UNL     1     -66.711 -32.896 -29.650  1.00  0.00    -0.019 C 
HETATM   13  C9  UNL     1     -66.463 -31.432 -30.006  1.00  0.00     0.017 C 
HETATM   14  C10 UNL     1     -65.753 -33.297 -28.568  1.00  0.00     0.017 C 
HETATM   15  C11 UNL     1     -68.109 -33.029 -29.103  1.00  0.00     0.017 C 
ENDBRANCH   9  12
ENDBRANCH   1   9
TORSDOF 5
ENDMDL
MODEL 3
REMARK VINA RESULT: -5.007249885      1.549      3.038
REMARK  5 active torsions:
REMARK  status: ('A' for Active; 'I' for Inactive)
REMARK    1  A    between atoms: N1_2  and  C3_4 
REMARK    2  A    between atoms: C3_4  and  C4_5 
REMARK    3  A    between atoms: C4_5  and  N2_6 
REMARK    4  A    between atoms: N2_6  and  C5_9 
REMARK    5  A    between atoms: C5_9  and  C8_12 
ROOT
HETATM    1  N2  UNL     1     -65.402 -34.640 -30.593  1.00  0.00    -0.065 N 
ATOM      2  H21 UNL     1     -64.670 -34.570 -31.300  1.00  0.00     0.278 HD
ATOM      3  H22 UNL     1     -64.840 -34.404 -29.775  1.00  0.00     0.278 HD
ENDROOT
BRANCH   1   4
HETATM    4  C4  UNL     1     -65.946 -35.961 -30.509  1.00  0.00     0.252 C 
BRANCH   4   5
HETATM    5  C3  UNL     1     -64.895 -36.980 -30.049  1.00  0.00     0.143 C 
BRANCH   5   6
HETATM    6  N1  UNL     1     -65.550 -38.257 -30.076  1.00  0.00    -0.419 N 
HETATM    7  C1  UNL     1     -66.752 -38.280 -30.844  1.00  0.00     0.142 C 
HETATM    8  C2  UNL     1     -64.711 -39.390 -30.241  1.00  0.00     0.142 C 
ENDBRANCH   5   6
ENDBRANCH   4   5
ENDBRANCH   1   4
BRANCH   1   9
HETATM    9  C5  UNL     1     -66.466 -33.689 -30.815  1.00  0.00     0.125 C 
HETATM   10  C6  UNL     1     -66.121 -32.718 -31.935  1.00  0.00     0.046 C 
HETATM   11  C7  UNL     1     -67.725 -34.476 -31.120  1.00  0.00     0.046 C 
BRANCH   9  12
HETATM   12  C8  UNL     1     -66.760 -32.843 -29.599  1.00  0.00    -0.019 C 
HETATM   13  C9  UNL     1     -65.787 -33.288 -28.509  1.00  0.00     0.017 C 
HETATM   14  C10 UNL     1     -68.161 -33.024 -29.095  1.00  0.00     0.017 C 
HETATM   15  C11 UNL     1     -66.549 -31.375 -29.862  1.00  0.00     0.017 C 
ENDBRANCH   9  12
ENDBRANCH   1   9
TORSDOF 5
ENDMDL
MODEL 4
REMARK VINA RESULT: -5.006676711      2.366      4.207
REMARK  5 active torsions:
REMARK  status: ('A' for Active; 'I' for Inactive)
REMARK    1  A    between atoms: N1_2  and  C3_4 
REMARK    2  A    between atoms: C3_4  and  C4_5 
REMARK    3  A    between atoms: C4_5  and  N2_6 
REMARK    4  A    between atoms: N2_6  and  C5_9 
REMARK    5  A    between atoms: C5_9  and  C8_12 
ROOT
HETATM    1  N2  UNL     1     -66.800 -34.854 -30.538  1.00  0.00    -0.065 N 
ATOM      2  H21 UNL     1     -66.425 -35.619 -31.100  1.00  0.00     0.278 HD
ATOM      3  H22 UNL     1     -67.314 -35.411 -29.856  1.00  0.00     0.278 HD
ENDROOT
BRANCH   1   4
HETATM    4  C4  UNL     1     -67.662 -34.001 -31.297  1.00  0.00     0.252 C 
BRANCH   4   5
HETATM    5  C3  UNL     1     -67.990 -34.601 -32.669  1.00  0.00     0.143 C 
BRANCH   5   6
HETATM    6  N1  UNL     1     -69.017 -35.577 -32.434  1.00  0.00    -0.419 N 
HETATM    7  C1  UNL     1     -70.329 -35.140 -32.784  1.00  0.00     0.142 C 
HETATM    8  C2  UNL     1     -68.710 -36.913 -32.805  1.00  0.00     0.142 C 
ENDBRANCH   5   6
ENDBRANCH   4   5
ENDBRANCH   1   4
BRANCH   1   9
HETATM    9  C5  UNL     1     -65.756 -34.069 -29.923  1.00  0.00     0.125 C 
HETATM   10  C6  UNL     1     -65.354 -32.890 -30.799  1.00  0.00     0.046 C 
HETATM   11  C7  UNL     1     -66.264 -33.615 -28.568  1.00  0.00     0.046 C 
BRANCH   9  12
HETATM   12  C8  UNL     1     -64.494 -34.861 -29.676  1.00  0.00    -0.019 C 
HETATM   13  C9  UNL     1     -64.856 -36.333 -29.860  1.00  0.00     0.017 C 
HETATM   14  C10 UNL     1     -63.953 -34.669 -28.290  1.00  0.00     0.017 C 
HETATM   15  C11 UNL     1     -63.401 -34.509 -30.652  1.00  0.00     0.017 C 
ENDBRANCH   9  12
ENDBRANCH   1   9
TORSDOF 5
ENDMDL
MODEL 5
REMARK VINA RESULT: -5.005110924      2.371      4.252
REMARK  5 active torsions:
REMARK  status: ('A' for Active; 'I' for Inactive)
REMARK    1  A    between atoms: N1_2  and  C3_4 
REMARK    2  A    between atoms: C3_4  and  C4_5 
REMARK    3  A    between atoms: C4_5  and  N2_6 
REMARK    4  A    between atoms: N2_6  and  C5_9 
REMARK    5  A    between atoms: C5_9  and  C8_12 
ROOT
HETATM    1  N2  UNL     1     -66.756 -34.869 -30.558  1.00  0.00    -0.065 N 
ATOM      2  H21 UNL     1     -66.404 -35.621 -31.151  1.00  0.00     0.278 HD
ATOM      3  H22 UNL     1     -67.229 -35.442 -29.860  1.00  0.00     0.278 HD
ENDROOT
BRANCH   1   4
HETATM    4  C4  UNL     1     -67.663 -34.011 -31.256  1.00  0.00     0.252 C 
BRANCH   4   5
HETATM    5  C3  UNL     1     -68.020 -34.567 -32.640  1.00  0.00     0.143 C 
BRANCH   5   6
HETATM    6  N1  UNL     1     -69.037 -35.556 -32.414  1.00  0.00    -0.419 N 
HETATM    7  C1  UNL     1     -70.351 -35.133 -32.774  1.00  0.00     0.142 C 
HETATM    8  C2  UNL     1     -68.712 -36.887 -32.784  1.00  0.00     0.142 C 
ENDBRANCH   5   6
ENDBRANCH   4   5
ENDBRANCH   1   4
BRANCH   1   9
HETATM    9  C5  UNL     1     -65.688 -34.084 -29.984  1.00  0.00     0.125 C 
HETATM   10  C6  UNL     1     -65.231 -32.984 -30.933  1.00  0.00     0.046 C 
HETATM   11  C7  UNL     1     -66.191 -33.520 -28.670  1.00  0.00     0.046 C 
BRANCH   9  12
HETATM   12  C8  UNL     1     -64.460 -34.905 -29.669  1.00  0.00    -0.019 C 
HETATM   13  C9  UNL     1     -63.380 -34.478 -30.660  1.00  0.00     0.017 C 
HETATM   14  C10 UNL     1     -64.696 -36.379 -29.820  1.00  0.00     0.017 C 
HETATM   15  C11 UNL     1     -63.955 -34.659 -28.270  1.00  0.00     0.017 C 
ENDBRANCH   9  12
ENDBRANCH   1   9
TORSDOF 5
ENDMDL
