MODEL 1
REMARK VINA RESULT: -7.251838813      0.000      0.000
REMARK  4 active torsions:
REMARK  status: ('A' for Active; 'I' for Inactive)
REMARK    1  A    between atoms: C3_3  and  C4_4 
REMARK    2  A    between atoms: C4_4  and  C5_5 
REMARK    3  A    between atoms: C5_5  and  C6_6 
REMARK    4  A    between atoms: C7_7  and  N1_8 
ROOT
HETATM    1  C1  UNL     1     -64.094 -38.866 -30.046  1.00  0.00     0.012 C 
HETATM    2  C2  UNL     1     -65.243 -38.799 -30.372  1.00  0.00    -0.117 C 
HETATM    3  C3  UNL     1     -66.628 -38.739 -30.775  1.00  0.00     0.093 C 
ENDROOT
BRANCH   3   4
HETATM    4  C4  UNL     1     -67.064 -37.344 -31.196  1.00  0.00     0.013 C 
BRANCH   4   5
HETATM    5  C5  UNL     1     -66.184 -36.371 -30.448  1.00  0.00     0.013 C 
BRANCH   5   6
HETATM    6  C6  UNL     1     -66.348 -34.948 -30.942  1.00  0.00     0.001 A 
HETATM    7  C7  UNL     1     -67.637 -34.565 -31.549  1.00  0.00     0.198 A 
HETATM    8  C8  UNL     1     -67.370 -34.062 -30.190  1.00  0.00     0.032 A 
HETATM    9  C9  UNL     1     -66.240 -33.140 -29.880  1.00  0.00    -0.003 A 
HETATM   10  C10 UNL     1     -66.389 -31.713 -30.340  1.00  0.00     0.011 C 
HETATM   11  C11 UNL     1     -65.264 -33.973 -30.669  1.00  0.00    -0.034 A 
HETATM   12  C12 UNL     1     -64.625 -33.299 -31.840  1.00  0.00     0.016 C 
HETATM   13  C13 UNL     1     -64.170 -34.570 -29.774  1.00  0.00     0.016 C 
BRANCH   7  14
HETATM   14  N1  UNL     1     -67.696 -33.663 -32.689  1.00  0.00    -0.074 N 
ATOM     15  H13 UNL     1     -68.545 -33.103 -32.606  1.00  0.00     0.274 HD
ATOM     16  H12 UNL     1     -66.969 -32.958 -32.571  1.00  0.00     0.274 HD
ATOM     17  H11 UNL     1     -67.642 -34.015 -33.645  1.00  0.00     0.274 HD
ENDBRANCH   7  14
ENDBRANCH   5   6
ENDBRANCH   4   5
ENDBRANCH   3   4
TORSDOF 4
ENDMDL
MODEL 2
REMARK VINA RESULT: -6.995868270      1.706      2.870
REMARK  4 active torsions:
REMARK  status: ('A' for Active; 'I' for Inactive)
REMARK    1  A    between atoms: C3_3  and  C4_4 
REMARK    2  A    between atoms: C4_4  and  C5_5 
REMARK    3  A    between atoms: C5_5  and  C6_6 
REMARK    4  A    between atoms: C7_7  and  N1_8 
ROOT
HETATM    1  C1  UNL     1     -67.834 -39.044 -31.286  1.00  0.00     0.012 C 
HETATM    2  C2  UNL     1     -66.707 -38.974 -30.890  1.00  0.00    -0.117 C 
HETATM    3  C3  UNL     1     -65.349 -38.911 -30.404  1.00  0.00     0.093 C 
ENDROOT
BRANCH   3   4
HETATM    4  C4  UNL     1     -64.935 -37.509 -29.985  1.00  0.00     0.013 C 
BRANCH   4   5
HETATM    5  C5  UNL     1     -65.938 -36.559 -30.595  1.00  0.00     0.013 C 
BRANCH   5   6
HETATM    6  C6  UNL     1     -65.788 -35.146 -30.068  1.00  0.00     0.001 A 
HETATM    7  C7  UNL     1     -64.554 -34.801 -29.337  1.00  0.00     0.198 A 
HETATM    8  C8  UNL     1     -64.679 -34.277 -30.708  1.00  0.00     0.032 A 
HETATM    9  C9  UNL     1     -65.753 -33.325 -31.112  1.00  0.00    -0.003 A 
HETATM   10  C10 UNL     1     -65.615 -31.907 -30.621  1.00  0.00     0.011 C 
HETATM   11  C11 UNL     1     -66.818 -34.142 -30.430  1.00  0.00    -0.034 A 
HETATM   12  C12 UNL     1     -67.550 -33.466 -29.316  1.00  0.00     0.016 C 
HETATM   13  C13 UNL     1     -67.836 -34.702 -31.433  1.00  0.00     0.016 C 
BRANCH   7  14
HETATM   14  N1  UNL     1     -64.583 -33.914 -28.184  1.00  0.00    -0.074 N 
ATOM     15  H13 UNL     1     -64.495 -34.485 -27.344  1.00  0.00     0.274 HD
ATOM     16  H12 UNL     1     -63.710 -33.387 -28.170  1.00  0.00     0.274 HD
ATOM     17  H11 UNL     1     -65.351 -33.257 -28.042  1.00  0.00     0.274 HD
ENDBRANCH   7  14
ENDBRANCH   5   6
ENDBRANCH   4   5
ENDBRANCH   3   4
TORSDOF 4
ENDMDL
MODEL 3
REMARK VINA RESULT: -6.861704840      0.769      1.463
REMARK  4 active torsions:
REMARK  status: ('A' for Active; 'I' for Inactive)
REMARK    1  A    between atoms: C3_3  and  C4_4 
REMARK    2  A    between atoms: C4_4  and  C5_5 
REMARK    3  A    between atoms: C5_5  and  C6_6 
REMARK    4  A    between atoms: C7_7  and  N1_8 
ROOT
HETATM    1  C1  UNL     1     -67.892 -38.848 -31.306  1.00  0.00     0.012 C 
HETATM    2  C2  UNL     1     -66.778 -38.805 -30.872  1.00  0.00    -0.117 C 
HETATM    3  C3  UNL     1     -65.440 -38.766 -30.331  1.00  0.00     0.093 C 
ENDROOT
BRANCH   3   4
HETATM    4  C4  UNL     1     -64.771 -37.411 -30.498  1.00  0.00     0.013 C 
BRANCH   4   5
HETATM    5  C5  UNL     1     -65.582 -36.425 -29.691  1.00  0.00     0.013 C 
BRANCH   5   6
HETATM    6  C6  UNL     1     -65.887 -35.159 -30.466  1.00  0.00     0.001 A 
HETATM    7  C7  UNL     1     -67.163 -35.082 -31.202  1.00  0.00     0.198 A 
HETATM    8  C8  UNL     1     -67.068 -34.298 -29.959  1.00  0.00     0.032 A 
HETATM    9  C9  UNL     1     -66.093 -33.185 -29.779  1.00  0.00    -0.003 A 
HETATM   10  C10 UNL     1     -66.385 -31.906 -30.520  1.00  0.00     0.011 C 
HETATM   11  C11 UNL     1     -64.960 -34.008 -30.335  1.00  0.00    -0.034 A 
HETATM   12  C12 UNL     1     -64.322 -33.486 -31.581  1.00  0.00     0.016 C 
HETATM   13  C13 UNL     1     -63.872 -34.265 -29.284  1.00  0.00     0.016 C 
BRANCH   7  14
HETATM   14  N1  UNL     1     -67.246 -34.430 -32.500  1.00  0.00    -0.074 N 
ATOM     15  H13 UNL     1     -66.963 -33.457 -32.384  1.00  0.00     0.274 HD
ATOM     16  H12 UNL     1     -66.496 -34.796 -33.086  1.00  0.00     0.274 HD
ATOM     17  H11 UNL     1     -68.108 -34.445 -33.045  1.00  0.00     0.274 HD
ENDBRANCH   7  14
ENDBRANCH   5   6
ENDBRANCH   4   5
ENDBRANCH   3   4
TORSDOF 4
ENDMDL
MODEL 4
REMARK VINA RESULT: -6.555691696      2.416      4.201
REMARK  4 active torsions:
REMARK  status: ('A' for Active; 'I' for Inactive)
REMARK    1  A    between atoms: C3_3  and  C4_4 
REMARK    2  A    between atoms: C4_4  and  C5_5 
REMARK    3  A    between atoms: C5_5  and  C6_6 
REMARK    4  A    between atoms: C7_7  and  N1_8 
ROOT
HETATM    1  C1  UNL     1     -68.574 -34.703 -32.738  1.00  0.00     0.012 C 
HETATM    2  C2  UNL     1     -67.758 -33.902 -33.090  1.00  0.00    -0.117 C 
HETATM    3  C3  UNL     1     -66.787 -32.929 -33.532  1.00  0.00     0.093 C 
ENDROOT
BRANCH   3   4
HETATM    4  C4  UNL     1     -65.353 -33.357 -33.262  1.00  0.00     0.013 C 
BRANCH   4   5
HETATM    5  C5  UNL     1     -64.966 -32.762 -31.929  1.00  0.00     0.013 C 
BRANCH   5   6
HETATM    6  C6  UNL     1     -65.455 -33.595 -30.762  1.00  0.00     0.001 A 
HETATM    7  C7  UNL     1     -65.030 -35.006 -30.686  1.00  0.00     0.198 A 
HETATM    8  C8  UNL     1     -64.387 -34.070 -29.748  1.00  0.00     0.032 A 
HETATM    9  C9  UNL     1     -65.147 -33.326 -28.703  1.00  0.00    -0.003 A 
HETATM   10  C10 UNL     1     -65.625 -34.127 -27.519  1.00  0.00     0.011 C 
HETATM   11  C11 UNL     1     -66.218 -32.923 -29.683  1.00  0.00    -0.034 A 
HETATM   12  C12 UNL     1     -67.595 -33.424 -29.390  1.00  0.00     0.016 C 
HETATM   13  C13 UNL     1     -66.268 -31.402 -29.878  1.00  0.00     0.016 C 
BRANCH   7  14
HETATM   14  N1  UNL     1     -65.937 -36.042 -30.215  1.00  0.00    -0.074 N 
ATOM     15  H13 UNL     1     -65.377 -36.782 -29.790  1.00  0.00     0.274 HD
ATOM     16  H12 UNL     1     -66.444 -35.676 -29.409  1.00  0.00     0.274 HD
ATOM     17  H11 UNL     1     -66.613 -36.478 -30.842  1.00  0.00     0.274 HD
ENDBRANCH   7  14
ENDBRANCH   5   6
ENDBRANCH   4   5
ENDBRANCH   3   4
TORSDOF 4
ENDMDL
MODEL 5
REMARK VINA RESULT: -6.530549545      1.914      4.032
REMARK  4 active torsions:
REMARK  status: ('A' for Active; 'I' for Inactive)
REMARK    1  A    between atoms: C3_3  and  C4_4 
REMARK    2  A    between atoms: C4_4  and  C5_5 
REMARK    3  A    between atoms: C5_5  and  C6_6 
REMARK    4  A    between atoms: C7_7  and  N1_8 
ROOT
HETATM    1  C1  UNL     1     -65.212 -31.597 -34.239  1.00  0.00     0.012 C 
HETATM    2  C2  UNL     1     -65.787 -32.631 -34.057  1.00  0.00    -0.117 C 
HETATM    3  C3  UNL     1     -66.473 -33.885 -33.858  1.00  0.00     0.093 C 
ENDROOT
BRANCH   3   4
HETATM    4  C4  UNL     1     -67.821 -33.722 -33.174  1.00  0.00     0.013 C 
BRANCH   4   5
HETATM    5  C5  UNL     1     -67.730 -34.452 -31.855  1.00  0.00     0.013 C 
BRANCH   5   6
HETATM    6  C6  UNL     1     -66.744 -33.804 -30.905  1.00  0.00     0.001 A 
HETATM    7  C7  UNL     1     -66.931 -32.379 -30.569  1.00  0.00     0.198 A 
HETATM    8  C8  UNL     1     -67.292 -33.357 -29.528  1.00  0.00     0.032 A 
HETATM    9  C9  UNL     1     -66.298 -34.279 -28.909  1.00  0.00    -0.003 A 
HETATM   10  C10 UNL     1     -65.320 -33.664 -27.941  1.00  0.00     0.011 C 
HETATM   11  C11 UNL     1     -65.725 -34.659 -30.249  1.00  0.00    -0.034 A 
HETATM   12  C12 UNL     1     -64.287 -34.318 -30.467  1.00  0.00     0.016 C 
HETATM   13  C13 UNL     1     -65.941 -36.147 -30.559  1.00  0.00     0.016 C 
BRANCH   7  14
HETATM   14  N1  UNL     1     -65.794 -31.487 -30.405  1.00  0.00    -0.074 N 
ATOM     15  H13 UNL     1     -65.862 -31.056 -29.483  1.00  0.00     0.274 HD
ATOM     16  H12 UNL     1     -64.956 -32.060 -30.306  1.00  0.00     0.274 HD
ATOM     17  H11 UNL     1     -65.596 -30.752 -31.084  1.00  0.00     0.274 HD
ENDBRANCH   7  14
ENDBRANCH   5   6
ENDBRANCH   4   5
ENDBRANCH   3   4
TORSDOF 4
ENDMDL
