MODEL 1
REMARK VINA RESULT: -9.156201964      0.000      0.000
REMARK  11 active torsions:
REMARK  status: ('A' for Active; 'I' for Inactive)
REMARK    1  A    between atoms: C2_2  and  N1_3 
REMARK    2  A    between atoms: N1_3  and  C4_5 
REMARK    3  A    between atoms: C4_5  and  C5_6 
REMARK    4  A    between atoms: C5_6  and  O1_7 
REMARK    5  A    between atoms: C5_6  and  C6_9 
REMARK    6  A    between atoms: C6_9  and  C7_10 
REMARK    7  A    between atoms: C8_11  and  C9_12 
REMARK    8  A    between atoms: C10_13  and  C11_14 
REMARK    9  A    between atoms: C11_14  and  C12_15 
REMARK   10  A    between atoms: C13_16  and  C14_17 
REMARK   11  A    between atoms: C14_17  and  C15_18 
ROOT
HETATM    1  C12 UNL     1       4.600  -1.309  47.011  1.00  0.00    -0.027 C 
HETATM    2  C13 UNL     1       5.830  -1.210  46.595  1.00  0.00    -0.028 C 
ENDROOT
BRANCH   2   3
HETATM    3  C14 UNL     1       6.934  -0.614  47.349  1.00  0.00     0.059 C 
BRANCH   3   4
HETATM    4  C15 UNL     1       8.225  -1.049  46.695  1.00  0.00     0.135 C 
HETATM    5  C16 UNL     1       9.460  -0.530  47.425  1.00  0.00     0.039 C 
HETATM    6  C17 UNL     1      10.588  -1.405  46.995  1.00  0.00     0.011 A 
HETATM    7  C18 UNL     1      10.667  -1.444  45.487  1.00  0.00     0.099 A 
HETATM    8  C27 UNL     1      11.981  -0.856  47.101  1.00  0.00     0.028 A 
HETATM    9  C19 UNL     1       9.630  -0.636  44.813  1.00  0.00     0.264 C 
HETATM   10  C20 UNL     1      12.032  -0.802  45.612  1.00  0.00    -0.023 A 
HETATM   11  O2  UNL     1       9.820   0.033  43.760  1.00  0.00    -0.265 OA
HETATM   12  O3  UNL     1       8.357  -0.601  45.362  1.00  0.00    -0.315 OA
HETATM   13  C21 UNL     1      13.081  -1.753  45.040  1.00  0.00     0.016 C 
HETATM   14  C22 UNL     1      12.138   0.589  45.084  1.00  0.00     0.014 C 
HETATM   15  C23 UNL     1      13.312   1.242  45.833  1.00  0.00     0.028 C 
HETATM   16  C24 UNL     1      12.780   1.425  47.232  1.00  0.00    -0.024 C 
HETATM   17  C25 UNL     1      12.155   0.409  47.789  1.00  0.00    -0.082 C 
HETATM   18  C26 UNL     1      11.636   0.631  49.186  1.00  0.00     0.043 C 
ENDBRANCH   3   4
ENDBRANCH   2   3
BRANCH   1  19
HETATM   19  C11 UNL     1       4.019  -0.860  48.300  1.00  0.00     0.054 C 
BRANCH  19  20
HETATM   20  C10 UNL     1       3.704  -1.990  49.187  1.00  0.00    -0.023 C 
HETATM   21  C9  UNL     1       4.475  -2.533  50.109  1.00  0.00    -0.004 C 
BRANCH  21  22
HETATM   22  C8  UNL     1       5.804  -2.115  50.431  1.00  0.00    -0.004 C 
HETATM   23  C7  UNL     1       6.138  -1.363  51.432  1.00  0.00    -0.024 C 
BRANCH  23  24
HETATM   24  C6  UNL     1       5.183  -0.818  52.402  1.00  0.00     0.060 C 
BRANCH  24  25
HETATM   25  C5  UNL     1       5.617  -1.028  53.855  1.00  0.00     0.149 C 
BRANCH  25  26
HETATM   26  C4  UNL     1       4.475  -1.614  54.611  1.00  0.00     0.303 C 
BRANCH  26  27
HETATM   27  N1  UNL     1       4.661  -2.948  55.085  1.00  0.00     0.086 N 
HETATM   28  C3  UNL     1       3.686  -3.248  56.117  1.00  0.00     0.310 C 
BRANCH  27  29
HETATM   29  C2  UNL     1       4.634  -3.981  54.102  1.00  0.00     0.267 C 
HETATM   30  C1  UNL     1       3.328  -3.973  53.328  1.00  0.00     0.037 C 
ENDBRANCH  27  29
ENDBRANCH  26  27
ENDBRANCH  25  26
BRANCH  25  31
HETATM   31  O1  UNL     1       6.104   0.138  54.405  1.00  0.00    -0.394 OA
ATOM     32  H1  UNL     1       6.832   0.512  53.922  1.00  0.00     0.210 HD
ENDBRANCH  25  31
ENDBRANCH  24  25
ENDBRANCH  23  24
ENDBRANCH  21  22
ENDBRANCH  19  20
ENDBRANCH   1  19
TORSDOF 11
ENDMDL
MODEL 2
REMARK VINA RESULT: -9.136414592      5.516      8.535
REMARK  11 active torsions:
REMARK  status: ('A' for Active; 'I' for Inactive)
REMARK    1  A    between atoms: C2_2  and  N1_3 
REMARK    2  A    between atoms: N1_3  and  C4_5 
REMARK    3  A    between atoms: C4_5  and  C5_6 
REMARK    4  A    between atoms: C5_6  and  O1_7 
REMARK    5  A    between atoms: C5_6  and  C6_9 
REMARK    6  A    between atoms: C6_9  and  C7_10 
REMARK    7  A    between atoms: C8_11  and  C9_12 
REMARK    8  A    between atoms: C10_13  and  C11_14 
REMARK    9  A    between atoms: C11_14  and  C12_15 
REMARK   10  A    between atoms: C13_16  and  C14_17 
REMARK   11  A    between atoms: C14_17  and  C15_18 
ROOT
HETATM    1  C12 UNL     1       1.429  -3.713  46.906  1.00  0.00    -0.027 C 
HETATM    2  C13 UNL     1       1.725  -4.434  47.949  1.00  0.00    -0.028 C 
ENDROOT
BRANCH   2   3
HETATM    3  C14 UNL     1       1.719  -3.960  49.335  1.00  0.00     0.059 C 
BRANCH   3   4
HETATM    4  C15 UNL     1       3.107  -3.458  49.655  1.00  0.00     0.135 C 
HETATM    5  C16 UNL     1       3.452  -3.579  51.136  1.00  0.00     0.039 C 
HETATM    6  C17 UNL     1       4.939  -3.526  51.216  1.00  0.00     0.011 A 
HETATM    7  C18 UNL     1       5.453  -2.296  50.507  1.00  0.00     0.099 A 
HETATM    8  C27 UNL     1       5.557  -3.094  52.514  1.00  0.00     0.028 A 
HETATM    9  C19 UNL     1       4.389  -1.463  49.909  1.00  0.00     0.264 C 
HETATM   10  C20 UNL     1       5.985  -1.832  51.846  1.00  0.00    -0.023 A 
HETATM   11  O2  UNL     1       4.402  -0.201  49.884  1.00  0.00    -0.265 OA
HETATM   12  O3  UNL     1       3.298  -2.095  49.332  1.00  0.00    -0.315 OA
HETATM   13  C21 UNL     1       7.506  -1.717  51.761  1.00  0.00     0.016 C 
HETATM   14  C22 UNL     1       5.327  -0.621  52.414  1.00  0.00     0.014 C 
HETATM   15  C23 UNL     1       5.537  -0.693  53.936  1.00  0.00     0.028 C 
HETATM   16  C24 UNL     1       4.638  -1.828  54.362  1.00  0.00    -0.024 C 
HETATM   17  C25 UNL     1       4.678  -2.939  53.659  1.00  0.00    -0.082 C 
HETATM   18  C26 UNL     1       3.765  -4.049  54.114  1.00  0.00     0.043 C 
ENDBRANCH   3   4
ENDBRANCH   2   3
BRANCH   1  19
HETATM   19  C11 UNL     1       1.029  -2.286  46.848  1.00  0.00     0.054 C 
BRANCH  19  20
HETATM   20  C10 UNL     1      -0.409  -2.125  46.585  1.00  0.00    -0.023 C 
HETATM   21  C9  UNL     1      -1.340  -1.699  47.417  1.00  0.00    -0.004 C 
BRANCH  21  22
HETATM   22  C8  UNL     1      -1.123  -1.301  48.773  1.00  0.00    -0.004 C 
HETATM   23  C7  UNL     1      -1.280  -0.103  49.243  1.00  0.00    -0.024 C 
BRANCH  23  24
HETATM   24  C6  UNL     1      -1.712   1.044  48.438  1.00  0.00     0.060 C 
BRANCH  24  25
HETATM   25  C5  UNL     1      -1.196   2.382  48.974  1.00  0.00     0.149 C 
BRANCH  25  26
HETATM   26  C4  UNL     1      -0.051   2.821  48.129  1.00  0.00     0.303 C 
BRANCH  26  27
HETATM   27  N1  UNL     1      -0.345   3.046  46.749  1.00  0.00     0.086 N 
HETATM   28  C3  UNL     1      -0.536   4.464  46.508  1.00  0.00     0.310 C 
BRANCH  27  29
HETATM   29  C2  UNL     1       0.595   2.532  45.807  1.00  0.00     0.267 C 
HETATM   30  C1  UNL     1       1.109   1.168  46.229  1.00  0.00     0.037 C 
ENDBRANCH  27  29
ENDBRANCH  26  27
ENDBRANCH  25  26
BRANCH  25  31
HETATM   31  O1  UNL     1      -0.894   2.299  50.316  1.00  0.00    -0.394 OA
ATOM     32  H1  UNL     1      -1.600   1.945  50.844  1.00  0.00     0.210 HD
ENDBRANCH  25  31
ENDBRANCH  24  25
ENDBRANCH  23  24
ENDBRANCH  21  22
ENDBRANCH  19  20
ENDBRANCH   1  19
TORSDOF 11
ENDMDL
MODEL 3
REMARK VINA RESULT: -9.135927823      3.392      5.051
REMARK  11 active torsions:
REMARK  status: ('A' for Active; 'I' for Inactive)
REMARK    1  A    between atoms: C2_2  and  N1_3 
REMARK    2  A    between atoms: N1_3  and  C4_5 
REMARK    3  A    between atoms: C4_5  and  C5_6 
REMARK    4  A    between atoms: C5_6  and  O1_7 
REMARK    5  A    between atoms: C5_6  and  C6_9 
REMARK    6  A    between atoms: C6_9  and  C7_10 
REMARK    7  A    between atoms: C8_11  and  C9_12 
REMARK    8  A    between atoms: C10_13  and  C11_14 
REMARK    9  A    between atoms: C11_14  and  C12_15 
REMARK   10  A    between atoms: C13_16  and  C14_17 
REMARK   11  A    between atoms: C14_17  and  C15_18 
ROOT
HETATM    1  C12 UNL     1       5.870  -2.151  48.978  1.00  0.00    -0.027 C 
HETATM    2  C13 UNL     1       6.846  -1.450  48.477  1.00  0.00    -0.028 C 
ENDROOT
BRANCH   2   3
HETATM    3  C14 UNL     1       6.883  -0.897  47.121  1.00  0.00     0.059 C 
BRANCH   3   4
HETATM    4  C15 UNL     1       8.228  -1.239  46.523  1.00  0.00     0.135 C 
HETATM    5  C16 UNL     1       9.394  -0.715  47.354  1.00  0.00     0.039 C 
HETATM    6  C17 UNL     1      10.582  -1.515  46.944  1.00  0.00     0.011 A 
HETATM    7  C18 UNL     1      10.750  -1.461  45.444  1.00  0.00     0.099 A 
HETATM    8  C27 UNL     1      11.941  -0.918  47.165  1.00  0.00     0.028 A 
HETATM    9  C19 UNL     1       9.720  -0.656  44.755  1.00  0.00     0.264 C 
HETATM   10  C20 UNL     1      12.076  -0.772  45.688  1.00  0.00    -0.023 A 
HETATM   11  O2  UNL     1       9.941   0.083  43.756  1.00  0.00    -0.265 OA
HETATM   12  O3  UNL     1       8.417  -0.706  45.227  1.00  0.00    -0.315 OA
HETATM   13  C21 UNL     1      13.198  -1.643  45.126  1.00  0.00     0.016 C 
HETATM   14  C22 UNL     1      12.151   0.651  45.249  1.00  0.00     0.014 C 
HETATM   15  C23 UNL     1      13.250   1.306  46.104  1.00  0.00     0.028 C 
HETATM   16  C24 UNL     1      12.630   1.382  47.477  1.00  0.00    -0.024 C 
HETATM   17  C25 UNL     1      12.019   0.310  47.935  1.00  0.00    -0.082 C 
HETATM   18  C26 UNL     1      11.411   0.425  49.309  1.00  0.00     0.043 C 
ENDBRANCH   3   4
ENDBRANCH   2   3
BRANCH   1  19
HETATM   19  C11 UNL     1       4.596  -2.558  48.336  1.00  0.00     0.054 C 
BRANCH  19  20
HETATM   20  C10 UNL     1       3.801  -3.445  49.198  1.00  0.00    -0.023 C 
HETATM   21  C9  UNL     1       2.788  -4.215  48.850  1.00  0.00    -0.004 C 
BRANCH  21  22
HETATM   22  C8  UNL     1       2.253  -4.337  47.529  1.00  0.00    -0.004 C 
HETATM   23  C7  UNL     1       1.155  -3.794  47.106  1.00  0.00    -0.024 C 
BRANCH  23  24
HETATM   24  C6  UNL     1       0.280  -2.959  47.935  1.00  0.00     0.060 C 
BRANCH  24  25
HETATM   25  C5  UNL     1      -0.303  -1.763  47.178  1.00  0.00     0.149 C 
BRANCH  25  26
HETATM   26  C4  UNL     1      -0.615  -0.687  48.159  1.00  0.00     0.303 C 
BRANCH  26  27
HETATM   27  N1  UNL     1       0.143   0.517  48.026  1.00  0.00     0.086 N 
HETATM   28  C3  UNL     1       0.927   0.476  46.805  1.00  0.00     0.310 C 
BRANCH  27  29
HETATM   29  C2  UNL     1      -0.591   1.739  48.070  1.00  0.00     0.267 C 
HETATM   30  C1  UNL     1       0.328   2.927  48.286  1.00  0.00     0.037 C 
ENDBRANCH  27  29
ENDBRANCH  26  27
ENDBRANCH  25  26
BRANCH  25  31
HETATM   31  O1  UNL     1      -1.381  -2.138  46.406  1.00  0.00    -0.394 OA
ATOM     32  H1  UNL     1      -1.143  -2.424  45.532  1.00  0.00     0.210 HD
ENDBRANCH  25  31
ENDBRANCH  24  25
ENDBRANCH  23  24
ENDBRANCH  21  22
ENDBRANCH  19  20
ENDBRANCH   1  19
TORSDOF 11
ENDMDL
MODEL 4
REMARK VINA RESULT: -8.976261031      3.595      9.029
REMARK  11 active torsions:
REMARK  status: ('A' for Active; 'I' for Inactive)
REMARK    1  A    between atoms: C2_2  and  N1_3 
REMARK    2  A    between atoms: N1_3  and  C4_5 
REMARK    3  A    between atoms: C4_5  and  C5_6 
REMARK    4  A    between atoms: C5_6  and  O1_7 
REMARK    5  A    between atoms: C5_6  and  C6_9 
REMARK    6  A    between atoms: C6_9  and  C7_10 
REMARK    7  A    between atoms: C8_11  and  C9_12 
REMARK    8  A    between atoms: C10_13  and  C11_14 
REMARK    9  A    between atoms: C11_14  and  C12_15 
REMARK   10  A    between atoms: C13_16  and  C14_17 
REMARK   11  A    between atoms: C14_17  and  C15_18 
ROOT
HETATM    1  C12 UNL     1       8.259  -1.062  46.007  1.00  0.00    -0.027 C 
HETATM    2  C13 UNL     1       7.162  -1.378  46.632  1.00  0.00    -0.028 C 
ENDROOT
BRANCH   2   3
HETATM    3  C14 UNL     1       6.992  -1.402  48.086  1.00  0.00     0.059 C 
BRANCH   3   4
HETATM    4  C15 UNL     1       5.512  -1.306  48.377  1.00  0.00     0.135 C 
HETATM    5  C16 UNL     1       4.855  -2.673  48.543  1.00  0.00     0.039 C 
HETATM    6  C17 UNL     1       3.585  -2.429  49.285  1.00  0.00     0.011 A 
HETATM    7  C18 UNL     1       2.768  -1.373  48.579  1.00  0.00     0.099 A 
HETATM    8  C27 UNL     1       2.485  -3.441  49.145  1.00  0.00     0.028 A 
HETATM    9  C19 UNL     1       3.406  -0.839  47.358  1.00  0.00     0.264 C 
HETATM   10  C20 UNL     1       1.711  -2.435  48.364  1.00  0.00    -0.023 A 
HETATM   11  O2  UNL     1       2.785  -0.532  46.303  1.00  0.00    -0.265 OA
HETATM   12  O3  UNL     1       4.781  -0.657  47.356  1.00  0.00    -0.315 OA
HETATM   13  C21 UNL     1       0.431  -2.012  49.084  1.00  0.00     0.016 C 
HETATM   14  C22 UNL     1       1.490  -2.844  46.947  1.00  0.00     0.014 C 
HETATM   15  C23 UNL     1       0.906  -4.266  46.998  1.00  0.00     0.028 C 
HETATM   16  C24 UNL     1       2.076  -5.110  47.441  1.00  0.00    -0.024 C 
HETATM   17  C25 UNL     1       2.795  -4.679  48.455  1.00  0.00    -0.082 C 
HETATM   18  C26 UNL     1       3.954  -5.549  48.867  1.00  0.00     0.043 C 
ENDBRANCH   3   4
ENDBRANCH   2   3
BRANCH   1  19
HETATM   19  C11 UNL     1       9.569  -0.663  46.577  1.00  0.00     0.054 C 
BRANCH  19  20
HETATM   20  C10 UNL     1      10.672  -1.487  46.059  1.00  0.00    -0.023 C 
HETATM   21  C9  UNL     1      11.676  -1.105  45.295  1.00  0.00    -0.004 C 
BRANCH  21  22
HETATM   22  C8  UNL     1      11.891   0.223  44.809  1.00  0.00    -0.004 C 
HETATM   23  C7  UNL     1      12.605   1.135  45.391  1.00  0.00    -0.024 C 
BRANCH  23  24
HETATM   24  C6  UNL     1      13.313   0.936  46.659  1.00  0.00     0.060 C 
BRANCH  24  25
HETATM   25  C5  UNL     1      12.863   1.903  47.757  1.00  0.00     0.149 C 
BRANCH  25  26
HETATM   26  C4  UNL     1      12.002   1.161  48.719  1.00  0.00     0.303 C 
BRANCH  26  27
HETATM   27  N1  UNL     1      12.572   0.922  50.008  1.00  0.00     0.086 N 
HETATM   28  C3  UNL     1      11.952   1.790  50.992  1.00  0.00     0.310 C 
BRANCH  27  29
HETATM   29  C2  UNL     1      12.533  -0.424  50.480  1.00  0.00     0.267 C 
HETATM   30  C1  UNL     1      12.856  -1.407  49.370  1.00  0.00     0.037 C 
ENDBRANCH  27  29
ENDBRANCH  26  27
ENDBRANCH  25  26
BRANCH  25  31
HETATM   31  O1  UNL     1      12.258   3.019  47.221  1.00  0.00    -0.394 OA
ATOM     32  H1  UNL     1      11.760   2.842  46.432  1.00  0.00     0.210 HD
ENDBRANCH  25  31
ENDBRANCH  24  25
ENDBRANCH  23  24
ENDBRANCH  21  22
ENDBRANCH  19  20
ENDBRANCH   1  19
TORSDOF 11
ENDMDL
MODEL 5
REMARK VINA RESULT: -8.971864797      1.925      3.035
REMARK  11 active torsions:
REMARK  status: ('A' for Active; 'I' for Inactive)
REMARK    1  A    between atoms: C2_2  and  N1_3 
REMARK    2  A    between atoms: N1_3  and  C4_5 
REMARK    3  A    between atoms: C4_5  and  C5_6 
REMARK    4  A    between atoms: C5_6  and  O1_7 
REMARK    5  A    between atoms: C5_6  and  C6_9 
REMARK    6  A    between atoms: C6_9  and  C7_10 
REMARK    7  A    between atoms: C8_11  and  C9_12 
REMARK    8  A    between atoms: C10_13  and  C11_14 
REMARK    9  A    between atoms: C11_14  and  C12_15 
REMARK   10  A    between atoms: C13_16  and  C14_17 
REMARK   11  A    between atoms: C14_17  and  C15_18 
ROOT
HETATM    1  C12 UNL     1       4.916  -1.753  47.538  1.00  0.00    -0.027 C 
HETATM    2  C13 UNL     1       6.138  -1.436  47.858  1.00  0.00    -0.028 C 
ENDROOT
BRANCH   2   3
HETATM    3  C14 UNL     1       6.885  -0.295  47.324  1.00  0.00     0.059 C 
BRANCH   3   4
HETATM    4  C15 UNL     1       8.163  -0.826  46.719  1.00  0.00     0.135 C 
HETATM    5  C16 UNL     1       9.412  -0.275  47.401  1.00  0.00     0.039 C 
HETATM    6  C17 UNL     1      10.515  -1.217  47.059  1.00  0.00     0.011 A 
HETATM    7  C18 UNL     1      10.594  -1.401  45.562  1.00  0.00     0.099 A 
HETATM    8  C27 UNL     1      11.923  -0.701  47.118  1.00  0.00     0.028 A 
HETATM    9  C19 UNL     1       9.581  -0.631  44.811  1.00  0.00     0.264 C 
HETATM   10  C20 UNL     1      11.977  -0.787  45.631  1.00  0.00    -0.023 A 
HETATM   11  O2  UNL     1       9.792  -0.069  43.700  1.00  0.00    -0.265 OA
HETATM   12  O3  UNL     1       8.309  -0.509  45.349  1.00  0.00    -0.315 OA
HETATM   13  C21 UNL     1      12.999  -1.817  45.154  1.00  0.00     0.016 C 
HETATM   14  C22 UNL     1      12.122   0.544  44.976  1.00  0.00     0.014 C 
HETATM   15  C23 UNL     1      13.313   1.232  45.664  1.00  0.00     0.028 C 
HETATM   16  C24 UNL     1      12.785   1.560  47.038  1.00  0.00    -0.024 C 
HETATM   17  C25 UNL     1      12.131   0.619  47.685  1.00  0.00    -0.082 C 
HETATM   18  C26 UNL     1      11.618   0.985  49.054  1.00  0.00     0.043 C 
ENDBRANCH   3   4
ENDBRANCH   2   3
BRANCH   1  19
HETATM   19  C11 UNL     1       4.000  -1.073  46.589  1.00  0.00     0.054 C 
BRANCH  19  20
HETATM   20  C10 UNL     1       2.667  -0.853  47.169  1.00  0.00    -0.023 C 
HETATM   21  C9  UNL     1       1.684  -1.723  47.290  1.00  0.00    -0.004 C 
BRANCH  21  22
HETATM   22  C8  UNL     1       1.728  -3.089  46.868  1.00  0.00    -0.004 C 
HETATM   23  C7  UNL     1       1.812  -4.119  47.650  1.00  0.00    -0.024 C 
BRANCH  23  24
HETATM   24  C6  UNL     1       1.876  -4.036  49.113  1.00  0.00     0.060 C 
BRANCH  24  25
HETATM   25  C5  UNL     1       3.219  -4.498  49.684  1.00  0.00     0.149 C 
BRANCH  25  26
HETATM   26  C4  UNL     1       3.823  -3.371  50.447  1.00  0.00     0.303 C 
BRANCH  26  27
HETATM   27  N1  UNL     1       4.365  -3.706  51.726  1.00  0.00     0.086 N 
HETATM   28  C3  UNL     1       5.180  -2.612  52.220  1.00  0.00     0.310 C 
BRANCH  27  29
HETATM   29  C2  UNL     1       3.428  -4.084  52.734  1.00  0.00     0.267 C 
HETATM   30  C1  UNL     1       4.131  -4.463  54.025  1.00  0.00     0.037 C 
ENDBRANCH  27  29
ENDBRANCH  26  27
ENDBRANCH  25  26
BRANCH  25  31
HETATM   31  O1  UNL     1       4.037  -4.997  48.693  1.00  0.00    -0.394 OA
ATOM     32  H1  UNL     1       4.663  -4.364  48.361  1.00  0.00     0.210 HD
ENDBRANCH  25  31
ENDBRANCH  24  25
ENDBRANCH  23  24
ENDBRANCH  21  22
ENDBRANCH  19  20
ENDBRANCH   1  19
TORSDOF 11
ENDMDL
