MODEL 1
REMARK VINA RESULT: -8.966824045      0.000      0.000
REMARK  12 active torsions:
REMARK  status: ('A' for Active; 'I' for Inactive)
REMARK    1  A    between atoms: C2_2  and  C3_3 
REMARK    2  A    between atoms: C3_3  and  C4_4 
REMARK    3  A    between atoms: C4_4  and  C5_5 
REMARK    4  A    between atoms: C5_5  and  N1_7 
REMARK    5  A    between atoms: N1_7  and  C7_9 
REMARK    6  A    between atoms: C7_9  and  C8_10 
REMARK    7  A    between atoms: C8_10  and  N2_11 
REMARK    8  A    between atoms: C8_10  and  C25_30 
REMARK       I    between atoms: N2_11  and  C9_13 
REMARK    9  A    between atoms: C9_13  and  C10_15 
REMARK   10  A    between atoms: C10_15  and  C11_16 
REMARK   11  A    between atoms: C11_16  and  C12_17 
REMARK   12  A    between atoms: C25_30  and  O3_32 
ROOT
HETATM    1  N2  UNL     1       6.234  -0.949  52.201  1.00  0.00    -0.318 N 
ATOM      2  H2  UNL     1       7.142  -0.502  52.326  1.00  0.00     0.169 HD
HETATM    3  C9  UNL     1       5.907  -1.283  50.849  1.00  0.00     0.242 C 
HETATM    4  O1  UNL     1       6.830  -1.666  50.113  1.00  0.00    -0.269 OA
ENDROOT
BRANCH   3   5
HETATM    5  C10 UNL     1       4.548  -1.163  50.441  1.00  0.00     0.048 C 
BRANCH   5   6
HETATM    6  C11 UNL     1       4.121  -0.743  49.073  1.00  0.00     0.042 C 
BRANCH   6   7
HETATM    7  C12 UNL     1       3.977  -1.775  48.039  1.00  0.00    -0.035 C 
HETATM    8  C13 UNL     1       5.349  -1.924  47.269  1.00  0.00     0.016 C 
HETATM    9  C14 UNL     1       3.095  -1.120  46.857  1.00  0.00     0.020 C 
HETATM   10  C15 UNL     1       2.009  -1.900  47.491  1.00  0.00    -0.031 C 
HETATM   11  C16 UNL     1       1.044  -1.173  48.199  1.00  0.00     0.011 C 
HETATM   12  C18 UNL     1       0.994  -2.577  46.657  1.00  0.00    -0.005 C 
HETATM   13  C24 UNL     1       3.063  -2.831  47.847  1.00  0.00     0.011 C 
HETATM   14  C17 UNL     1       0.032  -1.497  47.127  1.00  0.00     0.006 C 
HETATM   15  C19 UNL     1       0.604  -3.887  47.244  1.00  0.00     0.006 C 
HETATM   16  C20 UNL     1       1.781  -4.791  47.519  1.00  0.00     0.010 C 
HETATM   17  C21 UNL     1       2.731  -4.060  48.538  1.00  0.00    -0.043 C 
HETATM   18  C22 UNL     1       3.956  -4.962  48.542  1.00  0.00     0.015 C 
HETATM   19  C23 UNL     1       2.146  -4.106  49.867  1.00  0.00     0.015 C 
ENDBRANCH   6   7
ENDBRANCH   5   6
ENDBRANCH   3   5
BRANCH   1  20
HETATM   20  C8  UNL     1       5.599  -1.117  53.224  1.00  0.00     0.126 C 
BRANCH  20  21
HETATM   21  C7  UNL     1       4.870  -1.310  54.410  1.00  0.00     0.119 C 
BRANCH  21  22
HETATM   22  N1  UNL     1       3.559  -1.719  54.532  1.00  0.00    -0.393 N 
ATOM     23  H1  UNL     1       2.838  -1.000  54.463  1.00  0.00     0.159 HD
BRANCH  22  24
HETATM   24  C5  UNL     1       3.132  -3.037  54.745  1.00  0.00     0.077 C 
HETATM   25  C6  UNL     1       3.500  -3.820  53.449  1.00  0.00     0.032 C 
BRANCH  24  26
HETATM   26  C4  UNL     1       3.975  -3.619  55.880  1.00  0.00     0.024 C 
BRANCH  26  27
HETATM   27  C3  UNL     1       3.055  -4.033  57.009  1.00  0.00     0.002 C 
BRANCH  27  28
HETATM   28  C2  UNL     1       3.832  -4.076  58.288  1.00  0.00    -0.004 C 
HETATM   29  C1  UNL     1       4.879  -2.982  58.231  1.00  0.00     0.005 C 
ENDBRANCH  27  28
ENDBRANCH  26  27
ENDBRANCH  24  26
ENDBRANCH  22  24
ENDBRANCH  21  22
ENDBRANCH  20  21
BRANCH  20  30
HETATM   30  C25 UNL     1       6.923  -0.179  54.000  1.00  0.00     0.311 C 
HETATM   31  O2  UNL     1       6.403   0.616  54.748  1.00  0.00    -0.258 OA
BRANCH  30  32
HETATM   32  O3  UNL     1       8.114  -0.491  53.663  1.00  0.00    -0.321 OA
HETATM   33  C26 UNL     1       9.185   0.472  53.732  1.00  0.00     0.213 C 
ENDBRANCH  30  32
ENDBRANCH  20  30
ENDBRANCH   1  20
TORSDOF 12
ENDMDL
MODEL 2
REMARK VINA RESULT: -8.919826768      2.848      7.090
REMARK  12 active torsions:
REMARK  status: ('A' for Active; 'I' for Inactive)
REMARK    1  A    between atoms: C2_2  and  C3_3 
REMARK    2  A    between atoms: C3_3  and  C4_4 
REMARK    3  A    between atoms: C4_4  and  C5_5 
REMARK    4  A    between atoms: C5_5  and  N1_7 
REMARK    5  A    between atoms: N1_7  and  C7_9 
REMARK    6  A    between atoms: C7_9  and  C8_10 
REMARK    7  A    between atoms: C8_10  and  N2_11 
REMARK    8  A    between atoms: C8_10  and  C25_30 
REMARK       I    between atoms: N2_11  and  C9_13 
REMARK    9  A    between atoms: C9_13  and  C10_15 
REMARK   10  A    between atoms: C10_15  and  C11_16 
REMARK   11  A    between atoms: C11_16  and  C12_17 
REMARK   12  A    between atoms: C25_30  and  O3_32 
ROOT
HETATM    1  N2  UNL     1       3.226  -0.146  47.814  1.00  0.00    -0.318 N 
ATOM      2  H2  UNL     1       3.305   0.147  46.840  1.00  0.00     0.169 HD
HETATM    3  C9  UNL     1       4.414   0.023  48.593  1.00  0.00     0.242 C 
HETATM    4  O1  UNL     1       5.117   1.019  48.360  1.00  0.00    -0.269 OA
ENDROOT
BRANCH   3   5
HETATM    5  C10 UNL     1       4.706  -0.954  49.587  1.00  0.00     0.048 C 
BRANCH   5   6
HETATM    6  C11 UNL     1       4.783  -0.660  51.049  1.00  0.00     0.042 C 
BRANCH   6   7
HETATM    7  C12 UNL     1       5.473  -1.620  51.919  1.00  0.00    -0.035 C 
HETATM    8  C13 UNL     1       7.034  -1.399  51.788  1.00  0.00     0.016 C 
HETATM    9  C14 UNL     1       5.361  -3.058  51.194  1.00  0.00     0.020 C 
HETATM   10  C15 UNL     1       4.279  -3.260  52.183  1.00  0.00    -0.031 C 
HETATM   11  C16 UNL     1       2.968  -3.250  51.690  1.00  0.00     0.011 C 
HETATM   12  C18 UNL     1       4.103  -4.574  52.834  1.00  0.00    -0.005 C 
HETATM   13  C24 UNL     1       5.066  -2.385  53.030  1.00  0.00     0.011 C 
HETATM   14  C17 UNL     1       2.869  -4.732  51.958  1.00  0.00     0.006 C 
HETATM   15  C19 UNL     1       3.692  -4.418  54.256  1.00  0.00     0.006 C 
HETATM   16  C20 UNL     1       4.619  -3.531  55.050  1.00  0.00     0.010 C 
HETATM   17  C21 UNL     1       4.625  -2.107  54.381  1.00  0.00    -0.043 C 
HETATM   18  C22 UNL     1       5.750  -1.405  55.126  1.00  0.00     0.015 C 
HETATM   19  C23 UNL     1       3.387  -1.416  54.700  1.00  0.00     0.015 C 
ENDBRANCH   6   7
ENDBRANCH   5   6
ENDBRANCH   3   5
BRANCH   1  20
HETATM   20  C8  UNL     1       2.137  -0.583  48.133  1.00  0.00     0.126 C 
BRANCH  20  21
HETATM   21  C7  UNL     1       0.876  -1.082  48.500  1.00  0.00     0.119 C 
BRANCH  21  22
HETATM   22  N1  UNL     1       0.482  -2.402  48.567  1.00  0.00    -0.393 N 
ATOM     23  H1  UNL     1       0.425  -2.826  49.493  1.00  0.00     0.159 HD
BRANCH  22  24
HETATM   24  C5  UNL     1       0.154  -3.211  47.470  1.00  0.00     0.077 C 
HETATM   25  C6  UNL     1      -0.306  -2.238  46.343  1.00  0.00     0.032 C 
BRANCH  24  26
HETATM   26  C4  UNL     1       1.440  -3.883  46.989  1.00  0.00     0.024 C 
BRANCH  26  27
HETATM   27  C3  UNL     1       1.955  -4.791  48.085  1.00  0.00     0.002 C 
BRANCH  27  28
HETATM   28  C2  UNL     1       3.407  -4.506  48.321  1.00  0.00    -0.004 C 
HETATM   29  C1  UNL     1       4.085  -5.816  48.668  1.00  0.00     0.005 C 
ENDBRANCH  27  28
ENDBRANCH  26  27
ENDBRANCH  24  26
ENDBRANCH  22  24
ENDBRANCH  21  22
ENDBRANCH  20  21
BRANCH  20  30
HETATM   30  C25 UNL     1       1.507   0.953  47.440  1.00  0.00     0.311 C 
HETATM   31  O2  UNL     1       1.383   0.780  46.250  1.00  0.00    -0.258 OA
BRANCH  30  32
HETATM   32  O3  UNL     1       1.299   1.906  48.264  1.00  0.00    -0.321 OA
HETATM   33  C26 UNL     1       0.168   2.788  48.115  1.00  0.00     0.213 C 
ENDBRANCH  30  32
ENDBRANCH  20  30
ENDBRANCH   1  20
TORSDOF 12
ENDMDL
MODEL 3
REMARK VINA RESULT: -8.780368664      4.345      7.943
REMARK  12 active torsions:
REMARK  status: ('A' for Active; 'I' for Inactive)
REMARK    1  A    between atoms: C2_2  and  C3_3 
REMARK    2  A    between atoms: C3_3  and  C4_4 
REMARK    3  A    between atoms: C4_4  and  C5_5 
REMARK    4  A    between atoms: C5_5  and  N1_7 
REMARK    5  A    between atoms: N1_7  and  C7_9 
REMARK    6  A    between atoms: C7_9  and  C8_10 
REMARK    7  A    between atoms: C8_10  and  N2_11 
REMARK    8  A    between atoms: C8_10  and  C25_30 
REMARK       I    between atoms: N2_11  and  C9_13 
REMARK    9  A    between atoms: C9_13  and  C10_15 
REMARK   10  A    between atoms: C10_15  and  C11_16 
REMARK   11  A    between atoms: C11_16  and  C12_17 
REMARK   12  A    between atoms: C25_30  and  O3_32 
ROOT
HETATM    1  N2  UNL     1       6.480  -1.625  50.278  1.00  0.00    -0.318 N 
ATOM      2  H2  UNL     1       6.566  -1.090  51.142  1.00  0.00     0.169 HD
HETATM    3  C9  UNL     1       7.658  -1.658  49.467  1.00  0.00     0.242 C 
HETATM    4  O1  UNL     1       8.753  -1.702  50.049  1.00  0.00    -0.269 OA
ENDROOT
BRANCH   3   5
HETATM    5  C10 UNL     1       7.496  -1.649  48.053  1.00  0.00     0.048 C 
BRANCH   5   6
HETATM    6  C11 UNL     1       8.632  -1.641  47.083  1.00  0.00     0.042 C 
BRANCH   6   7
HETATM    7  C12 UNL     1       9.301  -0.365  46.804  1.00  0.00    -0.035 C 
HETATM    8  C13 UNL     1       8.208   0.770  46.674  1.00  0.00     0.016 C 
HETATM    9  C14 UNL     1       9.782  -0.427  45.264  1.00  0.00     0.020 C 
HETATM   10  C15 UNL     1      11.090  -0.738  45.883  1.00  0.00    -0.031 C 
HETATM   11  C16 UNL     1      11.546  -2.057  45.759  1.00  0.00     0.011 C 
HETATM   12  C18 UNL     1      12.334  -0.177  45.315  1.00  0.00    -0.005 C 
HETATM   13  C24 UNL     1      10.623   0.092  46.977  1.00  0.00     0.011 C 
HETATM   14  C17 UNL     1      12.621  -1.583  44.811  1.00  0.00     0.006 C 
HETATM   15  C19 UNL     1      13.301   0.179  46.388  1.00  0.00     0.006 C 
HETATM   16  C20 UNL     1      12.717   1.091  47.439  1.00  0.00     0.010 C 
HETATM   17  C21 UNL     1      11.497   0.353  48.103  1.00  0.00    -0.043 C 
HETATM   18  C22 UNL     1      10.878   1.451  48.954  1.00  0.00     0.015 C 
HETATM   19  C23 UNL     1      11.984  -0.679  49.002  1.00  0.00     0.015 C 
ENDBRANCH   6   7
ENDBRANCH   5   6
ENDBRANCH   3   5
BRANCH   1  20
HETATM   20  C8  UNL     1       5.391  -2.137  50.098  1.00  0.00     0.126 C 
BRANCH  20  21
HETATM   21  C7  UNL     1       4.133  -2.730  49.896  1.00  0.00     0.119 C 
BRANCH  21  22
HETATM   22  N1  UNL     1       3.697  -3.415  48.782  1.00  0.00    -0.393 N 
ATOM     23  H1  UNL     1       3.463  -2.863  47.956  1.00  0.00     0.159 HD
BRANCH  22  24
HETATM   24  C5  UNL     1       3.547  -4.806  48.687  1.00  0.00     0.077 C 
HETATM   25  C6  UNL     1       3.193  -5.297  50.122  1.00  0.00     0.032 C 
BRANCH  24  26
HETATM   26  C4  UNL     1       2.330  -5.080  47.802  1.00  0.00     0.024 C 
BRANCH  26  27
HETATM   27  C3  UNL     1       1.967  -3.809  47.065  1.00  0.00     0.002 C 
BRANCH  27  28
HETATM   28  C2  UNL     1       0.488  -3.587  47.163  1.00  0.00    -0.004 C 
HETATM   29  C1  UNL     1       0.250  -2.509  48.200  1.00  0.00     0.005 C 
ENDBRANCH  27  28
ENDBRANCH  26  27
ENDBRANCH  24  26
ENDBRANCH  22  24
ENDBRANCH  21  22
ENDBRANCH  20  21
BRANCH  20  30
HETATM   30  C25 UNL     1       5.269  -2.107  51.892  1.00  0.00     0.311 C 
HETATM   31  O2  UNL     1       5.418  -3.244  52.276  1.00  0.00    -0.258 OA
BRANCH  30  32
HETATM   32  O3  UNL     1       5.067  -0.967  52.430  1.00  0.00    -0.321 OA
HETATM   33  C26 UNL     1       5.464  -0.703  53.791  1.00  0.00     0.213 C 
ENDBRANCH  30  32
ENDBRANCH  20  30
ENDBRANCH   1  20
TORSDOF 12
ENDMDL
MODEL 4
REMARK VINA RESULT: -8.726568454      4.338      6.481
REMARK  12 active torsions:
REMARK  status: ('A' for Active; 'I' for Inactive)
REMARK    1  A    between atoms: C2_2  and  C3_3 
REMARK    2  A    between atoms: C3_3  and  C4_4 
REMARK    3  A    between atoms: C4_4  and  C5_5 
REMARK    4  A    between atoms: C5_5  and  N1_7 
REMARK    5  A    between atoms: N1_7  and  C7_9 
REMARK    6  A    between atoms: C7_9  and  C8_10 
REMARK    7  A    between atoms: C8_10  and  N2_11 
REMARK    8  A    between atoms: C8_10  and  C25_30 
REMARK       I    between atoms: N2_11  and  C9_13 
REMARK    9  A    between atoms: C9_13  and  C10_15 
REMARK   10  A    between atoms: C10_15  and  C11_16 
REMARK   11  A    between atoms: C11_16  and  C12_17 
REMARK   12  A    between atoms: C25_30  and  O3_32 
ROOT
HETATM    1  N2  UNL     1       8.887  -0.364  46.608  1.00  0.00    -0.318 N 
ATOM      2  H2  UNL     1       9.074   0.173  45.761  1.00  0.00     0.169 HD
HETATM    3  C9  UNL     1       7.594  -0.973  46.662  1.00  0.00     0.242 C 
HETATM    4  O1  UNL     1       7.121  -1.412  45.602  1.00  0.00    -0.269 OA
ENDROOT
BRANCH   3   5
HETATM    5  C10 UNL     1       6.942  -1.046  47.926  1.00  0.00     0.048 C 
BRANCH   5   6
HETATM    6  C11 UNL     1       5.990  -2.129  48.313  1.00  0.00     0.042 C 
BRANCH   6   7
HETATM    7  C12 UNL     1       4.718  -1.749  48.939  1.00  0.00    -0.035 C 
HETATM    8  C13 UNL     1       4.889  -0.338  49.632  1.00  0.00     0.016 C 
HETATM    9  C14 UNL     1       4.566  -2.662  50.261  1.00  0.00     0.020 C 
HETATM   10  C15 UNL     1       3.662  -3.444  49.388  1.00  0.00    -0.031 C 
HETATM   11  C16 UNL     1       4.132  -4.690  48.953  1.00  0.00     0.011 C 
HETATM   12  C18 UNL     1       2.417  -4.021  49.934  1.00  0.00    -0.005 C 
HETATM   13  C24 UNL     1       3.385  -2.169  48.754  1.00  0.00     0.011 C 
HETATM   14  C17 UNL     1       3.117  -5.368  49.841  1.00  0.00     0.006 C 
HETATM   15  C19 UNL     1       1.314  -3.958  48.936  1.00  0.00     0.006 C 
HETATM   16  C20 UNL     1       1.083  -2.571  48.389  1.00  0.00     0.010 C 
HETATM   17  C21 UNL     1       2.408  -2.096  47.687  1.00  0.00    -0.043 C 
HETATM   18  C22 UNL     1       2.113  -0.633  47.397  1.00  0.00     0.015 C 
HETATM   19  C23 UNL     1       2.553  -2.777  46.412  1.00  0.00     0.015 C 
ENDBRANCH   6   7
ENDBRANCH   5   6
ENDBRANCH   3   5
BRANCH   1  20
HETATM   20  C8  UNL     1       9.798  -0.387  47.413  1.00  0.00     0.126 C 
BRANCH  20  21
HETATM   21  C7  UNL     1      10.854  -0.415  48.340  1.00  0.00     0.119 C 
BRANCH  21  22
HETATM   22  N1  UNL     1      11.085   0.463  49.377  1.00  0.00    -0.393 N 
ATOM     23  H1  UNL     1      10.754   1.421  49.260  1.00  0.00     0.159 HD
BRANCH  22  24
HETATM   24  C5  UNL     1      11.737   0.152  50.579  1.00  0.00     0.077 C 
HETATM   25  C6  UNL     1      11.297   1.244  51.599  1.00  0.00     0.032 C 
BRANCH  24  26
HETATM   26  C4  UNL     1      11.180  -1.182  51.075  1.00  0.00     0.024 C 
BRANCH  26  27
HETATM   27  C3  UNL     1       9.884  -0.925  51.815  1.00  0.00     0.002 C 
BRANCH  27  28
HETATM   28  C2  UNL     1       8.786  -1.721  51.179  1.00  0.00    -0.004 C 
HETATM   29  C1  UNL     1       7.504  -1.421  51.928  1.00  0.00     0.005 C 
ENDBRANCH  27  28
ENDBRANCH  26  27
ENDBRANCH  24  26
ENDBRANCH  22  24
ENDBRANCH  21  22
ENDBRANCH  20  21
BRANCH  20  30
HETATM   30  C25 UNL     1      10.858  -0.404  45.960  1.00  0.00     0.311 C 
HETATM   31  O2  UNL     1      11.037  -1.563  45.666  1.00  0.00    -0.258 OA
BRANCH  30  32
HETATM   32  O3  UNL     1      11.215   0.733  45.502  1.00  0.00    -0.321 OA
HETATM   33  C26 UNL     1      12.609   1.069  45.345  1.00  0.00     0.213 C 
ENDBRANCH  30  32
ENDBRANCH  20  30
ENDBRANCH   1  20
TORSDOF 12
ENDMDL
MODEL 5
REMARK VINA RESULT: -8.541318028      4.461      7.418
REMARK  12 active torsions:
REMARK  status: ('A' for Active; 'I' for Inactive)
REMARK    1  A    between atoms: C2_2  and  C3_3 
REMARK    2  A    between atoms: C3_3  and  C4_4 
REMARK    3  A    between atoms: C4_4  and  C5_5 
REMARK    4  A    between atoms: C5_5  and  N1_7 
REMARK    5  A    between atoms: N1_7  and  C7_9 
REMARK    6  A    between atoms: C7_9  and  C8_10 
REMARK    7  A    between atoms: C8_10  and  N2_11 
REMARK    8  A    between atoms: C8_10  and  C25_30 
REMARK       I    between atoms: N2_11  and  C9_13 
REMARK    9  A    between atoms: C9_13  and  C10_15 
REMARK   10  A    between atoms: C10_15  and  C11_16 
REMARK   11  A    between atoms: C11_16  and  C12_17 
REMARK   12  A    between atoms: C25_30  and  O3_32 
ROOT
HETATM    1  N2  UNL     1       5.060  -2.215  48.223  1.00  0.00    -0.318 N 
ATOM      2  H2  UNL     1       4.421  -2.858  47.756  1.00  0.00     0.169 HD
HETATM    3  C9  UNL     1       6.075  -1.657  47.385  1.00  0.00     0.242 C 
HETATM    4  O1  UNL     1       5.769  -1.392  46.212  1.00  0.00    -0.269 OA
ENDROOT
BRANCH   3   5
HETATM    5  C10 UNL     1       7.362  -1.433  47.952  1.00  0.00     0.048 C 
BRANCH   5   6
HETATM    6  C11 UNL     1       8.638  -1.501  47.180  1.00  0.00     0.042 C 
BRANCH   6   7
HETATM    7  C12 UNL     1       9.318  -0.244  46.844  1.00  0.00    -0.035 C 
HETATM    8  C13 UNL     1       8.238   0.902  46.705  1.00  0.00     0.016 C 
HETATM    9  C14 UNL     1       9.759  -0.362  45.295  1.00  0.00     0.020 C 
HETATM   10  C15 UNL     1      11.078  -0.672  45.891  1.00  0.00    -0.031 C 
HETATM   11  C16 UNL     1      11.512  -2.001  45.799  1.00  0.00     0.011 C 
HETATM   12  C18 UNL     1      12.315  -0.148  45.276  1.00  0.00    -0.005 C 
HETATM   13  C24 UNL     1      10.651   0.198  46.970  1.00  0.00     0.011 C 
HETATM   14  C17 UNL     1      12.569  -1.573  44.810  1.00  0.00     0.006 C 
HETATM   15  C19 UNL     1      13.313   0.227  46.313  1.00  0.00     0.006 C 
HETATM   16  C20 UNL     1      12.769   1.180  47.348  1.00  0.00     0.010 C 
HETATM   17  C21 UNL     1      11.555   0.481  48.065  1.00  0.00    -0.043 C 
HETATM   18  C22 UNL     1      10.974   1.615  48.896  1.00  0.00     0.015 C 
HETATM   19  C23 UNL     1      12.050  -0.530  48.984  1.00  0.00     0.015 C 
ENDBRANCH   6   7
ENDBRANCH   5   6
ENDBRANCH   3   5
BRANCH   1  20
HETATM   20  C8  UNL     1       4.839  -2.042  49.407  1.00  0.00     0.126 C 
BRANCH  20  21
HETATM   21  C7  UNL     1       4.578  -1.838  50.772  1.00  0.00     0.119 C 
BRANCH  21  22
HETATM   22  N1  UNL     1       4.860  -2.692  51.817  1.00  0.00    -0.393 N 
ATOM     23  H1  UNL     1       5.841  -2.913  51.988  1.00  0.00     0.159 HD
BRANCH  22  24
HETATM   24  C5  UNL     1       3.912  -3.284  52.665  1.00  0.00     0.077 C 
HETATM   25  C6  UNL     1       3.186  -4.363  51.808  1.00  0.00     0.032 C 
BRANCH  24  26
HETATM   26  C4  UNL     1       4.674  -4.019  53.768  1.00  0.00     0.024 C 
BRANCH  26  27
HETATM   27  C3  UNL     1       3.864  -3.959  55.045  1.00  0.00     0.002 C 
BRANCH  27  28
HETATM   28  C2  UNL     1       4.356  -2.824  55.890  1.00  0.00    -0.004 C 
HETATM   29  C1  UNL     1       3.423  -2.692  57.076  1.00  0.00     0.005 C 
ENDBRANCH  27  28
ENDBRANCH  26  27
ENDBRANCH  24  26
ENDBRANCH  22  24
ENDBRANCH  21  22
ENDBRANCH  20  21
BRANCH  20  30
HETATM   30  C25 UNL     1       3.160  -1.685  48.868  1.00  0.00     0.311 C 
HETATM   31  O2  UNL     1       2.527  -2.710  48.978  1.00  0.00    -0.258 OA
BRANCH  30  32
HETATM   32  O3  UNL     1       2.925  -0.489  48.491  1.00  0.00    -0.321 OA
HETATM   33  C26 UNL     1       2.000  -0.212  47.419  1.00  0.00     0.213 C 
ENDBRANCH  30  32
ENDBRANCH  20  30
ENDBRANCH   1  20
TORSDOF 12
ENDMDL
