MODEL 1
REMARK VINA RESULT: -9.190964053      0.000      0.000
REMARK  12 active torsions:
REMARK  status: ('A' for Active; 'I' for Inactive)
REMARK    1  A    between atoms: C9_9  and  C10_10 
REMARK    2  A    between atoms: C10_10  and  C11_12 
REMARK    3  A    between atoms: C12_15  and  C13_16 
REMARK    4  A    between atoms: C13_16  and  C14_17 
REMARK    5  A    between atoms: C15_18  and  C16_19 
REMARK    6  A    between atoms: C16_19  and  C17_20 
REMARK    7  A    between atoms: C17_20  and  C18_21 
REMARK    8  A    between atoms: C18_21  and  C19_22 
REMARK    9  A    between atoms: C19_22  and  C20_23 
REMARK   10  A    between atoms: C20_23  and  C21_24 
REMARK   11  A    between atoms: C21_24  and  C22_25 
REMARK   12  A    between atoms: C24_27  and  O4_28 
ROOT
HETATM    1  C1  UNL     1       2.461  -4.399  51.291  1.00  0.00     0.014 C 
HETATM    2  C2  UNL     1       2.797  -4.463  49.996  1.00  0.00    -0.084 C 
HETATM    3  C3  UNL     1       3.784  -5.499  49.619  1.00  0.00     0.034 C 
HETATM    4  C4  UNL     1       3.611  -5.960  48.180  1.00  0.00     0.005 C 
HETATM    5  C5  UNL     1       2.239  -5.674  47.678  1.00  0.00     0.005 C 
HETATM    6  C6  UNL     1       1.882  -4.194  47.707  1.00  0.00    -0.006 C 
HETATM    7  C7  UNL     1       2.462  -3.538  46.488  1.00  0.00     0.009 C 
HETATM    8  C8  UNL     1       2.170  -2.078  46.540  1.00  0.00     0.047 C 
HETATM    9  C9  UNL     1       2.640  -1.374  47.781  1.00  0.00     0.133 C 
HETATM   10  O3  UNL     1       3.776  -0.659  47.399  1.00  0.00    -0.363 OA
HETATM   11  C12 UNL     1       5.006  -1.113  47.541  1.00  0.00     0.155 C 
HETATM   12  C24 UNL     1       5.210  -2.264  48.483  1.00  0.00     0.151 C 
HETATM   13  C25 UNL     1       4.180  -2.167  49.621  1.00  0.00     0.021 C 
HETATM   14  C26 UNL     1       4.462  -0.849  50.322  1.00  0.00     0.013 C 
HETATM   15  C27 UNL     1       2.784  -2.179  49.012  1.00  0.00     0.043 C 
HETATM   16  C28 UNL     1       2.161  -3.509  48.990  1.00  0.00     0.025 C 
ENDROOT
BRANCH  11  17
HETATM   17  C13 UNL     1       5.626  -1.435  46.210  1.00  0.00     0.061 C 
BRANCH  17  18
HETATM   18  C14 UNL     1       7.099  -1.325  46.175  1.00  0.00    -0.028 C 
HETATM   19  C15 UNL     1       7.765  -0.232  46.517  1.00  0.00    -0.031 C 
BRANCH  19  20
HETATM   20  C16 UNL     1       9.238  -0.134  46.477  1.00  0.00     0.027 C 
BRANCH  20  21
HETATM   21  C17 UNL     1       9.675  -0.410  45.072  1.00  0.00     0.004 C 
BRANCH  21  22
HETATM   22  C18 UNL     1      11.167  -0.535  45.006  1.00  0.00     0.000 C 
BRANCH  22  23
HETATM   23  C19 UNL     1      11.609  -1.765  45.752  1.00  0.00     0.000 C 
BRANCH  23  24
HETATM   24  C20 UNL     1      12.956  -1.501  46.371  1.00  0.00     0.000 C 
BRANCH  24  25
HETATM   25  C21 UNL     1      12.815  -0.496  47.478  1.00  0.00    -0.000 C 
BRANCH  25  26
HETATM   26  C22 UNL     1      12.664  -1.147  48.814  1.00  0.00    -0.005 C 
HETATM   27  C23 UNL     1      11.466  -0.574  49.525  1.00  0.00     0.005 C 
ENDBRANCH  25  26
ENDBRANCH  24  25
ENDBRANCH  23  24
ENDBRANCH  22  23
ENDBRANCH  21  22
ENDBRANCH  20  21
ENDBRANCH  19  20
ENDBRANCH  17  18
ENDBRANCH  11  17
BRANCH  12  28
HETATM   28  O4  UNL     1       6.472  -2.126  49.062  1.00  0.00    -0.393 OA
ATOM     29  H4  UNL     1       7.120  -2.174  48.368  1.00  0.00     0.210 HD
ENDBRANCH  12  28
BRANCH   9  30
HETATM   30  C10 UNL     1       1.652  -0.266  48.068  1.00  0.00     0.221 C 
HETATM   31  O1  UNL     1       2.163   0.909  48.217  1.00  0.00    -0.287 OA
BRANCH  30  32
HETATM   32  C11 UNL     1       0.246  -0.343  48.194  1.00  0.00     0.311 C 
HETATM   33  O2  UNL     1      -0.514   0.634  48.051  1.00  0.00    -0.298 OA
ENDBRANCH  30  32
ENDBRANCH   9  30
TORSDOF 12
ENDMDL
MODEL 2
REMARK VINA RESULT: -9.090357762      0.728      1.172
REMARK  12 active torsions:
REMARK  status: ('A' for Active; 'I' for Inactive)
REMARK    1  A    between atoms: C9_9  and  C10_10 
REMARK    2  A    between atoms: C10_10  and  C11_12 
REMARK    3  A    between atoms: C12_15  and  C13_16 
REMARK    4  A    between atoms: C13_16  and  C14_17 
REMARK    5  A    between atoms: C15_18  and  C16_19 
REMARK    6  A    between atoms: C16_19  and  C17_20 
REMARK    7  A    between atoms: C17_20  and  C18_21 
REMARK    8  A    between atoms: C18_21  and  C19_22 
REMARK    9  A    between atoms: C19_22  and  C20_23 
REMARK   10  A    between atoms: C20_23  and  C21_24 
REMARK   11  A    between atoms: C21_24  and  C22_25 
REMARK   12  A    between atoms: C24_27  and  O4_28 
ROOT
HETATM    1  C1  UNL     1       2.455  -4.418  51.357  1.00  0.00     0.014 C 
HETATM    2  C2  UNL     1       2.881  -4.487  50.089  1.00  0.00    -0.084 C 
HETATM    3  C3  UNL     1       3.896  -5.521  49.788  1.00  0.00     0.034 C 
HETATM    4  C4  UNL     1       3.826  -5.990  48.343  1.00  0.00     0.005 C 
HETATM    5  C5  UNL     1       2.492  -5.712  47.744  1.00  0.00     0.005 C 
HETATM    6  C6  UNL     1       2.128  -4.233  47.740  1.00  0.00    -0.006 C 
HETATM    7  C7  UNL     1       2.790  -3.581  46.562  1.00  0.00     0.009 C 
HETATM    8  C8  UNL     1       2.489  -2.122  46.585  1.00  0.00     0.047 C 
HETATM    9  C9  UNL     1       2.867  -1.410  47.852  1.00  0.00     0.133 C 
HETATM   10  O3  UNL     1       4.025  -0.692  47.546  1.00  0.00    -0.363 OA
HETATM   11  C12 UNL     1       5.243  -1.140  47.778  1.00  0.00     0.155 C 
HETATM   12  C24 UNL     1       5.386  -2.285  48.738  1.00  0.00     0.151 C 
HETATM   13  C25 UNL     1       4.278  -2.187  49.800  1.00  0.00     0.021 C 
HETATM   14  C26 UNL     1       4.504  -0.864  50.512  1.00  0.00     0.013 C 
HETATM   15  C27 UNL     1       2.928  -2.208  49.094  1.00  0.00     0.043 C 
HETATM   16  C28 UNL     1       2.314  -3.541  49.036  1.00  0.00     0.025 C 
ENDROOT
BRANCH  11  17
HETATM   17  C13 UNL     1       5.957  -1.465  46.495  1.00  0.00     0.061 C 
BRANCH  17  18
HETATM   18  C14 UNL     1       7.272  -0.810  46.339  1.00  0.00    -0.028 C 
HETATM   19  C15 UNL     1       8.429  -1.452  46.409  1.00  0.00    -0.031 C 
BRANCH  19  20
HETATM   20  C16 UNL     1       9.737  -0.785  46.252  1.00  0.00     0.027 C 
BRANCH  20  21
HETATM   21  C17 UNL     1      10.733  -1.828  45.852  1.00  0.00     0.004 C 
BRANCH  21  22
HETATM   22  C18 UNL     1      12.099  -1.463  46.353  1.00  0.00     0.000 C 
BRANCH  22  23
HETATM   23  C19 UNL     1      11.978  -0.487  47.492  1.00  0.00     0.000 C 
BRANCH  23  24
HETATM   24  C20 UNL     1      12.597  -1.097  48.723  1.00  0.00     0.000 C 
BRANCH  24  25
HETATM   25  C21 UNL     1      11.739  -0.800  49.919  1.00  0.00    -0.000 C 
BRANCH  25  26
HETATM   26  C22 UNL     1      12.197  -1.534  51.136  1.00  0.00    -0.005 C 
HETATM   27  C23 UNL     1      13.253  -2.539  50.754  1.00  0.00     0.005 C 
ENDBRANCH  25  26
ENDBRANCH  24  25
ENDBRANCH  23  24
ENDBRANCH  22  23
ENDBRANCH  21  22
ENDBRANCH  20  21
ENDBRANCH  19  20
ENDBRANCH  17  18
ENDBRANCH  11  17
BRANCH  12  28
HETATM   28  O4  UNL     1       6.603  -2.139  49.403  1.00  0.00    -0.393 OA
ATOM     29  H4  UNL     1       6.738  -2.911  49.940  1.00  0.00     0.210 HD
ENDBRANCH  12  28
BRANCH   9  30
HETATM   30  C10 UNL     1       1.857  -0.305  48.063  1.00  0.00     0.221 C 
HETATM   31  O1  UNL     1       2.352   0.870  48.256  1.00  0.00    -0.287 OA
BRANCH  30  32
HETATM   32  C11 UNL     1       0.446  -0.385  48.078  1.00  0.00     0.311 C 
HETATM   33  O2  UNL     1      -0.303   0.601  47.936  1.00  0.00    -0.298 OA
ENDBRANCH  30  32
ENDBRANCH   9  30
TORSDOF 12
ENDMDL
MODEL 3
REMARK VINA RESULT: -8.910829036      0.893      1.013
REMARK  12 active torsions:
REMARK  status: ('A' for Active; 'I' for Inactive)
REMARK    1  A    between atoms: C9_9  and  C10_10 
REMARK    2  A    between atoms: C10_10  and  C11_12 
REMARK    3  A    between atoms: C12_15  and  C13_16 
REMARK    4  A    between atoms: C13_16  and  C14_17 
REMARK    5  A    between atoms: C15_18  and  C16_19 
REMARK    6  A    between atoms: C16_19  and  C17_20 
REMARK    7  A    between atoms: C17_20  and  C18_21 
REMARK    8  A    between atoms: C18_21  and  C19_22 
REMARK    9  A    between atoms: C19_22  and  C20_23 
REMARK   10  A    between atoms: C20_23  and  C21_24 
REMARK   11  A    between atoms: C21_24  and  C22_25 
REMARK   12  A    between atoms: C24_27  and  O4_28 
ROOT
HETATM    1  C1  UNL     1       2.522  -4.389  51.339  1.00  0.00     0.014 C 
HETATM    2  C2  UNL     1       2.891  -4.462  50.054  1.00  0.00    -0.084 C 
HETATM    3  C3  UNL     1       3.898  -5.490  49.711  1.00  0.00     0.034 C 
HETATM    4  C4  UNL     1       3.766  -5.967  48.273  1.00  0.00     0.005 C 
HETATM    5  C5  UNL     1       2.404  -5.700  47.735  1.00  0.00     0.005 C 
HETATM    6  C6  UNL     1       2.031  -4.223  47.740  1.00  0.00    -0.006 C 
HETATM    7  C7  UNL     1       2.635  -3.573  46.530  1.00  0.00     0.009 C 
HETATM    8  C8  UNL     1       2.326  -2.116  46.560  1.00  0.00     0.047 C 
HETATM    9  C9  UNL     1       2.757  -1.396  47.806  1.00  0.00     0.133 C 
HETATM   10  O3  UNL     1       3.895  -0.672  47.445  1.00  0.00    -0.363 OA
HETATM   11  C12 UNL     1       5.126  -1.111  47.623  1.00  0.00     0.155 C 
HETATM   12  C24 UNL     1       5.319  -2.251  48.580  1.00  0.00     0.151 C 
HETATM   13  C25 UNL     1       4.260  -2.154  49.691  1.00  0.00     0.021 C 
HETATM   14  C26 UNL     1       4.510  -0.827  50.386  1.00  0.00     0.013 C 
HETATM   15  C27 UNL     1       2.879  -2.187  49.047  1.00  0.00     0.043 C 
HETATM   16  C28 UNL     1       2.271  -3.523  49.023  1.00  0.00     0.025 C 
ENDROOT
BRANCH  11  17
HETATM   17  C13 UNL     1       5.782  -1.438  46.310  1.00  0.00     0.061 C 
BRANCH  17  18
HETATM   18  C14 UNL     1       7.257  -1.344  46.320  1.00  0.00    -0.028 C 
HETATM   19  C15 UNL     1       7.923  -0.252  46.666  1.00  0.00    -0.031 C 
BRANCH  19  20
HETATM   20  C16 UNL     1       9.398  -0.169  46.671  1.00  0.00     0.027 C 
BRANCH  20  21
HETATM   21  C17 UNL     1       9.892  -0.791  45.401  1.00  0.00     0.004 C 
BRANCH  21  22
HETATM   22  C18 UNL     1      10.910  -1.850  45.703  1.00  0.00     0.000 C 
BRANCH  22  23
HETATM   23  C19 UNL     1      12.205  -1.207  46.119  1.00  0.00     0.000 C 
BRANCH  23  24
HETATM   24  C20 UNL     1      12.675  -0.297  45.013  1.00  0.00     0.000 C 
BRANCH  24  25
HETATM   25  C21 UNL     1      13.043   1.042  45.584  1.00  0.00    -0.000 C 
BRANCH  25  26
HETATM   26  C22 UNL     1      13.313   0.973  47.051  1.00  0.00    -0.005 C 
HETATM   27  C23 UNL     1      12.575   2.084  47.754  1.00  0.00     0.005 C 
ENDBRANCH  25  26
ENDBRANCH  24  25
ENDBRANCH  23  24
ENDBRANCH  22  23
ENDBRANCH  21  22
ENDBRANCH  20  21
ENDBRANCH  19  20
ENDBRANCH  17  18
ENDBRANCH  11  17
BRANCH  12  28
HETATM   28  O4  UNL     1       6.564  -2.094  49.189  1.00  0.00    -0.393 OA
ATOM     29  H4  UNL     1       6.671  -2.795  49.822  1.00  0.00     0.210 HD
ENDBRANCH  12  28
BRANCH   9  30
HETATM   30  C10 UNL     1       1.751  -0.295  48.058  1.00  0.00     0.221 C 
HETATM   31  O1  UNL     1       2.249   0.874  48.278  1.00  0.00    -0.287 OA
BRANCH  30  32
HETATM   32  C11 UNL     1       0.340  -0.374  48.083  1.00  0.00     0.311 C 
HETATM   33  O2  UNL     1      -0.410   0.583  47.811  1.00  0.00    -0.298 OA
ENDBRANCH  30  32
ENDBRANCH   9  30
TORSDOF 12
ENDMDL
MODEL 4
REMARK VINA RESULT: -8.707622046      0.825      1.603
REMARK  12 active torsions:
REMARK  status: ('A' for Active; 'I' for Inactive)
REMARK    1  A    between atoms: C9_9  and  C10_10 
REMARK    2  A    between atoms: C10_10  and  C11_12 
REMARK    3  A    between atoms: C12_15  and  C13_16 
REMARK    4  A    between atoms: C13_16  and  C14_17 
REMARK    5  A    between atoms: C15_18  and  C16_19 
REMARK    6  A    between atoms: C16_19  and  C17_20 
REMARK    7  A    between atoms: C17_20  and  C18_21 
REMARK    8  A    between atoms: C18_21  and  C19_22 
REMARK    9  A    between atoms: C19_22  and  C20_23 
REMARK   10  A    between atoms: C20_23  and  C21_24 
REMARK   11  A    between atoms: C21_24  and  C22_25 
REMARK   12  A    between atoms: C24_27  and  O4_28 
ROOT
HETATM    1  C1  UNL     1       2.467  -4.373  51.298  1.00  0.00     0.014 C 
HETATM    2  C2  UNL     1       2.850  -4.443  50.017  1.00  0.00    -0.084 C 
HETATM    3  C3  UNL     1       3.851  -5.479  49.680  1.00  0.00     0.034 C 
HETATM    4  C4  UNL     1       3.730  -5.947  48.238  1.00  0.00     0.005 C 
HETATM    5  C5  UNL     1       2.378  -5.665  47.686  1.00  0.00     0.005 C 
HETATM    6  C6  UNL     1       2.018  -4.185  47.695  1.00  0.00    -0.006 C 
HETATM    7  C7  UNL     1       2.641  -3.535  46.495  1.00  0.00     0.009 C 
HETATM    8  C8  UNL     1       2.345  -2.075  46.529  1.00  0.00     0.047 C 
HETATM    9  C9  UNL     1       2.769  -1.365  47.783  1.00  0.00     0.133 C 
HETATM   10  O3  UNL     1       3.917  -0.649  47.439  1.00  0.00    -0.363 OA
HETATM   11  C12 UNL     1       5.142  -1.101  47.628  1.00  0.00     0.155 C 
HETATM   12  C24 UNL     1       5.313  -2.247  48.582  1.00  0.00     0.151 C 
HETATM   13  C25 UNL     1       4.243  -2.146  49.681  1.00  0.00     0.021 C 
HETATM   14  C26 UNL     1       4.497  -0.825  50.386  1.00  0.00     0.013 C 
HETATM   15  C27 UNL     1       2.869  -2.164  49.022  1.00  0.00     0.043 C 
HETATM   16  C28 UNL     1       2.250  -3.494  48.984  1.00  0.00     0.025 C 
ENDROOT
BRANCH  11  17
HETATM   17  C13 UNL     1       5.810  -1.428  46.321  1.00  0.00     0.061 C 
BRANCH  17  18
HETATM   18  C14 UNL     1       7.287  -1.382  46.357  1.00  0.00    -0.028 C 
HETATM   19  C15 UNL     1       7.985  -0.275  46.559  1.00  0.00    -0.031 C 
BRANCH  19  20
HETATM   20  C16 UNL     1       9.461  -0.242  46.592  1.00  0.00     0.027 C 
BRANCH  20  21
HETATM   21  C17 UNL     1       9.890  -0.511  48.001  1.00  0.00     0.004 C 
BRANCH  21  22
HETATM   22  C18 UNL     1      11.377  -0.359  48.130  1.00  0.00     0.000 C 
BRANCH  22  23
HETATM   23  C19 UNL     1      11.843   0.807  47.302  1.00  0.00     0.000 C 
BRANCH  23  24
HETATM   24  C20 UNL     1      13.197   0.485  46.727  1.00  0.00     0.000 C 
BRANCH  24  25
HETATM   25  C21 UNL     1      13.119   0.472  45.228  1.00  0.00    -0.000 C 
BRANCH  25  26
HETATM   26  C22 UNL     1      12.531  -0.798  44.706  1.00  0.00    -0.005 C 
HETATM   27  C23 UNL     1      13.279  -1.975  45.277  1.00  0.00     0.005 C 
ENDBRANCH  25  26
ENDBRANCH  24  25
ENDBRANCH  23  24
ENDBRANCH  22  23
ENDBRANCH  21  22
ENDBRANCH  20  21
ENDBRANCH  19  20
ENDBRANCH  17  18
ENDBRANCH  11  17
BRANCH  12  28
HETATM   28  O4  UNL     1       6.553  -2.105  49.205  1.00  0.00    -0.393 OA
ATOM     29  H4  UNL     1       6.662  -2.831  49.810  1.00  0.00     0.210 HD
ENDBRANCH  12  28
BRANCH   9  30
HETATM   30  C10 UNL     1       1.770  -0.256  48.029  1.00  0.00     0.221 C 
HETATM   31  O1  UNL     1       2.276   0.900  48.292  1.00  0.00    -0.287 OA
BRANCH  30  32
HETATM   32  C11 UNL     1       0.357  -0.316  48.009  1.00  0.00     0.311 C 
HETATM   33  O2  UNL     1      -0.309  -1.117  48.693  1.00  0.00    -0.298 OA
ENDBRANCH  30  32
ENDBRANCH   9  30
TORSDOF 12
ENDMDL
MODEL 5
REMARK VINA RESULT: -8.688668839      1.181      1.498
REMARK  12 active torsions:
REMARK  status: ('A' for Active; 'I' for Inactive)
REMARK    1  A    between atoms: C9_9  and  C10_10 
REMARK    2  A    between atoms: C10_10  and  C11_12 
REMARK    3  A    between atoms: C12_15  and  C13_16 
REMARK    4  A    between atoms: C13_16  and  C14_17 
REMARK    5  A    between atoms: C15_18  and  C16_19 
REMARK    6  A    between atoms: C16_19  and  C17_20 
REMARK    7  A    between atoms: C17_20  and  C18_21 
REMARK    8  A    between atoms: C18_21  and  C19_22 
REMARK    9  A    between atoms: C19_22  and  C20_23 
REMARK   10  A    between atoms: C20_23  and  C21_24 
REMARK   11  A    between atoms: C21_24  and  C22_25 
REMARK   12  A    between atoms: C24_27  and  O4_28 
ROOT
HETATM    1  C1  UNL     1       2.424  -4.431  51.334  1.00  0.00     0.014 C 
HETATM    2  C2  UNL     1       2.844  -4.494  50.063  1.00  0.00    -0.084 C 
HETATM    3  C3  UNL     1       3.855  -5.528  49.751  1.00  0.00     0.034 C 
HETATM    4  C4  UNL     1       3.777  -5.989  48.304  1.00  0.00     0.005 C 
HETATM    5  C5  UNL     1       2.440  -5.706  47.714  1.00  0.00     0.005 C 
HETATM    6  C6  UNL     1       2.078  -4.227  47.720  1.00  0.00    -0.006 C 
HETATM    7  C7  UNL     1       2.735  -3.570  46.541  1.00  0.00     0.009 C 
HETATM    8  C8  UNL     1       2.437  -2.111  46.573  1.00  0.00     0.047 C 
HETATM    9  C9  UNL     1       2.823  -1.406  47.842  1.00  0.00     0.133 C 
HETATM   10  O3  UNL     1       3.980  -0.688  47.534  1.00  0.00    -0.363 OA
HETATM   11  C12 UNL     1       5.199  -1.139  47.756  1.00  0.00     0.155 C 
HETATM   12  C24 UNL     1       5.345  -2.289  48.710  1.00  0.00     0.151 C 
HETATM   13  C25 UNL     1       4.243  -2.195  49.778  1.00  0.00     0.021 C 
HETATM   14  C26 UNL     1       4.476  -0.877  50.496  1.00  0.00     0.013 C 
HETATM   15  C27 UNL     1       2.889  -2.210  49.080  1.00  0.00     0.043 C 
HETATM   16  C28 UNL     1       2.273  -3.541  49.018  1.00  0.00     0.025 C 
ENDROOT
BRANCH  11  17
HETATM   17  C13 UNL     1       5.905  -1.459  46.468  1.00  0.00     0.061 C 
BRANCH  17  18
HETATM   18  C14 UNL     1       7.244  -0.849  46.332  1.00  0.00    -0.028 C 
HETATM   19  C15 UNL     1       8.373  -1.542  46.329  1.00  0.00    -0.031 C 
BRANCH  19  20
HETATM   20  C16 UNL     1       9.706  -0.921  46.193  1.00  0.00     0.027 C 
BRANCH  20  21
HETATM   21  C17 UNL     1       9.926  -0.050  47.391  1.00  0.00     0.004 C 
BRANCH  21  22
HETATM   22  C18 UNL     1      11.100  -0.542  48.183  1.00  0.00     0.000 C 
BRANCH  22  23
HETATM   23  C19 UNL     1      12.374  -0.261  47.433  1.00  0.00     0.000 C 
BRANCH  23  24
HETATM   24  C20 UNL     1      12.469   1.220  47.174  1.00  0.00     0.000 C 
BRANCH  24  25
HETATM   25  C21 UNL     1      13.209   1.883  48.300  1.00  0.00    -0.000 C 
BRANCH  25  26
HETATM   26  C22 UNL     1      12.599   3.193  48.680  1.00  0.00    -0.005 C 
HETATM   27  C23 UNL     1      11.396   2.956  49.555  1.00  0.00     0.005 C 
ENDBRANCH  25  26
ENDBRANCH  24  25
ENDBRANCH  23  24
ENDBRANCH  22  23
ENDBRANCH  21  22
ENDBRANCH  20  21
ENDBRANCH  19  20
ENDBRANCH  17  18
ENDBRANCH  11  17
BRANCH  12  28
HETATM   28  O4  UNL     1       6.566  -2.149  49.369  1.00  0.00    -0.393 OA
ATOM     29  H4  UNL     1       6.387  -2.022  50.294  1.00  0.00     0.210 HD
ENDBRANCH  12  28
BRANCH   9  30
HETATM   30  C10 UNL     1       1.817  -0.300  48.064  1.00  0.00     0.221 C 
HETATM   31  O1  UNL     1       2.313   0.878  48.232  1.00  0.00    -0.287 OA
BRANCH  30  32
HETATM   32  C11 UNL     1       0.406  -0.382  48.112  1.00  0.00     0.311 C 
HETATM   33  O2  UNL     1      -0.345   0.611  48.069  1.00  0.00    -0.298 OA
ENDBRANCH  30  32
ENDBRANCH   9  30
TORSDOF 12
ENDMDL
