MODEL 1
REMARK VINA RESULT: -10.550932398      0.000      0.000
REMARK  9 active torsions:
REMARK  status: ('A' for Active; 'I' for Inactive)
REMARK    1  A    between atoms: O1_2  and  C2_3 
REMARK    2  A    between atoms: C7_8  and  O2_9 
REMARK    3  A    between atoms: O2_9  and  C8_10 
REMARK    4  A    between atoms: C8_10  and  C9_11 
REMARK    5  A    between atoms: C9_11  and  C10_12 
REMARK    6  A    between atoms: C10_12  and  C11_13 
REMARK    7  A    between atoms: C12_14  and  C13_15 
REMARK    8  A    between atoms: C13_15  and  N1_16 
REMARK    9  A    between atoms: C16_19  and  C17_20 
ROOT
HETATM    1  C10 UNL     1       3.437  -5.340  48.984  1.00  0.00     0.029 C 
ENDROOT
BRANCH   1   2
HETATM    2  C9  UNL     1       3.189  -5.514  50.460  1.00  0.00     0.030 C 
BRANCH   2   3
HETATM    3  C8  UNL     1       3.096  -4.192  51.189  1.00  0.00     0.176 C 
BRANCH   3   4
HETATM    4  O2  UNL     1       4.205  -3.913  51.963  1.00  0.00    -0.348 OA
BRANCH   4   5
HETATM    5  C7  UNL     1       4.285  -3.410  53.215  1.00  0.00     0.102 A 
HETATM    6  C2  UNL     1       4.951  -2.222  53.506  1.00  0.00     0.102 A 
HETATM    7  C3  UNL     1       5.028  -1.716  54.776  1.00  0.00     0.047 A 
HETATM    8  C4  UNL     1       4.418  -2.412  55.824  1.00  0.00    -0.049 A 
HETATM    9  C5  UNL     1       3.749  -3.593  55.571  1.00  0.00    -0.049 A 
HETATM   10  C27 UNL     1       4.528  -1.824  57.175  1.00  0.00     0.039 C 
HETATM   11  C6  UNL     1       3.699  -4.063  54.272  1.00  0.00     0.047 A 
HETATM   12  C24 UNL     1       3.087  -4.362  56.667  1.00  0.00     0.039 C 
HETATM   13  C25 UNL     1       3.533  -3.877  58.015  1.00  0.00     0.005 C 
HETATM   14  C26 UNL     1       3.385  -2.366  58.041  1.00  0.00     0.005 C 
BRANCH   6  15
HETATM   15  O1  UNL     1       5.529  -1.582  52.448  1.00  0.00    -0.353 OA
HETATM   16  C1  UNL     1       6.906  -1.375  52.234  1.00  0.00     0.210 C 
ENDBRANCH   6  15
ENDBRANCH   4   5
ENDBRANCH   3   4
ENDBRANCH   2   3
ENDBRANCH   1   2
BRANCH   1  17
HETATM   17  C11 UNL     1       2.427  -4.562  48.267  1.00  0.00    -0.026 C 
HETATM   18  C12 UNL     1       2.670  -3.284  47.631  1.00  0.00     0.007 C 
BRANCH  18  19
HETATM   19  C13 UNL     1       3.044  -2.016  48.240  1.00  0.00     0.059 C 
BRANCH  19  20
HETATM   20  N1  UNL     1       4.279  -1.394  48.163  1.00  0.00    -0.293 NA
HETATM   21  C14 UNL     1       4.622  -0.804  46.931  1.00  0.00     0.095 C 
HETATM   22  C15 UNL     1       5.986  -1.259  46.416  1.00  0.00     0.020 C 
HETATM   23  C16 UNL     1       7.022  -0.880  47.478  1.00  0.00    -0.008 C 
HETATM   24  C22 UNL     1       6.667  -1.610  48.726  1.00  0.00     0.020 C 
HETATM   25  C23 UNL     1       5.316  -2.289  48.683  1.00  0.00     0.095 C 
BRANCH  23  26
HETATM   26  C17 UNL     1       8.378  -1.213  46.906  1.00  0.00    -0.007 C 
HETATM   27  C18 UNL     1       9.484  -0.509  47.605  1.00  0.00     0.024 C 
HETATM   28  C19 UNL     1      10.760  -0.804  46.806  1.00  0.00     0.114 C 
HETATM   29  N2  UNL     1      10.662  -0.054  45.593  1.00  0.00    -0.421 N 
HETATM   30  C20 UNL     1       9.439  -0.168  44.878  1.00  0.00     0.114 C 
ATOM     31  H2  UNL     1      11.428   0.530  45.259  1.00  0.00     0.153 HD
HETATM   32  C21 UNL     1       8.433  -1.113  45.409  1.00  0.00     0.024 C 
ENDBRANCH  23  26
ENDBRANCH  19  20
ENDBRANCH  18  19
ENDBRANCH   1  17
TORSDOF 9
ENDMDL
MODEL 2
REMARK VINA RESULT: -10.305409188      3.627      5.420
REMARK  9 active torsions:
REMARK  status: ('A' for Active; 'I' for Inactive)
REMARK    1  A    between atoms: O1_2  and  C2_3 
REMARK    2  A    between atoms: C7_8  and  O2_9 
REMARK    3  A    between atoms: O2_9  and  C8_10 
REMARK    4  A    between atoms: C8_10  and  C9_11 
REMARK    5  A    between atoms: C9_11  and  C10_12 
REMARK    6  A    between atoms: C10_12  and  C11_13 
REMARK    7  A    between atoms: C12_14  and  C13_15 
REMARK    8  A    between atoms: C13_15  and  N1_16 
REMARK    9  A    between atoms: C16_19  and  C17_20 
ROOT
HETATM    1  C10 UNL     1       3.845  -5.302  49.081  1.00  0.00     0.029 C 
ENDROOT
BRANCH   1   2
HETATM    2  C9  UNL     1       3.167  -5.508  50.410  1.00  0.00     0.030 C 
BRANCH   2   3
HETATM    3  C8  UNL     1       2.956  -4.211  51.159  1.00  0.00     0.176 C 
BRANCH   3   4
HETATM    4  O2  UNL     1       4.090  -3.763  51.809  1.00  0.00    -0.348 OA
BRANCH   4   5
HETATM    5  C7  UNL     1       4.235  -3.280  53.063  1.00  0.00     0.102 A 
HETATM    6  C2  UNL     1       4.952  -2.119  53.342  1.00  0.00     0.102 A 
HETATM    7  C3  UNL     1       5.096  -1.633  54.614  1.00  0.00     0.047 A 
HETATM    8  C4  UNL     1       4.506  -2.324  55.677  1.00  0.00    -0.049 A 
HETATM    9  C5  UNL     1       3.788  -3.478  55.436  1.00  0.00    -0.049 A 
HETATM   10  C27 UNL     1       4.688  -1.759  57.030  1.00  0.00     0.039 C 
HETATM   11  C6  UNL     1       3.670  -3.928  54.135  1.00  0.00     0.047 A 
HETATM   12  C24 UNL     1       3.144  -4.240  56.548  1.00  0.00     0.039 C 
HETATM   13  C25 UNL     1       3.660  -3.789  57.883  1.00  0.00     0.005 C 
HETATM   14  C26 UNL     1       3.564  -2.275  57.934  1.00  0.00     0.005 C 
BRANCH   6  15
HETATM   15  O1  UNL     1       5.509  -1.484  52.270  1.00  0.00    -0.353 OA
HETATM   16  C1  UNL     1       6.861  -1.513  51.877  1.00  0.00     0.210 C 
ENDBRANCH   6  15
ENDBRANCH   4   5
ENDBRANCH   3   4
ENDBRANCH   2   3
ENDBRANCH   1   2
BRANCH   1  17
HETATM   17  C11 UNL     1       3.022  -5.589  47.906  1.00  0.00    -0.026 C 
HETATM   18  C12 UNL     1       2.098  -4.654  47.300  1.00  0.00     0.007 C 
BRANCH  18  19
HETATM   19  C13 UNL     1       0.887  -4.071  47.859  1.00  0.00     0.059 C 
BRANCH  19  20
HETATM   20  N1  UNL     1       0.700  -2.750  48.230  1.00  0.00    -0.293 NA
HETATM   21  C14 UNL     1      -0.619  -2.346  48.511  1.00  0.00     0.095 C 
HETATM   22  C15 UNL     1      -1.034  -1.097  47.736  1.00  0.00     0.020 C 
HETATM   23  C16 UNL     1      -0.058   0.019  48.119  1.00  0.00    -0.008 C 
HETATM   24  C22 UNL     1       1.303  -0.420  47.707  1.00  0.00     0.020 C 
HETATM   25  C23 UNL     1       1.384  -1.868  47.280  1.00  0.00     0.095 C 
BRANCH  23  26
HETATM   26  C17 UNL     1      -0.551   1.280  47.453  1.00  0.00    -0.007 C 
HETATM   27  C18 UNL     1       0.531   2.019  46.749  1.00  0.00     0.024 C 
HETATM   28  C19 UNL     1      -0.082   3.347  46.287  1.00  0.00     0.114 C 
HETATM   29  N2  UNL     1      -0.259   4.144  47.459  1.00  0.00    -0.421 N 
HETATM   30  C20 UNL     1      -0.900   3.513  48.559  1.00  0.00     0.114 C 
ATOM     31  H2  UNL     1       0.058   5.112  47.504  1.00  0.00     0.153 HD
HETATM   32  C21 UNL     1      -1.397   2.136  48.352  1.00  0.00     0.024 C 
ENDBRANCH  23  26
ENDBRANCH  19  20
ENDBRANCH  18  19
ENDBRANCH   1  17
TORSDOF 9
ENDMDL
MODEL 3
REMARK VINA RESULT: -10.272937956      3.609      5.367
REMARK  9 active torsions:
REMARK  status: ('A' for Active; 'I' for Inactive)
REMARK    1  A    between atoms: O1_2  and  C2_3 
REMARK    2  A    between atoms: C7_8  and  O2_9 
REMARK    3  A    between atoms: O2_9  and  C8_10 
REMARK    4  A    between atoms: C8_10  and  C9_11 
REMARK    5  A    between atoms: C9_11  and  C10_12 
REMARK    6  A    between atoms: C10_12  and  C11_13 
REMARK    7  A    between atoms: C12_14  and  C13_15 
REMARK    8  A    between atoms: C13_15  and  N1_16 
REMARK    9  A    between atoms: C16_19  and  C17_20 
ROOT
HETATM    1  C10 UNL     1       3.861  -5.430  49.236  1.00  0.00     0.029 C 
ENDROOT
BRANCH   1   2
HETATM    2  C9  UNL     1       3.127  -5.416  50.551  1.00  0.00     0.030 C 
BRANCH   2   3
HETATM    3  C8  UNL     1       3.006  -4.024  51.131  1.00  0.00     0.176 C 
BRANCH   3   4
HETATM    4  O2  UNL     1       4.133  -3.617  51.819  1.00  0.00    -0.348 OA
BRANCH   4   5
HETATM    5  C7  UNL     1       4.260  -3.183  53.092  1.00  0.00     0.102 A 
HETATM    6  C2  UNL     1       4.973  -2.035  53.427  1.00  0.00     0.102 A 
HETATM    7  C3  UNL     1       5.099  -1.598  54.718  1.00  0.00     0.047 A 
HETATM    8  C4  UNL     1       4.492  -2.328  55.745  1.00  0.00    -0.049 A 
HETATM    9  C5  UNL     1       3.777  -3.471  55.449  1.00  0.00    -0.049 A 
HETATM   10  C27 UNL     1       4.655  -1.816  57.121  1.00  0.00     0.039 C 
HETATM   11  C6  UNL     1       3.678  -3.871  54.130  1.00  0.00     0.047 A 
HETATM   12  C24 UNL     1       3.116  -4.275  56.522  1.00  0.00     0.039 C 
HETATM   13  C25 UNL     1       3.612  -3.876  57.880  1.00  0.00     0.005 C 
HETATM   14  C26 UNL     1       3.517  -2.365  57.988  1.00  0.00     0.005 C 
BRANCH   6  15
HETATM   15  O1  UNL     1       5.547  -1.359  52.388  1.00  0.00    -0.353 OA
HETATM   16  C1  UNL     1       6.868  -1.494  51.918  1.00  0.00     0.210 C 
ENDBRANCH   6  15
ENDBRANCH   4   5
ENDBRANCH   3   4
ENDBRANCH   2   3
ENDBRANCH   1   2
BRANCH   1  17
HETATM   17  C11 UNL     1       3.089  -5.918  48.093  1.00  0.00    -0.026 C 
HETATM   18  C12 UNL     1       2.258  -5.089  47.246  1.00  0.00     0.007 C 
BRANCH  18  19
HETATM   19  C13 UNL     1       1.055  -4.345  47.590  1.00  0.00     0.059 C 
BRANCH  19  20
HETATM   20  N1  UNL     1       0.729  -3.063  47.181  1.00  0.00    -0.293 NA
HETATM   21  C14 UNL     1       1.798  -2.180  46.933  1.00  0.00     0.095 C 
HETATM   22  C15 UNL     1       1.657  -0.855  47.679  1.00  0.00     0.020 C 
HETATM   23  C16 UNL     1       0.342  -0.216  47.225  1.00  0.00    -0.008 C 
HETATM   24  C22 UNL     1      -0.758  -1.145  47.603  1.00  0.00     0.020 C 
HETATM   25  C23 UNL     1      -0.286  -2.502  48.076  1.00  0.00     0.095 C 
BRANCH  23  26
HETATM   26  C17 UNL     1       0.274   1.149  47.864  1.00  0.00    -0.007 C 
HETATM   27  C18 UNL     1      -0.920   1.316  48.735  1.00  0.00     0.024 C 
HETATM   28  C19 UNL     1      -0.944   2.790  49.159  1.00  0.00     0.114 C 
HETATM   29  N2  UNL     1      -1.323   3.540  48.004  1.00  0.00    -0.421 N 
HETATM   30  C20 UNL     1      -0.618   3.249  46.805  1.00  0.00     0.114 C 
ATOM     31  H2  UNL     1      -2.058   4.245  48.038  1.00  0.00     0.153 HD
HETATM   32  C21 UNL     1       0.489   2.272  46.892  1.00  0.00     0.024 C 
ENDBRANCH  23  26
ENDBRANCH  19  20
ENDBRANCH  18  19
ENDBRANCH   1  17
TORSDOF 9
ENDMDL
MODEL 4
REMARK VINA RESULT: -10.063246886      0.819      1.577
REMARK  9 active torsions:
REMARK  status: ('A' for Active; 'I' for Inactive)
REMARK    1  A    between atoms: O1_2  and  C2_3 
REMARK    2  A    between atoms: C7_8  and  O2_9 
REMARK    3  A    between atoms: O2_9  and  C8_10 
REMARK    4  A    between atoms: C8_10  and  C9_11 
REMARK    5  A    between atoms: C9_11  and  C10_12 
REMARK    6  A    between atoms: C10_12  and  C11_13 
REMARK    7  A    between atoms: C12_14  and  C13_15 
REMARK    8  A    between atoms: C13_15  and  N1_16 
REMARK    9  A    between atoms: C16_19  and  C17_20 
ROOT
HETATM    1  C10 UNL     1       2.845  -4.859  48.907  1.00  0.00     0.029 C 
ENDROOT
BRANCH   1   2
HETATM    2  C9  UNL     1       3.309  -5.334  50.259  1.00  0.00     0.030 C 
BRANCH   2   3
HETATM    3  C8  UNL     1       2.921  -4.384  51.370  1.00  0.00     0.176 C 
BRANCH   3   4
HETATM    4  O2  UNL     1       4.002  -3.757  51.958  1.00  0.00    -0.348 OA
BRANCH   4   5
HETATM    5  C7  UNL     1       4.157  -3.299  53.219  1.00  0.00     0.102 A 
HETATM    6  C2  UNL     1       4.883  -2.148  53.517  1.00  0.00     0.102 A 
HETATM    7  C3  UNL     1       5.036  -1.687  54.797  1.00  0.00     0.047 A 
HETATM    8  C4  UNL     1       4.446  -2.393  55.849  1.00  0.00    -0.049 A 
HETATM    9  C5  UNL     1       3.719  -3.538  55.591  1.00  0.00    -0.049 A 
HETATM   10  C27 UNL     1       4.639  -1.854  57.212  1.00  0.00     0.039 C 
HETATM   11  C6  UNL     1       3.593  -3.963  54.282  1.00  0.00     0.047 A 
HETATM   12  C24 UNL     1       3.076  -4.316  56.692  1.00  0.00     0.039 C 
HETATM   13  C25 UNL     1       3.600  -3.893  58.032  1.00  0.00     0.005 C 
HETATM   14  C26 UNL     1       3.515  -2.380  58.111  1.00  0.00     0.005 C 
BRANCH   6  15
HETATM   15  O1  UNL     1       5.439  -1.496  52.454  1.00  0.00    -0.353 OA
HETATM   16  C1  UNL     1       6.812  -1.337  52.183  1.00  0.00     0.210 C 
ENDBRANCH   6  15
ENDBRANCH   4   5
ENDBRANCH   3   4
ENDBRANCH   2   3
ENDBRANCH   1   2
BRANCH   1  17
HETATM   17  C11 UNL     1       2.433  -3.457  48.843  1.00  0.00    -0.026 C 
HETATM   18  C12 UNL     1       3.213  -2.396  48.242  1.00  0.00     0.007 C 
BRANCH  18  19
HETATM   19  C13 UNL     1       4.509  -1.873  48.645  1.00  0.00     0.059 C 
BRANCH  19  20
HETATM   20  N1  UNL     1       5.707  -2.015  47.965  1.00  0.00    -0.293 NA
HETATM   21  C14 UNL     1       6.879  -2.083  48.742  1.00  0.00     0.095 C 
HETATM   22  C15 UNL     1       7.946  -1.087  48.295  1.00  0.00     0.020 C 
HETATM   23  C16 UNL     1       8.276  -1.399  46.832  1.00  0.00    -0.008 C 
HETATM   24  C22 UNL     1       7.026  -1.213  46.045  1.00  0.00     0.020 C 
HETATM   25  C23 UNL     1       5.785  -1.023  46.889  1.00  0.00     0.095 C 
BRANCH  23  26
HETATM   26  C17 UNL     1       9.420  -0.499  46.438  1.00  0.00    -0.007 C 
HETATM   27  C18 UNL     1      10.112  -0.956  45.204  1.00  0.00     0.024 C 
HETATM   28  C19 UNL     1      11.343  -0.056  45.039  1.00  0.00     0.114 C 
HETATM   29  N2  UNL     1      12.272  -0.447  46.052  1.00  0.00    -0.421 N 
HETATM   30  C20 UNL     1      11.755  -0.559  47.371  1.00  0.00     0.114 C 
ATOM     31  H2  UNL     1      13.251  -0.635  45.839  1.00  0.00     0.153 HD
HETATM   32  C21 UNL     1      10.342  -0.176  47.578  1.00  0.00     0.024 C 
ENDBRANCH  23  26
ENDBRANCH  19  20
ENDBRANCH  18  19
ENDBRANCH   1  17
TORSDOF 9
ENDMDL
MODEL 5
REMARK VINA RESULT: -9.938014768      4.113      8.918
REMARK  9 active torsions:
REMARK  status: ('A' for Active; 'I' for Inactive)
REMARK    1  A    between atoms: O1_2  and  C2_3 
REMARK    2  A    between atoms: C7_8  and  O2_9 
REMARK    3  A    between atoms: O2_9  and  C8_10 
REMARK    4  A    between atoms: C8_10  and  C9_11 
REMARK    5  A    between atoms: C9_11  and  C10_12 
REMARK    6  A    between atoms: C10_12  and  C11_13 
REMARK    7  A    between atoms: C12_14  and  C13_15 
REMARK    8  A    between atoms: C13_15  and  N1_16 
REMARK    9  A    between atoms: C16_19  and  C17_20 
ROOT
HETATM    1  C10 UNL     1       2.389  -3.733  48.774  1.00  0.00     0.029 C 
ENDROOT
BRANCH   1   2
HETATM    2  C9  UNL     1       1.524  -4.338  47.699  1.00  0.00     0.030 C 
BRANCH   2   3
HETATM    3  C8  UNL     1       0.551  -3.341  47.110  1.00  0.00     0.176 C 
BRANCH   3   4
HETATM    4  O2  UNL     1      -0.168  -2.647  48.064  1.00  0.00    -0.348 OA
BRANCH   4   5
HETATM    5  C7  UNL     1      -0.410  -1.322  48.172  1.00  0.00     0.102 A 
HETATM    6  C2  UNL     1      -1.272  -0.791  49.128  1.00  0.00     0.102 A 
HETATM    7  C3  UNL     1      -1.514   0.552  49.234  1.00  0.00     0.047 A 
HETATM    8  C4  UNL     1      -0.874   1.429  48.353  1.00  0.00    -0.049 A 
HETATM    9  C5  UNL     1      -0.012   0.938  47.394  1.00  0.00    -0.049 A 
HETATM   10  C27 UNL     1      -1.166   2.870  48.509  1.00  0.00     0.039 C 
HETATM   11  C6  UNL     1       0.199  -0.426  47.327  1.00  0.00     0.047 A 
HETATM   12  C24 UNL     1       0.687   1.847  46.437  1.00  0.00     0.039 C 
HETATM   13  C25 UNL     1       0.080   3.219  46.452  1.00  0.00     0.005 C 
HETATM   14  C26 UNL     1      -0.014   3.673  47.897  1.00  0.00     0.005 C 
BRANCH   6  15
HETATM   15  O1  UNL     1      -1.871  -1.691  49.963  1.00  0.00    -0.353 OA
HETATM   16  C1  UNL     1      -2.428  -1.429  51.230  1.00  0.00     0.210 C 
ENDBRANCH   6  15
ENDBRANCH   4   5
ENDBRANCH   3   4
ENDBRANCH   2   3
ENDBRANCH   1   2
BRANCH   1  17
HETATM   17  C11 UNL     1       3.568  -3.011  48.296  1.00  0.00    -0.026 C 
HETATM   18  C12 UNL     1       4.701  -2.649  49.121  1.00  0.00     0.007 C 
BRANCH  18  19
HETATM   19  C13 UNL     1       4.753  -1.743  50.259  1.00  0.00     0.059 C 
BRANCH  19  20
HETATM   20  N1  UNL     1       5.137  -2.058  51.551  1.00  0.00    -0.293 NA
HETATM   21  C14 UNL     1       4.582  -3.222  52.117  1.00  0.00     0.095 C 
HETATM   22  C15 UNL     1       3.944  -2.972  53.481  1.00  0.00     0.020 C 
HETATM   23  C16 UNL     1       5.038  -2.421  54.400  1.00  0.00    -0.008 C 
HETATM   24  C22 UNL     1       5.515  -1.142  53.806  1.00  0.00     0.020 C 
HETATM   25  C23 UNL     1       5.000  -0.878  52.409  1.00  0.00     0.095 C 
BRANCH  23  26
HETATM   26  C17 UNL     1       4.434  -2.300  55.777  1.00  0.00    -0.007 C 
HETATM   27  C18 UNL     1       5.433  -2.500  56.861  1.00  0.00     0.024 C 
HETATM   28  C19 UNL     1       4.644  -2.527  58.177  1.00  0.00     0.114 C 
HETATM   29  N2  UNL     1       3.938  -3.769  58.203  1.00  0.00    -0.421 N 
HETATM   30  C20 UNL     1       3.205  -4.102  57.031  1.00  0.00     0.114 C 
ATOM     31  H2  UNL     1       3.958  -4.382  59.017  1.00  0.00     0.153 HD
HETATM   32  C21 UNL     1       3.174  -3.098  55.946  1.00  0.00     0.024 C 
ENDBRANCH  23  26
ENDBRANCH  19  20
ENDBRANCH  18  19
ENDBRANCH   1  17
TORSDOF 9
ENDMDL
