MODEL 1
REMARK VINA RESULT: -10.027045474      0.000      0.000
REMARK  10 active torsions:
REMARK  status: ('A' for Active; 'I' for Inactive)
REMARK    1  A    between atoms: O1_2  and  N1_3 
REMARK    2  A    between atoms: C2_5  and  C4_7 
REMARK    3  A    between atoms: C5_8  and  C6_9 
REMARK    4  A    between atoms: C6_9  and  C7_10 
REMARK    5  A    between atoms: C7_10  and  C8_11 
REMARK    6  A    between atoms: C8_11  and  C9_12 
REMARK    7  A    between atoms: C9_12  and  C10_13 
REMARK    8  A    between atoms: C10_13  and  N2_14 
REMARK    9  A    between atoms: C13_17  and  N3_18 
REMARK       I    between atoms: N3_18  and  C14_20 
REMARK   10  A    between atoms: C14_20  and  C15_22 
ROOT
HETATM    1  C9  UNL     1       5.440  -2.257  49.371  1.00  0.00     0.030 C 
ENDROOT
BRANCH   1   2
HETATM    2  C8  UNL     1       5.836  -1.696  48.035  1.00  0.00     0.002 C 
BRANCH   2   3
HETATM    3  C7  UNL     1       4.676  -1.075  47.334  1.00  0.00     0.004 C 
BRANCH   3   4
HETATM    4  C6  UNL     1       3.630  -0.564  48.281  1.00  0.00     0.034 C 
BRANCH   4   5
HETATM    5  C5  UNL     1       2.298  -1.041  47.833  1.00  0.00    -0.074 C 
HETATM    6  C4  UNL     1       1.076  -0.312  48.250  1.00  0.00     0.065 C 
HETATM    7  C25 UNL     1      -0.147  -1.208  48.115  1.00  0.00    -0.005 C 
HETATM    8  C24 UNL     1      -0.236  -1.889  46.791  1.00  0.00     0.009 C 
HETATM    9  C26 UNL     1      -1.371  -0.466  48.523  1.00  0.00     0.011 C 
HETATM   10  C23 UNL     1       0.963  -2.740  46.566  1.00  0.00     0.028 C 
HETATM   11  C22 UNL     1       2.211  -2.129  47.075  1.00  0.00    -0.023 C 
BRANCH   6  12
HETATM   12  C2  UNL     1       0.912   0.984  47.561  1.00  0.00     0.015 C 
HETATM   13  N1  UNL     1       0.789   2.044  48.278  1.00  0.00    -0.275 N 
ATOM     14  H1  UNL     1       0.806   1.971  49.295  1.00  0.00     0.193 HD
HETATM   15  C3  UNL     1       0.880   1.149  46.090  1.00  0.00     0.066 C 
BRANCH  13  16
HETATM   16  O1  UNL     1       0.636   3.265  47.694  1.00  0.00    -0.285 OA
HETATM   17  C1  UNL     1      -0.558   4.039  47.883  1.00  0.00     0.237 C 
ENDBRANCH  13  16
ENDBRANCH   6  12
ENDBRANCH   4   5
ENDBRANCH   3   4
ENDBRANCH   2   3
ENDBRANCH   1   2
BRANCH   1  18
HETATM   18  C10 UNL     1       6.297  -1.636  50.442  1.00  0.00     0.272 C 
BRANCH  18  19
HETATM   19  N2  UNL     1       5.951  -2.092  51.785  1.00  0.00     0.088 N 
HETATM   20  C11 UNL     1       4.771  -2.897  51.758  1.00  0.00     0.274 C 
HETATM   21  C12 UNL     1       4.219  -3.138  53.136  1.00  0.00     0.055 C 
HETATM   22  C13 UNL     1       4.051  -1.840  53.896  1.00  0.00     0.087 C 
HETATM   23  C20 UNL     1       5.480  -1.295  54.049  1.00  0.00     0.055 C 
HETATM   24  C21 UNL     1       5.910  -0.952  52.645  1.00  0.00     0.274 C 
BRANCH  22  25
HETATM   25  N3  UNL     1       3.427  -1.966  55.167  1.00  0.00    -0.356 N 
HETATM   26  C14 UNL     1       3.603  -3.126  55.969  1.00  0.00     0.222 C 
HETATM   27  O2  UNL     1       4.347  -4.043  55.486  1.00  0.00    -0.273 OA
ATOM     28  H3  UNL     1       2.840  -1.206  55.511  1.00  0.00     0.162 HD
BRANCH  26  29
HETATM   29  C15 UNL     1       2.962  -3.281  57.301  1.00  0.00     0.078 C 
HETATM   30  C16 UNL     1       3.018  -1.908  57.986  1.00  0.00     0.014 C 
HETATM   31  C17 UNL     1       4.500  -1.777  58.357  1.00  0.00     0.001 C 
HETATM   32  C18 UNL     1       5.100  -3.147  58.221  1.00  0.00     0.001 C 
HETATM   33  C19 UNL     1       3.880  -4.055  58.261  1.00  0.00     0.014 C 
ENDBRANCH  26  29
ENDBRANCH  22  25
ENDBRANCH  18  19
ENDBRANCH   1  18
TORSDOF 10
ENDMDL
MODEL 2
REMARK VINA RESULT: -9.786026793      0.686      1.151
REMARK  10 active torsions:
REMARK  status: ('A' for Active; 'I' for Inactive)
REMARK    1  A    between atoms: O1_2  and  N1_3 
REMARK    2  A    between atoms: C2_5  and  C4_7 
REMARK    3  A    between atoms: C5_8  and  C6_9 
REMARK    4  A    between atoms: C6_9  and  C7_10 
REMARK    5  A    between atoms: C7_10  and  C8_11 
REMARK    6  A    between atoms: C8_11  and  C9_12 
REMARK    7  A    between atoms: C9_12  and  C10_13 
REMARK    8  A    between atoms: C10_13  and  N2_14 
REMARK    9  A    between atoms: C13_17  and  N3_18 
REMARK       I    between atoms: N3_18  and  C14_20 
REMARK   10  A    between atoms: C14_20  and  C15_22 
ROOT
HETATM    1  C9  UNL     1       5.729  -1.418  49.511  1.00  0.00     0.030 C 
ENDROOT
BRANCH   1   2
HETATM    2  C8  UNL     1       5.953  -1.708  48.055  1.00  0.00     0.002 C 
BRANCH   2   3
HETATM    3  C7  UNL     1       4.762  -1.350  47.234  1.00  0.00     0.004 C 
BRANCH   3   4
HETATM    4  C6  UNL     1       3.754  -0.538  47.995  1.00  0.00     0.034 C 
BRANCH   4   5
HETATM    5  C5  UNL     1       2.393  -1.035  47.677  1.00  0.00    -0.074 C 
HETATM    6  C4  UNL     1       1.206  -0.317  48.202  1.00  0.00     0.065 C 
HETATM    7  C25 UNL     1      -0.013  -1.229  48.189  1.00  0.00    -0.005 C 
HETATM    8  C24 UNL     1      -0.217  -1.922  46.884  1.00  0.00     0.009 C 
HETATM    9  C26 UNL     1      -1.203  -0.498  48.704  1.00  0.00     0.011 C 
HETATM   10  C23 UNL     1       0.967  -2.760  46.553  1.00  0.00     0.028 C 
HETATM   11  C22 UNL     1       2.249  -2.130  46.938  1.00  0.00    -0.023 C 
BRANCH   6  12
HETATM   12  C2  UNL     1       0.961   0.971  47.522  1.00  0.00     0.015 C 
HETATM   13  N1  UNL     1       0.812   2.024  48.246  1.00  0.00    -0.275 N 
ATOM     14  H1  UNL     1       0.865   1.950  49.262  1.00  0.00     0.193 HD
HETATM   15  C3  UNL     1       0.875   1.136  46.054  1.00  0.00     0.066 C 
BRANCH  13  16
HETATM   16  O1  UNL     1       0.586   3.237  47.671  1.00  0.00    -0.285 OA
HETATM   17  C1  UNL     1      -0.628   3.964  47.914  1.00  0.00     0.237 C 
ENDBRANCH  13  16
ENDBRANCH   6  12
ENDBRANCH   4   5
ENDBRANCH   3   4
ENDBRANCH   2   3
ENDBRANCH   1   2
BRANCH   1  18
HETATM   18  C10 UNL     1       5.063  -2.606  50.154  1.00  0.00     0.272 C 
BRANCH  18  19
HETATM   19  N2  UNL     1       5.200  -2.618  51.609  1.00  0.00     0.088 N 
HETATM   20  C11 UNL     1       4.344  -3.603  52.189  1.00  0.00     0.274 C 
HETATM   21  C12 UNL     1       4.234  -3.448  53.681  1.00  0.00     0.055 C 
HETATM   22  C13 UNL     1       3.872  -2.029  54.062  1.00  0.00     0.087 C 
HETATM   23  C20 UNL     1       5.066  -1.185  53.587  1.00  0.00     0.055 C 
HETATM   24  C21 UNL     1       5.027  -1.281  52.082  1.00  0.00     0.274 C 
BRANCH  22  25
HETATM   25  N3  UNL     1       3.636  -1.821  55.448  1.00  0.00    -0.356 N 
HETATM   26  C14 UNL     1       4.649  -2.058  56.417  1.00  0.00     0.222 C 
HETATM   27  O2  UNL     1       5.774  -2.467  55.975  1.00  0.00    -0.273 OA
ATOM     28  H3  UNL     1       2.719  -1.495  55.754  1.00  0.00     0.162 HD
BRANCH  26  29
HETATM   29  C15 UNL     1       4.427  -1.848  57.871  1.00  0.00     0.078 C 
HETATM   30  C16 UNL     1       5.109  -3.015  58.599  1.00  0.00     0.014 C 
HETATM   31  C17 UNL     1       4.172  -4.192  58.300  1.00  0.00     0.001 C 
HETATM   32  C18 UNL     1       2.894  -3.601  57.777  1.00  0.00     0.001 C 
HETATM   33  C19 UNL     1       2.971  -2.158  58.251  1.00  0.00     0.014 C 
ENDBRANCH  26  29
ENDBRANCH  22  25
ENDBRANCH  18  19
ENDBRANCH   1  18
TORSDOF 10
ENDMDL
MODEL 3
REMARK VINA RESULT: -9.647367557      1.100      1.550
REMARK  10 active torsions:
REMARK  status: ('A' for Active; 'I' for Inactive)
REMARK    1  A    between atoms: O1_2  and  N1_3 
REMARK    2  A    between atoms: C2_5  and  C4_7 
REMARK    3  A    between atoms: C5_8  and  C6_9 
REMARK    4  A    between atoms: C6_9  and  C7_10 
REMARK    5  A    between atoms: C7_10  and  C8_11 
REMARK    6  A    between atoms: C8_11  and  C9_12 
REMARK    7  A    between atoms: C9_12  and  C10_13 
REMARK    8  A    between atoms: C10_13  and  N2_14 
REMARK    9  A    between atoms: C13_17  and  N3_18 
REMARK       I    between atoms: N3_18  and  C14_20 
REMARK   10  A    between atoms: C14_20  and  C15_22 
ROOT
HETATM    1  C9  UNL     1       4.950  -1.890  49.658  1.00  0.00     0.030 C 
ENDROOT
BRANCH   1   2
HETATM    2  C8  UNL     1       5.528  -2.078  48.284  1.00  0.00     0.002 C 
BRANCH   2   3
HETATM    3  C7  UNL     1       4.569  -1.660  47.222  1.00  0.00     0.004 C 
BRANCH   3   4
HETATM    4  C6  UNL     1       3.660  -0.551  47.664  1.00  0.00     0.034 C 
BRANCH   4   5
HETATM    5  C5  UNL     1       2.251  -0.988  47.503  1.00  0.00    -0.074 C 
HETATM    6  C4  UNL     1       1.162  -0.218  48.153  1.00  0.00     0.065 C 
HETATM    7  C25 UNL     1      -0.089  -1.076  48.281  1.00  0.00    -0.005 C 
HETATM    8  C24 UNL     1      -0.468  -1.760  47.011  1.00  0.00     0.009 C 
HETATM    9  C26 UNL     1      -1.180  -0.293  48.923  1.00  0.00     0.011 C 
HETATM   10  C23 UNL     1       0.634  -2.650  46.555  1.00  0.00     0.028 C 
HETATM   11  C22 UNL     1       1.977  -2.076  46.791  1.00  0.00    -0.023 C 
BRANCH   6  12
HETATM   12  C2  UNL     1       0.900   1.079  47.498  1.00  0.00     0.015 C 
HETATM   13  N1  UNL     1       0.788   2.125  48.239  1.00  0.00    -0.275 N 
ATOM     14  H1  UNL     1       0.881   2.039  49.251  1.00  0.00     0.193 HD
HETATM   15  C3  UNL     1       0.756   1.261  46.036  1.00  0.00     0.066 C 
BRANCH  13  16
HETATM   16  O1  UNL     1       0.547   3.345  47.686  1.00  0.00    -0.285 OA
HETATM   17  C1  UNL     1      -0.715   4.007  47.858  1.00  0.00     0.237 C 
ENDBRANCH  13  16
ENDBRANCH   6  12
ENDBRANCH   4   5
ENDBRANCH   3   4
ENDBRANCH   2   3
ENDBRANCH   1   2
BRANCH   1  18
HETATM   18  C10 UNL     1       4.043  -3.049  49.974  1.00  0.00     0.272 C 
BRANCH  18  19
HETATM   19  N2  UNL     1       4.355  -3.683  51.253  1.00  0.00     0.088 N 
HETATM   20  C11 UNL     1       3.159  -4.069  51.932  1.00  0.00     0.274 C 
HETATM   21  C12 UNL     1       3.419  -4.452  53.363  1.00  0.00     0.055 C 
HETATM   22  C13 UNL     1       4.206  -3.379  54.084  1.00  0.00     0.087 C 
HETATM   23  C20 UNL     1       5.559  -3.337  53.354  1.00  0.00     0.055 C 
HETATM   24  C21 UNL     1       5.233  -2.818  51.976  1.00  0.00     0.274 C 
BRANCH  22  25
HETATM   25  N3  UNL     1       4.398  -3.607  55.473  1.00  0.00    -0.356 N 
HETATM   26  C14 UNL     1       4.910  -2.594  56.328  1.00  0.00     0.222 C 
HETATM   27  O2  UNL     1       5.187  -1.474  55.781  1.00  0.00    -0.273 OA
ATOM     28  H3  UNL     1       4.163  -4.519  55.865  1.00  0.00     0.162 HD
BRANCH  26  29
HETATM   29  C15 UNL     1       5.120  -2.807  57.784  1.00  0.00     0.078 C 
HETATM   30  C16 UNL     1       4.232  -3.991  58.194  1.00  0.00     0.014 C 
HETATM   31  C17 UNL     1       2.824  -3.383  58.160  1.00  0.00     0.001 C 
HETATM   32  C18 UNL     1       3.001  -1.892  58.110  1.00  0.00     0.001 C 
HETATM   33  C19 UNL     1       4.428  -1.706  58.602  1.00  0.00     0.014 C 
ENDBRANCH  26  29
ENDBRANCH  22  25
ENDBRANCH  18  19
ENDBRANCH   1  18
TORSDOF 10
ENDMDL
MODEL 4
REMARK VINA RESULT: -9.540249631      4.366      7.077
REMARK  10 active torsions:
REMARK  status: ('A' for Active; 'I' for Inactive)
REMARK    1  A    between atoms: O1_2  and  N1_3 
REMARK    2  A    between atoms: C2_5  and  C4_7 
REMARK    3  A    between atoms: C5_8  and  C6_9 
REMARK    4  A    between atoms: C6_9  and  C7_10 
REMARK    5  A    between atoms: C7_10  and  C8_11 
REMARK    6  A    between atoms: C8_11  and  C9_12 
REMARK    7  A    between atoms: C9_12  and  C10_13 
REMARK    8  A    between atoms: C10_13  and  N2_14 
REMARK    9  A    between atoms: C13_17  and  N3_18 
REMARK       I    between atoms: N3_18  and  C14_20 
REMARK   10  A    between atoms: C14_20  and  C15_22 
ROOT
HETATM    1  C9  UNL     1       5.850  -1.742  48.794  1.00  0.00     0.030 C 
ENDROOT
BRANCH   1   2
HETATM    2  C8  UNL     1       7.338  -1.630  48.625  1.00  0.00     0.002 C 
BRANCH   2   3
HETATM    3  C7  UNL     1       7.718  -1.452  47.195  1.00  0.00     0.004 C 
BRANCH   3   4
HETATM    4  C6  UNL     1       8.468  -0.175  46.947  1.00  0.00     0.034 C 
BRANCH   4   5
HETATM    5  C5  UNL     1       9.883  -0.498  46.639  1.00  0.00    -0.074 C 
HETATM    6  C4  UNL     1      10.943   0.501  46.916  1.00  0.00     0.065 C 
HETATM    7  C25 UNL     1      12.191   0.189  46.101  1.00  0.00    -0.005 C 
HETATM    8  C24 UNL     1      12.620  -1.235  46.203  1.00  0.00     0.009 C 
HETATM    9  C26 UNL     1      13.254   1.189  46.393  1.00  0.00     0.011 C 
HETATM   10  C23 UNL     1      11.539  -2.137  45.721  1.00  0.00     0.028 C 
HETATM   11  C22 UNL     1      10.187  -1.675  46.102  1.00  0.00    -0.023 C 
BRANCH   6  12
HETATM   12  C2  UNL     1      11.228   0.660  48.356  1.00  0.00     0.015 C 
HETATM   13  N1  UNL     1      11.350   1.851  48.826  1.00  0.00    -0.275 N 
ATOM     14  H1  UNL     1      11.250   2.652  48.203  1.00  0.00     0.193 HD
HETATM   15  C3  UNL     1      11.383  -0.466  49.304  1.00  0.00     0.066 C 
BRANCH  13  16
HETATM   16  O1  UNL     1      11.612   2.053  50.147  1.00  0.00    -0.285 OA
HETATM   17  C1  UNL     1      11.093   3.195  50.844  1.00  0.00     0.237 C 
ENDBRANCH  13  16
ENDBRANCH   6  12
ENDBRANCH   4   5
ENDBRANCH   3   4
ENDBRANCH   2   3
ENDBRANCH   1   2
BRANCH   1  18
HETATM   18  C10 UNL     1       5.441  -1.029  50.056  1.00  0.00     0.272 C 
BRANCH  18  19
HETATM   19  N2  UNL     1       5.581  -1.859  51.250  1.00  0.00     0.088 N 
HETATM   20  C11 UNL     1       4.703  -2.984  51.190  1.00  0.00     0.274 C 
HETATM   21  C12 UNL     1       4.601  -3.692  52.512  1.00  0.00     0.055 C 
HETATM   22  C13 UNL     1       4.272  -2.726  53.630  1.00  0.00     0.087 C 
HETATM   23  C20 UNL     1       5.485  -1.783  53.693  1.00  0.00     0.055 C 
HETATM   24  C21 UNL     1       5.440  -1.016  52.395  1.00  0.00     0.274 C 
BRANCH  22  25
HETATM   25  N3  UNL     1       4.045  -3.329  54.897  1.00  0.00    -0.356 N 
HETATM   26  C14 UNL     1       3.310  -2.662  55.915  1.00  0.00     0.222 C 
HETATM   27  O2  UNL     1       2.870  -1.498  55.629  1.00  0.00    -0.273 OA
ATOM     28  H3  UNL     1       4.417  -4.260  55.079  1.00  0.00     0.162 HD
BRANCH  26  29
HETATM   29  C15 UNL     1       3.059  -3.270  57.247  1.00  0.00     0.078 C 
HETATM   30  C16 UNL     1       3.007  -2.118  58.261  1.00  0.00     0.014 C 
HETATM   31  C17 UNL     1       4.479  -1.702  58.372  1.00  0.00     0.001 C 
HETATM   32  C18 UNL     1       5.286  -2.807  57.755  1.00  0.00     0.001 C 
HETATM   33  C19 UNL     1       4.317  -3.980  57.769  1.00  0.00     0.014 C 
ENDBRANCH  26  29
ENDBRANCH  22  25
ENDBRANCH  18  19
ENDBRANCH   1  18
TORSDOF 10
ENDMDL
MODEL 5
REMARK VINA RESULT: -9.248301595      2.106      3.260
REMARK  10 active torsions:
REMARK  status: ('A' for Active; 'I' for Inactive)
REMARK    1  A    between atoms: O1_2  and  N1_3 
REMARK    2  A    between atoms: C2_5  and  C4_7 
REMARK    3  A    between atoms: C5_8  and  C6_9 
REMARK    4  A    between atoms: C6_9  and  C7_10 
REMARK    5  A    between atoms: C7_10  and  C8_11 
REMARK    6  A    between atoms: C8_11  and  C9_12 
REMARK    7  A    between atoms: C9_12  and  C10_13 
REMARK    8  A    between atoms: C10_13  and  N2_14 
REMARK    9  A    between atoms: C13_17  and  N3_18 
REMARK       I    between atoms: N3_18  and  C14_20 
REMARK   10  A    between atoms: C14_20  and  C15_22 
ROOT
HETATM    1  C9  UNL     1       6.062  -2.038  49.379  1.00  0.00     0.030 C 
ENDROOT
BRANCH   1   2
HETATM    2  C8  UNL     1       6.594  -1.361  48.148  1.00  0.00     0.002 C 
BRANCH   2   3
HETATM    3  C7  UNL     1       5.497  -0.772  47.328  1.00  0.00     0.004 C 
BRANCH   3   4
HETATM    4  C6  UNL     1       4.520  -1.802  46.839  1.00  0.00     0.034 C 
BRANCH   4   5
HETATM    5  C5  UNL     1       3.146  -1.376  47.202  1.00  0.00    -0.074 C 
HETATM    6  C4  UNL     1       2.001  -2.281  46.941  1.00  0.00     0.065 C 
HETATM    7  C25 UNL     1       0.698  -1.494  46.917  1.00  0.00    -0.005 C 
HETATM    8  C24 UNL     1       0.535  -0.588  48.090  1.00  0.00     0.009 C 
HETATM    9  C26 UNL     1      -0.448  -2.412  46.667  1.00  0.00     0.011 C 
HETATM   10  C23 UNL     1       1.647   0.398  48.140  1.00  0.00     0.028 C 
HETATM   11  C22 UNL     1       2.951  -0.178  47.743  1.00  0.00    -0.023 C 
BRANCH   6  12
HETATM   12  C2  UNL     1       1.953  -3.435  47.862  1.00  0.00     0.015 C 
HETATM   13  N1  UNL     1       2.170  -3.226  49.112  1.00  0.00    -0.275 N 
ATOM     14  H1  UNL     1       2.369  -2.281  49.439  1.00  0.00     0.193 HD
HETATM   15  C3  UNL     1       1.668  -4.826  47.443  1.00  0.00     0.066 C 
BRANCH  13  16
HETATM   16  O1  UNL     1       2.137  -4.254  50.005  1.00  0.00    -0.285 OA
HETATM   17  C1  UNL     1       3.342  -4.887  50.459  1.00  0.00     0.237 C 
ENDBRANCH  13  16
ENDBRANCH   6  12
ENDBRANCH   4   5
ENDBRANCH   3   4
ENDBRANCH   2   3
ENDBRANCH   1   2
BRANCH   1  18
HETATM   18  C10 UNL     1       6.863  -1.592  50.573  1.00  0.00     0.272 C 
BRANCH  18  19
HETATM   19  N2  UNL     1       6.028  -1.168  51.694  1.00  0.00     0.088 N 
HETATM   20  C11 UNL     1       6.819  -0.955  52.863  1.00  0.00     0.274 C 
HETATM   21  C12 UNL     1       5.974  -0.807  54.099  1.00  0.00     0.055 C 
HETATM   22  C13 UNL     1       4.990  -1.949  54.232  1.00  0.00     0.087 C 
HETATM   23  C20 UNL     1       4.068  -1.808  53.010  1.00  0.00     0.055 C 
HETATM   24  C21 UNL     1       4.955  -2.102  51.826  1.00  0.00     0.274 C 
BRANCH  22  25
HETATM   25  N3  UNL     1       4.230  -1.948  55.432  1.00  0.00    -0.356 N 
HETATM   26  C14 UNL     1       3.707  -3.151  55.980  1.00  0.00     0.222 C 
HETATM   27  O2  UNL     1       3.957  -4.225  55.337  1.00  0.00    -0.273 OA
ATOM     28  H3  UNL     1       4.055  -1.065  55.911  1.00  0.00     0.162 HD
BRANCH  26  29
HETATM   29  C15 UNL     1       2.908  -3.177  57.233  1.00  0.00     0.078 C 
HETATM   30  C16 UNL     1       3.219  -1.877  57.988  1.00  0.00     0.014 C 
HETATM   31  C17 UNL     1       4.640  -2.122  58.509  1.00  0.00     0.001 C 
HETATM   32  C18 UNL     1       4.903  -3.594  58.364  1.00  0.00     0.001 C 
HETATM   33  C19 UNL     1       3.503  -4.176  58.238  1.00  0.00     0.014 C 
ENDBRANCH  26  29
ENDBRANCH  22  25
ENDBRANCH  18  19
ENDBRANCH   1  18
TORSDOF 10
ENDMDL
