MODEL 1
REMARK VINA RESULT: -8.028446758      0.000      0.000
REMARK  12 active torsions:
REMARK  status: ('A' for Active; 'I' for Inactive)
REMARK    1  A    between atoms: C3_3  and  C4_4 
REMARK    2  A    between atoms: C8_8  and  C9_9 
REMARK    3  A    between atoms: C9_9  and  S2_11 
REMARK    4  A    between atoms: S2_11  and  C10_12 
REMARK    5  A    between atoms: C10_12  and  C11_13 
REMARK    6  A    between atoms: C11_13  and  C12_14 
REMARK    7  A    between atoms: C12_14  and  N1_15 
REMARK    8  A    between atoms: C12_14  and  C17_24 
REMARK    9  A    between atoms: N1_15  and  S3_17 
REMARK   10  A    between atoms: S3_17  and  C13_20 
REMARK   11  A    between atoms: C13_20  and  C14_21 
REMARK   12  A    between atoms: C14_21  and  C15_22 
ROOT
HETATM    1  C1  UNL     1       6.348  -1.308  47.818  1.00  0.00     0.112 C 
HETATM    2  C2  UNL     1       4.956  -1.735  47.585  1.00  0.00    -0.111 C 
HETATM    3  C3  UNL     1       3.839  -2.069  47.381  1.00  0.00    -0.101 C 
ENDROOT
BRANCH   3   4
HETATM    4  C4  UNL     1       2.469  -2.493  47.106  1.00  0.00     0.082 C 
HETATM    5  C5  UNL     1       1.470  -1.758  47.962  1.00  0.00     0.045 C 
HETATM    6  C6  UNL     1       0.357  -2.740  48.054  1.00  0.00    -0.029 C 
HETATM    7  C7  UNL     1       0.785  -3.958  47.763  1.00  0.00    -0.019 C 
HETATM    8  C8  UNL     1       2.240  -3.922  47.444  1.00  0.00     0.075 C 
BRANCH   8   9
HETATM    9  C9  UNL     1       2.943  -4.370  48.665  1.00  0.00     0.054 C 
HETATM   10  S1  UNL     1       3.878  -5.445  48.526  1.00  0.00    -0.077 SA
BRANCH   9  11
HETATM   11  S2  UNL     1       2.708  -3.647  50.262  1.00  0.00    -0.122 SA
BRANCH  11  12
HETATM   12  C10 UNL     1       3.678  -4.456  51.569  1.00  0.00     0.082 C 
BRANCH  12  13
HETATM   13  C11 UNL     1       3.289  -3.954  52.906  1.00  0.00     0.036 C 
BRANCH  13  14
HETATM   14  C12 UNL     1       4.202  -2.822  53.441  1.00  0.00     0.097 C 
BRANCH  14  15
HETATM   15  N1  UNL     1       5.425  -2.954  52.754  1.00  0.00    -0.314 N 
ATOM     16  H1  UNL     1       5.877  -3.865  52.681  1.00  0.00     0.172 HD
BRANCH  15  17
HETATM   17  S3  UNL     1       6.131  -1.599  52.054  1.00  0.00     0.226 S 
HETATM   18  O1  UNL     1       5.107  -0.931  51.148  1.00  0.00    -0.206 OA
HETATM   19  O2  UNL     1       6.396  -0.531  53.118  1.00  0.00    -0.206 OA
BRANCH  17  20
HETATM   20  C13 UNL     1       7.622  -1.800  51.191  1.00  0.00     0.163 C 
BRANCH  20  21
HETATM   21  C14 UNL     1       8.844  -1.242  51.841  1.00  0.00     0.016 C 
BRANCH  21  22
HETATM   22  C15 UNL     1      10.030  -1.219  50.890  1.00  0.00    -0.004 C 
HETATM   23  C16 UNL     1      11.232  -0.574  51.618  1.00  0.00     0.005 C 
ENDBRANCH  21  22
ENDBRANCH  20  21
ENDBRANCH  17  20
ENDBRANCH  15  17
ENDBRANCH  14  15
BRANCH  14  24
HETATM   24  C17 UNL     1       4.219  -3.069  54.928  1.00  0.00     0.009 C 
HETATM   25  C18 UNL     1       5.089  -2.108  55.695  1.00  0.00     0.007 C 
HETATM   26  C19 UNL     1       4.680  -2.077  57.173  1.00  0.00     0.000 C 
HETATM   27  C20 UNL     1       4.379  -3.474  57.666  1.00  0.00     0.000 C 
HETATM   28  C21 UNL     1       3.209  -4.014  56.918  1.00  0.00     0.000 C 
HETATM   29  C22 UNL     1       2.931  -3.261  55.608  1.00  0.00     0.007 C 
ENDBRANCH  14  24
ENDBRANCH  13  14
ENDBRANCH  12  13
ENDBRANCH  11  12
ENDBRANCH   9  11
ENDBRANCH   8   9
ENDBRANCH   3   4
TORSDOF 12
ENDMDL
MODEL 2
REMARK VINA RESULT: -7.706033211      2.497      5.590
REMARK  12 active torsions:
REMARK  status: ('A' for Active; 'I' for Inactive)
REMARK    1  A    between atoms: C3_3  and  C4_4 
REMARK    2  A    between atoms: C8_8  and  C9_9 
REMARK    3  A    between atoms: C9_9  and  S2_11 
REMARK    4  A    between atoms: S2_11  and  C10_12 
REMARK    5  A    between atoms: C10_12  and  C11_13 
REMARK    6  A    between atoms: C11_13  and  C12_14 
REMARK    7  A    between atoms: C12_14  and  N1_15 
REMARK    8  A    between atoms: C12_14  and  C17_24 
REMARK    9  A    between atoms: N1_15  and  S3_17 
REMARK   10  A    between atoms: S3_17  and  C13_20 
REMARK   11  A    between atoms: C13_20  and  C14_21 
REMARK   12  A    between atoms: C14_21  and  C15_22 
ROOT
HETATM    1  C1  UNL     1      -1.674   2.903  48.870  1.00  0.00     0.112 C 
HETATM    2  C2  UNL     1      -1.398   1.516  48.454  1.00  0.00    -0.111 C 
HETATM    3  C3  UNL     1      -1.190   0.395  48.133  1.00  0.00    -0.101 C 
ENDROOT
BRANCH   3   4
HETATM    4  C4  UNL     1      -0.960  -0.989  47.731  1.00  0.00     0.082 C 
HETATM    5  C5  UNL     1      -0.501  -1.842  48.885  1.00  0.00     0.045 C 
HETATM    6  C6  UNL     1       0.295  -2.893  48.198  1.00  0.00    -0.029 C 
HETATM    7  C7  UNL     1       0.657  -2.489  46.991  1.00  0.00    -0.019 C 
HETATM    8  C8  UNL     1       0.140  -1.115  46.739  1.00  0.00     0.075 C 
BRANCH   8   9
HETATM    9  C9  UNL     1       1.272  -0.195  46.979  1.00  0.00     0.054 C 
HETATM   10  S1  UNL     1       1.295   1.026  46.233  1.00  0.00    -0.077 SA
BRANCH   9  11
HETATM   11  S2  UNL     1       2.573  -0.511  48.134  1.00  0.00    -0.122 SA
BRANCH  11  12
HETATM   12  C10 UNL     1       4.208  -0.665  47.355  1.00  0.00     0.082 C 
BRANCH  12  13
HETATM   13  C11 UNL     1       4.963  -1.803  47.926  1.00  0.00     0.036 C 
BRANCH  13  14
HETATM   14  C12 UNL     1       4.770  -1.982  49.453  1.00  0.00     0.097 C 
BRANCH  14  15
HETATM   15  N1  UNL     1       6.017  -1.684  50.038  1.00  0.00    -0.314 N 
ATOM     16  H1  UNL     1       6.841  -1.555  49.452  1.00  0.00     0.172 HD
BRANCH  15  17
HETATM   17  S3  UNL     1       6.134  -1.544  51.708  1.00  0.00     0.226 S 
HETATM   18  O1  UNL     1       7.543  -1.091  52.060  1.00  0.00    -0.206 OA
HETATM   19  O2  UNL     1       5.266  -0.385  52.205  1.00  0.00    -0.206 OA
BRANCH  17  20
HETATM   20  C13 UNL     1       5.709  -2.915  52.681  1.00  0.00     0.163 C 
BRANCH  20  21
HETATM   21  C14 UNL     1       4.726  -2.671  53.778  1.00  0.00     0.016 C 
BRANCH  21  22
HETATM   22  C15 UNL     1       4.089  -3.962  54.265  1.00  0.00    -0.004 C 
HETATM   23  C16 UNL     1       3.623  -3.760  55.726  1.00  0.00     0.005 C 
ENDBRANCH  21  22
ENDBRANCH  20  21
ENDBRANCH  17  20
ENDBRANCH  15  17
ENDBRANCH  14  15
BRANCH  14  24
HETATM   24  C17 UNL     1       4.276  -3.401  49.572  1.00  0.00     0.009 C 
HETATM   25  C18 UNL     1       3.218  -3.590  50.628  1.00  0.00     0.007 C 
HETATM   26  C19 UNL     1       2.420  -4.873  50.362  1.00  0.00     0.000 C 
HETATM   27  C20 UNL     1       3.343  -5.988  49.926  1.00  0.00     0.000 C 
HETATM   28  C21 UNL     1       3.980  -5.614  48.632  1.00  0.00     0.000 C 
HETATM   29  C22 UNL     1       3.912  -4.108  48.338  1.00  0.00     0.007 C 
ENDBRANCH  14  24
ENDBRANCH  13  14
ENDBRANCH  12  13
ENDBRANCH  11  12
ENDBRANCH   9  11
ENDBRANCH   8   9
ENDBRANCH   3   4
TORSDOF 12
ENDMDL
MODEL 3
REMARK VINA RESULT: -7.679730290      2.530      8.063
REMARK  12 active torsions:
REMARK  status: ('A' for Active; 'I' for Inactive)
REMARK    1  A    between atoms: C3_3  and  C4_4 
REMARK    2  A    between atoms: C8_8  and  C9_9 
REMARK    3  A    between atoms: C9_9  and  S2_11 
REMARK    4  A    between atoms: S2_11  and  C10_12 
REMARK    5  A    between atoms: C10_12  and  C11_13 
REMARK    6  A    between atoms: C11_13  and  C12_14 
REMARK    7  A    between atoms: C12_14  and  N1_15 
REMARK    8  A    between atoms: C12_14  and  C17_24 
REMARK    9  A    between atoms: N1_15  and  S3_17 
REMARK   10  A    between atoms: S3_17  and  C13_20 
REMARK   11  A    between atoms: C13_20  and  C14_21 
REMARK   12  A    between atoms: C14_21  and  C15_22 
ROOT
HETATM    1  C1  UNL     1       2.503  -4.634  50.053  1.00  0.00     0.112 C 
HETATM    2  C2  UNL     1       2.970  -4.449  51.439  1.00  0.00    -0.111 C 
HETATM    3  C3  UNL     1       3.359  -4.314  52.549  1.00  0.00    -0.101 C 
ENDROOT
BRANCH   3   4
HETATM    4  C4  UNL     1       3.864  -4.139  53.908  1.00  0.00     0.082 C 
HETATM    5  C5  UNL     1       2.922  -3.327  54.758  1.00  0.00     0.045 C 
HETATM    6  C6  UNL     1       3.847  -2.708  55.744  1.00  0.00    -0.029 C 
HETATM    7  C7  UNL     1       5.090  -2.727  55.292  1.00  0.00    -0.019 C 
HETATM    8  C8  UNL     1       5.131  -3.363  53.945  1.00  0.00     0.075 C 
BRANCH   8   9
HETATM    9  C9  UNL     1       5.186  -2.256  52.966  1.00  0.00     0.054 C 
HETATM   10  S1  UNL     1       5.059  -0.924  53.473  1.00  0.00    -0.077 SA
BRANCH   9  11
HETATM   11  S2  UNL     1       5.416  -2.487  51.227  1.00  0.00    -0.122 SA
BRANCH  11  12
HETATM   12  C10 UNL     1       6.872  -1.620  50.571  1.00  0.00     0.082 C 
BRANCH  12  13
HETATM   13  C11 UNL     1       7.221  -2.115  49.221  1.00  0.00     0.036 C 
BRANCH  13  14
HETATM   14  C12 UNL     1       6.937  -1.099  48.086  1.00  0.00     0.097 C 
BRANCH  14  15
HETATM   15  N1  UNL     1       5.728  -1.510  47.494  1.00  0.00    -0.314 N 
ATOM     16  H1  UNL     1       5.698  -2.350  46.916  1.00  0.00     0.172 HD
BRANCH  15  17
HETATM   17  S3  UNL     1       4.334  -0.605  47.745  1.00  0.00     0.226 S 
HETATM   18  O1  UNL     1       4.689   0.606  48.596  1.00  0.00    -0.206 OA
HETATM   19  O2  UNL     1       3.866   0.024  46.431  1.00  0.00    -0.206 OA
BRANCH  17  20
HETATM   20  C13 UNL     1       2.948  -1.398  48.421  1.00  0.00     0.163 C 
BRANCH  20  21
HETATM   21  C14 UNL     1       1.829  -1.694  47.479  1.00  0.00     0.016 C 
BRANCH  21  22
HETATM   22  C15 UNL     1       2.009  -3.038  46.790  1.00  0.00    -0.004 C 
HETATM   23  C16 UNL     1       0.732  -3.881  47.017  1.00  0.00     0.005 C 
ENDBRANCH  21  22
ENDBRANCH  20  21
ENDBRANCH  17  20
ENDBRANCH  15  17
ENDBRANCH  14  15
BRANCH  14  24
HETATM   24  C17 UNL     1       8.181  -1.177  47.237  1.00  0.00     0.009 C 
HETATM   25  C18 UNL     1       7.917  -1.058  45.760  1.00  0.00     0.007 C 
HETATM   26  C19 UNL     1       9.194  -0.641  45.019  1.00  0.00     0.000 C 
HETATM   27  C20 UNL     1      10.390  -1.378  45.575  1.00  0.00     0.000 C 
HETATM   28  C21 UNL     1      10.584  -0.987  46.999  1.00  0.00     0.000 C 
HETATM   29  C22 UNL     1       9.334  -0.356  47.628  1.00  0.00     0.007 C 
ENDBRANCH  14  24
ENDBRANCH  13  14
ENDBRANCH  12  13
ENDBRANCH  11  12
ENDBRANCH   9  11
ENDBRANCH   8   9
ENDBRANCH   3   4
TORSDOF 12
ENDMDL
MODEL 4
REMARK VINA RESULT: -7.669555946      2.590      7.781
REMARK  12 active torsions:
REMARK  status: ('A' for Active; 'I' for Inactive)
REMARK    1  A    between atoms: C3_3  and  C4_4 
REMARK    2  A    between atoms: C8_8  and  C9_9 
REMARK    3  A    between atoms: C9_9  and  S2_11 
REMARK    4  A    between atoms: S2_11  and  C10_12 
REMARK    5  A    between atoms: C10_12  and  C11_13 
REMARK    6  A    between atoms: C11_13  and  C12_14 
REMARK    7  A    between atoms: C12_14  and  N1_15 
REMARK    8  A    between atoms: C12_14  and  C17_24 
REMARK    9  A    between atoms: N1_15  and  S3_17 
REMARK   10  A    between atoms: S3_17  and  C13_20 
REMARK   11  A    between atoms: C13_20  and  C14_21 
REMARK   12  A    between atoms: C14_21  and  C15_22 
ROOT
HETATM    1  C1  UNL     1       8.266  -1.734  51.131  1.00  0.00     0.112 C 
HETATM    2  C2  UNL     1       7.186  -1.462  52.097  1.00  0.00    -0.111 C 
HETATM    3  C3  UNL     1       6.315  -1.263  52.874  1.00  0.00    -0.101 C 
ENDROOT
BRANCH   3   4
HETATM    4  C4  UNL     1       5.254  -1.034  53.850  1.00  0.00     0.082 C 
HETATM    5  C5  UNL     1       5.608  -1.586  55.207  1.00  0.00     0.045 C 
HETATM    6  C6  UNL     1       4.269  -1.881  55.782  1.00  0.00    -0.029 C 
HETATM    7  C7  UNL     1       3.360  -1.971  54.825  1.00  0.00    -0.019 C 
HETATM    8  C8  UNL     1       3.997  -1.745  53.497  1.00  0.00     0.075 C 
BRANCH   8   9
HETATM    9  C9  UNL     1       4.211  -3.084  52.907  1.00  0.00     0.054 C 
HETATM   10  S1  UNL     1       4.374  -4.181  53.811  1.00  0.00    -0.077 SA
BRANCH   9  11
HETATM   11  S2  UNL     1       4.258  -3.401  51.167  1.00  0.00    -0.122 SA
BRANCH  11  12
HETATM   12  C10 UNL     1       4.061  -1.904  50.157  1.00  0.00     0.082 C 
BRANCH  12  13
HETATM   13  C11 UNL     1       4.682  -2.077  48.824  1.00  0.00     0.036 C 
BRANCH  13  14
HETATM   14  C12 UNL     1       4.549  -0.838  47.903  1.00  0.00     0.097 C 
BRANCH  14  15
HETATM   15  N1  UNL     1       3.443  -1.093  47.069  1.00  0.00    -0.314 N 
ATOM     16  H1  UNL     1       3.520  -1.763  46.304  1.00  0.00     0.172 HD
BRANCH  15  17
HETATM   17  S3  UNL     1       1.996  -0.285  47.346  1.00  0.00     0.226 S 
HETATM   18  O1  UNL     1       2.195   0.690  48.496  1.00  0.00    -0.206 OA
HETATM   19  O2  UNL     1       1.669   0.636  46.168  1.00  0.00    -0.206 OA
BRANCH  17  20
HETATM   20  C13 UNL     1       0.568  -1.229  47.630  1.00  0.00     0.163 C 
BRANCH  20  21
HETATM   21  C14 UNL     1       0.773  -2.572  48.246  1.00  0.00     0.016 C 
BRANCH  21  22
HETATM   22  C15 UNL     1       0.781  -3.679  47.203  1.00  0.00    -0.004 C 
HETATM   23  C16 UNL     1       1.871  -4.707  47.586  1.00  0.00     0.005 C 
ENDBRANCH  21  22
ENDBRANCH  20  21
ENDBRANCH  17  20
ENDBRANCH  15  17
ENDBRANCH  14  15
BRANCH  14  24
HETATM   24  C17 UNL     1       5.903  -0.754  47.245  1.00  0.00     0.009 C 
HETATM   25  C18 UNL     1       6.356   0.655  46.964  1.00  0.00     0.007 C 
HETATM   26  C19 UNL     1       7.879   0.702  46.783  1.00  0.00     0.000 C 
HETATM   27  C20 UNL     1       8.350  -0.482  45.970  1.00  0.00     0.000 C 
HETATM   28  C21 UNL     1       8.054  -1.736  46.718  1.00  0.00     0.000 C 
HETATM   29  C22 UNL     1       6.997  -1.549  47.816  1.00  0.00     0.007 C 
ENDBRANCH  14  24
ENDBRANCH  13  14
ENDBRANCH  12  13
ENDBRANCH  11  12
ENDBRANCH   9  11
ENDBRANCH   8   9
ENDBRANCH   3   4
TORSDOF 12
ENDMDL
MODEL 5
REMARK VINA RESULT: -7.657829351      3.512      8.069
REMARK  12 active torsions:
REMARK  status: ('A' for Active; 'I' for Inactive)
REMARK    1  A    between atoms: C3_3  and  C4_4 
REMARK    2  A    between atoms: C8_8  and  C9_9 
REMARK    3  A    between atoms: C9_9  and  S2_11 
REMARK    4  A    between atoms: S2_11  and  C10_12 
REMARK    5  A    between atoms: C10_12  and  C11_13 
REMARK    6  A    between atoms: C11_13  and  C12_14 
REMARK    7  A    between atoms: C12_14  and  N1_15 
REMARK    8  A    between atoms: C12_14  and  C17_24 
REMARK    9  A    between atoms: N1_15  and  S3_17 
REMARK   10  A    between atoms: S3_17  and  C13_20 
REMARK   11  A    between atoms: C13_20  and  C14_21 
REMARK   12  A    between atoms: C14_21  and  C15_22 
ROOT
HETATM    1  C1  UNL     1       2.650  -5.084  50.277  1.00  0.00     0.112 C 
HETATM    2  C2  UNL     1       3.587  -4.292  51.096  1.00  0.00    -0.111 C 
HETATM    3  C3  UNL     1       4.325  -3.643  51.756  1.00  0.00    -0.101 C 
ENDROOT
BRANCH   3   4
HETATM    4  C4  UNL     1       5.217  -2.844  52.592  1.00  0.00     0.082 C 
HETATM    5  C5  UNL     1       4.507  -1.668  53.210  1.00  0.00     0.045 C 
HETATM    6  C6  UNL     1       5.615  -0.693  53.386  1.00  0.00    -0.029 C 
HETATM    7  C7  UNL     1       6.635  -1.000  52.602  1.00  0.00    -0.019 C 
HETATM    8  C8  UNL     1       6.317  -2.222  51.810  1.00  0.00     0.075 C 
BRANCH   8   9
HETATM    9  C9  UNL     1       5.909  -1.752  50.469  1.00  0.00     0.054 C 
HETATM   10  S1  UNL     1       6.842  -1.933  49.398  1.00  0.00    -0.077 SA
BRANCH   9  11
HETATM   11  S2  UNL     1       4.345  -1.005  50.118  1.00  0.00    -0.122 SA
BRANCH  11  12
HETATM   12  C10 UNL     1       4.403   0.173  48.735  1.00  0.00     0.082 C 
BRANCH  12  13
HETATM   13  C11 UNL     1       3.888  -0.443  47.491  1.00  0.00     0.036 C 
BRANCH  13  14
HETATM   14  C12 UNL     1       2.406  -0.104  47.189  1.00  0.00     0.097 C 
BRANCH  14  15
HETATM   15  N1  UNL     1       2.011   0.817  48.180  1.00  0.00    -0.314 N 
ATOM     16  H1  UNL     1       2.566   0.928  49.028  1.00  0.00     0.172 HD
BRANCH  15  17
HETATM   17  S3  UNL     1       0.619   1.730  47.951  1.00  0.00     0.226 S 
HETATM   18  O1  UNL     1       0.970   3.201  48.118  1.00  0.00    -0.206 OA
HETATM   19  O2  UNL     1       0.166   1.649  46.491  1.00  0.00    -0.206 OA
BRANCH  17  20
HETATM   20  C13 UNL     1      -0.776   1.357  48.910  1.00  0.00     0.163 C 
BRANCH  20  21
HETATM   21  C14 UNL     1      -1.972   0.853  48.173  1.00  0.00     0.016 C 
BRANCH  21  22
HETATM   22  C15 UNL     1      -2.390  -0.529  48.650  1.00  0.00    -0.004 C 
HETATM   23  C16 UNL     1      -1.979  -0.683  50.133  1.00  0.00     0.005 C 
ENDBRANCH  21  22
ENDBRANCH  20  21
ENDBRANCH  17  20
ENDBRANCH  15  17
ENDBRANCH  14  15
BRANCH  14  24
HETATM   24  C17 UNL     1       1.737  -1.454  47.199  1.00  0.00     0.009 C 
HETATM   25  C18 UNL     1       2.572  -2.552  46.595  1.00  0.00     0.007 C 
HETATM   26  C19 UNL     1       2.086  -3.924  47.079  1.00  0.00     0.000 C 
HETATM   27  C20 UNL     1       0.575  -3.970  47.101  1.00  0.00     0.000 C 
HETATM   28  C21 UNL     1       0.072  -2.974  48.088  1.00  0.00     0.000 C 
HETATM   29  C22 UNL     1       1.113  -1.904  48.450  1.00  0.00     0.007 C 
ENDBRANCH  14  24
ENDBRANCH  13  14
ENDBRANCH  12  13
ENDBRANCH  11  12
ENDBRANCH   9  11
ENDBRANCH   8   9
ENDBRANCH   3   4
TORSDOF 12
ENDMDL
