MODEL 1
REMARK VINA RESULT: -6.695107218      0.000      0.000
REMARK  1 active torsions:
REMARK  status: ('A' for Active; 'I' for Inactive)
REMARK    1  A    between atoms: O1_1  and  C1_3 
ROOT
HETATM    1  C1  UNL     1     -11.087  -2.682  -2.457  1.00  0.00     0.247 A 
HETATM    2  N1  UNL     1     -10.482  -3.168  -3.662  1.00  0.00    -0.337 N 
ATOM      3  H1  UNL     1     -11.015  -3.081  -4.528  1.00  0.00     0.164 HD
HETATM    4  C2  UNL     1      -9.198  -3.760  -3.737  1.00  0.00     0.058 A 
HETATM    5  C3  UNL     1      -8.527  -3.888  -4.958  1.00  0.00     0.031 A 
HETATM    6  C4  UNL     1      -7.278  -4.476  -4.950  1.00  0.00     0.002 A 
HETATM    7  C5  UNL     1      -6.726  -4.919  -3.763  1.00  0.00     0.002 A 
HETATM    8  C6  UNL     1      -7.363  -4.804  -2.566  1.00  0.00     0.031 A 
HETATM    9  C7  UNL     1      -8.628  -4.208  -2.568  1.00  0.00     0.055 A 
HETATM   10  N2  UNL     1      -9.362  -4.048  -1.369  1.00  0.00    -0.372 N 
ATOM     11  H2  UNL     1      -9.033  -4.559  -0.549  1.00  0.00     0.160 HD
HETATM   12  C8  UNL     1     -10.522  -3.232  -1.208  1.00  0.00     0.211 A 
HETATM   13  C9  UNL     1     -10.168  -1.821  -0.901  1.00  0.00     0.047 A 
HETATM   14  C10 UNL     1      -9.649  -0.774  -0.177  1.00  0.00     0.043 A 
HETATM   15  C11 UNL     1      -9.883   0.350  -0.937  1.00  0.00     0.020 A 
HETATM   16  C12 UNL     1      -9.589   1.702  -0.732  1.00  0.00     0.055 A 
HETATM   17  N3  UNL     1      -8.961   2.021   0.404  1.00  0.00    -0.364 N 
ATOM     18  H3  UNL     1      -8.715   1.297   1.079  1.00  0.00     0.165 HD
HETATM   19  C13 UNL     1      -8.657   3.309   0.645  1.00  0.00     0.088 A 
HETATM   20  C14 UNL     1      -8.958   4.336  -0.220  1.00  0.00     0.018 A 
HETATM   21  C15 UNL     1      -9.606   4.016  -1.394  1.00  0.00     0.015 A 
HETATM   22  C16 UNL     1      -9.920   2.681  -1.642  1.00  0.00    -0.008 A 
HETATM   23  C17 UNL     1     -10.566   2.295  -2.794  1.00  0.00     0.016 A 
HETATM   24  C18 UNL     1     -10.867   0.968  -3.019  1.00  0.00     0.031 A 
HETATM   25  C19 UNL     1     -10.529  -0.027  -2.093  1.00  0.00     0.051 A 
HETATM   26  N4  UNL     1     -10.694  -1.348  -2.054  1.00  0.00    -0.295 N 
ENDROOT
BRANCH   1  27
HETATM   27  O1  UNL     1     -12.472  -2.797  -2.507  1.00  0.00    -0.352 OA
ATOM     28  H1  UNL     1     -12.736  -3.569  -2.993  1.00  0.00     0.214 HD
ENDBRANCH   1  27
TORSDOF 1
ENDMDL
MODEL 2
REMARK VINA RESULT: -4.645868558      1.503      6.710
REMARK  1 active torsions:
REMARK  status: ('A' for Active; 'I' for Inactive)
REMARK    1  A    between atoms: O1_1  and  C1_3 
ROOT
HETATM    1  C1  UNL     1     -11.224  -0.432  -0.260  1.00  0.00     0.247 A 
HETATM    2  N1  UNL     1     -10.377   0.443   0.496  1.00  0.00    -0.337 N 
ATOM      3  H1  UNL     1     -10.126   0.158   1.442  1.00  0.00     0.164 HD
HETATM    4  C2  UNL     1      -9.864   1.675   0.022  1.00  0.00     0.058 A 
HETATM    5  C3  UNL     1      -8.784   2.302   0.651  1.00  0.00     0.031 A 
HETATM    6  C4  UNL     1      -8.340   3.502   0.131  1.00  0.00     0.002 A 
HETATM    7  C5  UNL     1      -8.958   4.050  -0.977  1.00  0.00     0.002 A 
HETATM    8  C6  UNL     1     -10.011   3.456  -1.602  1.00  0.00     0.031 A 
HETATM    9  C7  UNL     1     -10.464   2.240  -1.080  1.00  0.00     0.055 A 
HETATM   10  N2  UNL     1     -11.553   1.554  -1.667  1.00  0.00    -0.372 N 
ATOM     11  H2  UNL     1     -12.118   2.067  -2.343  1.00  0.00     0.160 HD
HETATM   12  C8  UNL     1     -11.928   0.204  -1.393  1.00  0.00     0.211 A 
HETATM   13  C9  UNL     1     -11.173  -0.761  -2.234  1.00  0.00     0.047 A 
HETATM   14  C10 UNL     1     -10.761  -1.384  -3.388  1.00  0.00     0.043 A 
HETATM   15  C11 UNL     1      -9.859  -2.343  -2.986  1.00  0.00     0.020 A 
HETATM   16  C12 UNL     1      -9.108  -3.285  -3.698  1.00  0.00     0.055 A 
HETATM   17  N3  UNL     1      -9.256  -3.301  -5.026  1.00  0.00    -0.364 N 
ATOM     18  H3  UNL     1      -9.893  -2.648  -5.483  1.00  0.00     0.165 HD
HETATM   19  C13 UNL     1      -8.554  -4.189  -5.752  1.00  0.00     0.088 A 
HETATM   20  C14 UNL     1      -7.679  -5.099  -5.204  1.00  0.00     0.018 A 
HETATM   21  C15 UNL     1      -7.520  -5.089  -3.834  1.00  0.00     0.015 A 
HETATM   22  C16 UNL     1      -8.248  -4.167  -3.083  1.00  0.00    -0.008 A 
HETATM   23  C17 UNL     1      -8.134  -4.105  -1.713  1.00  0.00     0.016 A 
HETATM   24  C18 UNL     1      -8.864  -3.186  -0.990  1.00  0.00     0.031 A 
HETATM   25  C19 UNL     1      -9.739  -2.288  -1.616  1.00  0.00     0.051 A 
HETATM   26  N4  UNL     1     -10.544  -1.323  -1.176  1.00  0.00    -0.295 N 
ENDROOT
BRANCH   1  27
HETATM   27  O1  UNL     1     -12.088  -1.138   0.570  1.00  0.00    -0.352 OA
ATOM     28  H1  UNL     1     -12.950  -1.222   0.180  1.00  0.00     0.214 HD
ENDBRANCH   1  27
TORSDOF 1
ENDMDL
MODEL 3
REMARK VINA RESULT: -4.357503327      1.554      6.707
REMARK  1 active torsions:
REMARK  status: ('A' for Active; 'I' for Inactive)
REMARK    1  A    between atoms: O1_1  and  C1_3 
ROOT
HETATM    1  C1  UNL     1     -11.539   0.273  -1.507  1.00  0.00     0.247 A 
HETATM    2  N1  UNL     1     -11.142   0.891  -0.276  1.00  0.00    -0.337 N 
ATOM      3  H1  UNL     1     -11.563   0.545   0.586  1.00  0.00     0.164 HD
HETATM    4  C2  UNL     1     -10.205   1.948  -0.171  1.00  0.00     0.058 A 
HETATM    5  C3  UNL     1      -9.602   2.265   1.050  1.00  0.00     0.031 A 
HETATM    6  C4  UNL     1      -8.699   3.310   1.073  1.00  0.00     0.002 A 
HETATM    7  C5  UNL     1      -8.414   4.007  -0.085  1.00  0.00     0.002 A 
HETATM    8  C6  UNL     1      -8.991   3.715  -1.283  1.00  0.00     0.031 A 
HETATM    9  C7  UNL     1      -9.906   2.657  -1.311  1.00  0.00     0.055 A 
HETATM   10  N2  UNL     1     -10.553   2.284  -2.513  1.00  0.00    -0.372 N 
ATOM     11  H2  UNL     1     -10.488   2.931  -3.298  1.00  0.00     0.160 HD
HETATM   12  C8  UNL     1     -11.288   1.078  -2.720  1.00  0.00     0.211 A 
HETATM   13  C9  UNL     1     -10.404  -0.046  -3.124  1.00  0.00     0.047 A 
HETATM   14  C10 UNL     1      -9.532  -0.748  -3.922  1.00  0.00     0.043 A 
HETATM   15  C11 UNL     1      -9.265  -1.913  -3.238  1.00  0.00     0.020 A 
HETATM   16  C12 UNL     1      -8.456  -3.014  -3.536  1.00  0.00     0.055 A 
HETATM   17  N3  UNL     1      -7.791  -2.983  -4.696  1.00  0.00    -0.364 N 
ATOM     18  H3  UNL     1      -7.883  -2.183  -5.322  1.00  0.00     0.165 HD
HETATM   19  C13 UNL     1      -7.001  -4.020  -5.026  1.00  0.00     0.088 A 
HETATM   20  C14 UNL     1      -6.831  -5.131  -4.230  1.00  0.00     0.018 A 
HETATM   21  C15 UNL     1      -7.512  -5.171  -3.033  1.00  0.00     0.015 A 
HETATM   22  C16 UNL     1      -8.331  -4.095  -2.692  1.00  0.00    -0.008 A 
HETATM   23  C17 UNL     1      -9.037  -4.073  -1.511  1.00  0.00     0.016 A 
HETATM   24  C18 UNL     1      -9.842  -2.999  -1.195  1.00  0.00     0.031 A 
HETATM   25  C19 UNL     1      -9.967  -1.900  -2.055  1.00  0.00     0.051 A 
HETATM   26  N4  UNL     1     -10.654  -0.759  -2.002  1.00  0.00    -0.295 N 
ENDROOT
BRANCH   1  27
HETATM   27  O1  UNL     1     -12.850  -0.186  -1.439  1.00  0.00    -0.352 OA
ATOM     28  H1  UNL     1     -13.461   0.465  -1.764  1.00  0.00     0.214 HD
ENDBRANCH   1  27
TORSDOF 1
ENDMDL
