MODEL 1
REMARK VINA RESULT: -8.968780154      0.000      0.000
REMARK  0 active torsions:
REMARK  status: ('A' for Active; 'I' for Inactive)
ROOT
HETATM    1  C1  UNL     1      -6.263  -4.447  -2.911  1.00  0.00     0.072 C 
HETATM    2  C2  UNL     1      -7.470  -3.724  -3.396  1.00  0.00     0.048 A 
HETATM    3  N1  UNL     1      -7.884  -2.611  -2.955  1.00  0.00    -0.343 N 
ATOM      4  H1  UNL     1      -7.418  -2.093  -2.209  1.00  0.00     0.164 HD
HETATM    5  C3  UNL     1      -9.087  -2.147  -3.619  1.00  0.00     0.219 A 
HETATM    6  N2  UNL     1      -9.342  -3.189  -4.591  1.00  0.00    -0.327 N 
ATOM      7  H2  UNL     1     -10.112  -3.203  -5.261  1.00  0.00     0.165 HD
HETATM    8  C4  UNL     1      -8.345  -4.187  -4.458  1.00  0.00     0.120 A 
HETATM    9  N3  UNL     1      -8.196  -5.290  -5.112  1.00  0.00    -0.384 N 
ATOM     10  H31 UNL     1      -8.811  -5.615  -5.858  1.00  0.00     0.157 HD
ATOM     11  H32 UNL     1      -7.478  -6.009  -5.015  1.00  0.00     0.157 HD
HETATM   12  C5  UNL     1      -8.896  -0.876  -4.317  1.00  0.00     0.039 A 
HETATM   13  C6  UNL     1      -8.577  -1.083  -5.639  1.00  0.00     0.016 A 
HETATM   14  C7  UNL     1      -8.351  -0.011  -6.485  1.00  0.00     0.001 A 
HETATM   15  C8  UNL     1      -8.434   1.287  -6.042  1.00  0.00     0.002 A 
HETATM   16  C9  UNL     1      -8.751   1.524  -4.727  1.00  0.00     0.030 A 
HETATM   17  C10 UNL     1      -8.975   0.453  -3.890  1.00  0.00     0.045 A 
HETATM   18  N4  UNL     1      -9.288   0.913  -2.592  1.00  0.00    -0.353 N 
ATOM     19  H4  UNL     1      -8.985   1.855  -2.347  1.00  0.00     0.166 HD
HETATM   20  C11 UNL     1      -9.994   0.172  -1.593  1.00  0.00     0.065 A 
HETATM   21  C12 UNL     1     -10.290   0.984  -0.513  1.00  0.00    -0.033 A 
HETATM   22  C13 UNL     1      -9.895   2.406  -0.475  1.00  0.00     0.050 C 
HETATM   23  C14 UNL     1     -10.974   0.440   0.554  1.00  0.00     0.015 A 
HETATM   24  C15 UNL     1     -11.366  -0.877   0.574  1.00  0.00    -0.059 A 
HETATM   25  C16 UNL     1     -12.112  -1.460   1.743  1.00  0.00     0.048 C 
HETATM   26  C17 UNL     1     -11.048  -1.646  -0.526  1.00  0.00     0.038 A 
HETATM   27  C18 UNL     1     -10.365  -1.156  -1.623  1.00  0.00     0.061 A 
HETATM   28  N5  UNL     1     -10.153  -2.140  -2.636  1.00  0.00    -0.336 N 
HETATM   29  C19 UNL     1     -11.129  -3.223  -2.635  1.00  0.00     0.154 C 
ENDROOT
TORSDOF 0
ENDMDL
MODEL 2
REMARK VINA RESULT: -6.382465526      1.613      6.346
REMARK  0 active torsions:
REMARK  status: ('A' for Active; 'I' for Inactive)
ROOT
HETATM    1  C1  UNL     1      -7.996   2.803  -0.257  1.00  0.00     0.072 C 
HETATM    2  C2  UNL     1      -9.042   1.996  -0.941  1.00  0.00     0.048 A 
HETATM    3  N1  UNL     1      -8.915   0.790  -1.307  1.00  0.00    -0.343 N 
ATOM      4  H1  UNL     1      -8.064   0.246  -1.164  1.00  0.00     0.164 HD
HETATM    5  C3  UNL     1     -10.103   0.262  -1.951  1.00  0.00     0.219 A 
HETATM    6  N2  UNL     1     -11.023   1.379  -1.899  1.00  0.00    -0.327 N 
ATOM      7  H2  UNL     1     -11.980   1.377  -2.251  1.00  0.00     0.165 HD
HETATM    8  C4  UNL     1     -10.371   2.474  -1.279  1.00  0.00     0.120 A 
HETATM    9  N3  UNL     1     -10.813   3.663  -1.040  1.00  0.00    -0.384 N 
ATOM     10  H31 UNL     1     -11.747   3.998  -1.277  1.00  0.00     0.157 HD
ATOM     11  H32 UNL     1     -10.344   4.451  -0.594  1.00  0.00     0.157 HD
HETATM   12  C5  UNL     1     -10.682  -0.871  -1.230  1.00  0.00     0.039 A 
HETATM   13  C6  UNL     1     -11.670  -0.453  -0.368  1.00  0.00     0.016 A 
HETATM   14  C7  UNL     1     -12.352  -1.366   0.418  1.00  0.00     0.001 A 
HETATM   15  C8  UNL     1     -12.071  -2.710   0.369  1.00  0.00     0.002 A 
HETATM   16  C9  UNL     1     -11.090  -3.157  -0.482  1.00  0.00     0.030 A 
HETATM   17  C10 UNL     1     -10.416  -2.244  -1.261  1.00  0.00     0.045 A 
HETATM   18  N4  UNL     1      -9.459  -2.906  -2.061  1.00  0.00    -0.353 N 
ATOM     19  H4  UNL     1      -9.144  -3.824  -1.747  1.00  0.00     0.166 HD
HETATM   20  C11 UNL     1      -8.893  -2.401  -3.274  1.00  0.00     0.065 A 
HETATM   21  C12 UNL     1      -8.136  -3.379  -3.893  1.00  0.00    -0.033 A 
HETATM   22  C13 UNL     1      -7.982  -4.729  -3.316  1.00  0.00     0.050 C 
HETATM   23  C14 UNL     1      -7.510  -3.074  -5.084  1.00  0.00     0.015 A 
HETATM   24  C15 UNL     1      -7.617  -1.834  -5.668  1.00  0.00    -0.059 A 
HETATM   25  C16 UNL     1      -6.931  -1.513  -6.967  1.00  0.00     0.048 C 
HETATM   26  C17 UNL     1      -8.384  -0.893  -5.012  1.00  0.00     0.038 A 
HETATM   27  C18 UNL     1      -9.033  -1.142  -3.818  1.00  0.00     0.061 A 
HETATM   28  N5  UNL     1      -9.764  -0.015  -3.333  1.00  0.00    -0.336 N 
HETATM   29  C19 UNL     1     -10.183   0.921  -4.370  1.00  0.00     0.154 C 
ENDROOT
TORSDOF 0
ENDMDL
MODEL 3
REMARK VINA RESULT: -5.928412655      1.317      2.095
REMARK  0 active torsions:
REMARK  status: ('A' for Active; 'I' for Inactive)
ROOT
HETATM    1  C1  UNL     1      -6.688  -4.107  -2.959  1.00  0.00     0.072 C 
HETATM    2  C2  UNL     1      -7.945  -3.345  -3.192  1.00  0.00     0.048 A 
HETATM    3  N1  UNL     1      -8.532  -2.619  -2.335  1.00  0.00    -0.343 N 
ATOM      4  H1  UNL     1      -8.191  -2.486  -1.383  1.00  0.00     0.164 HD
HETATM    5  C3  UNL     1      -9.739  -1.998  -2.847  1.00  0.00     0.219 A 
HETATM    6  N2  UNL     1      -9.787  -2.463  -4.217  1.00  0.00    -0.327 N 
ATOM      7  H2  UNL     1     -10.501  -2.218  -4.903  1.00  0.00     0.165 HD
HETATM    8  C4  UNL     1      -8.677  -3.313  -4.446  1.00  0.00     0.120 A 
HETATM    9  N3  UNL     1      -8.339  -3.950  -5.517  1.00  0.00    -0.384 N 
ATOM     10  H31 UNL     1      -8.853  -3.928  -6.397  1.00  0.00     0.157 HD
ATOM     11  H32 UNL     1      -7.540  -4.562  -5.681  1.00  0.00     0.157 HD
HETATM   12  C5  UNL     1      -9.673  -0.537  -2.837  1.00  0.00     0.039 A 
HETATM   13  C6  UNL     1      -9.240  -0.056  -4.051  1.00  0.00     0.016 A 
HETATM   14  C7  UNL     1      -9.102   1.306  -4.261  1.00  0.00     0.001 A 
HETATM   15  C8  UNL     1      -9.388   2.219  -3.275  1.00  0.00     0.002 A 
HETATM   16  C9  UNL     1      -9.821   1.768  -2.052  1.00  0.00     0.030 A 
HETATM   17  C10 UNL     1      -9.957   0.412  -1.850  1.00  0.00     0.045 A 
HETATM   18  N4  UNL     1     -10.415   0.164  -0.538  1.00  0.00    -0.353 N 
ATOM     19  H4  UNL     1     -10.258   0.894   0.156  1.00  0.00     0.166 HD
HETATM   20  C11 UNL     1     -11.082  -1.024  -0.098  1.00  0.00     0.065 A 
HETATM   21  C12 UNL     1     -11.555  -0.858   1.191  1.00  0.00    -0.033 A 
HETATM   22  C13 UNL     1     -11.357   0.399   1.939  1.00  0.00     0.050 C 
HETATM   23  C14 UNL     1     -12.231  -1.903   1.785  1.00  0.00     0.015 A 
HETATM   24  C15 UNL     1     -12.445  -3.096   1.136  1.00  0.00    -0.059 A 
HETATM   25  C16 UNL     1     -13.183  -4.229   1.794  1.00  0.00     0.048 C 
HETATM   26  C17 UNL     1     -11.953  -3.212  -0.148  1.00  0.00     0.038 A 
HETATM   27  C18 UNL     1     -11.269  -2.200  -0.793  1.00  0.00     0.061 A 
HETATM   28  N5  UNL     1     -10.860  -2.554  -2.114  1.00  0.00    -0.336 N 
HETATM   29  C19 UNL     1     -11.681  -3.584  -2.742  1.00  0.00     0.154 C 
ENDROOT
TORSDOF 0
ENDMDL
MODEL 4
REMARK VINA RESULT: -5.113196231      1.958      5.509
REMARK  0 active torsions:
REMARK  status: ('A' for Active; 'I' for Inactive)
ROOT
HETATM    1  C1  UNL     1     -13.653  -0.983  -0.723  1.00  0.00     0.072 C 
HETATM    2  C2  UNL     1     -12.203  -0.651  -0.772  1.00  0.00     0.048 A 
HETATM    3  N1  UNL     1     -11.572  -0.276  -1.805  1.00  0.00    -0.343 N 
ATOM      4  H1  UNL     1     -12.008  -0.163  -2.720  1.00  0.00     0.164 HD
HETATM    5  C3  UNL     1     -10.166  -0.022  -1.552  1.00  0.00     0.219 A 
HETATM    6  N2  UNL     1     -10.038  -0.294  -0.136  1.00  0.00    -0.327 N 
ATOM      7  H2  UNL     1      -9.181  -0.209   0.411  1.00  0.00     0.165 HD
HETATM    8  C4  UNL     1     -11.301  -0.698   0.364  1.00  0.00     0.120 A 
HETATM    9  N3  UNL     1     -11.636  -1.043   1.562  1.00  0.00    -0.384 N 
ATOM     10  H31 UNL     1     -11.002  -1.076   2.360  1.00  0.00     0.157 HD
ATOM     11  H32 UNL     1     -12.545  -1.334   1.922  1.00  0.00     0.157 HD
HETATM   12  C5  UNL     1      -9.785   1.366  -1.811  1.00  0.00     0.039 A 
HETATM   13  C6  UNL     1      -9.844   2.116  -0.659  1.00  0.00     0.016 A 
HETATM   14  C7  UNL     1      -9.524   3.463  -0.678  1.00  0.00     0.001 A 
HETATM   15  C8  UNL     1      -9.140   4.096  -1.835  1.00  0.00     0.002 A 
HETATM   16  C9  UNL     1      -9.072   3.372  -3.001  1.00  0.00     0.030 A 
HETATM   17  C10 UNL     1      -9.391   2.033  -2.975  1.00  0.00     0.045 A 
HETATM   18  N4  UNL     1      -9.253   1.480  -4.267  1.00  0.00    -0.353 N 
ATOM     19  H4  UNL     1      -9.292   2.125  -5.056  1.00  0.00     0.166 HD
HETATM   20  C11 UNL     1      -9.062   0.093  -4.564  1.00  0.00     0.065 A 
HETATM   21  C12 UNL     1      -8.779  -0.074  -5.907  1.00  0.00    -0.033 A 
HETATM   22  C13 UNL     1      -8.705   1.069  -6.838  1.00  0.00     0.050 C 
HETATM   23  C14 UNL     1      -8.561  -1.351  -6.381  1.00  0.00     0.015 A 
HETATM   24  C15 UNL     1      -8.618  -2.453  -5.562  1.00  0.00    -0.059 A 
HETATM   25  C16 UNL     1      -8.379  -3.841  -6.091  1.00  0.00     0.048 C 
HETATM   26  C17 UNL     1      -8.903  -2.234  -4.230  1.00  0.00     0.038 A 
HETATM   27  C18 UNL     1      -9.130  -0.978  -3.700  1.00  0.00     0.061 A 
HETATM   28  N5  UNL     1      -9.405  -1.004  -2.298  1.00  0.00    -0.336 N 
HETATM   29  C19 UNL     1      -8.845  -2.154  -1.597  1.00  0.00     0.154 C 
ENDROOT
TORSDOF 0
ENDMDL
