MODEL 1
REMARK VINA RESULT: -8.294021815      0.000      0.000
REMARK  1 active torsions:
REMARK  status: ('A' for Active; 'I' for Inactive)
REMARK    1  A    between atoms: N2_11  and  C9_13 
ROOT
HETATM    1  C9  UNL     1      -9.016  -1.643  -3.280  1.00  0.00     0.078 A 
HETATM    2  C10 UNL     1      -8.983  -0.779  -4.355  1.00  0.00     0.020 A 
HETATM    3  C11 UNL     1      -9.558   0.477  -4.310  1.00  0.00     0.016 A 
HETATM    4  C12 UNL     1      -9.510   1.315  -5.393  1.00  0.00     0.001 A 
HETATM    5  C13 UNL     1      -8.886   0.954  -6.585  1.00  0.00     0.002 A 
HETATM    6  C14 UNL     1      -8.317  -0.298  -6.618  1.00  0.00     0.030 A 
HETATM    7  C15 UNL     1      -8.356  -1.152  -5.543  1.00  0.00     0.046 A 
HETATM    8  N3  UNL     1      -7.775  -2.353  -5.668  1.00  0.00    -0.340 N 
ATOM      9  H3  UNL     1      -7.321  -2.608  -6.545  1.00  0.00     0.167 HD
HETATM   10  C16 UNL     1      -7.787  -3.219  -4.646  1.00  0.00     0.136 A 
HETATM   11  N4  UNL     1      -7.280  -4.469  -4.523  1.00  0.00    -0.337 N 
ATOM     12  H4  UNL     1      -6.770  -4.997  -5.232  1.00  0.00     0.168 HD
HETATM   13  C17 UNL     1      -7.584  -4.868  -3.282  1.00  0.00     0.182 A 
HETATM   14  N5  UNL     1      -8.266  -3.917  -2.615  1.00  0.00    -0.347 N 
ATOM     15  H5  UNL     1      -8.610  -3.981  -1.657  1.00  0.00     0.167 HD
HETATM   16  C18 UNL     1      -8.409  -2.871  -3.440  1.00  0.00     0.105 A 
ENDROOT
BRANCH   1  17
HETATM   17  N2  UNL     1      -9.646  -1.269  -2.089  1.00  0.00    -0.319 N 
HETATM   18  C8  UNL     1     -10.431  -1.972  -1.383  1.00  0.00     0.225 A 
HETATM   19  N1  UNL     1     -10.829  -3.303  -1.673  1.00  0.00    -0.352 N 
HETATM   20  O1  UNL     1     -10.949  -1.401  -0.228  1.00  0.00    -0.279 OA
HETATM   21  C7  UNL     1     -11.715  -4.074  -0.863  1.00  0.00     0.164 A 
ATOM     22  H1  UNL     1     -10.458  -3.737  -2.517  1.00  0.00     0.163 HD
HETATM   23  C5  UNL     1     -12.187  -3.347   0.329  1.00  0.00    -0.006 A 
HETATM   24  C4  UNL     1     -11.807  -2.040   0.630  1.00  0.00     0.087 A 
HETATM   25  C6  UNL     1     -13.047  -3.951   1.212  1.00  0.00     0.011 A 
HETATM   26  C3  UNL     1     -12.256  -1.379   1.741  1.00  0.00     0.038 A 
HETATM   27  C2  UNL     1     -13.114  -1.992   2.617  1.00  0.00     0.003 A 
HETATM   28  C1  UNL     1     -13.505  -3.293   2.335  1.00  0.00     0.001 A 
ATOM     29  H2  UNL     1      -9.452  -0.327  -1.749  1.00  0.00     0.169 HD
ENDBRANCH   1  17
TORSDOF 1
ENDMDL
MODEL 2
REMARK VINA RESULT: -7.931197042      1.090      3.262
REMARK  1 active torsions:
REMARK  status: ('A' for Active; 'I' for Inactive)
REMARK    1  A    between atoms: N2_11  and  C9_13 
ROOT
HETATM    1  C9  UNL     1      -9.093  -1.188  -3.566  1.00  0.00     0.078 A 
HETATM    2  C10 UNL     1      -8.427  -2.385  -3.726  1.00  0.00     0.020 A 
HETATM    3  C11 UNL     1      -8.309  -3.307  -2.703  1.00  0.00     0.016 A 
HETATM    4  C12 UNL     1      -7.642  -4.489  -2.890  1.00  0.00     0.001 A 
HETATM    5  C13 UNL     1      -7.054  -4.826  -4.108  1.00  0.00     0.002 A 
HETATM    6  C14 UNL     1      -7.179  -3.902  -5.119  1.00  0.00     0.030 A 
HETATM    7  C15 UNL     1      -7.842  -2.711  -4.950  1.00  0.00     0.046 A 
HETATM    8  N3  UNL     1      -7.912  -1.873  -5.992  1.00  0.00    -0.340 N 
ATOM      9  H3  UNL     1      -7.479  -2.128  -6.880  1.00  0.00     0.167 HD
HETATM   10  C16 UNL     1      -8.550  -0.700  -5.874  1.00  0.00     0.136 A 
HETATM   11  N4  UNL     1      -8.756   0.302  -6.762  1.00  0.00    -0.337 N 
ATOM     12  H4  UNL     1      -8.442   0.337  -7.733  1.00  0.00     0.168 HD
HETATM   13  C17 UNL     1      -9.457   1.235  -6.106  1.00  0.00     0.182 A 
HETATM   14  N5  UNL     1      -9.701   0.861  -4.835  1.00  0.00    -0.347 N 
ATOM     15  H5  UNL     1     -10.213   1.398  -4.136  1.00  0.00     0.167 HD
HETATM   16  C18 UNL     1      -9.147  -0.346  -4.658  1.00  0.00     0.105 A 
ENDROOT
BRANCH   1  17
HETATM   17  N2  UNL     1      -9.678  -0.861  -2.339  1.00  0.00    -0.319 N 
HETATM   18  C8  UNL     1     -10.417  -1.601  -1.621  1.00  0.00     0.225 A 
HETATM   19  N1  UNL     1     -10.797  -2.932  -1.931  1.00  0.00    -0.352 N 
HETATM   20  O1  UNL     1     -10.896  -1.074  -0.429  1.00  0.00    -0.279 OA
HETATM   21  C7  UNL     1     -11.630  -3.746  -1.106  1.00  0.00     0.164 A 
ATOM     22  H1  UNL     1     -10.453  -3.334  -2.803  1.00  0.00     0.163 HD
HETATM   23  C5  UNL     1     -12.066  -3.063   0.125  1.00  0.00    -0.006 A 
HETATM   24  C4  UNL     1     -11.702  -1.757   0.446  1.00  0.00     0.087 A 
HETATM   25  C6  UNL     1     -12.873  -3.712   1.026  1.00  0.00     0.011 A 
HETATM   26  C3  UNL     1     -12.117  -1.137   1.594  1.00  0.00     0.038 A 
HETATM   27  C2  UNL     1     -12.923  -1.793   2.488  1.00  0.00     0.003 A 
HETATM   28  C1  UNL     1     -13.296  -3.095   2.186  1.00  0.00     0.001 A 
ATOM     29  H2  UNL     1      -9.491   0.076  -1.982  1.00  0.00     0.169 HD
ENDBRANCH   1  17
TORSDOF 1
ENDMDL
MODEL 3
REMARK VINA RESULT: -6.211312809      1.868      3.570
REMARK  1 active torsions:
REMARK  status: ('A' for Active; 'I' for Inactive)
REMARK    1  A    between atoms: N2_11  and  C9_13 
ROOT
HETATM    1  C9  UNL     1      -9.691  -0.703  -3.393  1.00  0.00     0.078 A 
HETATM    2  C10 UNL     1      -8.805  -0.947  -4.422  1.00  0.00     0.020 A 
HETATM    3  C11 UNL     1      -8.513  -2.226  -4.858  1.00  0.00     0.016 A 
HETATM    4  C12 UNL     1      -7.628  -2.439  -5.882  1.00  0.00     0.001 A 
HETATM    5  C13 UNL     1      -6.981  -1.391  -6.535  1.00  0.00     0.002 A 
HETATM    6  C14 UNL     1      -7.280  -0.124  -6.094  1.00  0.00     0.030 A 
HETATM    7  C15 UNL     1      -8.163   0.109  -5.068  1.00  0.00     0.046 A 
HETATM    8  N3  UNL     1      -8.391   1.379  -4.706  1.00  0.00    -0.340 N 
ATOM      9  H3  UNL     1      -7.912   2.139  -5.190  1.00  0.00     0.167 HD
HETATM   10  C16 UNL     1      -9.245   1.654  -3.711  1.00  0.00     0.136 A 
HETATM   11  N4  UNL     1      -9.639   2.831  -3.167  1.00  0.00    -0.337 N 
ATOM     12  H4  UNL     1      -9.334   3.766  -3.439  1.00  0.00     0.168 HD
HETATM   13  C17 UNL     1     -10.510   2.515  -2.200  1.00  0.00     0.182 A 
HETATM   14  N5  UNL     1     -10.681   1.182  -2.112  1.00  0.00    -0.347 N 
ATOM     15  H5  UNL     1     -11.291   0.694  -1.456  1.00  0.00     0.167 HD
HETATM   16  C18 UNL     1      -9.904   0.614  -3.044  1.00  0.00     0.105 A 
ENDROOT
BRANCH   1  17
HETATM   17  N2  UNL     1     -10.333  -1.763  -2.745  1.00  0.00    -0.319 N 
HETATM   18  C8  UNL     1     -10.848  -1.753  -1.587  1.00  0.00     0.225 A 
HETATM   19  N1  UNL     1     -10.874  -0.641  -0.706  1.00  0.00    -0.352 N 
HETATM   20  O1  UNL     1     -11.441  -2.924  -1.132  1.00  0.00    -0.279 OA
HETATM   21  C7  UNL     1     -11.460  -0.654   0.595  1.00  0.00     0.164 A 
ATOM     22  H1  UNL     1     -10.443   0.227  -1.025  1.00  0.00     0.163 HD
HETATM   23  C5  UNL     1     -12.052  -1.957   0.947  1.00  0.00    -0.006 A 
HETATM   24  C4  UNL     1     -12.037  -3.061   0.096  1.00  0.00     0.087 A 
HETATM   25  C6  UNL     1     -12.656  -2.134   2.166  1.00  0.00     0.011 A 
HETATM   26  C3  UNL     1     -12.590  -4.264   0.439  1.00  0.00     0.038 A 
HETATM   27  C2  UNL     1     -13.192  -4.431   1.660  1.00  0.00     0.003 A 
HETATM   28  C1  UNL     1     -13.217  -3.344   2.522  1.00  0.00     0.001 A 
ATOM     29  H2  UNL     1     -10.395  -2.641  -3.262  1.00  0.00     0.169 HD
ENDBRANCH   1  17
TORSDOF 1
ENDMDL
MODEL 4
REMARK VINA RESULT: -5.021505645      2.940      6.420
REMARK  1 active torsions:
REMARK  status: ('A' for Active; 'I' for Inactive)
REMARK    1  A    between atoms: N2_11  and  C9_13 
ROOT
HETATM    1  C9  UNL     1     -10.652  -0.011  -0.838  1.00  0.00     0.078 A 
HETATM    2  C10 UNL     1     -10.082   1.203  -0.517  1.00  0.00     0.020 A 
HETATM    3  C11 UNL     1      -9.422   1.980  -1.451  1.00  0.00     0.016 A 
HETATM    4  C12 UNL     1      -8.865   3.182  -1.103  1.00  0.00     0.001 A 
HETATM    5  C13 UNL     1      -8.930   3.684   0.195  1.00  0.00     0.002 A 
HETATM    6  C14 UNL     1      -9.589   2.903   1.116  1.00  0.00     0.030 A 
HETATM    7  C15 UNL     1     -10.153   1.695   0.786  1.00  0.00     0.046 A 
HETATM    8  N3  UNL     1     -10.775   1.003   1.751  1.00  0.00    -0.340 N 
ATOM      9  H3  UNL     1     -10.817   1.379   2.698  1.00  0.00     0.167 HD
HETATM   10  C16 UNL     1     -11.340  -0.180   1.476  1.00  0.00     0.136 A 
HETATM   11  N4  UNL     1     -12.014  -1.055   2.260  1.00  0.00    -0.337 N 
ATOM     12  H4  UNL     1     -12.219  -0.958   3.255  1.00  0.00     0.168 HD
HETATM   13  C17 UNL     1     -12.356  -2.075   1.462  1.00  0.00     0.182 A 
HETATM   14  N5  UNL     1     -11.924  -1.876   0.202  1.00  0.00    -0.347 N 
ATOM     15  H5  UNL     1     -12.058  -2.506  -0.589  1.00  0.00     0.167 HD
HETATM   16  C18 UNL     1     -11.284  -0.699   0.177  1.00  0.00     0.105 A 
ENDROOT
BRANCH   1  17
HETATM   17  N2  UNL     1     -10.579  -0.505  -2.145  1.00  0.00    -0.319 N 
HETATM   18  C8  UNL     1      -9.890  -1.487  -2.555  1.00  0.00     0.225 A 
HETATM   19  N1  UNL     1      -9.043  -2.292  -1.750  1.00  0.00    -0.352 N 
HETATM   20  O1  UNL     1      -9.964  -1.810  -3.904  1.00  0.00    -0.279 OA
HETATM   21  C7  UNL     1      -8.277  -3.394  -2.236  1.00  0.00     0.164 A 
ATOM     22  H1  UNL     1      -8.978  -2.069  -0.758  1.00  0.00     0.163 HD
HETATM   23  C5  UNL     1      -8.451  -3.624  -3.681  1.00  0.00    -0.006 A 
HETATM   24  C4  UNL     1      -9.277  -2.844  -4.488  1.00  0.00     0.087 A 
HETATM   25  C6  UNL     1      -7.781  -4.648  -4.303  1.00  0.00     0.011 A 
HETATM   26  C3  UNL     1      -9.426  -3.072  -5.829  1.00  0.00     0.038 A 
HETATM   27  C2  UNL     1      -8.753  -4.098  -6.441  1.00  0.00     0.003 A 
HETATM   28  C1  UNL     1      -7.925  -4.886  -5.655  1.00  0.00     0.001 A 
ATOM     29  H2  UNL     1     -11.142  -0.022  -2.845  1.00  0.00     0.169 HD
ENDBRANCH   1  17
TORSDOF 1
ENDMDL
MODEL 5
REMARK VINA RESULT: -4.957334599      1.545      2.618
REMARK  1 active torsions:
REMARK  status: ('A' for Active; 'I' for Inactive)
REMARK    1  A    between atoms: N2_11  and  C9_13 
ROOT
HETATM    1  C9  UNL     1      -9.394  -1.213  -3.732  1.00  0.00     0.078 A 
HETATM    2  C10 UNL     1      -9.587   0.131  -3.488  1.00  0.00     0.020 A 
HETATM    3  C11 UNL     1     -10.502   0.589  -2.560  1.00  0.00     0.016 A 
HETATM    4  C12 UNL     1     -10.673   1.931  -2.337  1.00  0.00     0.001 A 
HETATM    5  C13 UNL     1      -9.942   2.897  -3.026  1.00  0.00     0.002 A 
HETATM    6  C14 UNL     1      -9.034   2.430  -3.947  1.00  0.00     0.030 A 
HETATM    7  C15 UNL     1      -8.850   1.089  -4.185  1.00  0.00     0.046 A 
HETATM    8  N3  UNL     1      -7.943   0.728  -5.102  1.00  0.00    -0.340 N 
ATOM      9  H3  UNL     1      -7.413   1.442  -5.601  1.00  0.00     0.167 HD
HETATM   10  C16 UNL     1      -7.728  -0.569  -5.365  1.00  0.00     0.136 A 
HETATM   11  N4  UNL     1      -6.884  -1.180  -6.230  1.00  0.00    -0.337 N 
ATOM     12  H4  UNL     1      -6.225  -0.731  -6.867  1.00  0.00     0.168 HD
HETATM   13  C17 UNL     1      -7.089  -2.494  -6.077  1.00  0.00     0.182 A 
HETATM   14  N5  UNL     1      -8.033  -2.737  -5.148  1.00  0.00    -0.347 N 
ATOM     15  H5  UNL     1      -8.368  -3.654  -4.852  1.00  0.00     0.167 HD
HETATM   16  C18 UNL     1      -8.454  -1.552  -4.682  1.00  0.00     0.105 A 
ENDROOT
BRANCH   1  17
HETATM   17  N2  UNL     1     -10.135  -2.173  -3.035  1.00  0.00    -0.319 N 
HETATM   18  C8  UNL     1     -10.618  -2.068  -1.867  1.00  0.00     0.225 A 
HETATM   19  N1  UNL     1     -10.500  -0.931  -1.026  1.00  0.00    -0.352 N 
HETATM   20  O1  UNL     1     -11.326  -3.150  -1.361  1.00  0.00    -0.279 OA
HETATM   21  C7  UNL     1     -11.054  -0.836   0.285  1.00  0.00     0.164 A 
ATOM     22  H1  UNL     1      -9.984  -0.127  -1.384  1.00  0.00     0.163 HD
HETATM   23  C5  UNL     1     -11.777  -2.053   0.695  1.00  0.00    -0.006 A 
HETATM   24  C4  UNL     1     -11.904  -3.179  -0.117  1.00  0.00     0.087 A 
HETATM   25  C6  UNL     1     -12.369  -2.122   1.931  1.00  0.00     0.011 A 
HETATM   26  C3  UNL     1     -12.578  -4.301   0.280  1.00  0.00     0.038 A 
HETATM   27  C2  UNL     1     -13.167  -4.361   1.517  1.00  0.00     0.003 A 
HETATM   28  C1  UNL     1     -13.052  -3.250   2.340  1.00  0.00     0.001 A 
ATOM     29  H2  UNL     1     -10.304  -3.055  -3.518  1.00  0.00     0.169 HD
ENDBRANCH   1  17
TORSDOF 1
ENDMDL
