MODEL 1
REMARK VINA RESULT: -10.191232692      0.000      0.000
REMARK  0 active torsions:
REMARK  status: ('A' for Active; 'I' for Inactive)
ROOT
HETATM    1  N1  UNL     1      -8.113   1.738  -5.564  1.00  0.00    -0.191 NA
HETATM    2  C1  UNL     1      -8.726   1.735  -4.560  1.00  0.00     0.105 C 
HETATM    3  C2  UNL     1      -9.479   1.709  -3.290  1.00  0.00     0.112 A 
HETATM    4  C3  UNL     1      -9.789   2.913  -2.714  1.00  0.00     0.112 A 
HETATM    5  N2  UNL     1      -9.508   4.230  -3.175  1.00  0.00    -0.093 NA
HETATM    6  S1  UNL     1     -10.599   2.484  -1.297  1.00  0.00    -0.053 SA
HETATM    7  C4  UNL     1     -10.535   0.776  -1.452  1.00  0.00     0.115 A 
HETATM    8  N3  UNL     1     -11.083   0.021  -0.444  1.00  0.00    -0.300 N 
ATOM      9  H3  UNL     1     -11.934   0.423  -0.050  1.00  0.00     0.171 HD
HETATM   10  C5  UNL     1     -10.720  -1.142   0.128  1.00  0.00     0.325 C 
HETATM   11  O1  UNL     1     -11.276  -1.356   1.215  1.00  0.00    -0.247 OA
HETATM   12  N4  UNL     1      -9.863  -2.096  -0.284  1.00  0.00    -0.306 N 
ATOM     13  H4  UNL     1      -9.423  -2.617   0.475  1.00  0.00     0.171 HD
HETATM   14  C6  UNL     1      -9.477  -2.492  -1.524  1.00  0.00     0.071 A 
HETATM   15  C7  UNL     1      -9.192  -3.835  -1.372  1.00  0.00     0.033 A 
HETATM   16  C8  UNL     1      -8.809  -4.585  -2.426  1.00  0.00     0.014 A 
HETATM   17  C9  UNL     1      -8.709  -3.979  -3.665  1.00  0.00    -0.023 A 
HETATM   18  C10 UNL     1      -8.331  -4.763  -4.760  1.00  0.00     0.012 A 
HETATM   19  C11 UNL     1      -8.241  -4.212  -5.998  1.00  0.00     0.001 A 
HETATM   20  C12 UNL     1      -8.528  -2.878  -6.137  1.00  0.00     0.001 A 
HETATM   21  C13 UNL     1      -8.903  -2.094  -5.057  1.00  0.00     0.015 A 
HETATM   22  C14 UNL     1      -8.995  -2.635  -3.815  1.00  0.00     0.010 A 
HETATM   23  C15 UNL     1      -9.386  -1.848  -2.743  1.00  0.00     0.114 A 
HETATM   24  O2  UNL     1      -9.578  -0.620  -3.190  1.00  0.00    -0.303 OA
HETATM   25  C16 UNL     1      -9.866   0.587  -2.640  1.00  0.00     0.133 A 
ENDROOT
TORSDOF 0
ENDMDL
MODEL 2
REMARK VINA RESULT: -10.002833248      1.748      4.420
REMARK  0 active torsions:
REMARK  status: ('A' for Active; 'I' for Inactive)
ROOT
HETATM    1  N1  UNL     1     -11.116  -3.703  -0.837  1.00  0.00    -0.191 NA
HETATM    2  C1  UNL     1     -10.898  -2.558  -0.676  1.00  0.00     0.105 C 
HETATM    3  C2  UNL     1     -10.633  -1.117  -0.499  1.00  0.00     0.112 A 
HETATM    4  C3  UNL     1     -11.056  -0.534   0.667  1.00  0.00     0.112 A 
HETATM    5  N2  UNL     1     -11.712  -1.125   1.782  1.00  0.00    -0.093 NA
HETATM    6  S1  UNL     1     -10.614   1.086   0.488  1.00  0.00    -0.053 SA
HETATM    7  C4  UNL     1      -9.897   1.005  -1.069  1.00  0.00     0.115 A 
HETATM    8  N3  UNL     1      -9.417   2.170  -1.613  1.00  0.00    -0.300 N 
ATOM      9  H3  UNL     1      -8.982   2.790  -0.931  1.00  0.00     0.171 HD
HETATM   10  C5  UNL     1      -9.408   2.656  -2.869  1.00  0.00     0.325 C 
HETATM   11  O1  UNL     1      -9.174   3.872  -2.928  1.00  0.00    -0.247 OA
HETATM   12  N4  UNL     1      -9.608   2.044  -4.052  1.00  0.00    -0.306 N 
ATOM     13  H4  UNL     1      -9.993   2.652  -4.775  1.00  0.00     0.171 HD
HETATM   14  C6  UNL     1      -9.391   0.768  -4.459  1.00  0.00     0.071 A 
HETATM   15  C7  UNL     1      -9.111   0.889  -5.805  1.00  0.00     0.033 A 
HETATM   16  C8  UNL     1      -8.798  -0.193  -6.548  1.00  0.00     0.014 A 
HETATM   17  C9  UNL     1      -8.762  -1.429  -5.930  1.00  0.00    -0.023 A 
HETATM   18  C10 UNL     1      -8.418  -2.546  -6.697  1.00  0.00     0.012 A 
HETATM   19  C11 UNL     1      -8.350  -3.777  -6.124  1.00  0.00     0.001 A 
HETATM   20  C12 UNL     1      -8.629  -3.885  -4.785  1.00  0.00     0.001 A 
HETATM   21  C13 UNL     1      -8.971  -2.782  -4.018  1.00  0.00     0.015 A 
HETATM   22  C14 UNL     1      -9.043  -1.549  -4.582  1.00  0.00     0.010 A 
HETATM   23  C15 UNL     1      -9.370  -0.449  -3.803  1.00  0.00     0.114 A 
HETATM   24  O2  UNL     1      -9.592  -0.874  -2.573  1.00  0.00    -0.303 OA
HETATM   25  C16 UNL     1     -10.025  -0.323  -1.411  1.00  0.00     0.133 A 
ENDROOT
TORSDOF 0
ENDMDL
MODEL 3
REMARK VINA RESULT: -9.936309992      2.478      4.878
REMARK  0 active torsions:
REMARK  status: ('A' for Active; 'I' for Inactive)
ROOT
HETATM    1  N1  UNL     1      -8.806  -3.944  -5.023  1.00  0.00    -0.191 NA
HETATM    2  C1  UNL     1      -8.794  -2.772  -5.120  1.00  0.00     0.105 C 
HETATM    3  C2  UNL     1      -8.773  -1.299  -5.213  1.00  0.00     0.112 A 
HETATM    4  C3  UNL     1      -8.129  -0.742  -6.287  1.00  0.00     0.112 A 
HETATM    5  N2  UNL     1      -7.475  -1.384  -7.375  1.00  0.00    -0.093 NA
HETATM    6  S1  UNL     1      -8.286   0.919  -6.032  1.00  0.00    -0.053 SA
HETATM    7  C4  UNL     1      -9.168   0.889  -4.560  1.00  0.00     0.115 A 
HETATM    8  N3  UNL     1      -9.484   2.092  -3.979  1.00  0.00    -0.300 N 
ATOM      9  H3  UNL     1      -9.724   2.820  -4.652  1.00  0.00     0.171 HD
HETATM   10  C5  UNL     1      -9.540   2.501  -2.697  1.00  0.00     0.325 C 
HETATM   11  O1  UNL     1      -9.554   3.734  -2.571  1.00  0.00    -0.247 OA
HETATM   12  N4  UNL     1      -9.582   1.798  -1.550  1.00  0.00    -0.306 N 
ATOM     13  H4  UNL     1      -9.172   2.281  -0.750  1.00  0.00     0.171 HD
HETATM   14  C6  UNL     1     -10.069   0.565  -1.261  1.00  0.00     0.071 A 
HETATM   15  C7  UNL     1     -10.465   0.662   0.058  1.00  0.00     0.033 A 
HETATM   16  C8  UNL     1     -11.047  -0.381   0.685  1.00  0.00     0.014 A 
HETATM   17  C9  UNL     1     -11.240  -1.553  -0.023  1.00  0.00    -0.023 A 
HETATM   18  C10 UNL     1     -11.862  -2.626   0.623  1.00  0.00     0.012 A 
HETATM   19  C11 UNL     1     -12.089  -3.788  -0.043  1.00  0.00     0.001 A 
HETATM   20  C12 UNL     1     -11.693  -3.873  -1.354  1.00  0.00     0.001 A 
HETATM   21  C13 UNL     1     -11.076  -2.813  -2.001  1.00  0.00     0.015 A 
HETATM   22  C14 UNL     1     -10.843  -1.648  -1.343  1.00  0.00     0.010 A 
HETATM   23  C15 UNL     1     -10.240  -0.588  -2.003  1.00  0.00     0.114 A 
HETATM   24  O2  UNL     1      -9.969  -0.979  -3.236  1.00  0.00    -0.303 OA
HETATM   25  C16 UNL     1      -9.320  -0.456  -4.307  1.00  0.00     0.133 A 
ENDROOT
TORSDOF 0
ENDMDL
MODEL 4
REMARK VINA RESULT: -8.736679458      2.453      5.194
REMARK  0 active torsions:
REMARK  status: ('A' for Active; 'I' for Inactive)
ROOT
HETATM    1  N1  UNL     1      -9.024   1.423  -6.257  1.00  0.00    -0.191 NA
HETATM    2  C1  UNL     1      -8.818   0.326  -5.886  1.00  0.00     0.105 C 
HETATM    3  C2  UNL     1      -8.581  -1.048  -5.402  1.00  0.00     0.112 A 
HETATM    4  C3  UNL     1      -8.276  -2.004  -6.336  1.00  0.00     0.112 A 
HETATM    5  N2  UNL     1      -8.123  -1.869  -7.744  1.00  0.00    -0.093 NA
HETATM    6  S1  UNL     1      -8.114  -3.417  -5.427  1.00  0.00    -0.053 SA
HETATM    7  C4  UNL     1      -8.438  -2.778  -3.867  1.00  0.00     0.115 A 
HETATM    8  N3  UNL     1      -8.434  -3.648  -2.806  1.00  0.00    -0.300 N 
ATOM      9  H3  UNL     1      -7.717  -4.372  -2.874  1.00  0.00     0.171 HD
HETATM   10  C5  UNL     1      -9.186  -3.737  -1.693  1.00  0.00     0.325 C 
HETATM   11  O1  UNL     1      -9.101  -4.835  -1.122  1.00  0.00    -0.247 OA
HETATM   12  N4  UNL     1     -10.004  -2.840  -1.110  1.00  0.00    -0.306 N 
ATOM     13  H4  UNL     1     -10.773  -3.258  -0.585  1.00  0.00     0.171 HD
HETATM   14  C6  UNL     1      -9.994  -1.484  -1.091  1.00  0.00     0.071 A 
HETATM   15  C7  UNL     1     -10.561  -1.161   0.126  1.00  0.00     0.033 A 
HETATM   16  C8  UNL     1     -10.679   0.125   0.516  1.00  0.00     0.014 A 
HETATM   17  C9  UNL     1     -10.220   1.116  -0.331  1.00  0.00    -0.023 A 
HETATM   18  C10 UNL     1     -10.325   2.447   0.084  1.00  0.00     0.012 A 
HETATM   19  C11 UNL     1      -9.867   3.451  -0.709  1.00  0.00     0.001 A 
HETATM   20  C12 UNL     1      -9.305   3.119  -1.915  1.00  0.00     0.001 A 
HETATM   21  C13 UNL     1      -9.196   1.801  -2.334  1.00  0.00     0.015 A 
HETATM   22  C14 UNL     1      -9.653   0.791  -1.549  1.00  0.00     0.010 A 
HETATM   23  C15 UNL     1      -9.526  -0.524  -1.968  1.00  0.00     0.114 A 
HETATM   24  O2  UNL     1      -8.963  -0.516  -3.163  1.00  0.00    -0.303 OA
HETATM   25  C16 UNL     1      -8.667  -1.442  -4.110  1.00  0.00     0.133 A 
ENDROOT
TORSDOF 0
ENDMDL
MODEL 5
REMARK VINA RESULT: -8.644925313      1.614      4.181
REMARK  0 active torsions:
REMARK  status: ('A' for Active; 'I' for Inactive)
ROOT
HETATM    1  N1  UNL     1     -10.397  -0.504   0.373  1.00  0.00    -0.191 NA
HETATM    2  C1  UNL     1     -10.149   0.210  -0.529  1.00  0.00     0.105 C 
HETATM    3  C2  UNL     1      -9.849   1.086  -1.678  1.00  0.00     0.112 A 
HETATM    4  C3  UNL     1     -10.174   2.413  -1.565  1.00  0.00     0.112 A 
HETATM    5  N2  UNL     1     -10.755   3.106  -0.467  1.00  0.00    -0.093 NA
HETATM    6  S1  UNL     1      -9.721   3.066  -3.054  1.00  0.00    -0.053 SA
HETATM    7  C4  UNL     1      -9.123   1.644  -3.807  1.00  0.00     0.115 A 
HETATM    8  N3  UNL     1      -8.667   1.748  -5.097  1.00  0.00    -0.300 N 
ATOM      9  H3  UNL     1      -8.172   2.619  -5.287  1.00  0.00     0.171 HD
HETATM   10  C5  UNL     1      -8.743   0.927  -6.163  1.00  0.00     0.325 C 
HETATM   11  O1  UNL     1      -8.496   1.489  -7.240  1.00  0.00    -0.247 OA
HETATM   12  N4  UNL     1      -9.041  -0.384  -6.244  1.00  0.00    -0.306 N 
ATOM     13  H4  UNL     1      -9.469  -0.658  -7.128  1.00  0.00     0.171 HD
HETATM   14  C6  UNL     1      -8.875  -1.406  -5.368  1.00  0.00     0.071 A 
HETATM   15  C7  UNL     1      -8.694  -2.512  -6.174  1.00  0.00     0.033 A 
HETATM   16  C8  UNL     1      -8.455  -3.727  -5.639  1.00  0.00     0.014 A 
HETATM   17  C9  UNL     1      -8.393  -3.842  -4.263  1.00  0.00    -0.023 A 
HETATM   18  C10 UNL     1      -8.124  -5.098  -3.712  1.00  0.00     0.012 A 
HETATM   19  C11 UNL     1      -8.034  -5.251  -2.364  1.00  0.00     0.001 A 
HETATM   20  C12 UNL     1      -8.214  -4.145  -1.574  1.00  0.00     0.001 A 
HETATM   21  C13 UNL     1      -8.480  -2.895  -2.113  1.00  0.00     0.015 A 
HETATM   22  C14 UNL     1      -8.574  -2.734  -3.457  1.00  0.00     0.010 A 
HETATM   23  C15 UNL     1      -8.825  -1.478  -3.988  1.00  0.00     0.114 A 
HETATM   24  O2  UNL     1      -8.961  -0.632  -2.983  1.00  0.00    -0.303 OA
HETATM   25  C16 UNL     1      -9.298   0.675  -2.844  1.00  0.00     0.133 A 
ENDROOT
TORSDOF 0
ENDMDL
