MODEL 1
REMARK VINA RESULT: -10.519469173      0.000      0.000
REMARK  0 active torsions:
REMARK  status: ('A' for Active; 'I' for Inactive)
ROOT
HETATM    1  N1  UNL     1      -8.720  -4.601  -2.988  1.00  0.00    -0.393 N 
ATOM      2  H11 UNL     1      -8.476  -4.798  -3.959  1.00  0.00     0.156 HD
ATOM      3  H12 UNL     1      -8.800  -5.147  -2.131  1.00  0.00     0.156 HD
HETATM    4  C1  UNL     1      -8.987  -3.355  -2.832  1.00  0.00     0.074 C 
HETATM    5  S1  UNL     1      -9.414  -3.011  -1.134  1.00  0.00    -0.107 SA
HETATM    6  C2  UNL     1     -10.849  -1.896  -1.094  1.00  0.00     0.127 C 
HETATM    7  C3  UNL     1     -10.287  -0.510  -1.264  1.00  0.00     0.049 A 
HETATM    8  C4  UNL     1      -9.713   0.173  -2.283  1.00  0.00     0.074 A 
HETATM    9  N2  UNL     1      -9.317   1.442  -2.080  1.00  0.00    -0.331 N 
ATOM     10  H2  UNL     1      -8.883   1.959  -2.846  1.00  0.00     0.168 HD
HETATM   11  C5  UNL     1      -9.480   2.041  -0.892  1.00  0.00     0.179 A 
HETATM   12  S2  UNL     1      -8.992   3.596  -0.652  1.00  0.00    -0.040 SA
HETATM   13  N3  UNL     1     -10.049   1.365   0.120  1.00  0.00    -0.300 N 
ATOM     14  H3  UNL     1     -10.170   1.828   1.022  1.00  0.00     0.171 HD
HETATM   15  C6  UNL     1     -10.463   0.101  -0.023  1.00  0.00     0.257 A 
HETATM   16  O1  UNL     1     -11.000  -0.571   0.891  1.00  0.00    -0.267 OA
HETATM   17  C7  UNL     1      -9.367  -0.124  -3.693  1.00  0.00     0.072 A 
HETATM   18  N4  UNL     1      -9.466   1.124  -4.236  1.00  0.00    -0.363 N 
ATOM     19  H4  UNL     1      -9.722   1.906  -3.633  1.00  0.00     0.165 HD
HETATM   20  C8  UNL     1      -9.237   1.357  -5.538  1.00  0.00     0.089 A 
HETATM   21  C9  UNL     1      -8.895   0.308  -6.330  1.00  0.00     0.029 A 
HETATM   22  C10 UNL     1      -8.787  -0.984  -5.791  1.00  0.00    -0.021 A 
HETATM   23  C11 UNL     1      -8.431  -1.962  -6.699  1.00  0.00     0.012 A 
HETATM   24  C12 UNL     1      -8.296  -3.260  -6.276  1.00  0.00     0.002 A 
HETATM   25  C13 UNL     1      -8.517  -3.544  -4.970  1.00  0.00     0.015 A 
HETATM   26  C14 UNL     1      -8.872  -2.575  -4.057  1.00  0.00     0.010 A 
HETATM   27  C15 UNL     1      -9.023  -1.235  -4.445  1.00  0.00     0.016 A 
ENDROOT
TORSDOF 0
ENDMDL
MODEL 2
REMARK VINA RESULT: -9.295126549      1.754      4.126
REMARK  0 active torsions:
REMARK  status: ('A' for Active; 'I' for Inactive)
ROOT
HETATM    1  N1  UNL     1      -9.399   2.081  -4.299  1.00  0.00    -0.393 N 
ATOM      2  H11 UNL     1      -8.897   1.901  -5.169  1.00  0.00     0.156 HD
ATOM      3  H12 UNL     1      -9.791   2.903  -3.841  1.00  0.00     0.156 HD
HETATM    4  C1  UNL     1      -9.567   0.994  -3.639  1.00  0.00     0.074 C 
HETATM    5  S1  UNL     1     -10.446   1.310  -2.119  1.00  0.00    -0.107 SA
HETATM    6  C2  UNL     1      -9.665   0.372  -0.771  1.00  0.00     0.127 C 
HETATM    7  C3  UNL     1     -10.249  -1.013  -0.854  1.00  0.00     0.049 A 
HETATM    8  C4  UNL     1     -10.137  -2.050  -1.718  1.00  0.00     0.074 A 
HETATM    9  N2  UNL     1     -10.821  -3.182  -1.475  1.00  0.00    -0.331 N 
ATOM     10  H2  UNL     1     -10.739  -3.964  -2.124  1.00  0.00     0.168 HD
HETATM   11  C5  UNL     1     -11.608  -3.302  -0.397  1.00  0.00     0.179 A 
HETATM   12  S2  UNL     1     -12.443  -4.692  -0.106  1.00  0.00    -0.040 SA
HETATM   13  N3  UNL     1     -11.721  -2.274   0.462  1.00  0.00    -0.300 N 
ATOM     14  H3  UNL     1     -12.323  -2.373   1.280  1.00  0.00     0.171 HD
HETATM   15  C6  UNL     1     -11.064  -1.124   0.272  1.00  0.00     0.257 A 
HETATM   16  O1  UNL     1     -11.136  -0.137   1.043  1.00  0.00    -0.267 OA
HETATM   17  C7  UNL     1      -9.399  -2.302  -2.977  1.00  0.00     0.072 A 
HETATM   18  N4  UNL     1      -9.230  -3.653  -2.894  1.00  0.00    -0.363 N 
ATOM     19  H4  UNL     1      -9.603  -4.149  -2.085  1.00  0.00     0.165 HD
HETATM   20  C8  UNL     1      -8.588  -4.354  -3.843  1.00  0.00     0.089 A 
HETATM   21  C9  UNL     1      -8.097  -3.683  -4.918  1.00  0.00     0.029 A 
HETATM   22  C10 UNL     1      -8.260  -2.292  -5.023  1.00  0.00    -0.021 A 
HETATM   23  C11 UNL     1      -7.718  -1.730  -6.162  1.00  0.00     0.012 A 
HETATM   24  C12 UNL     1      -7.824  -0.377  -6.365  1.00  0.00     0.002 A 
HETATM   25  C13 UNL     1      -8.463   0.371  -5.433  1.00  0.00     0.015 A 
HETATM   26  C14 UNL     1      -9.007  -0.181  -4.294  1.00  0.00     0.010 A 
HETATM   27  C15 UNL     1      -8.922  -1.559  -4.046  1.00  0.00     0.016 A 
ENDROOT
TORSDOF 0
ENDMDL
MODEL 3
REMARK VINA RESULT: -8.696409306      1.841      3.764
REMARK  0 active torsions:
REMARK  status: ('A' for Active; 'I' for Inactive)
ROOT
HETATM    1  N1  UNL     1      -9.059   1.009  -6.158  1.00  0.00    -0.393 N 
ATOM      2  H11 UNL     1      -8.753   0.296  -6.822  1.00  0.00     0.156 HD
ATOM      3  H12 UNL     1      -9.261   2.007  -6.202  1.00  0.00     0.156 HD
HETATM    4  C1  UNL     1      -9.220   0.500  -4.991  1.00  0.00     0.074 C 
HETATM    5  S1  UNL     1      -9.754   1.746  -3.831  1.00  0.00    -0.107 SA
HETATM    6  C2  UNL     1      -8.842   1.539  -2.271  1.00  0.00     0.127 C 
HETATM    7  C3  UNL     1      -9.584   0.472  -1.510  1.00  0.00     0.049 A 
HETATM    8  C4  UNL     1      -9.755  -0.863  -1.655  1.00  0.00     0.074 A 
HETATM    9  N2  UNL     1     -10.504  -1.528  -0.758  1.00  0.00    -0.331 N 
ATOM     10  H2  UNL     1     -10.635  -2.534  -0.863  1.00  0.00     0.168 HD
HETATM   11  C5  UNL     1     -11.081  -0.895   0.274  1.00  0.00     0.179 A 
HETATM   12  S2  UNL     1     -11.997  -1.717   1.369  1.00  0.00    -0.040 SA
HETATM   13  N3  UNL     1     -10.913   0.430   0.418  1.00  0.00    -0.300 N 
ATOM     14  H3  UNL     1     -11.356   0.905   1.205  1.00  0.00     0.171 HD
HETATM   15  C6  UNL     1     -10.178   1.144  -0.443  1.00  0.00     0.257 A 
HETATM   16  O1  UNL     1      -9.992   2.381  -0.351  1.00  0.00    -0.267 OA
HETATM   17  C7  UNL     1      -9.302  -1.889  -2.622  1.00  0.00     0.072 A 
HETATM   18  N4  UNL     1      -9.273  -2.990  -1.816  1.00  0.00    -0.363 N 
ATOM     19  H4  UNL     1      -9.541  -2.890  -0.836  1.00  0.00     0.165 HD
HETATM   20  C8  UNL     1      -8.906  -4.199  -2.268  1.00  0.00     0.089 A 
HETATM   21  C9  UNL     1      -8.555  -4.319  -3.575  1.00  0.00     0.029 A 
HETATM   22  C10 UNL     1      -8.578  -3.199  -4.423  1.00  0.00    -0.021 A 
HETATM   23  C11 UNL     1      -8.200  -3.453  -5.727  1.00  0.00     0.012 A 
HETATM   24  C12 UNL     1      -8.190  -2.428  -6.639  1.00  0.00     0.002 A 
HETATM   25  C13 UNL     1      -8.553  -1.188  -6.228  1.00  0.00     0.015 A 
HETATM   26  C14 UNL     1      -8.930  -0.927  -4.929  1.00  0.00     0.010 A 
HETATM   27  C15 UNL     1      -8.955  -1.944  -3.963  1.00  0.00     0.016 A 
ENDROOT
TORSDOF 0
ENDMDL
MODEL 4
REMARK VINA RESULT: -7.527821844      2.209      3.215
REMARK  0 active torsions:
REMARK  status: ('A' for Active; 'I' for Inactive)
ROOT
HETATM    1  N1  UNL     1      -7.551  -2.891  -5.006  1.00  0.00    -0.393 N 
ATOM      2  H11 UNL     1      -7.156  -2.144  -5.579  1.00  0.00     0.156 HD
ATOM      3  H12 UNL     1      -7.449  -3.904  -4.957  1.00  0.00     0.156 HD
HETATM    4  C1  UNL     1      -8.374  -2.413  -4.144  1.00  0.00     0.074 C 
HETATM    5  S1  UNL     1      -9.063  -3.719  -3.143  1.00  0.00    -0.107 SA
HETATM    6  C2  UNL     1     -10.848  -3.435  -2.939  1.00  0.00     0.127 C 
HETATM    7  C3  UNL     1     -10.972  -2.457  -1.801  1.00  0.00     0.049 A 
HETATM    8  C4  UNL     1     -10.686  -1.145  -1.631  1.00  0.00     0.074 A 
HETATM    9  N2  UNL     1     -10.937  -0.569  -0.442  1.00  0.00    -0.331 N 
ATOM     10  H2  UNL     1     -10.723   0.420  -0.310  1.00  0.00     0.168 HD
HETATM   11  C5  UNL     1     -11.465  -1.268   0.573  1.00  0.00     0.179 A 
HETATM   12  S2  UNL     1     -11.771  -0.555   2.027  1.00  0.00    -0.040 SA
HETATM   13  N3  UNL     1     -11.750  -2.570   0.406  1.00  0.00    -0.300 N 
ATOM     14  H3  UNL     1     -12.151  -3.096   1.183  1.00  0.00     0.171 HD
HETATM   15  C6  UNL     1     -11.521  -3.197  -0.754  1.00  0.00     0.257 A 
HETATM   16  O1  UNL     1     -11.770  -4.410  -0.960  1.00  0.00    -0.267 OA
HETATM   17  C7  UNL     1     -10.116  -0.068  -2.474  1.00  0.00     0.072 A 
HETATM   18  N4  UNL     1     -10.728   1.021  -1.924  1.00  0.00    -0.363 N 
ATOM     19  H4  UNL     1     -11.368   0.885  -1.142  1.00  0.00     0.165 HD
HETATM   20  C8  UNL     1     -10.514   2.266  -2.379  1.00  0.00     0.089 A 
HETATM   21  C9  UNL     1      -9.657   2.434  -3.420  1.00  0.00     0.029 A 
HETATM   22  C10 UNL     1      -9.017   1.326  -4.000  1.00  0.00    -0.021 A 
HETATM   23  C11 UNL     1      -8.171   1.630  -5.048  1.00  0.00     0.012 A 
HETATM   24  C12 UNL     1      -7.493   0.621  -5.684  1.00  0.00     0.002 A 
HETATM   25  C13 UNL     1      -7.677  -0.653  -5.259  1.00  0.00     0.015 A 
HETATM   26  C14 UNL     1      -8.520  -0.965  -4.215  1.00  0.00     0.010 A 
HETATM   27  C15 UNL     1      -9.233   0.035  -3.536  1.00  0.00     0.016 A 
ENDROOT
TORSDOF 0
ENDMDL
MODEL 5
REMARK VINA RESULT: -6.942387270      2.769      6.232
REMARK  0 active torsions:
REMARK  status: ('A' for Active; 'I' for Inactive)
ROOT
HETATM    1  N1  UNL     1      -9.050   3.300  -3.879  1.00  0.00    -0.393 N 
ATOM      2  H11 UNL     1      -9.421   3.684  -3.010  1.00  0.00     0.156 HD
ATOM      3  H12 UNL     1      -8.688   3.686  -4.750  1.00  0.00     0.156 HD
HETATM    4  C1  UNL     1      -9.048   2.017  -3.843  1.00  0.00     0.074 C 
HETATM    5  S1  UNL     1      -8.398   1.347  -5.364  1.00  0.00    -0.107 SA
HETATM    6  C2  UNL     1      -9.430  -0.056  -5.886  1.00  0.00     0.127 C 
HETATM    7  C3  UNL     1      -8.920  -1.242  -5.112  1.00  0.00     0.049 A 
HETATM    8  C4  UNL     1      -8.956  -1.625  -3.813  1.00  0.00     0.074 A 
HETATM    9  N2  UNL     1      -8.383  -2.788  -3.458  1.00  0.00    -0.331 N 
ATOM     10  H2  UNL     1      -8.408  -3.080  -2.481  1.00  0.00     0.168 HD
HETATM   11  C5  UNL     1      -7.780  -3.573  -4.363  1.00  0.00     0.179 A 
HETATM   12  S2  UNL     1      -7.080  -4.998  -3.920  1.00  0.00    -0.040 SA
HETATM   13  N3  UNL     1      -7.743  -3.194  -5.652  1.00  0.00    -0.300 N 
ATOM     14  H3  UNL     1      -7.282  -3.796  -6.334  1.00  0.00     0.171 HD
HETATM   15  C6  UNL     1      -8.296  -2.048  -6.064  1.00  0.00     0.257 A 
HETATM   16  O1  UNL     1      -8.289  -1.650  -7.254  1.00  0.00    -0.267 OA
HETATM   17  C7  UNL     1      -9.504  -1.060  -2.559  1.00  0.00     0.072 A 
HETATM   18  N4  UNL     1      -9.760  -2.207  -1.866  1.00  0.00    -0.363 N 
ATOM     19  H4  UNL     1      -9.545  -3.105  -2.300  1.00  0.00     0.165 HD
HETATM   20  C8  UNL     1     -10.286  -2.195  -0.631  1.00  0.00     0.089 A 
HETATM   21  C9  UNL     1     -10.566  -0.993  -0.062  1.00  0.00     0.029 A 
HETATM   22  C10 UNL     1     -10.309   0.200  -0.757  1.00  0.00    -0.021 A 
HETATM   23  C11 UNL     1     -10.637   1.352  -0.070  1.00  0.00     0.012 A 
HETATM   24  C12 UNL     1     -10.424   2.573  -0.658  1.00  0.00     0.002 A 
HETATM   25  C13 UNL     1      -9.895   2.611  -1.905  1.00  0.00     0.015 A 
HETATM   26  C14 UNL     1      -9.566   1.466  -2.598  1.00  0.00     0.010 A 
HETATM   27  C15 UNL     1      -9.766   0.196  -2.036  1.00  0.00     0.016 A 
ENDROOT
TORSDOF 0
ENDMDL
