MODEL 1
REMARK VINA RESULT: -5.688539344      0.000      0.000
REMARK  9 active torsions:
REMARK  status: ('A' for Active; 'I' for Inactive)
REMARK    1  A    between atoms: O1_2  and  C2_3 
REMARK    2  A    between atoms: C2_3  and  C3_5 
REMARK    3  A    between atoms: C3_5  and  C4_6 
REMARK       I    between atoms: N1_7  and  C5_9 
REMARK    4  A    between atoms: C5_9  and  C6_11 
REMARK    5  A    between atoms: C9_14  and  C10_15 
REMARK    6  A    between atoms: C10_15  and  S1_16 
REMARK    7  A    between atoms: S1_16  and  N2_18 
REMARK    8  A    between atoms: N2_18  and  C11_20 
REMARK    9  A    between atoms: C11_20  and  C12_21 
ROOT
HETATM    1  C6  UNL     1     -34.294  -8.533  11.251  1.00  0.00     0.277 C 
HETATM    2  C7  UNL     1     -34.400  -7.056  11.551  1.00  0.00     0.043 C 
HETATM    3  C8  UNL     1     -33.143  -6.378  11.052  1.00  0.00     0.010 C 
HETATM    4  C9  UNL     1     -31.916  -7.130  11.479  1.00  0.00     0.025 C 
HETATM    5  C16 UNL     1     -32.306  -8.103  12.547  1.00  0.00     0.238 C 
HETATM    6  N3  UNL     1     -33.251  -9.072  12.089  1.00  0.00    -0.062 N 
ATOM      7  H31 UNL     1     -32.775  -9.839  11.615  1.00  0.00     0.278 HD
ATOM      8  H32 UNL     1     -33.654  -9.577  12.878  1.00  0.00     0.278 HD
ENDROOT
BRANCH   4   9
HETATM    9  C10 UNL     1     -30.859  -6.180  11.997  1.00  0.00     0.138 C 
BRANCH   9  10
HETATM   10  S1  UNL     1     -30.328  -5.129  10.666  1.00  0.00     0.110 S 
HETATM   11  O4  UNL     1     -30.463  -3.508  11.079  1.00  0.00    -0.236 OA
BRANCH  10  12
HETATM   12  N2  UNL     1     -28.665  -5.443  10.318  1.00  0.00    -0.338 N 
ATOM     13  H2  UNL     1     -28.139  -5.087   9.520  1.00  0.00     0.169 HD
BRANCH  12  14
HETATM   14  C11 UNL     1     -28.153  -6.304  11.366  1.00  0.00     0.161 C 
BRANCH  14  15
HETATM   15  C12 UNL     1     -27.445  -7.483  10.702  1.00  0.00     0.139 C 
HETATM   16  C13 UNL     1     -27.311  -8.554  11.766  1.00  0.00     0.035 C 
HETATM   17  C14 UNL     1     -28.708  -9.161  11.709  1.00  0.00     0.029 C 
HETATM   18  C15 UNL     1     -29.043  -8.990  10.252  1.00  0.00     0.168 C 
HETATM   19  O5  UNL     1     -28.224  -8.036   9.722  1.00  0.00    -0.384 OA
ENDBRANCH  14  15
ENDBRANCH  12  14
ENDBRANCH  10  12
ENDBRANCH   9  10
ENDBRANCH   4   9
BRANCH   1  20
HETATM   20  C5  UNL     1     -35.547  -9.256  11.497  1.00  0.00     0.252 C 
HETATM   21  N1  UNL     1     -36.593  -8.747  12.329  1.00  0.00    -0.339 N 
HETATM   22  C4  UNL     1     -37.813  -8.992  11.983  1.00  0.00     0.073 C 
ATOM     23  H1  UNL     1     -36.382  -8.209  13.168  1.00  0.00     0.167 HD
HETATM   24  O3  UNL     1     -35.704 -10.378  10.947  1.00  0.00    -0.271 OA
BRANCH  22  25
HETATM   25  C3  UNL     1     -38.983  -8.523  12.756  1.00  0.00     0.155 C 
BRANCH  25  26
HETATM   26  C2  UNL     1     -38.989  -9.184  14.069  1.00  0.00     0.263 C 
HETATM   27  O2  UNL     1     -39.890  -9.994  14.435  1.00  0.00    -0.265 OA
BRANCH  26  28
HETATM   28  O1  UNL     1     -37.979  -8.945  14.996  1.00  0.00    -0.326 OA
HETATM   29  C1  UNL     1     -37.848  -7.689  15.621  1.00  0.00     0.213 C 
ENDBRANCH  26  28
ENDBRANCH  25  26
ENDBRANCH  22  25
ENDBRANCH   1  20
TORSDOF 9
ENDMDL
MODEL 2
REMARK VINA RESULT: -5.260026910      1.417      1.739
REMARK  9 active torsions:
REMARK  status: ('A' for Active; 'I' for Inactive)
REMARK    1  A    between atoms: O1_2  and  C2_3 
REMARK    2  A    between atoms: C2_3  and  C3_5 
REMARK    3  A    between atoms: C3_5  and  C4_6 
REMARK       I    between atoms: N1_7  and  C5_9 
REMARK    4  A    between atoms: C5_9  and  C6_11 
REMARK    5  A    between atoms: C9_14  and  C10_15 
REMARK    6  A    between atoms: C10_15  and  S1_16 
REMARK    7  A    between atoms: S1_16  and  N2_18 
REMARK    8  A    between atoms: N2_18  and  C11_20 
REMARK    9  A    between atoms: C11_20  and  C12_21 
ROOT
HETATM    1  C6  UNL     1     -33.973  -6.885  11.435  1.00  0.00     0.277 C 
HETATM    2  C7  UNL     1     -33.525  -5.446  11.349  1.00  0.00     0.043 C 
HETATM    3  C8  UNL     1     -32.058  -5.426  10.982  1.00  0.00     0.010 C 
HETATM    4  C9  UNL     1     -31.275  -6.392  11.823  1.00  0.00     0.025 C 
HETATM    5  C16 UNL     1     -32.127  -6.805  12.983  1.00  0.00     0.238 C 
HETATM    6  N3  UNL     1     -33.321  -7.476  12.577  1.00  0.00    -0.062 N 
ATOM      7  H31 UNL     1     -33.135  -8.465  12.409  1.00  0.00     0.278 HD
ATOM      8  H32 UNL     1     -33.971  -7.551  13.359  1.00  0.00     0.278 HD
ENDROOT
BRANCH   4   9
HETATM    9  C10 UNL     1     -29.993  -5.758  12.314  1.00  0.00     0.138 C 
BRANCH   9  10
HETATM   10  S1  UNL     1     -29.295  -4.783  11.003  1.00  0.00     0.110 S 
HETATM   11  O4  UNL     1     -29.186  -3.165  11.438  1.00  0.00    -0.236 OA
BRANCH  10  12
HETATM   12  N2  UNL     1     -27.695  -5.341  10.664  1.00  0.00    -0.338 N 
ATOM     13  H2  UNL     1     -27.063  -4.965   9.958  1.00  0.00     0.169 HD
BRANCH  12  14
HETATM   14  C11 UNL     1     -27.415  -6.441  11.566  1.00  0.00     0.161 C 
BRANCH  14  15
HETATM   15  C12 UNL     1     -27.036  -7.657  10.722  1.00  0.00     0.139 C 
HETATM   16  C13 UNL     1     -27.090  -8.853  11.650  1.00  0.00     0.035 C 
HETATM   17  C14 UNL     1     -28.590  -9.126  11.647  1.00  0.00     0.029 C 
HETATM   18  C15 UNL     1     -28.961  -8.706  10.250  1.00  0.00     0.168 C 
HETATM   19  O5  UNL     1     -27.978  -7.898   9.758  1.00  0.00    -0.384 OA
ENDBRANCH  14  15
ENDBRANCH  12  14
ENDBRANCH  10  12
ENDBRANCH   9  10
ENDBRANCH   4   9
BRANCH   1  20
HETATM   20  C5  UNL     1     -35.429  -7.022  11.573  1.00  0.00     0.252 C 
HETATM   21  N1  UNL     1     -36.047  -7.785  12.612  1.00  0.00    -0.339 N 
HETATM   22  C4  UNL     1     -37.155  -7.345  13.107  1.00  0.00     0.073 C 
ATOM     23  H1  UNL     1     -35.626  -8.649  12.952  1.00  0.00     0.167 HD
HETATM   24  O3  UNL     1     -36.163  -6.438  10.733  1.00  0.00    -0.271 OA
BRANCH  22  25
HETATM   25  C3  UNL     1     -37.893  -8.039  14.184  1.00  0.00     0.155 C 
BRANCH  25  26
HETATM   26  C2  UNL     1     -38.658  -9.151  13.603  1.00  0.00     0.263 C 
HETATM   27  O2  UNL     1     -38.567  -9.500  12.389  1.00  0.00    -0.265 OA
BRANCH  26  28
HETATM   28  O1  UNL     1     -39.543  -9.895  14.379  1.00  0.00    -0.326 OA
HETATM   29  C1  UNL     1     -40.929  -9.639  14.349  1.00  0.00     0.213 C 
ENDBRANCH  26  28
ENDBRANCH  25  26
ENDBRANCH  22  25
ENDBRANCH   1  20
TORSDOF 9
ENDMDL
MODEL 3
REMARK VINA RESULT: -5.137735213      9.170     12.692
REMARK  9 active torsions:
REMARK  status: ('A' for Active; 'I' for Inactive)
REMARK    1  A    between atoms: O1_2  and  C2_3 
REMARK    2  A    between atoms: C2_3  and  C3_5 
REMARK    3  A    between atoms: C3_5  and  C4_6 
REMARK       I    between atoms: N1_7  and  C5_9 
REMARK    4  A    between atoms: C5_9  and  C6_11 
REMARK    5  A    between atoms: C9_14  and  C10_15 
REMARK    6  A    between atoms: C10_15  and  S1_16 
REMARK    7  A    between atoms: S1_16  and  N2_18 
REMARK    8  A    between atoms: N2_18  and  C11_20 
REMARK    9  A    between atoms: C11_20  and  C12_21 
ROOT
HETATM    1  C6  UNL     1     -31.032   0.055   6.038  1.00  0.00     0.277 C 
HETATM    2  C7  UNL     1     -32.015   1.121   6.461  1.00  0.00     0.043 C 
HETATM    3  C8  UNL     1     -32.696   0.661   7.731  1.00  0.00     0.010 C 
HETATM    4  C9  UNL     1     -33.158  -0.762   7.614  1.00  0.00     0.025 C 
HETATM    5  C16 UNL     1     -33.112  -1.156   6.170  1.00  0.00     0.238 C 
HETATM    6  N3  UNL     1     -31.792  -1.099   5.627  1.00  0.00    -0.062 N 
ATOM      7  H31 UNL     1     -31.281  -1.956   5.839  1.00  0.00     0.278 HD
ATOM      8  H32 UNL     1     -31.823  -1.161   4.609  1.00  0.00     0.278 HD
ENDROOT
BRANCH   4   9
HETATM    9  C10 UNL     1     -34.562  -0.916   8.154  1.00  0.00     0.138 C 
BRANCH   9  10
HETATM   10  S1  UNL     1     -35.355  -2.269   7.319  1.00  0.00     0.110 S 
HETATM   11  O4  UNL     1     -35.938  -3.402   8.412  1.00  0.00    -0.236 OA
BRANCH  10  12
HETATM   12  N2  UNL     1     -36.700  -1.675   6.414  1.00  0.00    -0.338 N 
ATOM     13  H2  UNL     1     -37.586  -1.346   6.798  1.00  0.00     0.169 HD
BRANCH  12  14
HETATM   14  C11 UNL     1     -36.342  -1.727   5.010  1.00  0.00     0.161 C 
BRANCH  14  15
HETATM   15  C12 UNL     1     -36.047  -3.183   4.654  1.00  0.00     0.139 C 
HETATM   16  C13 UNL     1     -37.117  -3.606   3.668  1.00  0.00     0.035 C 
HETATM   17  C14 UNL     1     -36.546  -3.014   2.385  1.00  0.00     0.029 C 
HETATM   18  C15 UNL     1     -35.067  -3.139   2.637  1.00  0.00     0.168 C 
HETATM   19  O5  UNL     1     -34.862  -3.293   3.977  1.00  0.00    -0.384 OA
ENDBRANCH  14  15
ENDBRANCH  12  14
ENDBRANCH  10  12
ENDBRANCH   9  10
ENDBRANCH   4   9
BRANCH   1  20
HETATM   20  C5  UNL     1     -30.160   0.488   4.939  1.00  0.00     0.252 C 
HETATM   21  N1  UNL     1     -30.540   0.410   3.563  1.00  0.00    -0.339 N 
HETATM   22  C4  UNL     1     -30.144   1.351   2.772  1.00  0.00     0.073 C 
ATOM     23  H1  UNL     1     -31.105  -0.364   3.216  1.00  0.00     0.167 HD
HETATM   24  O3  UNL     1     -29.024   0.949   5.227  1.00  0.00    -0.271 OA
BRANCH  22  25
HETATM   25  C3  UNL     1     -30.468   1.388   1.331  1.00  0.00     0.155 C 
BRANCH  25  26
HETATM   26  C2  UNL     1     -31.607   0.496   1.070  1.00  0.00     0.263 C 
HETATM   27  O2  UNL     1     -31.498  -0.612   0.466  1.00  0.00    -0.265 OA
BRANCH  26  28
HETATM   28  O1  UNL     1     -32.892   0.833   1.486  1.00  0.00    -0.326 OA
HETATM   29  C1  UNL     1     -33.300   2.179   1.565  1.00  0.00     0.213 C 
ENDBRANCH  26  28
ENDBRANCH  25  26
ENDBRANCH  22  25
ENDBRANCH   1  20
TORSDOF 9
ENDMDL
MODEL 4
REMARK VINA RESULT: -5.054260575      1.867      2.317
REMARK  9 active torsions:
REMARK  status: ('A' for Active; 'I' for Inactive)
REMARK    1  A    between atoms: O1_2  and  C2_3 
REMARK    2  A    between atoms: C2_3  and  C3_5 
REMARK    3  A    between atoms: C3_5  and  C4_6 
REMARK       I    between atoms: N1_7  and  C5_9 
REMARK    4  A    between atoms: C5_9  and  C6_11 
REMARK    5  A    between atoms: C9_14  and  C10_15 
REMARK    6  A    between atoms: C10_15  and  S1_16 
REMARK    7  A    between atoms: S1_16  and  N2_18 
REMARK    8  A    between atoms: N2_18  and  C11_20 
REMARK    9  A    between atoms: C11_20  and  C12_21 
ROOT
HETATM    1  C6  UNL     1     -36.298  -8.700  12.127  1.00  0.00     0.277 C 
HETATM    2  C7  UNL     1     -35.338  -9.236  11.091  1.00  0.00     0.043 C 
HETATM    3  C8  UNL     1     -33.959  -8.693  11.393  1.00  0.00     0.010 C 
HETATM    4  C9  UNL     1     -34.005  -7.216  11.661  1.00  0.00     0.025 C 
HETATM    5  C16 UNL     1     -35.331  -6.694  11.202  1.00  0.00     0.238 C 
HETATM    6  N3  UNL     1     -36.426  -7.281  11.907  1.00  0.00    -0.062 N 
ATOM      7  H31 UNL     1     -36.583  -6.796  12.791  1.00  0.00     0.278 HD
ATOM      8  H32 UNL     1     -37.306  -7.072  11.435  1.00  0.00     0.278 HD
ENDROOT
BRANCH   4   9
HETATM    9  C10 UNL     1     -32.883  -6.506  10.937  1.00  0.00     0.138 C 
BRANCH   9  10
HETATM   10  S1  UNL     1     -31.692  -5.946  12.131  1.00  0.00     0.110 S 
HETATM   11  O4  UNL     1     -31.530  -7.044  13.391  1.00  0.00    -0.236 OA
BRANCH  10  12
HETATM   12  N2  UNL     1     -30.148  -5.791  11.371  1.00  0.00    -0.338 N 
ATOM     13  H2  UNL     1     -29.903  -5.130  10.635  1.00  0.00     0.169 HD
BRANCH  12  14
HETATM   14  C11 UNL     1     -29.265  -6.772  11.972  1.00  0.00     0.161 C 
BRANCH  14  15
HETATM   15  C12 UNL     1     -28.761  -7.693  10.863  1.00  0.00     0.139 C 
HETATM   16  C13 UNL     1     -28.314  -8.971  11.541  1.00  0.00     0.035 C 
HETATM   17  C14 UNL     1     -29.660  -9.665  11.718  1.00  0.00     0.029 C 
HETATM   18  C15 UNL     1     -30.402  -9.179  10.501  1.00  0.00     0.168 C 
HETATM   19  O5  UNL     1     -29.782  -8.060  10.028  1.00  0.00    -0.384 OA
ENDBRANCH  14  15
ENDBRANCH  12  14
ENDBRANCH  10  12
ENDBRANCH   9  10
ENDBRANCH   4   9
BRANCH   1  20
HETATM   20  C5  UNL     1     -37.621  -9.331  12.059  1.00  0.00     0.252 C 
HETATM   21  N1  UNL     1     -38.663  -9.065  13.001  1.00  0.00    -0.339 N 
HETATM   22  C4  UNL     1     -39.879  -9.038  12.566  1.00  0.00     0.073 C 
ATOM     23  H1  UNL     1     -38.453  -8.902  13.985  1.00  0.00     0.167 HD
HETATM   24  O3  UNL     1     -37.844 -10.146  11.125  1.00  0.00    -0.271 OA
BRANCH  22  25
HETATM   25  C3  UNL     1     -41.044  -8.775  13.436  1.00  0.00     0.155 C 
BRANCH  25  26
HETATM   26  C2  UNL     1     -40.875  -9.502  14.701  1.00  0.00     0.263 C 
HETATM   27  O2  UNL     1     -40.688 -10.753  14.764  1.00  0.00    -0.265 OA
BRANCH  26  28
HETATM   28  O1  UNL     1     -40.914  -8.836  15.923  1.00  0.00    -0.326 OA
HETATM   29  C1  UNL     1     -40.129  -7.688  16.150  1.00  0.00     0.213 C 
ENDBRANCH  26  28
ENDBRANCH  25  26
ENDBRANCH  22  25
ENDBRANCH   1  20
TORSDOF 9
ENDMDL
MODEL 5
REMARK VINA RESULT: -4.994175899      1.184      1.693
REMARK  9 active torsions:
REMARK  status: ('A' for Active; 'I' for Inactive)
REMARK    1  A    between atoms: O1_2  and  C2_3 
REMARK    2  A    between atoms: C2_3  and  C3_5 
REMARK    3  A    between atoms: C3_5  and  C4_6 
REMARK       I    between atoms: N1_7  and  C5_9 
REMARK    4  A    between atoms: C5_9  and  C6_11 
REMARK    5  A    between atoms: C9_14  and  C10_15 
REMARK    6  A    between atoms: C10_15  and  S1_16 
REMARK    7  A    between atoms: S1_16  and  N2_18 
REMARK    8  A    between atoms: N2_18  and  C11_20 
REMARK    9  A    between atoms: C11_20  and  C12_21 
ROOT
HETATM    1  C6  UNL     1     -33.979  -7.708  11.794  1.00  0.00     0.277 C 
HETATM    2  C7  UNL     1     -32.999  -8.012  10.685  1.00  0.00     0.043 C 
HETATM    3  C8  UNL     1     -31.746  -7.197  10.922  1.00  0.00     0.010 C 
HETATM    4  C9  UNL     1     -32.081  -5.769  11.239  1.00  0.00     0.025 C 
HETATM    5  C16 UNL     1     -33.513  -5.527  10.877  1.00  0.00     0.238 C 
HETATM    6  N3  UNL     1     -34.414  -6.344  11.628  1.00  0.00    -0.062 N 
ATOM      7  H31 UNL     1     -34.610  -5.919  12.534  1.00  0.00     0.278 HD
ATOM      8  H32 UNL     1     -35.347  -6.315  11.217  1.00  0.00     0.278 HD
ENDROOT
BRANCH   4   9
HETATM    9  C10 UNL     1     -31.181  -4.825  10.472  1.00  0.00     0.138 C 
BRANCH   9  10
HETATM   10  S1  UNL     1     -29.649  -4.646  11.356  1.00  0.00     0.110 S 
HETATM   11  O4  UNL     1     -29.744  -5.335  12.884  1.00  0.00    -0.236 OA
BRANCH  10  12
HETATM   12  N2  UNL     1     -28.392  -5.457  10.493  1.00  0.00    -0.338 N 
ATOM     13  H2  UNL     1     -28.181  -5.357   9.501  1.00  0.00     0.169 HD
BRANCH  12  14
HETATM   14  C11 UNL     1     -27.691  -6.306  11.437  1.00  0.00     0.161 C 
BRANCH  14  15
HETATM   15  C12 UNL     1     -27.144  -7.509  10.672  1.00  0.00     0.139 C 
HETATM   16  C13 UNL     1     -27.049  -8.643  11.671  1.00  0.00     0.035 C 
HETATM   17  C14 UNL     1     -28.499  -9.113  11.680  1.00  0.00     0.029 C 
HETATM   18  C15 UNL     1     -28.906  -8.832  10.258  1.00  0.00     0.168 C 
HETATM   19  O5  UNL     1     -28.033  -7.932   9.721  1.00  0.00    -0.384 OA
ENDBRANCH  14  15
ENDBRANCH  12  14
ENDBRANCH  10  12
ENDBRANCH   9  10
ENDBRANCH   4   9
BRANCH   1  20
HETATM   20  C5  UNL     1     -35.144  -8.602  11.786  1.00  0.00     0.252 C 
HETATM   21  N1  UNL     1     -36.330  -8.347  12.543  1.00  0.00    -0.339 N 
HETATM   22  C4  UNL     1     -37.463  -8.680  12.021  1.00  0.00     0.073 C 
ATOM     23  H1  UNL     1     -36.282  -7.917  13.466  1.00  0.00     0.167 HD
HETATM   24  O3  UNL     1     -35.091  -9.641  11.077  1.00  0.00    -0.271 OA
BRANCH  22  25
HETATM   25  C3  UNL     1     -38.759  -8.470  12.699  1.00  0.00     0.155 C 
BRANCH  25  26
HETATM   26  C2  UNL     1     -38.750  -9.180  13.985  1.00  0.00     0.263 C 
HETATM   27  O2  UNL     1     -37.808  -9.084  14.826  1.00  0.00    -0.265 OA
BRANCH  26  28
HETATM   28  O1  UNL     1     -39.803 -10.014  14.352  1.00  0.00    -0.326 OA
HETATM   29  C1  UNL     1     -41.142  -9.636  14.127  1.00  0.00     0.213 C 
ENDBRANCH  26  28
ENDBRANCH  25  26
ENDBRANCH  22  25
ENDBRANCH   1  20
TORSDOF 9
ENDMDL
