MODEL 1
REMARK VINA RESULT: -5.663545270      0.000      0.000
REMARK  11 active torsions:
REMARK  status: ('A' for Active; 'I' for Inactive)
REMARK    1  A    between atoms: C2_2  and  C3_3 
REMARK    2  A    between atoms: C5_5  and  C6_6 
REMARK    3  A    between atoms: C6_6  and  O1_7 
REMARK    4  A    between atoms: O1_7  and  C7_8 
REMARK    5  A    between atoms: C10_12  and  C11_13 
REMARK    6  A    between atoms: C11_13  and  O3_14 
REMARK    7  A    between atoms: C13_17  and  C14_18 
REMARK    8  A    between atoms: C14_18  and  C15_19 
REMARK    9  A    between atoms: C15_19  and  C16_20 
REMARK   10  A    between atoms: C15_19  and  O5_23 
REMARK   11  A    between atoms: C16_20  and  O4_21 
ROOT
HETATM    1  C7  UNL     1     -36.242  -4.321   9.043  1.00  0.00     0.163 C 
HETATM    2  C8  UNL     1     -37.010  -3.950  10.305  1.00  0.00     0.204 C 
HETATM    3  O2  UNL     1     -36.365  -4.555  11.347  1.00  0.00    -0.363 OA
HETATM    4  C9  UNL     1     -35.023  -4.242  11.505  1.00  0.00     0.231 C 
HETATM    5  C10 UNL     1     -34.451  -5.386  12.329  1.00  0.00     0.059 C 
HETATM    6  C12 UNL     1     -32.947  -5.235  12.422  1.00  0.00     0.025 C 
HETATM    7  C13 UNL     1     -32.337  -5.441  11.080  1.00  0.00     0.081 C 
HETATM    8  C18 UNL     1     -32.907  -4.331  10.224  1.00  0.00     0.226 C 
HETATM    9  O6  UNL     1     -32.110  -3.719   9.482  1.00  0.00    -0.273 OA
HETATM   10  N1  UNL     1     -34.281  -4.055  10.311  1.00  0.00    -0.322 N 
HETATM   11  C19 UNL     1     -34.946  -3.552   9.127  1.00  0.00     0.162 C 
ENDROOT
BRANCH   1  12
HETATM   12  O1  UNL     1     -36.955  -4.090   7.897  1.00  0.00    -0.382 OA
BRANCH  12  13
HETATM   13  C6  UNL     1     -36.668  -2.945   7.214  1.00  0.00     0.173 C 
BRANCH  13  14
HETATM   14  C5  UNL     1     -37.560  -2.909   5.983  1.00  0.00     0.011 C 
HETATM   15  C4  UNL     1     -37.238  -4.049   5.015  1.00  0.00     0.015 C 
HETATM   16  C3  UNL     1     -37.305  -3.031   3.893  1.00  0.00     0.008 C 
HETATM   17  C20 UNL     1     -37.020  -1.955   4.923  1.00  0.00     0.015 C 
BRANCH  16  18
HETATM   18  C2  UNL     1     -36.206  -3.276   2.922  1.00  0.00    -0.032 C 
HETATM   19  C1  UNL     1     -36.415  -3.293   1.632  1.00  0.00     0.007 C 
ENDBRANCH  16  18
ENDBRANCH  13  14
ENDBRANCH  12  13
ENDBRANCH   1  12
BRANCH   5  20
HETATM   20  C11 UNL     1     -35.064  -5.281  13.709  1.00  0.00     0.173 C 
BRANCH  20  21
HETATM   21  O3  UNL     1     -36.067  -6.225  13.901  1.00  0.00    -0.400 OA
ATOM     22  H3  UNL     1     -36.140  -6.481  14.813  1.00  0.00     0.209 HD
ENDBRANCH  20  21
ENDBRANCH   5  20
BRANCH   7  23
HETATM   23  C14 UNL     1     -32.548  -6.756  10.430  1.00  0.00     0.048 C 
BRANCH  23  24
HETATM   24  C15 UNL     1     -31.893  -7.884  11.102  1.00  0.00     0.145 C 
BRANCH  24  25
HETATM   25  C16 UNL     1     -30.514  -8.176  10.391  1.00  0.00     0.196 C 
BRANCH  25  26
HETATM   26  O4  UNL     1     -30.696  -9.134   9.413  1.00  0.00    -0.398 OA
ATOM     27  H4  UNL     1     -30.193  -9.909   9.633  1.00  0.00     0.209 HD
ENDBRANCH  25  26
ENDBRANCH  24  25
BRANCH  24  28
HETATM   28  O5  UNL     1     -32.501  -9.102  11.122  1.00  0.00    -0.389 OA
HETATM   29  C17 UNL     1     -33.815  -9.038  11.617  1.00  0.00     0.202 C 
ENDBRANCH  24  28
ENDBRANCH  23  24
ENDBRANCH   7  23
TORSDOF 11
ENDMDL
MODEL 2
REMARK VINA RESULT: -5.611456152      5.229      8.311
REMARK  11 active torsions:
REMARK  status: ('A' for Active; 'I' for Inactive)
REMARK    1  A    between atoms: C2_2  and  C3_3 
REMARK    2  A    between atoms: C5_5  and  C6_6 
REMARK    3  A    between atoms: C6_6  and  O1_7 
REMARK    4  A    between atoms: O1_7  and  C7_8 
REMARK    5  A    between atoms: C10_12  and  C11_13 
REMARK    6  A    between atoms: C11_13  and  O3_14 
REMARK    7  A    between atoms: C13_17  and  C14_18 
REMARK    8  A    between atoms: C14_18  and  C15_19 
REMARK    9  A    between atoms: C15_19  and  C16_20 
REMARK   10  A    between atoms: C15_19  and  O5_23 
REMARK   11  A    between atoms: C16_20  and  O4_21 
ROOT
HETATM    1  C7  UNL     1     -33.942  -1.625   6.507  1.00  0.00     0.163 C 
HETATM    2  C8  UNL     1     -33.102  -1.547   7.775  1.00  0.00     0.204 C 
HETATM    3  O2  UNL     1     -31.991  -0.815   7.464  1.00  0.00    -0.363 OA
HETATM    4  C9  UNL     1     -32.214   0.461   6.970  1.00  0.00     0.231 C 
HETATM    5  C10 UNL     1     -30.932   0.825   6.236  1.00  0.00     0.059 C 
HETATM    6  C12 UNL     1     -31.123   2.139   5.509  1.00  0.00     0.025 C 
HETATM    7  C13 UNL     1     -32.110   1.966   4.408  1.00  0.00     0.081 C 
HETATM    8  C18 UNL     1     -33.396   1.576   5.102  1.00  0.00     0.226 C 
HETATM    9  O6  UNL     1     -34.442   2.141   4.719  1.00  0.00    -0.273 OA
HETATM   10  N1  UNL     1     -33.343   0.616   6.124  1.00  0.00    -0.322 N 
HETATM   11  C19 UNL     1     -34.499  -0.235   6.315  1.00  0.00     0.162 C 
ENDROOT
BRANCH   1  12
HETATM   12  O1  UNL     1     -34.896  -2.607   6.558  1.00  0.00    -0.382 OA
BRANCH  12  13
HETATM   13  C6  UNL     1     -36.169  -2.213   6.847  1.00  0.00     0.173 C 
BRANCH  13  14
HETATM   14  C5  UNL     1     -37.095  -2.887   5.846  1.00  0.00     0.011 C 
HETATM   15  C4  UNL     1     -36.340  -3.857   4.937  1.00  0.00     0.015 C 
HETATM   16  C3  UNL     1     -37.106  -3.263   3.771  1.00  0.00     0.008 C 
HETATM   17  C20 UNL     1     -37.318  -2.019   4.611  1.00  0.00     0.015 C 
BRANCH  16  18
HETATM   18  C2  UNL     1     -36.200  -3.087   2.606  1.00  0.00    -0.032 C 
HETATM   19  C1  UNL     1     -36.562  -3.408   1.393  1.00  0.00     0.007 C 
ENDBRANCH  16  18
ENDBRANCH  13  14
ENDBRANCH  12  13
ENDBRANCH   1  12
BRANCH   5  20
HETATM   20  C11 UNL     1     -29.853   0.972   7.288  1.00  0.00     0.173 C 
BRANCH  20  21
HETATM   21  O3  UNL     1     -30.389   1.042   8.570  1.00  0.00    -0.400 OA
ATOM     22  H3  UNL     1     -29.894   0.517   9.188  1.00  0.00     0.209 HD
ENDBRANCH  20  21
ENDBRANCH   5  20
BRANCH   7  23
HETATM   23  C14 UNL     1     -31.779   0.987   3.346  1.00  0.00     0.048 C 
BRANCH  23  24
HETATM   24  C15 UNL     1     -31.997   1.470   1.977  1.00  0.00     0.145 C 
BRANCH  24  25
HETATM   25  C16 UNL     1     -33.269   0.755   1.375  1.00  0.00     0.196 C 
BRANCH  25  26
HETATM   26  O4  UNL     1     -33.577  -0.353   2.138  1.00  0.00    -0.398 OA
ATOM     27  H4  UNL     1     -34.471  -0.620   1.961  1.00  0.00     0.209 HD
ENDBRANCH  25  26
ENDBRANCH  24  25
BRANCH  24  28
HETATM   28  O5  UNL     1     -31.042   1.263   1.029  1.00  0.00    -0.389 OA
HETATM   29  C17 UNL     1     -29.856   0.734   1.568  1.00  0.00     0.202 C 
ENDBRANCH  24  28
ENDBRANCH  23  24
ENDBRANCH   7  23
TORSDOF 11
ENDMDL
MODEL 3
REMARK VINA RESULT: -5.381065422      1.677      2.435
REMARK  11 active torsions:
REMARK  status: ('A' for Active; 'I' for Inactive)
REMARK    1  A    between atoms: C2_2  and  C3_3 
REMARK    2  A    between atoms: C5_5  and  C6_6 
REMARK    3  A    between atoms: C6_6  and  O1_7 
REMARK    4  A    between atoms: O1_7  and  C7_8 
REMARK    5  A    between atoms: C10_12  and  C11_13 
REMARK    6  A    between atoms: C11_13  and  O3_14 
REMARK    7  A    between atoms: C13_17  and  C14_18 
REMARK    8  A    between atoms: C14_18  and  C15_19 
REMARK    9  A    between atoms: C15_19  and  C16_20 
REMARK   10  A    between atoms: C15_19  and  O5_23 
REMARK   11  A    between atoms: C16_20  and  O4_21 
ROOT
HETATM    1  C7  UNL     1     -35.968  -3.536   8.712  1.00  0.00     0.163 C 
HETATM    2  C8  UNL     1     -36.906  -2.649   9.519  1.00  0.00     0.204 C 
HETATM    3  O2  UNL     1     -37.310  -3.384  10.597  1.00  0.00    -0.363 OA
HETATM    4  C9  UNL     1     -36.305  -3.874  11.418  1.00  0.00     0.231 C 
HETATM    5  C10 UNL     1     -36.945  -5.034  12.167  1.00  0.00     0.059 C 
HETATM    6  C12 UNL     1     -35.887  -5.756  12.975  1.00  0.00     0.025 C 
HETATM    7  C13 UNL     1     -34.926  -6.428  12.059  1.00  0.00     0.081 C 
HETATM    8  C18 UNL     1     -34.288  -5.301  11.277  1.00  0.00     0.226 C 
HETATM    9  O6  UNL     1     -33.049  -5.344  11.128  1.00  0.00    -0.273 OA
HETATM   10  N1  UNL     1     -35.113  -4.286  10.769  1.00  0.00    -0.322 N 
HETATM   11  C19 UNL     1     -34.709  -3.637   9.539  1.00  0.00     0.162 C 
ENDROOT
BRANCH   1  12
HETATM   12  O1  UNL     1     -35.763  -3.077   7.438  1.00  0.00    -0.382 OA
BRANCH  12  13
HETATM   13  C6  UNL     1     -36.650  -2.155   6.966  1.00  0.00     0.173 C 
BRANCH  13  14
HETATM   14  C5  UNL     1     -37.458  -2.820   5.862  1.00  0.00     0.011 C 
HETATM   15  C4  UNL     1     -36.638  -3.869   5.110  1.00  0.00     0.015 C 
HETATM   16  C3  UNL     1     -37.187  -3.286   3.824  1.00  0.00     0.008 C 
HETATM   17  C20 UNL     1     -37.444  -1.996   4.578  1.00  0.00     0.015 C 
BRANCH  16  18
HETATM   18  C2  UNL     1     -36.111  -3.211   2.801  1.00  0.00    -0.032 C 
HETATM   19  C1  UNL     1     -36.366  -3.273   1.521  1.00  0.00     0.007 C 
ENDBRANCH  16  18
ENDBRANCH  13  14
ENDBRANCH  12  13
ENDBRANCH   1  12
BRANCH   5  20
HETATM   20  C11 UNL     1     -37.982  -4.437  13.094  1.00  0.00     0.173 C 
BRANCH  20  21
HETATM   21  O3  UNL     1     -37.634  -3.153  13.499  1.00  0.00    -0.400 OA
ATOM     22  H3  UNL     1     -37.665  -2.536  12.778  1.00  0.00     0.209 HD
ENDBRANCH  20  21
ENDBRANCH   5  20
BRANCH   7  23
HETATM   23  C14 UNL     1     -35.468  -7.455  11.138  1.00  0.00     0.048 C 
BRANCH  23  24
HETATM   24  C15 UNL     1     -34.766  -8.744  11.175  1.00  0.00     0.145 C 
BRANCH  24  25
HETATM   25  C16 UNL     1     -35.763  -9.858  11.682  1.00  0.00     0.196 C 
BRANCH  25  26
HETATM   26  O4  UNL     1     -35.425 -10.224  12.970  1.00  0.00    -0.398 OA
ATOM     27  H4  UNL     1     -35.384  -9.449  13.517  1.00  0.00     0.209 HD
ENDBRANCH  25  26
ENDBRANCH  24  25
BRANCH  24  28
HETATM   28  O5  UNL     1     -33.683  -8.899  11.985  1.00  0.00    -0.389 OA
HETATM   29  C17 UNL     1     -32.483  -9.010  11.260  1.00  0.00     0.202 C 
ENDBRANCH  24  28
ENDBRANCH  23  24
ENDBRANCH   7  23
TORSDOF 11
ENDMDL
MODEL 4
REMARK VINA RESULT: -5.359778635      7.183      9.825
REMARK  11 active torsions:
REMARK  status: ('A' for Active; 'I' for Inactive)
REMARK    1  A    between atoms: C2_2  and  C3_3 
REMARK    2  A    between atoms: C5_5  and  C6_6 
REMARK    3  A    between atoms: C6_6  and  O1_7 
REMARK    4  A    between atoms: O1_7  and  C7_8 
REMARK    5  A    between atoms: C10_12  and  C11_13 
REMARK    6  A    between atoms: C11_13  and  O3_14 
REMARK    7  A    between atoms: C13_17  and  C14_18 
REMARK    8  A    between atoms: C14_18  and  C15_19 
REMARK    9  A    between atoms: C15_19  and  C16_20 
REMARK   10  A    between atoms: C15_19  and  O5_23 
REMARK   11  A    between atoms: C16_20  and  O4_21 
ROOT
HETATM    1  C7  UNL     1     -32.760   0.299   4.118  1.00  0.00     0.163 C 
HETATM    2  C8  UNL     1     -32.429   0.829   5.507  1.00  0.00     0.204 C 
HETATM    3  O2  UNL     1     -31.067   0.855   5.602  1.00  0.00    -0.363 OA
HETATM    4  C9  UNL     1     -30.397   1.601   4.644  1.00  0.00     0.231 C 
HETATM    5  C10 UNL     1     -28.979   1.051   4.643  1.00  0.00     0.059 C 
HETATM    6  C12 UNL     1     -28.195   1.681   3.510  1.00  0.00     0.025 C 
HETATM    7  C13 UNL     1     -28.742   1.220   2.204  1.00  0.00     0.081 C 
HETATM    8  C18 UNL     1     -30.166   1.729   2.182  1.00  0.00     0.226 C 
HETATM    9  O6  UNL     1     -30.564   2.259   1.124  1.00  0.00    -0.273 OA
HETATM   10  N1  UNL     1     -30.950   1.580   3.337  1.00  0.00    -0.322 N 
HETATM   11  C19 UNL     1     -32.378   1.409   3.168  1.00  0.00     0.162 C 
ENDROOT
BRANCH   1  12
HETATM   12  O1  UNL     1     -34.060  -0.115   4.000  1.00  0.00    -0.382 OA
BRANCH  12  13
HETATM   13  C6  UNL     1     -34.681  -0.528   5.141  1.00  0.00     0.173 C 
BRANCH  13  14
HETATM   14  C5  UNL     1     -34.900  -2.029   5.025  1.00  0.00     0.011 C 
HETATM   15  C4  UNL     1     -34.786  -2.510   3.578  1.00  0.00     0.015 C 
HETATM   16  C3  UNL     1     -36.039  -3.329   3.817  1.00  0.00     0.008 C 
HETATM   17  C20 UNL     1     -36.383  -2.377   4.946  1.00  0.00     0.015 C 
BRANCH  16  18
HETATM   18  C2  UNL     1     -36.932  -3.245   2.632  1.00  0.00    -0.032 C 
HETATM   19  C1  UNL     1     -36.485  -3.414   1.415  1.00  0.00     0.007 C 
ENDBRANCH  16  18
ENDBRANCH  13  14
ENDBRANCH  12  13
ENDBRANCH   1  12
BRANCH   5  20
HETATM   20  C11 UNL     1     -28.360   1.435   5.970  1.00  0.00     0.173 C 
BRANCH  20  21
HETATM   21  O3  UNL     1     -29.050   2.479   6.578  1.00  0.00    -0.400 OA
ATOM     22  H3  UNL     1     -28.509   2.937   7.210  1.00  0.00     0.209 HD
ENDBRANCH  20  21
ENDBRANCH   5  20
BRANCH   7  23
HETATM   23  C14 UNL     1     -28.708  -0.235   1.927  1.00  0.00     0.048 C 
BRANCH  23  24
HETATM   24  C15 UNL     1     -28.630  -0.588   0.505  1.00  0.00     0.145 C 
BRANCH  24  25
HETATM   25  C16 UNL     1     -29.814  -1.570   0.152  1.00  0.00     0.196 C 
BRANCH  25  26
HETATM   26  O4  UNL     1     -31.018  -0.919   0.330  1.00  0.00    -0.398 OA
ATOM     27  H4  UNL     1     -31.312  -1.039   1.226  1.00  0.00     0.209 HD
ENDBRANCH  25  26
ENDBRANCH  24  25
BRANCH  24  28
HETATM   28  O5  UNL     1     -27.531  -1.237   0.031  1.00  0.00    -0.389 OA
HETATM   29  C17 UNL     1     -26.750  -0.426  -0.812  1.00  0.00     0.202 C 
ENDBRANCH  24  28
ENDBRANCH  23  24
ENDBRANCH   7  23
TORSDOF 11
ENDMDL
MODEL 5
REMARK VINA RESULT: -5.356599546      2.493      3.434
REMARK  11 active torsions:
REMARK  status: ('A' for Active; 'I' for Inactive)
REMARK    1  A    between atoms: C2_2  and  C3_3 
REMARK    2  A    between atoms: C5_5  and  C6_6 
REMARK    3  A    between atoms: C6_6  and  O1_7 
REMARK    4  A    between atoms: O1_7  and  C7_8 
REMARK    5  A    between atoms: C10_12  and  C11_13 
REMARK    6  A    between atoms: C11_13  and  O3_14 
REMARK    7  A    between atoms: C13_17  and  C14_18 
REMARK    8  A    between atoms: C14_18  and  C15_19 
REMARK    9  A    between atoms: C15_19  and  C16_20 
REMARK   10  A    between atoms: C15_19  and  O5_23 
REMARK   11  A    between atoms: C16_20  and  O4_21 
ROOT
HETATM    1  C7  UNL     1     -36.593  -3.970   9.006  1.00  0.00     0.163 C 
HETATM    2  C8  UNL     1     -37.061  -2.736   9.765  1.00  0.00     0.204 C 
HETATM    3  O2  UNL     1     -37.608  -3.180  10.936  1.00  0.00    -0.363 OA
HETATM    4  C9  UNL     1     -36.784  -3.946  11.748  1.00  0.00     0.231 C 
HETATM    5  C10 UNL     1     -37.735  -4.719  12.649  1.00  0.00     0.059 C 
HETATM    6  C12 UNL     1     -36.949  -5.719  13.471  1.00  0.00     0.025 C 
HETATM    7  C13 UNL     1     -36.389  -6.772  12.579  1.00  0.00     0.081 C 
HETATM    8  C18 UNL     1     -35.455  -6.031  11.648  1.00  0.00     0.226 C 
HETATM    9  O6  UNL     1     -34.337  -6.547  11.436  1.00  0.00    -0.273 OA
HETATM   10  N1  UNL     1     -35.891  -4.823  11.081  1.00  0.00    -0.322 N 
HETATM   11  C19 UNL     1     -35.390  -4.472   9.769  1.00  0.00     0.162 C 
ENDROOT
BRANCH   1  12
HETATM   12  O1  UNL     1     -36.350  -3.722   7.682  1.00  0.00    -0.382 OA
BRANCH  12  13
HETATM   13  C6  UNL     1     -36.819  -2.545   7.179  1.00  0.00     0.173 C 
BRANCH  13  14
HETATM   14  C5  UNL     1     -37.659  -2.871   5.955  1.00  0.00     0.011 C 
HETATM   15  C4  UNL     1     -37.043  -4.000   5.126  1.00  0.00     0.015 C 
HETATM   16  C3  UNL     1     -37.326  -3.165   3.893  1.00  0.00     0.008 C 
HETATM   17  C20 UNL     1     -37.342  -1.941   4.788  1.00  0.00     0.015 C 
BRANCH  16  18
HETATM   18  C2  UNL     1     -36.176  -3.241   2.955  1.00  0.00    -0.032 C 
HETATM   19  C1  UNL     1     -36.342  -3.287   1.659  1.00  0.00     0.007 C 
ENDBRANCH  16  18
ENDBRANCH  13  14
ENDBRANCH  12  13
ENDBRANCH   1  12
BRANCH   5  20
HETATM   20  C11 UNL     1     -38.390  -3.706  13.564  1.00  0.00     0.173 C 
BRANCH  20  21
HETATM   21  O3  UNL     1     -37.581  -2.593  13.766  1.00  0.00    -0.400 OA
ATOM     22  H3  UNL     1     -36.995  -2.713  14.504  1.00  0.00     0.209 HD
ENDBRANCH  20  21
ENDBRANCH   5  20
BRANCH   7  23
HETATM   23  C14 UNL     1     -37.352  -7.589  11.804  1.00  0.00     0.048 C 
BRANCH  23  24
HETATM   24  C15 UNL     1     -37.400  -9.006  12.183  1.00  0.00     0.145 C 
BRANCH  24  25
HETATM   25  C16 UNL     1     -36.017  -9.680  11.831  1.00  0.00     0.196 C 
BRANCH  25  26
HETATM   26  O4  UNL     1     -35.440 -10.173  12.985  1.00  0.00    -0.398 OA
ATOM     27  H4  UNL     1     -34.503 -10.020  12.959  1.00  0.00     0.209 HD
ENDBRANCH  25  26
ENDBRANCH  24  25
BRANCH  24  28
HETATM   28  O5  UNL     1     -38.310  -9.831  11.597  1.00  0.00    -0.389 OA
HETATM   29  C17 UNL     1     -39.562  -9.214  11.427  1.00  0.00     0.202 C 
ENDBRANCH  24  28
ENDBRANCH  23  24
ENDBRANCH   7  23
TORSDOF 11
ENDMDL
