MODEL 1
REMARK VINA RESULT: -6.396280654      0.000      0.000
REMARK  4 active torsions:
REMARK  status: ('A' for Active; 'I' for Inactive)
REMARK    1  A    between atoms: C3_3  and  C5_5 
REMARK    2  A    between atoms: C5_5  and  N1_6 
REMARK    3  A    between atoms: C5_5  and  C9_16 
REMARK    4  A    between atoms: C6_8  and  C7_9 
ROOT
HETATM    1  C1  UNL     1       4.016 -11.132  26.998  1.00  0.00     0.097 C 
HETATM    2  C2  UNL     1       3.020 -10.420  27.173  1.00  0.00    -0.181 C 
HETATM    3  C3  UNL     1       1.819  -9.644  27.412  1.00  0.00     0.070 C 
HETATM    4  C4  UNL     1       0.901  -9.970  26.221  1.00  0.00     0.024 C 
ENDROOT
BRANCH   3   5
HETATM    5  C5  UNL     1       2.037  -8.226  27.619  1.00  0.00     0.099 C 
BRANCH   5   6
HETATM    6  N1  UNL     1       1.473  -7.650  28.805  1.00  0.00    -0.390 N 
HETATM    7  C6  UNL     1       0.188  -7.848  29.224  1.00  0.00     0.134 C 
ATOM      8  H1  UNL     1       2.073  -7.053  29.375  1.00  0.00     0.159 HD
BRANCH   7   9
HETATM    9  C7  UNL     1      -0.009  -7.023  30.487  1.00  0.00     0.142 A 
HETATM   10  N2  UNL     1       0.532  -7.229  31.699  1.00  0.00    -0.329 N 
HETATM   11  C8  UNL     1       0.109  -6.274  32.558  1.00  0.00     0.261 A 
ATOM     12  H2  UNL     1       1.167  -7.991  31.935  1.00  0.00     0.168 HD
HETATM   13  O1  UNL     1      -0.675  -5.507  31.869  1.00  0.00    -0.231 OA
HETATM   14  N3  UNL     1      -0.772  -5.923  30.622  1.00  0.00    -0.243 N 
ATOM     15  H3  UNL     1      -1.328  -5.488  29.887  1.00  0.00     0.196 HD
ENDBRANCH   7   9
ENDBRANCH   5   6
BRANCH   5  16
HETATM   16  C9  UNL     1       1.520  -7.332  26.504  1.00  0.00     0.009 C 
HETATM   17  C10 UNL     1       1.491  -5.872  27.057  1.00  0.00     0.007 C 
HETATM   18  C11 UNL     1       0.452  -5.155  26.224  1.00  0.00     0.000 C 
HETATM   19  C12 UNL     1       0.938  -5.194  24.798  1.00  0.00     0.000 C 
HETATM   20  C13 UNL     1       2.269  -5.844  24.641  1.00  0.00     0.000 C 
HETATM   21  C14 UNL     1       2.341  -7.240  25.272  1.00  0.00     0.007 C 
ENDBRANCH   5  16
ENDBRANCH   3   5
TORSDOF 4
ENDMDL
MODEL 2
REMARK VINA RESULT: -6.338311671      3.046      5.050
REMARK  4 active torsions:
REMARK  status: ('A' for Active; 'I' for Inactive)
REMARK    1  A    between atoms: C3_3  and  C5_5 
REMARK    2  A    between atoms: C5_5  and  N1_6 
REMARK    3  A    between atoms: C5_5  and  C9_16 
REMARK    4  A    between atoms: C6_8  and  C7_9 
ROOT
HETATM    1  C1  UNL     1      -0.131  -7.614  30.769  1.00  0.00     0.097 C 
HETATM    2  C2  UNL     1       0.329  -7.208  29.695  1.00  0.00    -0.181 C 
HETATM    3  C3  UNL     1       0.916  -6.690  28.474  1.00  0.00     0.070 C 
HETATM    4  C4  UNL     1       0.171  -5.369  28.214  1.00  0.00     0.024 C 
ENDROOT
BRANCH   3   5
HETATM    5  C5  UNL     1       0.903  -7.607  27.351  1.00  0.00     0.099 C 
BRANCH   5   6
HETATM    6  N1  UNL     1       1.995  -8.532  27.257  1.00  0.00    -0.390 N 
HETATM    7  C6  UNL     1       1.866  -9.846  26.909  1.00  0.00     0.134 C 
ATOM      8  H1  UNL     1       2.932  -8.184  27.465  1.00  0.00     0.159 HD
BRANCH   7   9
HETATM    9  C7  UNL     1       3.251 -10.472  26.982  1.00  0.00     0.142 A 
HETATM   10  N2  UNL     1       3.711 -11.354  27.884  1.00  0.00    -0.329 N 
HETATM   11  C8  UNL     1       4.996 -11.669  27.604  1.00  0.00     0.261 A 
ATOM     12  H2  UNL     1       3.171 -11.730  28.663  1.00  0.00     0.168 HD
HETATM   13  O1  UNL     1       5.301 -10.983  26.548  1.00  0.00    -0.231 OA
HETATM   14  N3  UNL     1       4.281 -10.253  26.145  1.00  0.00    -0.243 N 
ATOM     15  H3  UNL     1       4.273  -9.630  25.337  1.00  0.00     0.196 HD
ENDBRANCH   7   9
ENDBRANCH   5   6
BRANCH   5  16
HETATM   16  C9  UNL     1       0.875  -6.942  25.985  1.00  0.00     0.009 C 
HETATM   17  C10 UNL     1       2.354  -6.819  25.500  1.00  0.00     0.007 C 
HETATM   18  C11 UNL     1       2.353  -5.668  24.518  1.00  0.00     0.000 C 
HETATM   19  C12 UNL     1       1.434  -6.062  23.391  1.00  0.00     0.000 C 
HETATM   20  C13 UNL     1       0.869  -7.433  23.535  1.00  0.00     0.000 C 
HETATM   21  C14 UNL     1       0.190  -7.670  24.889  1.00  0.00     0.007 C 
ENDBRANCH   5  16
ENDBRANCH   3   5
TORSDOF 4
ENDMDL
MODEL 3
REMARK VINA RESULT: -6.137634043      1.142      3.901
REMARK  4 active torsions:
REMARK  status: ('A' for Active; 'I' for Inactive)
REMARK    1  A    between atoms: C3_3  and  C5_5 
REMARK    2  A    between atoms: C5_5  and  N1_6 
REMARK    3  A    between atoms: C5_5  and  C9_16 
REMARK    4  A    between atoms: C6_8  and  C7_9 
ROOT
HETATM    1  C1  UNL     1       0.665  -4.864  26.607  1.00  0.00     0.097 C 
HETATM    2  C2  UNL     1       0.970  -6.031  26.335  1.00  0.00    -0.181 C 
HETATM    3  C3  UNL     1       1.389  -7.374  25.980  1.00  0.00     0.070 C 
HETATM    4  C4  UNL     1       0.811  -7.602  24.572  1.00  0.00     0.024 C 
ENDROOT
BRANCH   3   5
HETATM    5  C5  UNL     1       1.031  -8.401  26.939  1.00  0.00     0.099 C 
BRANCH   5   6
HETATM    6  N1  UNL     1       0.856  -7.983  28.300  1.00  0.00    -0.390 N 
HETATM    7  C6  UNL     1      -0.355  -7.737  28.883  1.00  0.00     0.134 C 
ATOM      8  H1  UNL     1       1.693  -7.860  28.871  1.00  0.00     0.159 HD
BRANCH   7   9
HETATM    9  C7  UNL     1      -0.086  -7.273  30.307  1.00  0.00     0.142 A 
HETATM   10  N2  UNL     1      -0.163  -6.024  30.795  1.00  0.00    -0.329 N 
HETATM   11  C8  UNL     1       0.152  -6.026  32.110  1.00  0.00     0.261 A 
ATOM     12  H2  UNL     1      -0.420  -5.199  30.254  1.00  0.00     0.168 HD
HETATM   13  O1  UNL     1       0.414  -7.259  32.405  1.00  0.00    -0.231 OA
HETATM   14  N3  UNL     1       0.282  -8.038  31.350  1.00  0.00    -0.243 N 
ATOM     15  H3  UNL     1       0.433  -9.047  31.327  1.00  0.00     0.196 HD
ENDBRANCH   7   9
ENDBRANCH   5   6
BRANCH   5  16
HETATM   16  C9  UNL     1       2.017  -9.552  27.039  1.00  0.00     0.009 C 
HETATM   17  C10 UNL     1       3.305  -9.127  26.267  1.00  0.00     0.007 C 
HETATM   18  C11 UNL     1       3.967 -10.424  25.859  1.00  0.00     0.000 C 
HETATM   19  C12 UNL     1       4.305 -11.157  27.131  1.00  0.00     0.000 C 
HETATM   20  C13 UNL     1       3.959 -10.397  28.365  1.00  0.00     0.000 C 
HETATM   21  C14 UNL     1       2.504  -9.914  28.393  1.00  0.00     0.007 C 
ENDBRANCH   5  16
ENDBRANCH   3   5
TORSDOF 4
ENDMDL
MODEL 4
REMARK VINA RESULT: -6.064998905      5.634      9.062
REMARK  4 active torsions:
REMARK  status: ('A' for Active; 'I' for Inactive)
REMARK    1  A    between atoms: C3_3  and  C5_5 
REMARK    2  A    between atoms: C5_5  and  N1_6 
REMARK    3  A    between atoms: C5_5  and  C9_16 
REMARK    4  A    between atoms: C6_8  and  C7_9 
ROOT
HETATM    1  C1  UNL     1       3.292 -15.816  31.957  1.00  0.00     0.097 C 
HETATM    2  C2  UNL     1       3.489 -15.713  30.740  1.00  0.00    -0.181 C 
HETATM    3  C3  UNL     1       3.646 -15.584  29.305  1.00  0.00     0.070 C 
HETATM    4  C4  UNL     1       3.432 -17.007  28.760  1.00  0.00     0.024 C 
ENDROOT
BRANCH   3   5
HETATM    5  C5  UNL     1       4.888 -14.969  28.877  1.00  0.00     0.099 C 
BRANCH   5   6
HETATM    6  N1  UNL     1       4.785 -13.721  28.180  1.00  0.00    -0.390 N 
HETATM    7  C6  UNL     1       4.069 -12.645  28.624  1.00  0.00     0.134 C 
ATOM      8  H1  UNL     1       5.279 -13.629  27.292  1.00  0.00     0.159 HD
BRANCH   7   9
HETATM    9  C7  UNL     1       4.185 -11.556  27.567  1.00  0.00     0.142 A 
HETATM   10  N2  UNL     1       3.290 -10.602  27.266  1.00  0.00    -0.329 N 
HETATM   11  C8  UNL     1       3.766  -9.825  26.266  1.00  0.00     0.261 A 
ATOM     12  H2  UNL     1       2.386 -10.481  27.722  1.00  0.00     0.168 HD
HETATM   13  O1  UNL     1       4.932 -10.309  25.974  1.00  0.00    -0.231 OA
HETATM   14  N3  UNL     1       5.219 -11.348  26.733  1.00  0.00    -0.243 N 
ATOM     15  H3  UNL     1       6.076 -11.899  26.694  1.00  0.00     0.196 HD
ENDBRANCH   7   9
ENDBRANCH   5   6
BRANCH   5  16
HETATM   16  C9  UNL     1       5.741 -15.827  27.957  1.00  0.00     0.009 C 
HETATM   17  C10 UNL     1       6.658 -14.861  27.142  1.00  0.00     0.007 C 
HETATM   18  C11 UNL     1       7.005 -15.617  25.880  1.00  0.00     0.000 C 
HETATM   19  C12 UNL     1       7.751 -16.854  26.307  1.00  0.00     0.000 C 
HETATM   20  C13 UNL     1       7.972 -16.937  27.778  1.00  0.00     0.000 C 
HETATM   21  C14 UNL     1       6.685 -16.776  28.596  1.00  0.00     0.007 C 
ENDBRANCH   5  16
ENDBRANCH   3   5
TORSDOF 4
ENDMDL
MODEL 5
REMARK VINA RESULT: -5.979200923      3.692      5.626
REMARK  4 active torsions:
REMARK  status: ('A' for Active; 'I' for Inactive)
REMARK    1  A    between atoms: C3_3  and  C5_5 
REMARK    2  A    between atoms: C5_5  and  N1_6 
REMARK    3  A    between atoms: C5_5  and  C9_16 
REMARK    4  A    between atoms: C6_8  and  C7_9 
ROOT
HETATM    1  C1  UNL     1       0.176  -6.301  28.806  1.00  0.00     0.097 C 
HETATM    2  C2  UNL     1       0.543  -7.428  28.453  1.00  0.00    -0.181 C 
HETATM    3  C3  UNL     1       0.929  -8.778  28.092  1.00  0.00     0.070 C 
HETATM    4  C4  UNL     1       2.069  -9.131  29.064  1.00  0.00     0.024 C 
ENDROOT
BRANCH   3   5
HETATM    5  C5  UNL     1       1.265  -8.967  26.695  1.00  0.00     0.099 C 
BRANCH   5   6
HETATM    6  N1  UNL     1       2.538  -9.563  26.410  1.00  0.00    -0.390 N 
HETATM    7  C6  UNL     1       2.891 -10.835  26.761  1.00  0.00     0.134 C 
ATOM      8  H1  UNL     1       3.227  -8.998  25.912  1.00  0.00     0.159 HD
BRANCH   7   9
HETATM    9  C7  UNL     1       4.331 -11.044  26.317  1.00  0.00     0.142 A 
HETATM   10  N2  UNL     1       4.844 -10.898  25.085  1.00  0.00    -0.329 N 
HETATM   11  C8  UNL     1       6.167 -11.178  25.102  1.00  0.00     0.261 A 
ATOM     12  H2  UNL     1       4.314 -10.617  24.260  1.00  0.00     0.168 HD
HETATM   13  O1  UNL     1       6.442 -11.488  26.329  1.00  0.00    -0.231 OA
HETATM   14  N3  UNL     1       5.367 -11.420  27.089  1.00  0.00    -0.243 N 
ATOM     15  H3  UNL     1       5.327 -11.617  28.088  1.00  0.00     0.196 HD
ENDBRANCH   7   9
ENDBRANCH   5   6
BRANCH   5  16
HETATM   16  C9  UNL     1       1.267  -7.696  25.861  1.00  0.00     0.009 C 
HETATM   17  C10 UNL     1       2.752  -7.382  25.500  1.00  0.00     0.007 C 
HETATM   18  C11 UNL     1       2.790  -5.892  25.246  1.00  0.00     0.000 C 
HETATM   19  C12 UNL     1       1.872  -5.628  24.080  1.00  0.00     0.000 C 
HETATM   20  C13 UNL     1       1.271  -6.865  23.506  1.00  0.00     0.000 C 
HETATM   21  C14 UNL     1       0.573  -7.742  24.551  1.00  0.00     0.007 C 
ENDBRANCH   5  16
ENDBRANCH   3   5
TORSDOF 4
ENDMDL
