MODEL 1
REMARK VINA RESULT: -6.873518619      0.000      0.000
REMARK  5 active torsions:
REMARK  status: ('A' for Active; 'I' for Inactive)
REMARK    1  A    between atoms: N1_2  and  C3_4 
REMARK    2  A    between atoms: C3_4  and  C4_5 
REMARK    3  A    between atoms: C4_5  and  C5_6 
REMARK    4  A    between atoms: C5_6  and  N2_7 
REMARK    5  A    between atoms: C6_10  and  C7_11 
ROOT
HETATM    1  N2  UNL     1       4.152 -10.919  27.490  1.00  0.00    -0.266 N 
HETATM    2  N3  UNL     1       3.059 -10.209  27.732  1.00  0.00    -0.284 N 
ATOM      3  H3  UNL     1       2.610 -10.108  28.642  1.00  0.00     0.188 HD
HETATM    4  C6  UNL     1       2.638  -9.645  26.588  1.00  0.00     0.102 A 
HETATM    5  N4  UNL     1       3.468 -10.001  25.615  1.00  0.00    -0.320 N 
ATOM      6  H4  UNL     1       3.411  -9.731  24.632  1.00  0.00     0.169 HD
HETATM    7  C11 UNL     1       4.410 -10.796  26.188  1.00  0.00     0.194 A 
HETATM    8  S1  UNL     1       5.661 -11.483  25.375  1.00  0.00    -0.039 SA
ENDROOT
BRANCH   1   9
HETATM    9  C5  UNL     1       4.931 -11.683  28.419  1.00  0.00     0.153 C 
BRANCH   9  10
HETATM   10  C4  UNL     1       4.285 -13.038  28.718  1.00  0.00     0.052 C 
BRANCH  10  11
HETATM   11  C3  UNL     1       5.239 -13.808  29.557  1.00  0.00     0.273 C 
BRANCH  11  12
HETATM   12  N1  UNL     1       4.704 -14.990  30.155  1.00  0.00     0.080 N 
HETATM   13  C1  UNL     1       3.815 -15.607  29.178  1.00  0.00     0.309 C 
HETATM   14  C2  UNL     1       3.947 -14.760  31.345  1.00  0.00     0.309 C 
ENDBRANCH  11  12
ENDBRANCH  10  11
ENDBRANCH   9  10
ENDBRANCH   1   9
BRANCH   4  15
HETATM   15  C7  UNL     1       1.455  -8.786  26.459  1.00  0.00     0.055 C 
HETATM   16  C8  UNL     1       1.735  -7.392  25.912  1.00  0.00     0.012 C 
HETATM   17  C9  UNL     1       0.707  -6.874  26.916  1.00  0.00     0.002 C 
HETATM   18  C10 UNL     1       1.024  -8.107  27.759  1.00  0.00     0.012 C 
ENDBRANCH   4  15
TORSDOF 5
ENDMDL
MODEL 2
REMARK VINA RESULT: -6.670359594      1.133      1.509
REMARK  5 active torsions:
REMARK  status: ('A' for Active; 'I' for Inactive)
REMARK    1  A    between atoms: N1_2  and  C3_4 
REMARK    2  A    between atoms: C3_4  and  C4_5 
REMARK    3  A    between atoms: C4_5  and  C5_6 
REMARK    4  A    between atoms: C5_6  and  N2_7 
REMARK    5  A    between atoms: C6_10  and  C7_11 
ROOT
HETATM    1  N2  UNL     1       4.074 -10.820  27.357  1.00  0.00    -0.266 N 
HETATM    2  N3  UNL     1       2.959 -10.111  27.470  1.00  0.00    -0.284 N 
ATOM      3  H3  UNL     1       2.441  -9.958  28.336  1.00  0.00     0.188 HD
HETATM    4  C6  UNL     1       2.621  -9.625  26.263  1.00  0.00     0.102 A 
HETATM    5  N4  UNL     1       3.526 -10.030  25.381  1.00  0.00    -0.320 N 
ATOM      6  H4  UNL     1       3.542  -9.823  24.381  1.00  0.00     0.169 HD
HETATM    7  C11 UNL     1       4.429 -10.775  26.073  1.00  0.00     0.194 A 
HETATM    8  S1  UNL     1       5.744 -11.496  25.402  1.00  0.00    -0.039 SA
ENDROOT
BRANCH   1   9
HETATM    9  C5  UNL     1       4.785 -11.513  28.389  1.00  0.00     0.153 C 
BRANCH   9  10
HETATM   10  C4  UNL     1       4.207 -12.910  28.634  1.00  0.00     0.052 C 
BRANCH  10  11
HETATM   11  C3  UNL     1       5.334 -13.791  29.036  1.00  0.00     0.273 C 
BRANCH  11  12
HETATM   12  N1  UNL     1       5.628 -14.853  28.127  1.00  0.00     0.080 N 
HETATM   13  C1  UNL     1       5.709 -16.081  28.906  1.00  0.00     0.309 C 
HETATM   14  C2  UNL     1       6.863 -14.703  27.424  1.00  0.00     0.309 C 
ENDBRANCH  11  12
ENDBRANCH  10  11
ENDBRANCH   9  10
ENDBRANCH   1   9
BRANCH   4  15
HETATM   15  C7  UNL     1       1.445  -8.792  25.992  1.00  0.00     0.055 C 
HETATM   16  C8  UNL     1       1.675  -7.672  24.985  1.00  0.00     0.012 C 
HETATM   17  C9  UNL     1       0.789  -6.798  25.869  1.00  0.00     0.002 C 
HETATM   18  C10 UNL     1       1.190  -7.701  27.032  1.00  0.00     0.012 C 
ENDBRANCH   4  15
TORSDOF 5
ENDMDL
MODEL 3
REMARK VINA RESULT: -6.193252771      0.958      1.196
REMARK  5 active torsions:
REMARK  status: ('A' for Active; 'I' for Inactive)
REMARK    1  A    between atoms: N1_2  and  C3_4 
REMARK    2  A    between atoms: C3_4  and  C4_5 
REMARK    3  A    between atoms: C4_5  and  C5_6 
REMARK    4  A    between atoms: C5_6  and  N2_7 
REMARK    5  A    between atoms: C6_10  and  C7_11 
ROOT
HETATM    1  N2  UNL     1       4.791 -11.610  27.533  1.00  0.00    -0.266 N 
HETATM    2  N3  UNL     1       3.843 -10.750  27.879  1.00  0.00    -0.284 N 
ATOM      3  H3  UNL     1       3.388 -10.707  28.791  1.00  0.00     0.188 HD
HETATM    4  C6  UNL     1       3.578  -9.944  26.837  1.00  0.00     0.102 A 
HETATM    5  N4  UNL     1       4.362 -10.296  25.825  1.00  0.00    -0.320 N 
ATOM      6  H4  UNL     1       4.393  -9.870  24.898  1.00  0.00     0.169 HD
HETATM    7  C11 UNL     1       5.115 -11.338  26.270  1.00  0.00     0.194 A 
HETATM    8  S1  UNL     1       6.243 -12.118  25.365  1.00  0.00    -0.039 SA
ENDROOT
BRANCH   1   9
HETATM    9  C5  UNL     1       5.376 -12.645  28.333  1.00  0.00     0.153 C 
BRANCH   9  10
HETATM   10  C4  UNL     1       4.320 -13.390  29.154  1.00  0.00     0.052 C 
BRANCH  10  11
HETATM   11  C3  UNL     1       5.032 -14.120  30.234  1.00  0.00     0.273 C 
BRANCH  11  12
HETATM   12  N1  UNL     1       4.386 -15.308  30.692  1.00  0.00     0.080 N 
HETATM   13  C1  UNL     1       3.606 -15.835  29.580  1.00  0.00     0.309 C 
HETATM   14  C2  UNL     1       3.495 -15.111  31.792  1.00  0.00     0.309 C 
ENDBRANCH  11  12
ENDBRANCH  10  11
ENDBRANCH   9  10
ENDBRANCH   1   9
BRANCH   4  15
HETATM   15  C7  UNL     1       2.586  -8.864  26.840  1.00  0.00     0.055 C 
HETATM   16  C8  UNL     1       1.891  -8.639  28.177  1.00  0.00     0.012 C 
HETATM   17  C9  UNL     1       0.608  -8.398  27.385  1.00  0.00     0.002 C 
HETATM   18  C10 UNL     1       1.218  -9.262  26.284  1.00  0.00     0.012 C 
ENDBRANCH   4  15
TORSDOF 5
ENDMDL
MODEL 4
REMARK VINA RESULT: -5.844187422      1.405      6.573
REMARK  5 active torsions:
REMARK  status: ('A' for Active; 'I' for Inactive)
REMARK    1  A    between atoms: N1_2  and  C3_4 
REMARK    2  A    between atoms: C3_4  and  C4_5 
REMARK    3  A    between atoms: C4_5  and  C5_6 
REMARK    4  A    between atoms: C5_6  and  N2_7 
REMARK    5  A    between atoms: C6_10  and  C7_11 
ROOT
HETATM    1  N2  UNL     1       4.085 -11.062  27.075  1.00  0.00    -0.266 N 
HETATM    2  N3  UNL     1       3.597 -11.640  28.164  1.00  0.00    -0.284 N 
ATOM      3  H3  UNL     1       2.771 -11.332  28.677  1.00  0.00     0.188 HD
HETATM    4  C6  UNL     1       4.364 -12.697  28.482  1.00  0.00     0.102 A 
HETATM    5  N4  UNL     1       5.343 -12.788  27.590  1.00  0.00    -0.320 N 
ATOM      6  H4  UNL     1       6.086 -13.488  27.565  1.00  0.00     0.169 HD
HETATM    7  C11 UNL     1       5.160 -11.762  26.717  1.00  0.00     0.194 A 
HETATM    8  S1  UNL     1       6.132 -11.460  25.426  1.00  0.00    -0.039 SA
ENDROOT
BRANCH   1   9
HETATM    9  C5  UNL     1       3.582  -9.908  26.391  1.00  0.00     0.153 C 
BRANCH   9  10
HETATM   10  C4  UNL     1       2.056  -9.814  26.485  1.00  0.00     0.052 C 
BRANCH  10  11
HETATM   11  C3  UNL     1       1.697  -8.374  26.421  1.00  0.00     0.273 C 
BRANCH  11  12
HETATM   12  N1  UNL     1       1.898  -7.755  25.150  1.00  0.00     0.080 N 
HETATM   13  C1  UNL     1       2.545  -6.472  25.390  1.00  0.00     0.309 C 
HETATM   14  C2  UNL     1       0.696  -7.504  24.418  1.00  0.00     0.309 C 
ENDBRANCH  11  12
ENDBRANCH  10  11
ENDBRANCH   9  10
ENDBRANCH   1   9
BRANCH   4  15
HETATM   15  C7  UNL     1       4.138 -13.586  29.627  1.00  0.00     0.055 C 
HETATM   16  C8  UNL     1       5.404 -14.048  30.336  1.00  0.00     0.012 C 
HETATM   17  C9  UNL     1       4.734 -15.412  30.482  1.00  0.00     0.002 C 
HETATM   18  C10 UNL     1       3.904 -15.050  29.253  1.00  0.00     0.012 C 
ENDBRANCH   4  15
TORSDOF 5
ENDMDL
MODEL 5
REMARK VINA RESULT: -5.731579442      2.515      7.011
REMARK  5 active torsions:
REMARK  status: ('A' for Active; 'I' for Inactive)
REMARK    1  A    between atoms: N1_2  and  C3_4 
REMARK    2  A    between atoms: C3_4  and  C4_5 
REMARK    3  A    between atoms: C4_5  and  C5_6 
REMARK    4  A    between atoms: C5_6  and  N2_7 
REMARK    5  A    between atoms: C6_10  and  C7_11 
ROOT
HETATM    1  N2  UNL     1       3.188  -9.028  26.669  1.00  0.00    -0.266 N 
HETATM    2  N3  UNL     1       4.041 -10.014  26.432  1.00  0.00    -0.284 N 
ATOM      3  H3  UNL     1       4.695 -10.054  25.651  1.00  0.00     0.188 HD
HETATM    4  C6  UNL     1       3.907 -10.951  27.385  1.00  0.00     0.102 A 
HETATM    5  N4  UNL     1       2.962 -10.557  28.231  1.00  0.00    -0.320 N 
ATOM      6  H4  UNL     1       2.633 -11.056  29.058  1.00  0.00     0.169 HD
HETATM    7  C11 UNL     1       2.519  -9.355  27.775  1.00  0.00     0.194 A 
HETATM    8  S1  UNL     1       1.341  -8.467  28.498  1.00  0.00    -0.039 SA
ENDROOT
BRANCH   1   9
HETATM    9  C5  UNL     1       2.993  -7.829  25.908  1.00  0.00     0.153 C 
BRANCH   9  10
HETATM   10  C4  UNL     1       1.966  -8.031  24.790  1.00  0.00     0.052 C 
BRANCH  10  11
HETATM   11  C3  UNL     1       0.829  -7.114  25.063  1.00  0.00     0.273 C 
BRANCH  11  12
HETATM   12  N1  UNL     1       1.173  -5.908  25.747  1.00  0.00     0.080 N 
HETATM   13  C1  UNL     1       0.062  -5.578  26.630  1.00  0.00     0.309 C 
HETATM   14  C2  UNL     1       1.395  -4.786  24.891  1.00  0.00     0.309 C 
ENDBRANCH  11  12
ENDBRANCH  10  11
ENDBRANCH   9  10
ENDBRANCH   1   9
BRANCH   4  15
HETATM   15  C7  UNL     1       4.683 -12.194  27.459  1.00  0.00     0.055 C 
HETATM   16  C8  UNL     1       4.411 -13.045  28.692  1.00  0.00     0.012 C 
HETATM   17  C9  UNL     1       5.909 -13.339  28.727  1.00  0.00     0.002 C 
HETATM   18  C10 UNL     1       6.107 -12.018  27.988  1.00  0.00     0.012 C 
ENDBRANCH   4  15
TORSDOF 5
ENDMDL
