MODEL 1
REMARK VINA RESULT: -8.016007505      0.000      0.000
REMARK  5 active torsions:
REMARK  status: ('A' for Active; 'I' for Inactive)
REMARK    1  A    between atoms: C2_2  and  C3_3 
REMARK    2  A    between atoms: C2_2  and  C9_9 
REMARK    3  A    between atoms: C3_3  and  C4_4 
REMARK    4  A    between atoms: C9_9  and  C10_11 
REMARK    5  A    between atoms: C10_11  and  C12_13 
ROOT
HETATM    1  C9  UNL     1       2.730  -9.826  27.659  1.00  0.00     0.140 C 
HETATM    2  O1  UNL     1       3.420  -9.152  28.451  1.00  0.00    -0.297 OA
ENDROOT
BRANCH   1   3
HETATM    3  C2  UNL     1       1.360  -9.313  27.494  1.00  0.00     0.052 C 
HETATM    4  C1  UNL     1       0.621  -9.696  26.276  1.00  0.00     0.018 C 
BRANCH   3   5
HETATM    5  C3  UNL     1       1.367  -7.825  27.647  1.00  0.00     0.016 C 
BRANCH   5   6
HETATM    6  C4  UNL     1       1.272  -6.955  26.487  1.00  0.00    -0.014 C 
HETATM    7  C5  UNL     1       0.815  -5.567  26.540  1.00  0.00     0.005 C 
HETATM    8  C6  UNL     1       1.018  -5.126  25.071  1.00  0.00     0.000 C 
HETATM    9  C7  UNL     1       2.278  -5.835  24.635  1.00  0.00     0.000 C 
HETATM   10  C8  UNL     1       2.560  -6.939  25.632  1.00  0.00     0.005 C 
ENDBRANCH   5   6
ENDBRANCH   3   5
ENDBRANCH   1   3
BRANCH   1  11
HETATM   11  C10 UNL     1       3.407 -10.962  27.066  1.00  0.00     0.104 C 
HETATM   12  C11 UNL     1       3.959 -10.473  25.710  1.00  0.00     0.025 C 
BRANCH  11  13
HETATM   13  C12 UNL     1       4.412 -11.683  27.825  1.00  0.00     0.055 A 
HETATM   14  C13 UNL     1       4.218 -12.727  28.690  1.00  0.00     0.136 A 
HETATM   15  N1  UNL     1       5.427 -13.076  29.161  1.00  0.00    -0.296 N 
HETATM   16  N2  UNL     1       6.332 -12.285  28.615  1.00  0.00    -0.243 N 
ATOM     17  H1  UNL     1       5.614 -13.825  29.828  1.00  0.00     0.187 HD
HETATM   18  N3  UNL     1       5.726 -11.451  27.817  1.00  0.00    -0.288 N 
ATOM     19  H2  UNL     1       7.336 -12.319  28.789  1.00  0.00     0.208 HD
ATOM     20  H3  UNL     1       6.189 -10.728  27.266  1.00  0.00     0.188 HD
ENDBRANCH  11  13
ENDBRANCH   1  11
TORSDOF 5
ENDMDL
MODEL 2
REMARK VINA RESULT: -7.594088086      0.730      1.298
REMARK  5 active torsions:
REMARK  status: ('A' for Active; 'I' for Inactive)
REMARK    1  A    between atoms: C2_2  and  C3_3 
REMARK    2  A    between atoms: C2_2  and  C9_9 
REMARK    3  A    between atoms: C3_3  and  C4_4 
REMARK    4  A    between atoms: C9_9  and  C10_11 
REMARK    5  A    between atoms: C10_11  and  C12_13 
ROOT
HETATM    1  C9  UNL     1       3.307 -10.050  27.524  1.00  0.00     0.140 C 
HETATM    2  O1  UNL     1       3.836  -9.560  28.542  1.00  0.00    -0.297 OA
ENDROOT
BRANCH   1   3
HETATM    3  C2  UNL     1       2.228  -9.219  26.967  1.00  0.00     0.052 C 
HETATM    4  C1  UNL     1       1.160  -9.893  26.205  1.00  0.00     0.018 C 
BRANCH   3   5
HETATM    5  C3  UNL     1       2.824  -8.114  26.155  1.00  0.00     0.016 C 
BRANCH   5   6
HETATM    6  C4  UNL     1       2.156  -6.828  26.041  1.00  0.00    -0.014 C 
HETATM    7  C5  UNL     1       1.765  -6.218  24.770  1.00  0.00     0.005 C 
HETATM    8  C6  UNL     1       1.025  -4.950  25.259  1.00  0.00     0.000 C 
HETATM    9  C7  UNL     1       0.309  -5.391  26.514  1.00  0.00     0.000 C 
HETATM   10  C8  UNL     1       0.921  -6.701  26.962  1.00  0.00     0.005 C 
ENDBRANCH   5   6
ENDBRANCH   3   5
ENDBRANCH   1   3
BRANCH   1  11
HETATM   11  C10 UNL     1       3.856 -11.323  27.098  1.00  0.00     0.104 C 
HETATM   12  C11 UNL     1       4.746 -11.017  25.874  1.00  0.00     0.025 C 
BRANCH  11  13
HETATM   13  C12 UNL     1       4.535 -12.175  28.054  1.00  0.00     0.055 A 
HETATM   14  C13 UNL     1       4.007 -13.217  28.770  1.00  0.00     0.136 A 
HETATM   15  N1  UNL     1       4.999 -13.715  29.529  1.00  0.00    -0.296 N 
HETATM   16  N2  UNL     1       6.094 -13.014  29.296  1.00  0.00    -0.243 N 
ATOM     17  H1  UNL     1       4.919 -14.500  30.175  1.00  0.00     0.187 HD
HETATM   18  N3  UNL     1       5.817 -12.094  28.415  1.00  0.00    -0.288 N 
ATOM     19  H2  UNL     1       7.003 -13.168  29.732  1.00  0.00     0.208 HD
ATOM     20  H3  UNL     1       6.484 -11.411  28.055  1.00  0.00     0.188 HD
ENDBRANCH  11  13
ENDBRANCH   1  11
TORSDOF 5
ENDMDL
MODEL 3
REMARK VINA RESULT: -7.547592093      0.944      1.095
REMARK  5 active torsions:
REMARK  status: ('A' for Active; 'I' for Inactive)
REMARK    1  A    between atoms: C2_2  and  C3_3 
REMARK    2  A    between atoms: C2_2  and  C9_9 
REMARK    3  A    between atoms: C3_3  and  C4_4 
REMARK    4  A    between atoms: C9_9  and  C10_11 
REMARK    5  A    between atoms: C10_11  and  C12_13 
ROOT
HETATM    1  C9  UNL     1       3.469  -9.941  26.652  1.00  0.00     0.140 C 
HETATM    2  O1  UNL     1       4.159  -8.932  26.404  1.00  0.00    -0.297 OA
ENDROOT
BRANCH   1   3
HETATM    3  C2  UNL     1       2.117  -9.621  27.138  1.00  0.00     0.052 C 
HETATM    4  C1  UNL     1       0.983  -9.845  26.222  1.00  0.00     0.018 C 
BRANCH   3   5
HETATM    5  C3  UNL     1       2.096  -8.217  27.653  1.00  0.00     0.016 C 
BRANCH   5   6
HETATM    6  C4  UNL     1       1.295  -7.196  27.000  1.00  0.00    -0.014 C 
HETATM    7  C5  UNL     1       0.487  -6.207  27.714  1.00  0.00     0.005 C 
HETATM    8  C6  UNL     1      -0.040  -5.344  26.543  1.00  0.00     0.000 C 
HETATM    9  C7  UNL     1       1.108  -5.299  25.561  1.00  0.00     0.000 C 
HETATM   10  C8  UNL     1       2.080  -6.399  25.932  1.00  0.00     0.005 C 
ENDBRANCH   5   6
ENDBRANCH   3   5
ENDBRANCH   1   3
BRANCH   1  11
HETATM   11  C10 UNL     1       4.127 -11.211  26.413  1.00  0.00     0.104 C 
HETATM   12  C11 UNL     1       5.009 -11.007  25.162  1.00  0.00     0.025 C 
BRANCH  11  13
HETATM   13  C12 UNL     1       4.858 -11.860  27.484  1.00  0.00     0.055 A 
HETATM   14  C13 UNL     1       4.344 -12.537  28.558  1.00  0.00     0.136 A 
HETATM   15  N1  UNL     1       5.387 -12.967  29.288  1.00  0.00    -0.296 N 
HETATM   16  N2  UNL     1       6.501 -12.575  28.695  1.00  0.00    -0.243 N 
ATOM     17  H1  UNL     1       5.329 -13.505  30.153  1.00  0.00     0.187 HD
HETATM   18  N3  UNL     1       6.185 -11.913  27.617  1.00  0.00    -0.288 N 
ATOM     19  H2  UNL     1       7.448 -12.759  29.026  1.00  0.00     0.208 HD
ATOM     20  H3  UNL     1       6.855 -11.497  26.970  1.00  0.00     0.188 HD
ENDBRANCH  11  13
ENDBRANCH   1  11
TORSDOF 5
ENDMDL
MODEL 4
REMARK VINA RESULT: -7.280487665      1.706      2.138
REMARK  5 active torsions:
REMARK  status: ('A' for Active; 'I' for Inactive)
REMARK    1  A    between atoms: C2_2  and  C3_3 
REMARK    2  A    between atoms: C2_2  and  C9_9 
REMARK    3  A    between atoms: C3_3  and  C4_4 
REMARK    4  A    between atoms: C9_9  and  C10_11 
REMARK    5  A    between atoms: C10_11  and  C12_13 
ROOT
HETATM    1  C9  UNL     1       2.742 -10.184  27.176  1.00  0.00     0.140 C 
HETATM    2  O1  UNL     1       2.114 -10.816  26.304  1.00  0.00    -0.297 OA
ENDROOT
BRANCH   1   3
HETATM    3  C2  UNL     1       2.101  -8.914  27.554  1.00  0.00     0.052 C 
HETATM    4  C1  UNL     1       1.594  -8.779  28.932  1.00  0.00     0.018 C 
BRANCH   3   5
HETATM    5  C3  UNL     1       1.020  -8.594  26.571  1.00  0.00     0.016 C 
BRANCH   5   6
HETATM    6  C4  UNL     1       1.045  -7.357  25.811  1.00  0.00    -0.014 C 
HETATM    7  C5  UNL     1       0.914  -6.027  26.406  1.00  0.00     0.005 C 
HETATM    8  C6  UNL     1       1.114  -5.121  25.168  1.00  0.00     0.000 C 
HETATM    9  C7  UNL     1       2.154  -5.838  24.339  1.00  0.00     0.000 C 
HETATM   10  C8  UNL     1       2.247  -7.263  24.842  1.00  0.00     0.005 C 
ENDBRANCH   5   6
ENDBRANCH   3   5
ENDBRANCH   1   3
BRANCH   1  11
HETATM   11  C10 UNL     1       3.960 -10.820  27.640  1.00  0.00     0.104 C 
HETATM   12  C11 UNL     1       3.515 -12.022  28.500  1.00  0.00     0.025 C 
BRANCH  11  13
HETATM   13  C12 UNL     1       4.989 -11.193  26.689  1.00  0.00     0.055 A 
HETATM   14  C13 UNL     1       5.892 -12.218  26.792  1.00  0.00     0.136 A 
HETATM   15  N1  UNL     1       6.650 -12.187  25.682  1.00  0.00    -0.296 N 
HETATM   16  N2  UNL     1       6.238 -11.188  24.924  1.00  0.00    -0.243 N 
ATOM     17  H1  UNL     1       7.414 -12.827  25.463  1.00  0.00     0.187 HD
HETATM   18  N3  UNL     1       5.246 -10.593  25.525  1.00  0.00    -0.288 N 
ATOM     19  H2  UNL     1       6.631 -10.925  24.020  1.00  0.00     0.208 HD
ATOM     20  H3  UNL     1       4.740  -9.787  25.159  1.00  0.00     0.188 HD
ENDBRANCH  11  13
ENDBRANCH   1  11
TORSDOF 5
ENDMDL
MODEL 5
REMARK VINA RESULT: -7.028388224      1.320      1.912
REMARK  5 active torsions:
REMARK  status: ('A' for Active; 'I' for Inactive)
REMARK    1  A    between atoms: C2_2  and  C3_3 
REMARK    2  A    between atoms: C2_2  and  C9_9 
REMARK    3  A    between atoms: C3_3  and  C4_4 
REMARK    4  A    between atoms: C9_9  and  C10_11 
REMARK    5  A    between atoms: C10_11  and  C12_13 
ROOT
HETATM    1  C9  UNL     1       3.720 -10.294  26.541  1.00  0.00     0.140 C 
HETATM    2  O1  UNL     1       4.211 -11.036  25.668  1.00  0.00    -0.297 OA
ENDROOT
BRANCH   1   3
HETATM    3  C2  UNL     1       2.782  -9.296  26.001  1.00  0.00     0.052 C 
HETATM    4  C1  UNL     1       2.459  -9.358  24.564  1.00  0.00     0.018 C 
BRANCH   3   5
HETATM    5  C3  UNL     1       3.255  -7.925  26.365  1.00  0.00     0.016 C 
BRANCH   5   6
HETATM    6  C4  UNL     1       2.376  -6.775  26.238  1.00  0.00    -0.014 C 
HETATM    7  C5  UNL     1       2.107  -6.085  24.977  1.00  0.00     0.005 C 
HETATM    8  C6  UNL     1       1.054  -5.042  25.421  1.00  0.00     0.000 C 
HETATM    9  C7  UNL     1       0.226  -5.762  26.460  1.00  0.00     0.000 C 
HETATM   10  C8  UNL     1       0.995  -6.989  26.899  1.00  0.00     0.005 C 
ENDBRANCH   5   6
ENDBRANCH   3   5
ENDBRANCH   1   3
BRANCH   1  11
HETATM   11  C10 UNL     1       4.164 -10.560  27.896  1.00  0.00     0.104 C 
HETATM   12  C11 UNL     1       2.894 -10.541  28.774  1.00  0.00     0.025 C 
BRANCH  11  13
HETATM   13  C12 UNL     1       4.989 -11.720  28.172  1.00  0.00     0.055 A 
HETATM   14  C13 UNL     1       4.581 -12.949  28.618  1.00  0.00     0.136 A 
HETATM   15  N1  UNL     1       5.683 -13.710  28.733  1.00  0.00    -0.296 N 
HETATM   16  N2  UNL     1       6.729 -12.987  28.376  1.00  0.00    -0.243 N 
ATOM     17  H1  UNL     1       5.708 -14.682  29.044  1.00  0.00     0.187 HD
HETATM   18  N3  UNL     1       6.314 -11.797  28.041  1.00  0.00    -0.288 N 
ATOM     19  H2  UNL     1       7.698 -13.306  28.365  1.00  0.00     0.208 HD
ATOM     20  H3  UNL     1       6.916 -11.037  27.724  1.00  0.00     0.188 HD
ENDBRANCH  11  13
ENDBRANCH   1  11
TORSDOF 5
ENDMDL
