MODEL 1
REMARK VINA RESULT: -7.358260301      0.000      0.000
REMARK  5 active torsions:
REMARK  status: ('A' for Active; 'I' for Inactive)
REMARK    1  A    between atoms: C2_2  and  C3_3 
REMARK    2  A    between atoms: C3_3  and  C4_4 
REMARK    3  A    between atoms: C4_4  and  C5_5 
REMARK    4  A    between atoms: C5_5  and  O1_6 
REMARK    5  A    between atoms: O1_6  and  C6_7 
ROOT
HETATM    1  C6  UNL     1       2.986  -8.453  25.941  1.00  0.00     0.263 C 
HETATM    2  C7  UNL     1       2.000  -8.987  26.989  1.00  0.00     0.066 C 
HETATM    3  C8  UNL     1       2.527 -10.409  27.129  1.00  0.00     0.076 C 
HETATM    4  C9  UNL     1       4.004 -10.195  26.837  1.00  0.00     0.192 C 
HETATM    5  C10 UNL     1       4.479 -11.003  25.659  1.00  0.00     0.240 C 
HETATM    6  O2  UNL     1       5.107 -12.084  26.263  1.00  0.00    -0.350 OA
HETATM    7  C11 UNL     1       5.018 -11.948  27.625  1.00  0.00     0.160 C 
HETATM    8  C12 UNL     1       6.354 -12.294  28.289  1.00  0.00     0.078 C 
HETATM    9  C13 UNL     1       3.995 -12.882  28.243  1.00  0.00     0.078 C 
HETATM   10  O3  UNL     1       4.768 -10.620  27.929  1.00  0.00    -0.318 OA
HETATM   11  O4  UNL     1       4.180  -8.847  26.587  1.00  0.00    -0.323 OA
ENDROOT
BRANCH   1  12
HETATM   12  O1  UNL     1       2.962  -7.123  25.822  1.00  0.00    -0.361 OA
BRANCH  12  13
HETATM   13  C5  UNL     1       2.350  -6.444  24.860  1.00  0.00     0.171 C 
BRANCH  13  14
HETATM   14  C4  UNL     1       1.344  -5.392  25.169  1.00  0.00     0.026 C 
BRANCH  14  15
HETATM   15  C3  UNL     1       0.209  -5.788  26.056  1.00  0.00     0.002 C 
BRANCH  15  16
HETATM   16  C2  UNL     1       0.333  -5.107  27.426  1.00  0.00    -0.004 C 
HETATM   17  C1  UNL     1       0.223  -6.116  28.539  1.00  0.00     0.005 C 
ENDBRANCH  15  16
ENDBRANCH  14  15
ENDBRANCH  13  14
ENDBRANCH  12  13
ENDBRANCH   1  12
TORSDOF 5
ENDMDL
MODEL 2
REMARK VINA RESULT: -6.960775125      1.648      6.609
REMARK  5 active torsions:
REMARK  status: ('A' for Active; 'I' for Inactive)
REMARK    1  A    between atoms: C2_2  and  C3_3 
REMARK    2  A    between atoms: C3_3  and  C4_4 
REMARK    3  A    between atoms: C4_4  and  C5_5 
REMARK    4  A    between atoms: C5_5  and  O1_6 
REMARK    5  A    between atoms: O1_6  and  C6_7 
ROOT
HETATM    1  C6  UNL     1       3.405 -10.494  27.476  1.00  0.00     0.263 C 
HETATM    2  C7  UNL     1       3.876 -10.378  26.020  1.00  0.00     0.066 C 
HETATM    3  C8  UNL     1       2.792  -9.456  25.477  1.00  0.00     0.076 C 
HETATM    4  C9  UNL     1       2.458  -8.648  26.723  1.00  0.00     0.192 C 
HETATM    5  C10 UNL     1       1.011  -8.777  27.117  1.00  0.00     0.240 C 
HETATM    6  O2  UNL     1       0.454  -7.604  26.624  1.00  0.00    -0.350 OA
HETATM    7  C11 UNL     1       1.435  -6.868  26.009  1.00  0.00     0.160 C 
HETATM    8  C12 UNL     1       1.316  -5.389  26.388  1.00  0.00     0.078 C 
HETATM    9  C13 UNL     1       1.344  -6.916  24.496  1.00  0.00     0.078 C 
HETATM   10  O3  UNL     1       2.671  -7.288  26.475  1.00  0.00    -0.318 OA
HETATM   11  O4  UNL     1       3.268  -9.112  27.741  1.00  0.00    -0.323 OA
ENDROOT
BRANCH   1  12
HETATM   12  O1  UNL     1       4.327 -11.015  28.290  1.00  0.00    -0.361 OA
BRANCH  12  13
HETATM   13  C5  UNL     1       5.350 -11.772  27.915  1.00  0.00     0.171 C 
BRANCH  13  14
HETATM   14  C4  UNL     1       5.607 -13.098  28.538  1.00  0.00     0.026 C 
BRANCH  14  15
HETATM   15  C3  UNL     1       4.476 -13.716  29.293  1.00  0.00     0.002 C 
BRANCH  15  16
HETATM   16  C2  UNL     1       4.990 -14.406  30.564  1.00  0.00    -0.004 C 
HETATM   17  C1  UNL     1       3.844 -14.804  31.458  1.00  0.00     0.005 C 
ENDBRANCH  15  16
ENDBRANCH  14  15
ENDBRANCH  13  14
ENDBRANCH  12  13
ENDBRANCH   1  12
TORSDOF 5
ENDMDL
MODEL 3
REMARK VINA RESULT: -6.923431972      1.392      6.393
REMARK  5 active torsions:
REMARK  status: ('A' for Active; 'I' for Inactive)
REMARK    1  A    between atoms: C2_2  and  C3_3 
REMARK    2  A    between atoms: C3_3  and  C4_4 
REMARK    3  A    between atoms: C4_4  and  C5_5 
REMARK    4  A    between atoms: C5_5  and  O1_6 
REMARK    5  A    between atoms: O1_6  and  C6_7 
ROOT
HETATM    1  C6  UNL     1       4.062 -10.447  26.793  1.00  0.00     0.263 C 
HETATM    2  C7  UNL     1       2.955 -10.588  27.847  1.00  0.00     0.066 C 
HETATM    3  C8  UNL     1       2.401  -9.169  27.823  1.00  0.00     0.076 C 
HETATM    4  C9  UNL     1       2.669  -8.785  26.375  1.00  0.00     0.192 C 
HETATM    5  C10 UNL     1       3.553  -7.572  26.259  1.00  0.00     0.240 C 
HETATM    6  O2  UNL     1       2.643  -6.555  26.001  1.00  0.00    -0.350 OA
HETATM    7  C11 UNL     1       1.377  -7.085  25.971  1.00  0.00     0.160 C 
HETATM    8  C12 UNL     1       0.580  -6.508  24.798  1.00  0.00     0.078 C 
HETATM    9  C13 UNL     1       0.575  -6.759  27.217  1.00  0.00     0.078 C 
HETATM   10  O3  UNL     1       1.466  -8.449  25.745  1.00  0.00    -0.318 OA
HETATM   11  O4  UNL     1       3.274  -9.870  25.770  1.00  0.00    -0.323 OA
ENDROOT
BRANCH   1  12
HETATM   12  O1  UNL     1       4.546 -11.619  26.375  1.00  0.00    -0.361 OA
BRANCH  12  13
HETATM   13  C5  UNL     1       5.789 -12.049  26.552  1.00  0.00     0.171 C 
BRANCH  13  14
HETATM   14  C4  UNL     1       6.267 -12.525  27.878  1.00  0.00     0.026 C 
BRANCH  14  15
HETATM   15  C3  UNL     1       5.692 -13.811  28.377  1.00  0.00     0.002 C 
BRANCH  15  16
HETATM   16  C2  UNL     1       4.565 -13.543  29.384  1.00  0.00    -0.004 C 
HETATM   17  C1  UNL     1       4.766 -14.348  30.641  1.00  0.00     0.005 C 
ENDBRANCH  15  16
ENDBRANCH  14  15
ENDBRANCH  13  14
ENDBRANCH  12  13
ENDBRANCH   1  12
TORSDOF 5
ENDMDL
MODEL 4
REMARK VINA RESULT: -6.689185193      1.179      6.291
REMARK  5 active torsions:
REMARK  status: ('A' for Active; 'I' for Inactive)
REMARK    1  A    between atoms: C2_2  and  C3_3 
REMARK    2  A    between atoms: C3_3  and  C4_4 
REMARK    3  A    between atoms: C4_4  and  C5_5 
REMARK    4  A    between atoms: C5_5  and  O1_6 
REMARK    5  A    between atoms: O1_6  and  C6_7 
ROOT
HETATM    1  C6  UNL     1       3.722 -10.076  26.440  1.00  0.00     0.263 C 
HETATM    2  C7  UNL     1       2.559 -10.278  27.421  1.00  0.00     0.066 C 
HETATM    3  C8  UNL     1       2.098  -8.833  27.566  1.00  0.00     0.076 C 
HETATM    4  C9  UNL     1       2.459  -8.282  26.194  1.00  0.00     0.192 C 
HETATM    5  C10 UNL     1       3.422  -7.128  26.277  1.00  0.00     0.240 C 
HETATM    6  O2  UNL     1       2.592  -6.026  26.122  1.00  0.00    -0.350 OA
HETATM    7  C11 UNL     1       1.298  -6.458  25.972  1.00  0.00     0.160 C 
HETATM    8  C12 UNL     1       0.597  -5.679  24.856  1.00  0.00     0.078 C 
HETATM    9  C13 UNL     1       0.459  -6.244  27.217  1.00  0.00     0.078 C 
HETATM   10  O3  UNL     1       1.312  -7.784  25.568  1.00  0.00    -0.318 OA
HETATM   11  O4  UNL     1       3.023  -9.317  25.473  1.00  0.00    -0.323 OA
ENDROOT
BRANCH   1  12
HETATM   12  O1  UNL     1       4.151 -11.214  25.888  1.00  0.00    -0.361 OA
BRANCH  12  13
HETATM   13  C5  UNL     1       5.403 -11.480  25.538  1.00  0.00     0.171 C 
BRANCH  13  14
HETATM   14  C4  UNL     1       6.244 -12.428  26.318  1.00  0.00     0.026 C 
BRANCH  14  15
HETATM   15  C3  UNL     1       6.288 -12.226  27.798  1.00  0.00     0.002 C 
BRANCH  15  16
HETATM   16  C2  UNL     1       5.727 -13.454  28.527  1.00  0.00    -0.004 C 
HETATM   17  C1  UNL     1       4.291 -13.231  28.927  1.00  0.00     0.005 C 
ENDBRANCH  15  16
ENDBRANCH  14  15
ENDBRANCH  13  14
ENDBRANCH  12  13
ENDBRANCH   1  12
TORSDOF 5
ENDMDL
MODEL 5
REMARK VINA RESULT: -6.682095057      1.671      6.657
REMARK  5 active torsions:
REMARK  status: ('A' for Active; 'I' for Inactive)
REMARK    1  A    between atoms: C2_2  and  C3_3 
REMARK    2  A    between atoms: C3_3  and  C4_4 
REMARK    3  A    between atoms: C4_4  and  C5_5 
REMARK    4  A    between atoms: C5_5  and  O1_6 
REMARK    5  A    between atoms: O1_6  and  C6_7 
ROOT
HETATM    1  C6  UNL     1       3.801 -10.301  27.265  1.00  0.00     0.263 C 
HETATM    2  C7  UNL     1       2.604 -10.185  28.219  1.00  0.00     0.066 C 
HETATM    3  C8  UNL     1       2.146  -8.773  27.877  1.00  0.00     0.076 C 
HETATM    4  C9  UNL     1       2.556  -8.688  26.415  1.00  0.00     0.192 C 
HETATM    5  C10 UNL     1       3.521  -7.563  26.155  1.00  0.00     0.240 C 
HETATM    6  O2  UNL     1       2.702  -6.573  25.627  1.00  0.00    -0.350 OA
HETATM    7  C11 UNL     1       1.413  -7.039  25.579  1.00  0.00     0.160 C 
HETATM    8  C12 UNL     1       0.753  -6.663  24.249  1.00  0.00     0.078 C 
HETATM    9  C13 UNL     1       0.532  -6.442  26.661  1.00  0.00     0.078 C 
HETATM   10  O3  UNL     1       1.433  -8.424  25.623  1.00  0.00    -0.318 OA
HETATM   11  O4  UNL     1       3.139  -9.896  26.083  1.00  0.00    -0.323 OA
ENDROOT
BRANCH   1  12
HETATM   12  O1  UNL     1       4.243 -11.553  27.122  1.00  0.00    -0.361 OA
BRANCH  12  13
HETATM   13  C5  UNL     1       4.938 -12.235  28.023  1.00  0.00     0.171 C 
BRANCH  13  14
HETATM   14  C4  UNL     1       4.307 -13.295  28.854  1.00  0.00     0.026 C 
BRANCH  14  15
HETATM   15  C3  UNL     1       5.148 -13.890  29.937  1.00  0.00     0.002 C 
BRANCH  15  16
HETATM   16  C2  UNL     1       4.265 -14.560  30.998  1.00  0.00    -0.004 C 
HETATM   17  C1  UNL     1       3.467 -15.688  30.398  1.00  0.00     0.005 C 
ENDBRANCH  15  16
ENDBRANCH  14  15
ENDBRANCH  13  14
ENDBRANCH  12  13
ENDBRANCH   1  12
TORSDOF 5
ENDMDL
