MODEL 1
REMARK VINA RESULT: -7.208906462      0.000      0.000
REMARK  5 active torsions:
REMARK  status: ('A' for Active; 'I' for Inactive)
REMARK       I    between atoms: C2_2  and  N1_4 
REMARK    1  A    between atoms: N1_4  and  C3_6 
REMARK    2  A    between atoms: C3_6  and  C5_9 
REMARK    3  A    between atoms: C5_9  and  S1_10 
REMARK    4  A    between atoms: S1_10  and  S2_11 
REMARK    5  A    between atoms: S2_11  and  C6_12 
ROOT
HETATM    1  C3  UNL     1       4.386 -11.949  27.544  1.00  0.00     0.202 C 
HETATM    2  C4  UNL     1       5.546 -11.718  26.650  1.00  0.00     0.085 C 
HETATM    3  N2  UNL     1       6.448 -11.551  25.943  1.00  0.00    -0.195 NA
ENDROOT
BRANCH   1   4
HETATM    4  N1  UNL     1       4.929 -12.499  28.763  1.00  0.00    -0.344 N 
HETATM    5  C2  UNL     1       4.507 -13.776  29.193  1.00  0.00     0.214 C 
HETATM    6  C1  UNL     1       5.049 -14.363  30.440  1.00  0.00     0.117 C 
HETATM    7  O1  UNL     1       3.675 -14.406  28.516  1.00  0.00    -0.274 OA
ATOM      8  H1  UNL     1       5.611 -11.972  29.308  1.00  0.00     0.163 HD
ENDBRANCH   1   4
BRANCH   1   9
HETATM    9  C5  UNL     1       3.743 -10.601  27.786  1.00  0.00     0.126 C 
BRANCH   9  10
HETATM   10  S1  UNL     1       3.215  -9.822  26.248  1.00  0.00    -0.094 SA
BRANCH  10  11
HETATM   11  S2  UNL     1       1.189  -9.229  26.516  1.00  0.00    -0.093 SA
BRANCH  11  12
HETATM   12  C6  UNL     1       0.923  -7.706  25.624  1.00  0.00     0.058 C 
HETATM   13  C7  UNL     1       0.770  -6.503  26.497  1.00  0.00     0.016 C 
HETATM   14  C8  UNL     1       1.070  -5.368  25.530  1.00  0.00     0.001 C 
HETATM   15  C9  UNL     1       2.088  -5.922  24.556  1.00  0.00     0.001 C 
HETATM   16  C10 UNL     1       2.218  -7.378  24.868  1.00  0.00     0.016 C 
ENDBRANCH  11  12
ENDBRANCH  10  11
ENDBRANCH   9  10
ENDBRANCH   1   9
TORSDOF 5
ENDMDL
MODEL 2
REMARK VINA RESULT: -7.142574533      0.560      1.154
REMARK  5 active torsions:
REMARK  status: ('A' for Active; 'I' for Inactive)
REMARK       I    between atoms: C2_2  and  N1_4 
REMARK    1  A    between atoms: N1_4  and  C3_6 
REMARK    2  A    between atoms: C3_6  and  C5_9 
REMARK    3  A    between atoms: C5_9  and  S1_10 
REMARK    4  A    between atoms: S1_10  and  S2_11 
REMARK    5  A    between atoms: S2_11  and  C6_12 
ROOT
HETATM    1  C3  UNL     1       4.447 -12.071  27.546  1.00  0.00     0.202 C 
HETATM    2  C4  UNL     1       5.648 -11.811  26.717  1.00  0.00     0.085 C 
HETATM    3  N2  UNL     1       6.583 -11.623  26.061  1.00  0.00    -0.195 NA
ENDROOT
BRANCH   1   4
HETATM    4  N1  UNL     1       4.938 -12.567  28.810  1.00  0.00    -0.344 N 
HETATM    5  C2  UNL     1       4.514 -13.834  29.267  1.00  0.00     0.214 C 
HETATM    6  C1  UNL     1       5.003 -14.366  30.560  1.00  0.00     0.117 C 
HETATM    7  O1  UNL     1       3.725 -14.502  28.574  1.00  0.00    -0.274 OA
ATOM      8  H1  UNL     1       5.584 -12.008  29.367  1.00  0.00     0.163 HD
ENDBRANCH   1   4
BRANCH   1   9
HETATM    9  C5  UNL     1       3.734 -10.746  27.713  1.00  0.00     0.126 C 
BRANCH   9  10
HETATM   10  S1  UNL     1       3.268 -10.030  26.126  1.00  0.00    -0.094 SA
BRANCH  10  11
HETATM   11  S2  UNL     1       1.404  -9.044  26.414  1.00  0.00    -0.093 SA
BRANCH  11  12
HETATM   12  C6  UNL     1       1.670  -7.283  26.287  1.00  0.00     0.058 C 
HETATM   13  C7  UNL     1       1.376  -6.714  24.937  1.00  0.00     0.016 C 
HETATM   14  C8  UNL     1       1.190  -5.238  25.247  1.00  0.00     0.001 C 
HETATM   15  C9  UNL     1       0.591  -5.186  26.637  1.00  0.00     0.001 C 
HETATM   16  C10 UNL     1       0.609  -6.590  27.152  1.00  0.00     0.016 C 
ENDBRANCH  11  12
ENDBRANCH  10  11
ENDBRANCH   9  10
ENDBRANCH   1   9
TORSDOF 5
ENDMDL
MODEL 3
REMARK VINA RESULT: -6.725739983      1.239      1.302
REMARK  5 active torsions:
REMARK  status: ('A' for Active; 'I' for Inactive)
REMARK       I    between atoms: C2_2  and  N1_4 
REMARK    1  A    between atoms: N1_4  and  C3_6 
REMARK    2  A    between atoms: C3_6  and  C5_9 
REMARK    3  A    between atoms: C5_9  and  S1_10 
REMARK    4  A    between atoms: S1_10  and  S2_11 
REMARK    5  A    between atoms: S2_11  and  C6_12 
ROOT
HETATM    1  C3  UNL     1       4.612 -12.703  28.140  1.00  0.00     0.202 C 
HETATM    2  C4  UNL     1       5.985 -12.185  27.931  1.00  0.00     0.085 C 
HETATM    3  N2  UNL     1       7.060 -11.792  27.757  1.00  0.00    -0.195 NA
ENDROOT
BRANCH   1   4
HETATM    4  N1  UNL     1       4.632 -13.372  29.420  1.00  0.00    -0.344 N 
HETATM    5  C2  UNL     1       4.067 -14.661  29.535  1.00  0.00     0.214 C 
HETATM    6  C1  UNL     1       4.075 -15.368  30.836  1.00  0.00     0.117 C 
HETATM    7  O1  UNL     1       3.563 -15.200  28.533  1.00  0.00    -0.274 OA
ATOM      8  H1  UNL     1       5.049 -12.917  30.232  1.00  0.00     0.163 HD
ENDBRANCH   1   4
BRANCH   1   9
HETATM    9  C5  UNL     1       3.688 -11.505  28.157  1.00  0.00     0.126 C 
BRANCH   9  10
HETATM   10  S1  UNL     1       3.695 -10.628  26.582  1.00  0.00    -0.094 SA
BRANCH  10  11
HETATM   11  S2  UNL     1       1.890  -9.505  26.489  1.00  0.00    -0.093 SA
BRANCH  11  12
HETATM   12  C6  UNL     1       2.061  -8.264  25.218  1.00  0.00     0.058 C 
HETATM   13  C7  UNL     1       0.765  -7.702  24.730  1.00  0.00     0.016 C 
HETATM   14  C8  UNL     1       1.205  -6.395  24.092  1.00  0.00     0.001 C 
HETATM   15  C9  UNL     1       2.393  -5.924  24.904  1.00  0.00     0.001 C 
HETATM   16  C10 UNL     1       2.712  -7.030  25.858  1.00  0.00     0.016 C 
ENDBRANCH  11  12
ENDBRANCH  10  11
ENDBRANCH   9  10
ENDBRANCH   1   9
TORSDOF 5
ENDMDL
MODEL 4
REMARK VINA RESULT: -6.373612539      1.538      2.026
REMARK  5 active torsions:
REMARK  status: ('A' for Active; 'I' for Inactive)
REMARK       I    between atoms: C2_2  and  N1_4 
REMARK    1  A    between atoms: N1_4  and  C3_6 
REMARK    2  A    between atoms: C3_6  and  C5_9 
REMARK    3  A    between atoms: C5_9  and  S1_10 
REMARK    4  A    between atoms: S1_10  and  S2_11 
REMARK    5  A    between atoms: S2_11  and  C6_12 
ROOT
HETATM    1  C3  UNL     1       5.110 -13.108  28.167  1.00  0.00     0.202 C 
HETATM    2  C4  UNL     1       6.443 -13.635  27.788  1.00  0.00     0.085 C 
HETATM    3  N2  UNL     1       7.476 -14.059  27.484  1.00  0.00    -0.195 NA
ENDROOT
BRANCH   1   4
HETATM    4  N1  UNL     1       4.954 -13.400  29.573  1.00  0.00    -0.344 N 
HETATM    5  C2  UNL     1       4.145 -14.489  29.967  1.00  0.00     0.214 C 
HETATM    6  C1  UNL     1       3.970 -14.810  31.401  1.00  0.00     0.117 C 
HETATM    7  O1  UNL     1       3.581 -15.178  29.098  1.00  0.00    -0.274 OA
ATOM      8  H1  UNL     1       5.423 -12.827  30.273  1.00  0.00     0.163 HD
ENDBRANCH   1   4
BRANCH   1   9
HETATM    9  C5  UNL     1       5.139 -11.616  27.914  1.00  0.00     0.126 C 
BRANCH   9  10
HETATM   10  S1  UNL     1       3.481 -10.915  27.833  1.00  0.00    -0.094 SA
BRANCH  10  11
HETATM   11  S2  UNL     1       3.361  -9.813  26.017  1.00  0.00    -0.093 SA
BRANCH  11  12
HETATM   12  C6  UNL     1       2.754  -8.176  26.387  1.00  0.00     0.058 C 
HETATM   13  C7  UNL     1       2.322  -7.396  25.188  1.00  0.00     0.016 C 
HETATM   14  C8  UNL     1       1.425  -6.335  25.806  1.00  0.00     0.001 C 
HETATM   15  C9  UNL     1       0.776  -6.996  27.003  1.00  0.00     0.001 C 
HETATM   16  C10 UNL     1       1.430  -8.332  27.148  1.00  0.00     0.016 C 
ENDBRANCH  11  12
ENDBRANCH  10  11
ENDBRANCH   9  10
ENDBRANCH   1   9
TORSDOF 5
ENDMDL
MODEL 5
REMARK VINA RESULT: -6.307384761      1.676      2.761
REMARK  5 active torsions:
REMARK  status: ('A' for Active; 'I' for Inactive)
REMARK       I    between atoms: C2_2  and  N1_4 
REMARK    1  A    between atoms: N1_4  and  C3_6 
REMARK    2  A    between atoms: C3_6  and  C5_9 
REMARK    3  A    between atoms: C5_9  and  S1_10 
REMARK    4  A    between atoms: S1_10  and  S2_11 
REMARK    5  A    between atoms: S2_11  and  C6_12 
ROOT
HETATM    1  C3  UNL     1       4.327 -11.257  28.065  1.00  0.00     0.202 C 
HETATM    2  C4  UNL     1       4.071 -12.686  28.366  1.00  0.00     0.085 C 
HETATM    3  N2  UNL     1       3.887 -13.803  28.608  1.00  0.00    -0.195 NA
ENDROOT
BRANCH   1   4
HETATM    4  N1  UNL     1       4.652 -11.200  26.659  1.00  0.00    -0.344 N 
HETATM    5  C2  UNL     1       5.968 -11.496  26.241  1.00  0.00     0.214 C 
HETATM    6  C1  UNL     1       6.326 -11.445  24.805  1.00  0.00     0.117 C 
HETATM    7  O1  UNL     1       6.825 -11.800  27.089  1.00  0.00    -0.274 OA
ATOM      8  H1  UNL     1       3.938 -10.950  25.975  1.00  0.00     0.163 HD
ENDBRANCH   1   4
BRANCH   1   9
HETATM    9  C5  UNL     1       3.046 -10.510  28.366  1.00  0.00     0.126 C 
BRANCH   9  10
HETATM   10  S1  UNL     1       2.293  -9.837  26.873  1.00  0.00    -0.094 SA
BRANCH  10  11
HETATM   11  S2  UNL     1       1.052  -8.218  27.478  1.00  0.00    -0.093 SA
BRANCH  11  12
HETATM   12  C6  UNL     1       0.871  -7.098  26.101  1.00  0.00     0.058 C 
HETATM   13  C7  UNL     1       0.933  -5.652  26.473  1.00  0.00     0.016 C 
HETATM   14  C8  UNL     1       1.263  -4.994  25.143  1.00  0.00     0.001 C 
HETATM   15  C9  UNL     1       2.120  -5.994  24.396  1.00  0.00     0.001 C 
HETATM   16  C10 UNL     1       2.118  -7.243  25.217  1.00  0.00     0.016 C 
ENDBRANCH  11  12
ENDBRANCH  10  11
ENDBRANCH   9  10
ENDBRANCH   1   9
TORSDOF 5
ENDMDL
