MODEL 1
REMARK VINA RESULT: -6.493014984      0.000      0.000
REMARK  6 active torsions:
REMARK  status: ('A' for Active; 'I' for Inactive)
REMARK    1  A    between atoms: C2_2  and  C4_4 
REMARK    2  A    between atoms: C4_4  and  C5_5 
REMARK    3  A    between atoms: C5_5  and  O1_6 
REMARK    4  A    between atoms: C5_5  and  C6_8 
REMARK    5  A    between atoms: C6_8  and  C8_10 
REMARK    6  A    between atoms: C12_16  and  C13_17 
ROOT
HETATM    1  C8  UNL     1       4.014 -11.372  27.200  1.00  0.00     0.167 C 
HETATM    2  O2  UNL     1       4.535 -11.580  25.928  1.00  0.00    -0.347 OA
HETATM    3  C9  UNL     1       5.867 -11.869  26.019  1.00  0.00     0.158 C 
HETATM    4  C10 UNL     1       6.184 -13.319  25.715  1.00  0.00     0.078 C 
HETATM    5  C11 UNL     1       6.584 -11.054  24.951  1.00  0.00     0.078 C 
HETATM    6  O3  UNL     1       6.308 -11.555  27.290  1.00  0.00    -0.341 OA
HETATM    7  C12 UNL     1       5.174 -11.698  28.095  1.00  0.00     0.215 C 
ENDROOT
BRANCH   1   8
HETATM    8  C6  UNL     1       3.625  -9.920  27.418  1.00  0.00     0.042 C 
HETATM    9  C7  UNL     1       2.618  -9.862  28.487  1.00  0.00     0.015 C 
BRANCH   8  10
HETATM   10  C5  UNL     1       3.308  -9.244  26.106  1.00  0.00     0.124 C 
BRANCH  10  11
HETATM   11  C4  UNL     1       2.927  -7.820  26.166  1.00  0.00     0.036 C 
BRANCH  11  12
HETATM   12  C2  UNL     1       1.664  -7.359  25.564  1.00  0.00    -0.020 C 
HETATM   13  C1  UNL     1       0.805  -6.546  26.547  1.00  0.00     0.009 C 
HETATM   14  C3  UNL     1       2.045  -6.308  24.496  1.00  0.00     0.009 C 
ENDBRANCH  11  12
ENDBRANCH  10  11
BRANCH  10  15
HETATM   15  O1  UNL     1       2.178  -9.973  25.585  1.00  0.00    -0.395 OA
ATOM     16  H1  UNL     1       1.491  -9.939  26.241  1.00  0.00     0.210 HD
ENDBRANCH  10  15
ENDBRANCH   8  10
ENDBRANCH   1   8
BRANCH   7  17
HETATM   17  C13 UNL     1       5.032 -13.100  28.580  1.00  0.00     0.265 C 
HETATM   18  O4  UNL     1       3.981 -13.696  28.462  1.00  0.00    -0.304 OA
ENDBRANCH   7  17
TORSDOF 6
ENDMDL
MODEL 2
REMARK VINA RESULT: -6.122769678      1.631      3.097
REMARK  6 active torsions:
REMARK  status: ('A' for Active; 'I' for Inactive)
REMARK    1  A    between atoms: C2_2  and  C4_4 
REMARK    2  A    between atoms: C4_4  and  C5_5 
REMARK    3  A    between atoms: C5_5  and  O1_6 
REMARK    4  A    between atoms: C5_5  and  C6_8 
REMARK    5  A    between atoms: C6_8  and  C8_10 
REMARK    6  A    between atoms: C12_16  and  C13_17 
ROOT
HETATM    1  C8  UNL     1       4.542 -11.655  28.133  1.00  0.00     0.167 C 
HETATM    2  O2  UNL     1       3.915 -12.504  29.037  1.00  0.00    -0.347 OA
HETATM    3  C9  UNL     1       4.413 -13.769  28.900  1.00  0.00     0.158 C 
HETATM    4  C10 UNL     1       5.294 -14.190  30.059  1.00  0.00     0.078 C 
HETATM    5  C11 UNL     1       3.231 -14.728  28.908  1.00  0.00     0.078 C 
HETATM    6  O3  UNL     1       5.130 -13.843  27.722  1.00  0.00    -0.341 OA
HETATM    7  C12 UNL     1       5.583 -12.537  27.510  1.00  0.00     0.215 C 
ENDROOT
BRANCH   1   8
HETATM    8  C6  UNL     1       3.588 -11.187  27.047  1.00  0.00     0.042 C 
HETATM    9  C7  UNL     1       4.378 -10.762  25.883  1.00  0.00     0.015 C 
BRANCH   8  10
HETATM   10  C5  UNL     1       2.567 -10.225  27.603  1.00  0.00     0.124 C 
BRANCH  10  11
HETATM   11  C4  UNL     1       1.808  -9.421  26.626  1.00  0.00     0.036 C 
BRANCH  11  12
HETATM   12  C2  UNL     1       2.110  -7.992  26.439  1.00  0.00    -0.020 C 
HETATM   13  C1  UNL     1       2.164  -7.590  24.955  1.00  0.00     0.009 C 
HETATM   14  C3  UNL     1       0.882  -7.211  26.959  1.00  0.00     0.009 C 
ENDBRANCH  11  12
ENDBRANCH  10  11
BRANCH  10  15
HETATM   15  O1  UNL     1       3.333  -9.310  28.413  1.00  0.00    -0.395 OA
ATOM     16  H1  UNL     1       3.205  -9.559  29.322  1.00  0.00     0.210 HD
ENDBRANCH  10  15
ENDBRANCH   8  10
ENDBRANCH   1   8
BRANCH   7  17
HETATM   17  C13 UNL     1       6.887 -12.303  28.191  1.00  0.00     0.265 C 
HETATM   18  O4  UNL     1       7.591 -11.363  27.882  1.00  0.00    -0.304 OA
ENDBRANCH   7  17
TORSDOF 6
ENDMDL
MODEL 3
REMARK VINA RESULT: -6.056095302      1.573      2.842
REMARK  6 active torsions:
REMARK  status: ('A' for Active; 'I' for Inactive)
REMARK    1  A    between atoms: C2_2  and  C4_4 
REMARK    2  A    between atoms: C4_4  and  C5_5 
REMARK    3  A    between atoms: C5_5  and  O1_6 
REMARK    4  A    between atoms: C5_5  and  C6_8 
REMARK    5  A    between atoms: C6_8  and  C8_10 
REMARK    6  A    between atoms: C12_16  and  C13_17 
ROOT
HETATM    1  C8  UNL     1       3.991  -9.904  27.036  1.00  0.00     0.167 C 
HETATM    2  O2  UNL     1       4.538 -10.487  28.173  1.00  0.00    -0.347 OA
HETATM    3  C9  UNL     1       4.650 -11.836  27.989  1.00  0.00     0.158 C 
HETATM    4  C10 UNL     1       6.083 -12.296  27.814  1.00  0.00     0.078 C 
HETATM    5  C11 UNL     1       4.149 -12.512  29.257  1.00  0.00     0.078 C 
HETATM    6  O3  UNL     1       3.908 -12.200  26.882  1.00  0.00    -0.341 OA
HETATM    7  C12 UNL     1       3.900 -11.056  26.079  1.00  0.00     0.215 C 
ENDROOT
BRANCH   1   8
HETATM    8  C6  UNL     1       2.591  -9.374  27.294  1.00  0.00     0.042 C 
HETATM    9  C7  UNL     1       1.650 -10.107  26.435  1.00  0.00     0.015 C 
BRANCH   8  10
HETATM   10  C5  UNL     1       2.567  -7.866  27.249  1.00  0.00     0.124 C 
BRANCH  10  11
HETATM   11  C4  UNL     1       1.364  -7.236  26.674  1.00  0.00     0.036 C 
BRANCH  11  12
HETATM   12  C2  UNL     1       1.330  -5.786  26.416  1.00  0.00    -0.020 C 
HETATM   13  C1  UNL     1       1.304  -5.456  24.913  1.00  0.00     0.009 C 
HETATM   14  C3  UNL     1      -0.050  -5.286  26.899  1.00  0.00     0.009 C 
ENDBRANCH  11  12
ENDBRANCH  10  11
BRANCH  10  15
HETATM   15  O1  UNL     1       3.684  -7.509  26.410  1.00  0.00    -0.395 OA
ATOM     16  H1  UNL     1       3.766  -8.182  25.743  1.00  0.00     0.210 HD
ENDBRANCH  10  15
ENDBRANCH   8  10
ENDBRANCH   1   8
BRANCH   7  17
HETATM   17  C13 UNL     1       5.083 -11.026  25.173  1.00  0.00     0.265 C 
HETATM   18  O4  UNL     1       5.233 -11.874  24.316  1.00  0.00    -0.304 OA
ENDBRANCH   7  17
TORSDOF 6
ENDMDL
MODEL 4
REMARK VINA RESULT: -5.668341936      2.219      6.315
REMARK  6 active torsions:
REMARK  status: ('A' for Active; 'I' for Inactive)
REMARK    1  A    between atoms: C2_2  and  C4_4 
REMARK    2  A    between atoms: C4_4  and  C5_5 
REMARK    3  A    between atoms: C5_5  and  O1_6 
REMARK    4  A    between atoms: C5_5  and  C6_8 
REMARK    5  A    between atoms: C6_8  and  C8_10 
REMARK    6  A    between atoms: C12_16  and  C13_17 
ROOT
HETATM    1  C8  UNL     1       2.227  -7.665  26.564  1.00  0.00     0.167 C 
HETATM    2  O2  UNL     1       2.479  -7.091  25.324  1.00  0.00    -0.347 OA
HETATM    3  C9  UNL     1       1.349  -6.477  24.864  1.00  0.00     0.158 C 
HETATM    4  C10 UNL     1       1.438  -4.965  24.895  1.00  0.00     0.078 C 
HETATM    5  C11 UNL     1       1.190  -6.854  23.397  1.00  0.00     0.078 C 
HETATM    6  O3  UNL     1       0.272  -6.893  25.623  1.00  0.00    -0.341 OA
HETATM    7  C12 UNL     1       0.828  -7.214  26.865  1.00  0.00     0.215 C 
ENDROOT
BRANCH   1   8
HETATM    8  C6  UNL     1       2.244  -9.183  26.495  1.00  0.00     0.042 C 
HETATM    9  C7  UNL     1       0.856  -9.663  26.446  1.00  0.00     0.015 C 
BRANCH   8  10
HETATM   10  C5  UNL     1       3.160  -9.761  27.546  1.00  0.00     0.124 C 
BRANCH  10  11
HETATM   11  C4  UNL     1       3.503 -11.190  27.417  1.00  0.00     0.036 C 
BRANCH  11  12
HETATM   12  C2  UNL     1       4.643 -11.755  28.158  1.00  0.00    -0.020 C 
HETATM   13  C1  UNL     1       4.330 -13.138  28.756  1.00  0.00     0.009 C 
HETATM   14  C3  UNL     1       5.733 -12.076  27.110  1.00  0.00     0.009 C 
ENDBRANCH  11  12
ENDBRANCH  10  11
BRANCH  10  15
HETATM   15  O1  UNL     1       2.440  -9.599  28.785  1.00  0.00    -0.395 OA
ATOM     16  H1  UNL     1       1.598  -9.212  28.576  1.00  0.00     0.210 HD
ENDBRANCH  10  15
ENDBRANCH   8  10
ENDBRANCH   1   8
BRANCH   7  17
HETATM   17  C13 UNL     1       0.886  -6.018  27.753  1.00  0.00     0.265 C 
HETATM   18  O4  UNL     1      -0.081  -5.296  27.889  1.00  0.00    -0.304 OA
ENDBRANCH   7  17
TORSDOF 6
ENDMDL
MODEL 5
REMARK VINA RESULT: -5.634878087      2.733      6.496
REMARK  6 active torsions:
REMARK  status: ('A' for Active; 'I' for Inactive)
REMARK    1  A    between atoms: C2_2  and  C4_4 
REMARK    2  A    between atoms: C4_4  and  C5_5 
REMARK    3  A    between atoms: C5_5  and  O1_6 
REMARK    4  A    between atoms: C5_5  and  C6_8 
REMARK    5  A    between atoms: C6_8  and  C8_10 
REMARK    6  A    between atoms: C12_16  and  C13_17 
ROOT
HETATM    1  C8  UNL     1       4.455 -13.273  28.080  1.00  0.00     0.167 C 
HETATM    2  O2  UNL     1       3.463 -12.382  27.688  1.00  0.00    -0.347 OA
HETATM    3  C9  UNL     1       3.986 -11.122  27.600  1.00  0.00     0.158 C 
HETATM    4  C10 UNL     1       4.128 -10.636  26.172  1.00  0.00     0.078 C 
HETATM    5  C11 UNL     1       3.000 -10.173  28.267  1.00  0.00     0.078 C 
HETATM    6  O3  UNL     1       5.220 -11.105  28.221  1.00  0.00    -0.341 OA
HETATM    7  C12 UNL     1       5.688 -12.417  28.097  1.00  0.00     0.215 C 
ENDROOT
BRANCH   1   8
HETATM    8  C6  UNL     1       4.212 -13.803  29.483  1.00  0.00     0.042 C 
HETATM    9  C7  UNL     1       5.482 -13.768  30.222  1.00  0.00     0.015 C 
BRANCH   8  10
HETATM   10  C5  UNL     1       3.449 -15.105  29.443  1.00  0.00     0.124 C 
BRANCH  10  11
HETATM   11  C4  UNL     1       4.190 -16.323  29.820  1.00  0.00     0.036 C 
BRANCH  11  12
HETATM   12  C2  UNL     1       3.756 -17.136  30.969  1.00  0.00    -0.020 C 
HETATM   13  C1  UNL     1       3.231 -16.278  32.133  1.00  0.00     0.009 C 
HETATM   14  C3  UNL     1       2.493 -17.901  30.513  1.00  0.00     0.009 C 
ENDBRANCH  11  12
ENDBRANCH  10  11
BRANCH  10  15
HETATM   15  O1  UNL     1       3.051 -15.251  28.064  1.00  0.00    -0.395 OA
ATOM     16  H1  UNL     1       3.624 -14.701  27.543  1.00  0.00     0.210 HD
ENDBRANCH  10  15
ENDBRANCH   8  10
ENDBRANCH   1   8
BRANCH   7  17
HETATM   17  C13 UNL     1       6.427 -12.606  26.817  1.00  0.00     0.265 C 
HETATM   18  O4  UNL     1       6.560 -13.712  26.333  1.00  0.00    -0.304 OA
ENDBRANCH   7  17
TORSDOF 6
ENDMDL
