MODEL 1
REMARK VINA RESULT: -7.533374489      0.000      0.000
REMARK  5 active torsions:
REMARK  status: ('A' for Active; 'I' for Inactive)
REMARK    1  A    between atoms: C4_5  and  O2_6 
REMARK    2  A    between atoms: O2_6  and  C5_7 
REMARK    3  A    between atoms: C5_7  and  C6_8 
REMARK    4  A    between atoms: C12_15  and  C13_16 
REMARK    5  A    between atoms: C13_16  and  N1_17 
ROOT
HETATM    1  C1  UNL     1       5.191 -14.329  30.105  1.00  0.00     0.015 C 
HETATM    2  C2  UNL     1       5.080 -13.110  29.247  1.00  0.00     0.036 C 
HETATM    3  C3  UNL     1       3.804 -13.121  28.441  1.00  0.00     0.180 C 
HETATM    4  O1  UNL     1       3.764 -11.930  27.732  1.00  0.00    -0.339 OA
HETATM    5  C4  UNL     1       4.875 -11.674  26.969  1.00  0.00     0.413 C 
HETATM    6  O3  UNL     1       6.081 -11.699  27.664  1.00  0.00    -0.332 OA
HETATM    7  C12 UNL     1       6.259 -12.901  28.348  1.00  0.00     0.158 C 
ENDROOT
BRANCH   5   8
HETATM    8  O2  UNL     1       4.739 -10.366  26.473  1.00  0.00    -0.339 OA
BRANCH   8   9
HETATM    9  C5  UNL     1       3.436 -10.128  26.015  1.00  0.00     0.178 C 
BRANCH   9  10
HETATM   10  C6  UNL     1       2.997  -8.839  26.724  1.00  0.00     0.009 C 
HETATM   11  C7  UNL     1       1.605  -9.171  27.273  1.00  0.00     0.007 C 
HETATM   12  C8  UNL     1       0.983  -7.945  27.884  1.00  0.00     0.000 C 
HETATM   13  C9  UNL     1       0.773  -6.939  26.781  1.00  0.00     0.000 C 
HETATM   14  C10 UNL     1       2.015  -6.639  26.006  1.00  0.00     0.000 C 
HETATM   15  C11 UNL     1       2.842  -7.809  25.651  1.00  0.00     0.007 C 
ENDBRANCH   9  10
ENDBRANCH   8   9
ENDBRANCH   5   8
BRANCH   7  16
HETATM   16  C13 UNL     1       6.512 -14.032  27.383  1.00  0.00     0.262 C 
BRANCH  16  17
HETATM   17  N1  UNL     1       7.733 -14.750  27.651  1.00  0.00    -0.077 N 
ATOM     18  H13 UNL     1       8.503 -14.104  27.819  1.00  0.00     0.274 HD
ATOM     19  H12 UNL     1       7.693 -15.205  28.564  1.00  0.00     0.274 HD
ATOM     20  H11 UNL     1       7.975 -15.422  26.923  1.00  0.00     0.274 HD
ENDBRANCH  16  17
ENDBRANCH   7  16
TORSDOF 5
ENDMDL
MODEL 2
REMARK VINA RESULT: -7.480493144      1.361      2.322
REMARK  5 active torsions:
REMARK  status: ('A' for Active; 'I' for Inactive)
REMARK    1  A    between atoms: C4_5  and  O2_6 
REMARK    2  A    between atoms: O2_6  and  C5_7 
REMARK    3  A    between atoms: C5_7  and  C6_8 
REMARK    4  A    between atoms: C12_15  and  C13_16 
REMARK    5  A    between atoms: C13_16  and  N1_17 
ROOT
HETATM    1  C1  UNL     1       7.119 -14.554  27.573  1.00  0.00     0.015 C 
HETATM    2  C2  UNL     1       5.934 -13.647  27.485  1.00  0.00     0.036 C 
HETATM    3  C3  UNL     1       6.352 -12.196  27.499  1.00  0.00     0.180 C 
HETATM    4  O1  UNL     1       5.197 -11.443  27.351  1.00  0.00    -0.339 OA
HETATM    5  C4  UNL     1       4.205 -11.721  28.257  1.00  0.00     0.413 C 
HETATM    6  O3  UNL     1       3.820 -13.057  28.312  1.00  0.00    -0.332 OA
HETATM    7  C12 UNL     1       4.907 -13.900  28.545  1.00  0.00     0.158 C 
ENDROOT
BRANCH   5   8
HETATM    8  O2  UNL     1       3.067 -11.004  27.852  1.00  0.00    -0.339 OA
BRANCH   8   9
HETATM    9  C5  UNL     1       3.272 -10.379  26.614  1.00  0.00     0.178 C 
BRANCH   9  10
HETATM   10  C6  UNL     1       1.991  -9.571  26.362  1.00  0.00     0.009 C 
HETATM   11  C7  UNL     1       2.379  -8.597  25.245  1.00  0.00     0.007 C 
HETATM   12  C8  UNL     1       1.252  -7.635  24.982  1.00  0.00     0.000 C 
HETATM   13  C9  UNL     1       1.062  -6.800  26.222  1.00  0.00     0.000 C 
HETATM   14  C10 UNL     1       0.859  -7.612  27.460  1.00  0.00     0.000 C 
HETATM   15  C11 UNL     1       1.750  -8.779  27.608  1.00  0.00     0.007 C 
ENDBRANCH   9  10
ENDBRANCH   8   9
ENDBRANCH   5   8
BRANCH   7  16
HETATM   16  C13 UNL     1       5.416 -13.737  29.955  1.00  0.00     0.262 C 
BRANCH  16  17
HETATM   17  N1  UNL     1       5.407 -14.963  30.712  1.00  0.00    -0.077 N 
ATOM     18  H13 UNL     1       4.463 -15.186  31.027  1.00  0.00     0.274 HD
ATOM     19  H12 UNL     1       5.576 -15.765  30.104  1.00  0.00     0.274 HD
ATOM     20  H11 UNL     1       6.060 -14.960  31.495  1.00  0.00     0.274 HD
ENDBRANCH  16  17
ENDBRANCH   7  16
TORSDOF 5
ENDMDL
MODEL 3
REMARK VINA RESULT: -7.392299632      1.809      2.662
REMARK  5 active torsions:
REMARK  status: ('A' for Active; 'I' for Inactive)
REMARK    1  A    between atoms: C4_5  and  O2_6 
REMARK    2  A    between atoms: O2_6  and  C5_7 
REMARK    3  A    between atoms: C5_7  and  C6_8 
REMARK    4  A    between atoms: C12_15  and  C13_16 
REMARK    5  A    between atoms: C13_16  and  N1_17 
ROOT
HETATM    1  C1  UNL     1       6.292 -16.257  28.715  1.00  0.00     0.015 C 
HETATM    2  C2  UNL     1       5.483 -15.120  28.180  1.00  0.00     0.036 C 
HETATM    3  C3  UNL     1       6.358 -13.939  27.836  1.00  0.00     0.180 C 
HETATM    4  O1  UNL     1       5.530 -12.968  27.293  1.00  0.00    -0.339 OA
HETATM    5  C4  UNL     1       4.454 -12.625  28.072  1.00  0.00     0.413 C 
HETATM    6  O3  UNL     1       3.644 -13.691  28.453  1.00  0.00    -0.332 OA
HETATM    7  C12 UNL     1       4.373 -14.694  29.090  1.00  0.00     0.158 C 
ENDROOT
BRANCH   5   8
HETATM    8  O2  UNL     1       3.643 -11.776  27.300  1.00  0.00    -0.339 OA
BRANCH   8   9
HETATM    9  C5  UNL     1       3.420 -10.555  27.950  1.00  0.00     0.178 C 
BRANCH   9  10
HETATM   10  C6  UNL     1       2.323  -9.864  27.128  1.00  0.00     0.009 C 
HETATM   11  C7  UNL     1       3.085  -9.186  25.984  1.00  0.00     0.007 C 
HETATM   12  C8  UNL     1       2.145  -8.346  25.162  1.00  0.00     0.000 C 
HETATM   13  C9  UNL     1       1.632  -7.237  26.042  1.00  0.00     0.000 C 
HETATM   14  C10 UNL     1       1.017  -7.723  27.314  1.00  0.00     0.000 C 
HETATM   15  C11 UNL     1       1.756  -8.796  28.008  1.00  0.00     0.007 C 
ENDBRANCH   9  10
ENDBRANCH   8   9
ENDBRANCH   5   8
BRANCH   7  16
HETATM   16  C13 UNL     1       4.829 -14.238  30.453  1.00  0.00     0.262 C 
BRANCH  16  17
HETATM   17  N1  UNL     1       4.038 -14.776  31.531  1.00  0.00    -0.077 N 
ATOM     18  H13 UNL     1       3.092 -14.987  31.215  1.00  0.00     0.274 HD
ATOM     19  H12 UNL     1       4.348 -15.717  31.774  1.00  0.00     0.274 HD
ATOM     20  H11 UNL     1       4.019 -14.177  32.357  1.00  0.00     0.274 HD
ENDBRANCH  16  17
ENDBRANCH   7  16
TORSDOF 5
ENDMDL
MODEL 4
REMARK VINA RESULT: -7.184833833      1.735      2.338
REMARK  5 active torsions:
REMARK  status: ('A' for Active; 'I' for Inactive)
REMARK    1  A    between atoms: C4_5  and  O2_6 
REMARK    2  A    between atoms: O2_6  and  C5_7 
REMARK    3  A    between atoms: C5_7  and  C6_8 
REMARK    4  A    between atoms: C12_15  and  C13_16 
REMARK    5  A    between atoms: C13_16  and  N1_17 
ROOT
HETATM    1  C1  UNL     1       5.976 -16.197  28.513  1.00  0.00     0.015 C 
HETATM    2  C2  UNL     1       5.518 -14.847  28.064  1.00  0.00     0.036 C 
HETATM    3  C3  UNL     1       6.688 -13.921  27.833  1.00  0.00     0.180 C 
HETATM    4  O1  UNL     1       6.168 -12.725  27.362  1.00  0.00    -0.339 OA
HETATM    5  C4  UNL     1       5.194 -12.167  28.151  1.00  0.00     0.413 C 
HETATM    6  O3  UNL     1       4.116 -13.003  28.429  1.00  0.00    -0.332 OA
HETATM    7  C12 UNL     1       4.529 -14.211  28.990  1.00  0.00     0.158 C 
ENDROOT
BRANCH   5   8
HETATM    8  O2  UNL     1       4.666 -11.075  27.441  1.00  0.00    -0.339 OA
BRANCH   8   9
HETATM    9  C5  UNL     1       3.342 -10.814  27.817  1.00  0.00     0.178 C 
BRANCH   9  10
HETATM   10  C6  UNL     1       3.055  -9.399  27.297  1.00  0.00     0.009 C 
HETATM   11  C7  UNL     1       1.637  -9.099  27.796  1.00  0.00     0.007 C 
HETATM   12  C8  UNL     1       1.161  -7.783  27.242  1.00  0.00     0.000 C 
HETATM   13  C9  UNL     1       1.059  -7.926  25.746  1.00  0.00     0.000 C 
HETATM   14  C10 UNL     1       2.322  -8.404  25.107  1.00  0.00     0.000 C 
HETATM   15  C11 UNL     1       3.011  -9.507  25.806  1.00  0.00     0.007 C 
ENDBRANCH   9  10
ENDBRANCH   8   9
ENDBRANCH   5   8
BRANCH   7  16
HETATM   16  C13 UNL     1       5.040 -14.000  30.394  1.00  0.00     0.262 C 
BRANCH  16  17
HETATM   17  N1  UNL     1       4.277 -14.707  31.392  1.00  0.00    -0.077 N 
ATOM     18  H13 UNL     1       3.862 -15.551  31.000  1.00  0.00     0.274 HD
ATOM     19  H12 UNL     1       4.893 -15.129  32.087  1.00  0.00     0.274 HD
ATOM     20  H11 UNL     1       3.567 -14.129  31.842  1.00  0.00     0.274 HD
ENDBRANCH  16  17
ENDBRANCH   7  16
TORSDOF 5
ENDMDL
MODEL 5
REMARK VINA RESULT: -7.102607587      0.661      1.355
REMARK  5 active torsions:
REMARK  status: ('A' for Active; 'I' for Inactive)
REMARK    1  A    between atoms: C4_5  and  O2_6 
REMARK    2  A    between atoms: O2_6  and  C5_7 
REMARK    3  A    between atoms: C5_7  and  C6_8 
REMARK    4  A    between atoms: C12_15  and  C13_16 
REMARK    5  A    between atoms: C13_16  and  N1_17 
ROOT
HETATM    1  C1  UNL     1       5.385 -14.701  30.128  1.00  0.00     0.015 C 
HETATM    2  C2  UNL     1       5.077 -13.419  29.425  1.00  0.00     0.036 C 
HETATM    3  C3  UNL     1       3.786 -13.515  28.650  1.00  0.00     0.180 C 
HETATM    4  O1  UNL     1       3.557 -12.267  28.090  1.00  0.00    -0.339 OA
HETATM    5  C4  UNL     1       4.594 -11.771  27.340  1.00  0.00     0.413 C 
HETATM    6  O3  UNL     1       5.817 -11.708  28.002  1.00  0.00    -0.332 OA
HETATM    7  C12 UNL     1       6.182 -12.944  28.534  1.00  0.00     0.158 C 
ENDROOT
BRANCH   5   8
HETATM    8  O2  UNL     1       4.262 -10.447  27.008  1.00  0.00    -0.339 OA
BRANCH   8   9
HETATM    9  C5  UNL     1       3.291  -9.931  27.877  1.00  0.00     0.178 C 
BRANCH   9  10
HETATM   10  C6  UNL     1       2.239  -9.292  26.959  1.00  0.00     0.009 C 
HETATM   11  C7  UNL     1       3.064  -8.486  25.950  1.00  0.00     0.007 C 
HETATM   12  C8  UNL     1       2.154  -7.685  25.059  1.00  0.00     0.000 C 
HETATM   13  C9  UNL     1       1.439  -6.677  25.921  1.00  0.00     0.000 C 
HETATM   14  C10 UNL     1       0.726  -7.287  27.084  1.00  0.00     0.000 C 
HETATM   15  C11 UNL     1       1.475  -8.330  27.812  1.00  0.00     0.007 C 
ENDBRANCH   9  10
ENDBRANCH   8   9
ENDBRANCH   5   8
BRANCH   7  16
HETATM   16  C13 UNL     1       6.551 -13.909  27.435  1.00  0.00     0.262 C 
BRANCH  16  17
HETATM   17  N1  UNL     1       7.710 -14.709  27.742  1.00  0.00    -0.077 N 
ATOM     18  H13 UNL     1       7.439 -15.662  27.982  1.00  0.00     0.274 HD
ATOM     19  H12 UNL     1       8.255 -14.895  26.900  1.00  0.00     0.274 HD
ATOM     20  H11 UNL     1       8.299 -14.305  28.471  1.00  0.00     0.274 HD
ENDBRANCH  16  17
ENDBRANCH   7  16
TORSDOF 5
ENDMDL
