MODEL 1
REMARK VINA RESULT: -6.609952806      0.000      0.000
REMARK  0 active torsions:
REMARK  status: ('A' for Active; 'I' for Inactive)
ROOT
HETATM    1  N1  UNL     1     -34.478 -30.217  -6.959  1.00  0.00    -0.079 NA
HETATM    2  C1  UNL     1     -34.898 -29.045  -6.278  1.00  0.00     0.160 A 
HETATM    3  N2  UNL     1     -36.209 -28.699  -6.240  1.00  0.00    -0.304 N 
ATOM      4  H2  UNL     1     -36.925 -29.265  -6.695  1.00  0.00     0.170 HD
HETATM    5  C2  UNL     1     -36.521 -27.571  -5.573  1.00  0.00     0.315 A 
HETATM    6  O1  UNL     1     -37.725 -27.217  -5.516  1.00  0.00    -0.262 OA
HETATM    7  C3  UNL     1     -35.580 -26.779  -4.944  1.00  0.00     0.315 A 
HETATM    8  O2  UNL     1     -35.911 -25.729  -4.328  1.00  0.00    -0.262 OA
HETATM    9  N3  UNL     1     -34.298 -27.175  -5.017  1.00  0.00    -0.304 N 
ATOM     10  H3  UNL     1     -33.583 -26.608  -4.562  1.00  0.00     0.170 HD
HETATM   11  C4  UNL     1     -33.923 -28.283  -5.664  1.00  0.00     0.160 A 
HETATM   12  N4  UNL     1     -32.558 -28.690  -5.732  1.00  0.00    -0.079 NA
ENDROOT
TORSDOF 0
ENDMDL
MODEL 2
REMARK VINA RESULT: -6.604421247      0.077      2.268
REMARK  0 active torsions:
REMARK  status: ('A' for Active; 'I' for Inactive)
ROOT
HETATM    1  N1  UNL     1     -32.597 -28.728  -5.622  1.00  0.00    -0.079 NA
HETATM    2  C1  UNL     1     -33.942 -28.280  -5.577  1.00  0.00     0.160 A 
HETATM    3  N2  UNL     1     -34.274 -27.150  -4.904  1.00  0.00    -0.304 N 
ATOM      4  H2  UNL     1     -33.572 -26.594  -4.414  1.00  0.00     0.170 HD
HETATM    5  C2  UNL     1     -35.573 -26.797  -4.911  1.00  0.00     0.315 A 
HETATM    6  O1  UNL     1     -35.919 -25.756  -4.298  1.00  0.00    -0.262 OA
HETATM    7  C3  UNL     1     -36.551 -27.523  -5.562  1.00  0.00     0.315 A 
HETATM    8  O2  UNL     1     -37.759 -27.160  -5.546  1.00  0.00    -0.262 OA
HETATM    9  N3  UNL     1     -36.160 -28.632  -6.211  1.00  0.00    -0.304 N 
ATOM     10  H3  UNL     1     -36.863 -29.188  -6.700  1.00  0.00     0.170 HD
HETATM   11  C4  UNL     1     -34.887 -29.038  -6.242  1.00  0.00     0.160 A 
HETATM   12  N4  UNL     1     -34.488 -30.218  -6.936  1.00  0.00    -0.079 NA
ENDROOT
TORSDOF 0
ENDMDL
MODEL 3
REMARK VINA RESULT: -6.473704365      2.371      3.311
REMARK  0 active torsions:
REMARK  status: ('A' for Active; 'I' for Inactive)
ROOT
HETATM    1  N1  UNL     1     -37.637 -27.336  -5.578  1.00  0.00    -0.079 NA
HETATM    2  C1  UNL     1     -36.285 -27.753  -5.681  1.00  0.00     0.160 A 
HETATM    3  N2  UNL     1     -35.959 -28.885  -6.353  1.00  0.00    -0.304 N 
ATOM      4  H2  UNL     1     -36.670 -29.465  -6.799  1.00  0.00     0.170 HD
HETATM    5  C2  UNL     1     -34.652 -29.208  -6.402  1.00  0.00     0.315 A 
HETATM    6  O1  UNL     1     -34.311 -30.250  -7.014  1.00  0.00    -0.262 OA
HETATM    7  C3  UNL     1     -33.662 -28.448  -5.810  1.00  0.00     0.315 A 
HETATM    8  O2  UNL     1     -32.448 -28.783  -5.878  1.00  0.00    -0.262 OA
HETATM    9  N3  UNL     1     -34.049 -27.338  -5.160  1.00  0.00    -0.304 N 
ATOM     10  H3  UNL     1     -33.337 -26.758  -4.714  1.00  0.00     0.170 HD
HETATM   11  C4  UNL     1     -35.328 -26.962  -5.074  1.00  0.00     0.160 A 
HETATM   12  N4  UNL     1     -35.722 -25.780  -4.380  1.00  0.00    -0.079 NA
ENDROOT
TORSDOF 0
ENDMDL
MODEL 4
REMARK VINA RESULT: -6.470753687      2.376      4.014
REMARK  0 active torsions:
REMARK  status: ('A' for Active; 'I' for Inactive)
ROOT
HETATM    1  N1  UNL     1     -35.730 -25.813  -4.408  1.00  0.00    -0.079 NA
HETATM    2  C1  UNL     1     -35.310 -26.986  -5.088  1.00  0.00     0.160 A 
HETATM    3  N2  UNL     1     -33.996 -27.315  -5.157  1.00  0.00    -0.304 N 
ATOM      4  H2  UNL     1     -33.277 -26.734  -4.724  1.00  0.00     0.170 HD
HETATM    5  C2  UNL     1     -33.685 -28.443  -5.822  1.00  0.00     0.315 A 
HETATM    6  O1  UNL     1     -32.478 -28.781  -5.907  1.00  0.00    -0.262 OA
HETATM    7  C3  UNL     1     -34.630 -29.255  -6.419  1.00  0.00     0.315 A 
HETATM    8  O2  UNL     1     -34.300 -30.305  -7.034  1.00  0.00    -0.262 OA
HETATM    9  N3  UNL     1     -35.915 -28.876  -6.317  1.00  0.00    -0.304 N 
ATOM     10  H3  UNL     1     -36.633 -29.457  -6.749  1.00  0.00     0.170 HD
HETATM   11  C4  UNL     1     -36.289 -27.767  -5.671  1.00  0.00     0.160 A 
HETATM   12  N4  UNL     1     -37.658 -27.379  -5.571  1.00  0.00    -0.079 NA
ENDROOT
TORSDOF 0
ENDMDL
MODEL 5
REMARK VINA RESULT: -6.330149323      2.729      3.540
REMARK  0 active torsions:
REMARK  status: ('A' for Active; 'I' for Inactive)
ROOT
HETATM    1  N1  UNL     1     -35.579 -26.988  -8.558  1.00  0.00    -0.079 NA
HETATM    2  C1  UNL     1     -34.965 -27.552  -7.411  1.00  0.00     0.160 A 
HETATM    3  N2  UNL     1     -33.795 -28.231  -7.514  1.00  0.00    -0.304 N 
ATOM      4  H2  UNL     1     -33.326 -28.355  -8.411  1.00  0.00     0.170 HD
HETATM    5  C2  UNL     1     -33.281 -28.734  -6.375  1.00  0.00     0.315 A 
HETATM    6  O1  UNL     1     -32.199 -29.369  -6.430  1.00  0.00    -0.262 OA
HETATM    7  C3  UNL     1     -33.885 -28.586  -5.142  1.00  0.00     0.315 A 
HETATM    8  O2  UNL     1     -33.373 -29.072  -4.097  1.00  0.00    -0.262 OA
HETATM    9  N3  UNL     1     -35.042 -27.903  -5.104  1.00  0.00    -0.304 N 
ATOM     10  H3  UNL     1     -35.510 -27.780  -4.206  1.00  0.00     0.170 HD
HETATM   11  C4  UNL     1     -35.605 -27.380  -6.198  1.00  0.00     0.160 A 
HETATM   12  N4  UNL     1     -36.833 -26.657  -6.141  1.00  0.00    -0.079 NA
ENDROOT
TORSDOF 0
ENDMDL
