MODEL 1
REMARK VINA RESULT: -5.745386914      0.000      0.000
REMARK  3 active torsions:
REMARK  status: ('A' for Active; 'I' for Inactive)
REMARK    1  A    between atoms: N1_1  and  N2_4 
REMARK    2  A    between atoms: N2_4  and  C1_6 
REMARK    3  A    between atoms: C1_6  and  N3_8 
ROOT
HETATM    1  C1  UNL     1     -34.914 -27.355  -5.356  1.00  0.00     0.214 C 
HETATM    2  S1  UNL     1     -35.907 -26.165  -4.844  1.00  0.00    -0.037 SA
ENDROOT
BRANCH   1   3
HETATM    3  N2  UNL     1     -33.956 -27.978  -4.544  1.00  0.00    -0.281 N 
ATOM      4  H2  UNL     1     -34.190 -28.245  -3.587  1.00  0.00     0.189 HD
BRANCH   3   5
HETATM    5  N1  UNL     1     -32.695 -28.230  -5.045  1.00  0.00    -0.343 N 
ATOM      6  H12 UNL     1     -32.356 -27.682  -5.836  1.00  0.00     0.176 HD
ATOM      7  H11 UNL     1     -32.118 -28.956  -4.620  1.00  0.00     0.176 HD
ENDBRANCH   3   5
ENDBRANCH   1   3
BRANCH   1   8
HETATM    8  N3  UNL     1     -35.047 -27.768  -6.710  1.00  0.00    -0.160 N 
HETATM    9  N4  UNL     1     -35.408 -27.249  -7.871  1.00  0.00    -0.005 NA
HETATM   10  N5  UNL     1     -35.214 -28.372  -8.540  1.00  0.00    -0.233 N 
HETATM   11  C2  UNL     1     -34.840 -28.937  -7.378  1.00  0.00     0.359 A 
ATOM     12  H5  UNL     1     -35.307 -28.676  -9.510  1.00  0.00     0.189 HD
HETATM   13  O1  UNL     1     -34.444 -30.077  -6.986  1.00  0.00    -0.244 OA
ENDBRANCH   1   8
TORSDOF 3
ENDMDL
MODEL 2
REMARK VINA RESULT: -5.531462041      1.048      1.099
REMARK  3 active torsions:
REMARK  status: ('A' for Active; 'I' for Inactive)
REMARK    1  A    between atoms: N1_1  and  N2_4 
REMARK    2  A    between atoms: N2_4  and  C1_6 
REMARK    3  A    between atoms: C1_6  and  N3_8 
ROOT
HETATM    1  C1  UNL     1     -35.101 -27.614  -5.338  1.00  0.00     0.214 C 
HETATM    2  S1  UNL     1     -35.875 -26.178  -5.302  1.00  0.00    -0.037 SA
ENDROOT
BRANCH   1   3
HETATM    3  N2  UNL     1     -34.078 -27.974  -4.449  1.00  0.00    -0.281 N 
ATOM      4  H2  UNL     1     -34.301 -28.225  -3.486  1.00  0.00     0.189 HD
BRANCH   3   5
HETATM    5  N1  UNL     1     -32.768 -27.985  -4.883  1.00  0.00    -0.343 N 
ATOM      6  H12 UNL     1     -32.403 -27.176  -5.385  1.00  0.00     0.176 HD
ATOM      7  H11 UNL     1     -32.181 -28.799  -4.697  1.00  0.00     0.176 HD
ENDBRANCH   3   5
ENDBRANCH   1   3
BRANCH   1   8
HETATM    8  N3  UNL     1     -35.503 -28.539  -6.339  1.00  0.00    -0.160 N 
HETATM    9  N4  UNL     1     -36.611 -28.900  -6.964  1.00  0.00    -0.005 NA
HETATM   10  N5  UNL     1     -36.008 -29.813  -7.705  1.00  0.00    -0.233 N 
HETATM   11  C2  UNL     1     -34.859 -29.475  -7.092  1.00  0.00     0.359 A 
ATOM     12  H5  UNL     1     -36.290 -30.480  -8.424  1.00  0.00     0.189 HD
HETATM   13  O1  UNL     1     -33.642 -29.831  -7.139  1.00  0.00    -0.244 OA
ENDBRANCH   1   8
TORSDOF 3
ENDMDL
MODEL 3
REMARK VINA RESULT: -5.456839355      1.624      2.026
REMARK  3 active torsions:
REMARK  status: ('A' for Active; 'I' for Inactive)
REMARK    1  A    between atoms: N1_1  and  N2_4 
REMARK    2  A    between atoms: N2_4  and  C1_6 
REMARK    3  A    between atoms: C1_6  and  N3_8 
ROOT
HETATM    1  C1  UNL     1     -34.760 -27.269  -5.523  1.00  0.00     0.214 C 
HETATM    2  S1  UNL     1     -33.422 -27.839  -4.783  1.00  0.00    -0.037 SA
ENDROOT
BRANCH   1   3
HETATM    3  N2  UNL     1     -35.635 -26.337  -4.948  1.00  0.00    -0.281 N 
ATOM      4  H2  UNL     1     -35.503 -26.038  -3.982  1.00  0.00     0.189 HD
BRANCH   3   5
HETATM    5  N1  UNL     1     -36.677 -25.826  -5.696  1.00  0.00    -0.343 N 
ATOM      6  H12 UNL     1     -37.443 -26.443  -5.968  1.00  0.00     0.176 HD
ATOM      7  H11 UNL     1     -36.670 -24.843  -5.967  1.00  0.00     0.176 HD
ENDBRANCH   3   5
ENDBRANCH   1   3
BRANCH   1   8
HETATM    8  N3  UNL     1     -35.034 -27.762  -6.828  1.00  0.00    -0.160 N 
HETATM    9  N4  UNL     1     -35.441 -27.295  -7.996  1.00  0.00    -0.005 NA
HETATM   10  N5  UNL     1     -35.396 -28.475  -8.590  1.00  0.00    -0.233 N 
HETATM   11  C2  UNL     1     -34.980 -28.989  -7.418  1.00  0.00     0.359 A 
ATOM     12  H5  UNL     1     -35.591 -28.836  -9.524  1.00  0.00     0.189 HD
HETATM   13  O1  UNL     1     -34.652 -30.130  -6.970  1.00  0.00    -0.244 OA
ENDBRANCH   1   8
TORSDOF 3
ENDMDL
MODEL 4
REMARK VINA RESULT: -5.430002839      1.624      1.725
REMARK  3 active torsions:
REMARK  status: ('A' for Active; 'I' for Inactive)
REMARK    1  A    between atoms: N1_1  and  N2_4 
REMARK    2  A    between atoms: N2_4  and  C1_6 
REMARK    3  A    between atoms: C1_6  and  N3_8 
ROOT
HETATM    1  C1  UNL     1     -35.279 -28.166  -5.465  1.00  0.00     0.214 C 
HETATM    2  S1  UNL     1     -36.247 -26.974  -4.912  1.00  0.00    -0.037 SA
ENDROOT
BRANCH   1   3
HETATM    3  N2  UNL     1     -34.135 -28.620  -4.794  1.00  0.00    -0.281 N 
ATOM      4  H2  UNL     1     -34.148 -29.516  -4.308  1.00  0.00     0.189 HD
BRANCH   3   5
HETATM    5  N1  UNL     1     -32.991 -27.847  -4.794  1.00  0.00    -0.343 N 
ATOM      6  H12 UNL     1     -32.718 -27.363  -5.649  1.00  0.00     0.176 HD
ATOM      7  H11 UNL     1     -32.434 -27.770  -3.943  1.00  0.00     0.176 HD
ENDBRANCH   3   5
ENDBRANCH   1   3
BRANCH   1   8
HETATM    8  N3  UNL     1     -35.636 -28.764  -6.704  1.00  0.00    -0.160 N 
HETATM    9  N4  UNL     1     -36.081 -29.927  -7.149  1.00  0.00    -0.005 NA
HETATM   10  N5  UNL     1     -36.112 -29.540  -8.412  1.00  0.00    -0.233 N 
HETATM   11  C2  UNL     1     -35.659 -28.342  -8.000  1.00  0.00     0.359 A 
ATOM     12  H5  UNL     1     -36.366 -29.962  -9.305  1.00  0.00     0.189 HD
HETATM   13  O1  UNL     1     -35.356 -27.231  -8.532  1.00  0.00    -0.244 OA
ENDBRANCH   1   8
TORSDOF 3
ENDMDL
MODEL 5
REMARK VINA RESULT: -5.428889947      1.876      1.984
REMARK  3 active torsions:
REMARK  status: ('A' for Active; 'I' for Inactive)
REMARK    1  A    between atoms: N1_1  and  N2_4 
REMARK    2  A    between atoms: N2_4  and  C1_6 
REMARK    3  A    between atoms: C1_6  and  N3_8 
ROOT
HETATM    1  C1  UNL     1     -35.278 -28.191  -6.288  1.00  0.00     0.214 C 
HETATM    2  S1  UNL     1     -36.294 -27.242  -5.433  1.00  0.00    -0.037 SA
ENDROOT
BRANCH   1   3
HETATM    3  N2  UNL     1     -33.908 -28.317  -6.016  1.00  0.00    -0.281 N 
ATOM      4  H2  UNL     1     -33.548 -28.094  -5.087  1.00  0.00     0.189 HD
BRANCH   3   5
HETATM    5  N1  UNL     1     -33.050 -28.744  -7.009  1.00  0.00    -0.343 N 
ATOM      6  H12 UNL     1     -33.436 -29.047  -7.903  1.00  0.00     0.176 HD
ATOM      7  H11 UNL     1     -32.044 -28.750  -6.838  1.00  0.00     0.176 HD
ENDBRANCH   3   5
ENDBRANCH   1   3
BRANCH   1   8
HETATM    8  N3  UNL     1     -35.837 -28.925  -7.369  1.00  0.00    -0.160 N 
HETATM    9  N4  UNL     1     -35.688 -29.024  -8.679  1.00  0.00    -0.005 NA
HETATM   10  N5  UNL     1     -36.628 -29.944  -8.812  1.00  0.00    -0.233 N 
HETATM   11  C2  UNL     1     -36.810 -29.873  -7.481  1.00  0.00     0.359 A 
ATOM     12  H5  UNL     1     -37.035 -30.475  -9.583  1.00  0.00     0.189 HD
HETATM   13  O1  UNL     1     -37.556 -30.425  -6.615  1.00  0.00    -0.244 OA
ENDBRANCH   1   8
TORSDOF 3
ENDMDL
