MODEL 1
REMARK VINA RESULT: -5.762417317      0.000      0.000
REMARK  2 active torsions:
REMARK  status: ('A' for Active; 'I' for Inactive)
REMARK    1  A    between atoms: C2_3  and  N2_4 
REMARK    2  A    between atoms: C3_9  and  N4_10 
ROOT
HETATM    1  C1  UNL     1     -33.532 -27.576  -4.639  1.00  0.00     0.180 C 
HETATM    2  N1  UNL     1     -34.367 -28.241  -5.633  1.00  0.00    -0.136 N 
HETATM    3  C2  UNL     1     -35.703 -28.081  -5.639  1.00  0.00     0.696 A 
HETATM    4  N3  UNL     1     -36.480 -28.691  -6.552  1.00  0.00    -0.022 N 
ATOM      5  H3  UNL     1     -37.490 -28.546  -6.526  1.00  0.00     0.203 HD
HETATM    6  C3  UNL     1     -35.956 -29.490  -7.500  1.00  0.00     0.694 A 
HETATM    7  N5  UNL     1     -34.619 -29.646  -7.489  1.00  0.00    -0.140 N 
ATOM      8  H5  UNL     1     -34.185 -30.242  -8.193  1.00  0.00     0.189 HD
HETATM    9  C4  UNL     1     -33.837 -29.038  -6.577  1.00  0.00     0.354 A 
HETATM   10  O1  UNL     1     -32.581 -29.180  -6.562  1.00  0.00    -0.245 OA
ENDROOT
BRANCH   3  11
HETATM   11  N2  UNL     1     -36.202 -27.316  -4.729  1.00  0.00    -0.234 N 
ATOM     12  H22 UNL     1     -35.810 -27.277  -3.788  1.00  0.00     0.174 HD
ATOM     13  H21 UNL     1     -37.008 -26.751  -4.995  1.00  0.00     0.174 HD
ENDBRANCH   3  11
BRANCH   6  14
HETATM   14  N4  UNL     1     -36.707 -30.081  -8.385  1.00  0.00    -0.234 N 
ATOM     15  H42 UNL     1     -36.981 -29.618  -9.252  1.00  0.00     0.174 HD
ATOM     16  H41 UNL     1     -37.052 -31.030  -8.243  1.00  0.00     0.174 HD
ENDBRANCH   6  14
TORSDOF 2
ENDMDL
MODEL 2
REMARK VINA RESULT: -5.681283143      1.597      2.465
REMARK  2 active torsions:
REMARK  status: ('A' for Active; 'I' for Inactive)
REMARK    1  A    between atoms: C2_3  and  N2_4 
REMARK    2  A    between atoms: C3_9  and  N4_10 
ROOT
HETATM    1  C1  UNL     1     -33.658 -27.477  -4.796  1.00  0.00     0.180 C 
HETATM    2  N1  UNL     1     -34.519 -28.191  -5.732  1.00  0.00    -0.136 N 
HETATM    3  C2  UNL     1     -34.007 -28.847  -6.789  1.00  0.00     0.696 A 
HETATM    4  N3  UNL     1     -34.795 -29.507  -7.656  1.00  0.00    -0.022 N 
ATOM      5  H3  UNL     1     -34.370 -29.993  -8.446  1.00  0.00     0.203 HD
HETATM    6  C3  UNL     1     -36.132 -29.540  -7.506  1.00  0.00     0.694 A 
HETATM    7  N5  UNL     1     -36.639 -28.883  -6.446  1.00  0.00    -0.140 N 
ATOM      8  H5  UNL     1     -37.647 -28.888  -6.298  1.00  0.00     0.189 HD
HETATM    9  C4  UNL     1     -35.854 -28.220  -5.576  1.00  0.00     0.354 A 
HETATM   10  O1  UNL     1     -36.324 -27.601  -4.578  1.00  0.00    -0.245 OA
ENDROOT
BRANCH   3  11
HETATM   11  N2  UNL     1     -32.726 -28.812  -6.931  1.00  0.00    -0.234 N 
ATOM     12  H22 UNL     1     -32.097 -28.832  -6.127  1.00  0.00     0.174 HD
ATOM     13  H21 UNL     1     -32.370 -28.763  -7.885  1.00  0.00     0.174 HD
ENDBRANCH   3  11
BRANCH   6  14
HETATM   14  N4  UNL     1     -36.896 -30.180  -8.345  1.00  0.00    -0.234 N 
ATOM     15  H42 UNL     1     -37.837 -30.482  -8.092  1.00  0.00     0.174 HD
ATOM     16  H41 UNL     1     -36.581 -30.404  -9.289  1.00  0.00     0.174 HD
ENDBRANCH   6  14
TORSDOF 2
ENDMDL
MODEL 3
REMARK VINA RESULT: -5.379897635      1.924      2.914
REMARK  2 active torsions:
REMARK  status: ('A' for Active; 'I' for Inactive)
REMARK    1  A    between atoms: C2_3  and  N2_4 
REMARK    2  A    between atoms: C3_9  and  N4_10 
ROOT
HETATM    1  C1  UNL     1     -37.582 -27.485  -5.242  1.00  0.00     0.180 C 
HETATM    2  N1  UNL     1     -36.265 -27.883  -5.725  1.00  0.00    -0.136 N 
HETATM    3  C2  UNL     1     -35.161 -27.192  -5.386  1.00  0.00     0.696 A 
HETATM    4  N3  UNL     1     -33.942 -27.553  -5.827  1.00  0.00    -0.022 N 
ATOM      5  H3  UNL     1     -33.128 -27.005  -5.549  1.00  0.00     0.203 HD
HETATM    6  C3  UNL     1     -33.773 -28.622  -6.627  1.00  0.00     0.694 A 
HETATM    7  N5  UNL     1     -34.880 -29.310  -6.962  1.00  0.00    -0.140 N 
ATOM      8  H5  UNL     1     -34.791 -30.127  -7.565  1.00  0.00     0.189 HD
HETATM    9  C4  UNL     1     -36.102 -28.952  -6.524  1.00  0.00     0.354 A 
HETATM   10  O1  UNL     1     -37.146 -29.594  -6.834  1.00  0.00    -0.245 OA
ENDROOT
BRANCH   3  11
HETATM   11  N2  UNL     1     -35.327 -26.168  -4.621  1.00  0.00    -0.234 N 
ATOM     12  H22 UNL     1     -35.747 -26.254  -3.695  1.00  0.00     0.174 HD
ATOM     13  H21 UNL     1     -35.017 -25.267  -4.984  1.00  0.00     0.174 HD
ENDBRANCH   3  11
BRANCH   6  14
HETATM   14  N4  UNL     1     -32.594 -28.973  -7.054  1.00  0.00    -0.234 N 
ATOM     15  H42 UNL     1     -31.797 -29.061  -6.422  1.00  0.00     0.174 HD
ATOM     16  H41 UNL     1     -32.420 -29.172  -8.040  1.00  0.00     0.174 HD
ENDBRANCH   6  14
TORSDOF 2
ENDMDL
MODEL 4
REMARK VINA RESULT: -5.241650119      1.887      3.119
REMARK  2 active torsions:
REMARK  status: ('A' for Active; 'I' for Inactive)
REMARK    1  A    between atoms: C2_3  and  N2_4 
REMARK    2  A    between atoms: C3_9  and  N4_10 
ROOT
HETATM    1  C1  UNL     1     -37.553 -27.559  -5.239  1.00  0.00     0.180 C 
HETATM    2  N1  UNL     1     -36.221 -27.928  -5.705  1.00  0.00    -0.136 N 
HETATM    3  C2  UNL     1     -36.029 -29.012  -6.478  1.00  0.00     0.696 A 
HETATM    4  N3  UNL     1     -34.804 -29.359  -6.912  1.00  0.00    -0.022 N 
ATOM      5  H3  UNL     1     -34.698 -30.188  -7.496  1.00  0.00     0.203 HD
HETATM    6  C3  UNL     1     -33.714 -28.636  -6.591  1.00  0.00     0.694 A 
HETATM    7  N5  UNL     1     -33.913 -27.552  -5.819  1.00  0.00    -0.140 N 
ATOM      8  H5  UNL     1     -33.111 -26.979  -5.557  1.00  0.00     0.189 HD
HETATM    9  C4  UNL     1     -35.137 -27.201  -5.382  1.00  0.00     0.354 A 
HETATM   10  O1  UNL     1     -35.329 -26.184  -4.656  1.00  0.00    -0.245 OA
ENDROOT
BRANCH   3  11
HETATM   11  N2  UNL     1     -37.075 -29.703  -6.782  1.00  0.00    -0.234 N 
ATOM     12  H22 UNL     1     -37.655 -29.470  -7.588  1.00  0.00     0.174 HD
ATOM     13  H21 UNL     1     -37.294 -30.495  -6.179  1.00  0.00     0.174 HD
ENDBRANCH   3  11
BRANCH   6  14
HETATM   14  N4  UNL     1     -32.528 -28.971  -7.011  1.00  0.00    -0.234 N 
ATOM     15  H42 UNL     1     -31.692 -28.799  -6.452  1.00  0.00     0.174 HD
ATOM     16  H41 UNL     1     -32.389 -29.418  -7.918  1.00  0.00     0.174 HD
ENDBRANCH   6  14
TORSDOF 2
ENDMDL
MODEL 5
REMARK VINA RESULT: -5.174160033      1.594      2.764
REMARK  2 active torsions:
REMARK  status: ('A' for Active; 'I' for Inactive)
REMARK    1  A    between atoms: C2_3  and  N2_4 
REMARK    2  A    between atoms: C3_9  and  N4_10 
ROOT
HETATM    1  C1  UNL     1     -32.999 -28.961  -6.807  1.00  0.00     0.180 C 
HETATM    2  N1  UNL     1     -34.272 -28.480  -6.284  1.00  0.00    -0.136 N 
HETATM    3  C2  UNL     1     -34.336 -27.802  -5.123  1.00  0.00     0.696 A 
HETATM    4  N3  UNL     1     -35.507 -27.355  -4.634  1.00  0.00    -0.022 N 
ATOM      5  H3  UNL     1     -35.516 -26.845  -3.751  1.00  0.00     0.203 HD
HETATM    6  C3  UNL     1     -36.666 -27.566  -5.284  1.00  0.00     0.694 A 
HETATM    7  N5  UNL     1     -36.596 -28.243  -6.444  1.00  0.00    -0.140 N 
ATOM      8  H5  UNL     1     -37.454 -28.421  -6.966  1.00  0.00     0.189 HD
HETATM    9  C4  UNL     1     -35.427 -28.693  -6.938  1.00  0.00     0.354 A 
HETATM   10  O1  UNL     1     -35.354 -29.330  -8.028  1.00  0.00    -0.245 OA
ENDROOT
BRANCH   3  11
HETATM   11  N2  UNL     1     -33.224 -27.603  -4.503  1.00  0.00    -0.234 N 
ATOM     12  H22 UNL     1     -33.187 -27.501  -3.489  1.00  0.00     0.174 HD
ATOM     13  H21 UNL     1     -32.380 -27.552  -5.075  1.00  0.00     0.174 HD
ENDBRANCH   3  11
BRANCH   6  14
HETATM   14  N4  UNL     1     -37.800 -27.133  -4.811  1.00  0.00    -0.234 N 
ATOM     15  H42 UNL     1     -38.160 -27.445  -3.909  1.00  0.00     0.174 HD
ATOM     16  H41 UNL     1     -38.372 -26.464  -5.327  1.00  0.00     0.174 HD
ENDBRANCH   6  14
TORSDOF 2
ENDMDL
