MODEL 1
REMARK VINA RESULT: -5.704328950      0.000      0.000
REMARK  2 active torsions:
REMARK  status: ('A' for Active; 'I' for Inactive)
REMARK    1  A    between atoms: N3_7  and  N4_8 
REMARK    2  A    between atoms: N5_11  and  N6_12 
ROOT
HETATM    1  C1  UNL     1     -37.043 -30.236  -8.134  1.00  0.00     0.091 C 
HETATM    2  C2  UNL     1     -36.129 -29.499  -7.212  1.00  0.00     0.097 A 
HETATM    3  N1  UNL     1     -34.848 -29.656  -7.225  1.00  0.00    -0.316 N 
ATOM      4  H1  UNL     1     -34.448 -30.312  -7.895  1.00  0.00     0.170 HD
HETATM    5  C3  UNL     1     -33.969 -28.962  -6.356  1.00  0.00     0.234 A 
HETATM    6  N2  UNL     1     -32.547 -29.182  -6.420  1.00  0.00    -0.060 NA
HETATM    7  N3  UNL     1     -34.359 -28.110  -5.470  1.00  0.00    -0.135 N 
HETATM    8  N5  UNL     1     -35.753 -27.892  -5.405  1.00  0.00    -0.112 N 
HETATM    9  N7  UNL     1     -36.627 -28.569  -6.255  1.00  0.00    -0.252 N 
ATOM     10  H7  UNL     1     -37.631 -28.397  -6.190  1.00  0.00     0.192 HD
ENDROOT
BRANCH   7  11
HETATM   11  N4  UNL     1     -33.473 -27.440  -4.627  1.00  0.00    -0.319 N 
ATOM     12  H42 UNL     1     -32.958 -26.616  -4.936  1.00  0.00     0.179 HD
ATOM     13  H41 UNL     1     -33.295 -27.736  -3.666  1.00  0.00     0.179 HD
ENDBRANCH   7  11
BRANCH   8  14
HETATM   14  N6  UNL     1     -36.229 -26.972  -4.455  1.00  0.00    -0.307 N 
ATOM     15  H62 UNL     1     -36.653 -26.090  -4.742  1.00  0.00     0.180 HD
ATOM     16  H61 UNL     1     -36.135 -27.215  -3.469  1.00  0.00     0.180 HD
ENDBRANCH   8  14
TORSDOF 2
ENDMDL
MODEL 2
REMARK VINA RESULT: -5.583101664      1.809      2.929
REMARK  2 active torsions:
REMARK  status: ('A' for Active; 'I' for Inactive)
REMARK    1  A    between atoms: N3_7  and  N4_8 
REMARK    2  A    between atoms: N5_11  and  N6_12 
ROOT
HETATM    1  C1  UNL     1     -37.842 -27.109  -4.426  1.00  0.00     0.091 C 
HETATM    2  C2  UNL     1     -36.622 -27.570  -5.151  1.00  0.00     0.097 A 
HETATM    3  N1  UNL     1     -36.663 -28.066  -6.343  1.00  0.00    -0.316 N 
ATOM      4  H1  UNL     1     -37.570 -28.145  -6.803  1.00  0.00     0.170 HD
HETATM    5  C3  UNL     1     -35.513 -28.508  -7.043  1.00  0.00     0.234 A 
HETATM    6  N2  UNL     1     -35.626 -29.053  -8.372  1.00  0.00    -0.060 NA
HETATM    7  N3  UNL     1     -34.317 -28.458  -6.563  1.00  0.00    -0.135 N 
HETATM    8  N5  UNL     1     -34.204 -27.924  -5.261  1.00  0.00    -0.112 N 
HETATM    9  N7  UNL     1     -35.329 -27.487  -4.562  1.00  0.00    -0.252 N 
ATOM     10  H7  UNL     1     -35.224 -27.104  -3.622  1.00  0.00     0.192 HD
ENDROOT
BRANCH   7  11
HETATM   11  N4  UNL     1     -33.201 -28.899  -7.274  1.00  0.00    -0.319 N 
ATOM     12  H42 UNL     1     -32.454 -29.430  -6.825  1.00  0.00     0.179 HD
ATOM     13  H41 UNL     1     -33.074 -28.716  -8.270  1.00  0.00     0.179 HD
ENDBRANCH   7  11
BRANCH   8  14
HETATM   14  N6  UNL     1     -32.920 -27.848  -4.693  1.00  0.00    -0.307 N 
ATOM     15  H62 UNL     1     -32.083 -27.910  -5.272  1.00  0.00     0.180 HD
ATOM     16  H61 UNL     1     -32.854 -27.730  -3.682  1.00  0.00     0.180 HD
ENDBRANCH   8  14
TORSDOF 2
ENDMDL
MODEL 3
REMARK VINA RESULT: -5.305203514      0.853      2.556
REMARK  2 active torsions:
REMARK  status: ('A' for Active; 'I' for Inactive)
REMARK    1  A    between atoms: N3_7  and  N4_8 
REMARK    2  A    between atoms: N5_11  and  N6_12 
ROOT
HETATM    1  C1  UNL     1     -37.179 -30.264  -8.086  1.00  0.00     0.091 C 
HETATM    2  C2  UNL     1     -36.236 -29.511  -7.208  1.00  0.00     0.097 A 
HETATM    3  N1  UNL     1     -36.632 -28.781  -6.220  1.00  0.00    -0.316 N 
ATOM      4  H1  UNL     1     -37.633 -28.719  -6.036  1.00  0.00     0.170 HD
HETATM    5  C3  UNL     1     -35.748 -28.062  -5.378  1.00  0.00     0.234 A 
HETATM    6  N2  UNL     1     -36.253 -27.264  -4.291  1.00  0.00    -0.060 NA
HETATM    7  N3  UNL     1     -34.465 -28.065  -5.514  1.00  0.00    -0.135 N 
HETATM    8  N5  UNL     1     -33.966 -28.847  -6.580  1.00  0.00    -0.112 N 
HETATM    9  N7  UNL     1     -34.827 -29.558  -7.414  1.00  0.00    -0.252 N 
ATOM     10  H7  UNL     1     -34.445 -30.117  -8.178  1.00  0.00     0.192 HD
ENDROOT
BRANCH   7  11
HETATM   11  N4  UNL     1     -33.616 -27.348  -4.671  1.00  0.00    -0.319 N 
ATOM     12  H42 UNL     1     -33.940 -26.532  -4.152  1.00  0.00     0.179 HD
ATOM     13  H41 UNL     1     -32.637 -27.600  -4.532  1.00  0.00     0.179 HD
ENDBRANCH   7  11
BRANCH   8  14
HETATM   14  N6  UNL     1     -32.575 -28.883  -6.770  1.00  0.00    -0.307 N 
ATOM     15  H62 UNL     1     -32.129 -28.344  -7.513  1.00  0.00     0.180 HD
ATOM     16  H61 UNL     1     -32.024 -29.467  -6.141  1.00  0.00     0.180 HD
ENDBRANCH   8  14
TORSDOF 2
ENDMDL
MODEL 4
REMARK VINA RESULT: -5.277044742      1.925      2.960
REMARK  2 active torsions:
REMARK  status: ('A' for Active; 'I' for Inactive)
REMARK    1  A    between atoms: N3_7  and  N4_8 
REMARK    2  A    between atoms: N5_11  and  N6_12 
ROOT
HETATM    1  C1  UNL     1     -37.323 -26.974  -4.084  1.00  0.00     0.091 C 
HETATM    2  C2  UNL     1     -36.282 -27.584  -4.962  1.00  0.00     0.097 A 
HETATM    3  N1  UNL     1     -35.023 -27.560  -4.675  1.00  0.00    -0.316 N 
ATOM      4  H1  UNL     1     -34.733 -27.103  -3.811  1.00  0.00     0.170 HD
HETATM    5  C3  UNL     1     -34.024 -28.135  -5.500  1.00  0.00     0.234 A 
HETATM    6  N2  UNL     1     -32.636 -28.075  -5.123  1.00  0.00    -0.060 NA
HETATM    7  N3  UNL     1     -34.272 -28.737  -6.614  1.00  0.00    -0.135 N 
HETATM    8  N5  UNL     1     -35.633 -28.797  -6.985  1.00  0.00    -0.112 N 
HETATM    9  N7  UNL     1     -36.624 -28.235  -6.182  1.00  0.00    -0.252 N 
ATOM     10  H7  UNL     1     -37.601 -28.290  -6.470  1.00  0.00     0.192 HD
ENDROOT
BRANCH   7  11
HETATM   11  N4  UNL     1     -33.270 -29.295  -7.407  1.00  0.00    -0.319 N 
ATOM     12  H42 UNL     1     -33.450 -30.095  -8.015  1.00  0.00     0.179 HD
ATOM     13  H41 UNL     1     -32.314 -28.937  -7.421  1.00  0.00     0.179 HD
ENDBRANCH   7  11
BRANCH   8  14
HETATM   14  N6  UNL     1     -35.954 -29.443  -8.191  1.00  0.00    -0.307 N 
ATOM     15  H62 UNL     1     -35.506 -29.178  -9.068  1.00  0.00     0.180 HD
ATOM     16  H61 UNL     1     -36.652 -30.186  -8.161  1.00  0.00     0.180 HD
ENDBRANCH   8  14
TORSDOF 2
ENDMDL
MODEL 5
REMARK VINA RESULT: -4.448628394      1.827      3.423
REMARK  2 active torsions:
REMARK  status: ('A' for Active; 'I' for Inactive)
REMARK    1  A    between atoms: N3_7  and  N4_8 
REMARK    2  A    between atoms: N5_11  and  N6_12 
ROOT
HETATM    1  C1  UNL     1     -32.552 -28.808  -6.740  1.00  0.00     0.091 C 
HETATM    2  C2  UNL     1     -33.962 -28.507  -6.356  1.00  0.00     0.097 A 
HETATM    3  N1  UNL     1     -34.292 -27.468  -5.664  1.00  0.00    -0.316 N 
ATOM      4  H1  UNL     1     -33.553 -26.829  -5.371  1.00  0.00     0.170 HD
HETATM    5  C3  UNL     1     -35.626 -27.170  -5.293  1.00  0.00     0.234 A 
HETATM    6  N2  UNL     1     -35.929 -25.992  -4.520  1.00  0.00    -0.060 NA
HETATM    7  N3  UNL     1     -36.640 -27.903  -5.607  1.00  0.00    -0.135 N 
HETATM    8  N5  UNL     1     -36.346 -29.058  -6.364  1.00  0.00    -0.112 N 
HETATM    9  N7  UNL     1     -35.037 -29.362  -6.735  1.00  0.00    -0.252 N 
ATOM     10  H7  UNL     1     -34.847 -30.201  -7.283  1.00  0.00     0.192 HD
ENDROOT
BRANCH   7  11
HETATM   11  N4  UNL     1     -37.945 -27.587  -5.228  1.00  0.00    -0.319 N 
ATOM     12  H42 UNL     1     -38.584 -27.104  -5.860  1.00  0.00     0.179 HD
ATOM     13  H41 UNL     1     -38.324 -27.821  -4.310  1.00  0.00     0.179 HD
ENDBRANCH   7  11
BRANCH   8  14
HETATM   14  N6  UNL     1     -37.417 -29.891  -6.731  1.00  0.00    -0.307 N 
ATOM     15  H62 UNL     1     -37.669 -30.705  -6.172  1.00  0.00     0.180 HD
ATOM     16  H61 UNL     1     -37.935 -29.654  -7.578  1.00  0.00     0.180 HD
ENDBRANCH   8  14
TORSDOF 2
ENDMDL
