MODEL 1
REMARK VINA RESULT: -5.997878966      0.000      0.000
REMARK  3 active torsions:
REMARK  status: ('A' for Active; 'I' for Inactive)
REMARK    1  A    between atoms: C2_3  and  N2_4 
REMARK    2  A    between atoms: C3_9  and  N4_10 
REMARK    3  A    between atoms: N4_10  and  N5_12 
ROOT
HETATM    1  C1  UNL     1     -33.318 -27.600  -4.464  1.00  0.00     0.180 C 
HETATM    2  N1  UNL     1     -34.110 -28.083  -5.576  1.00  0.00    -0.136 N 
HETATM    3  C2  UNL     1     -35.423 -27.798  -5.626  1.00  0.00     0.696 A 
HETATM    4  N3  UNL     1     -36.116 -28.271  -6.682  1.00  0.00    -0.021 N 
ATOM      5  H3  UNL     1     -37.114 -28.071  -6.750  1.00  0.00     0.203 HD
HETATM    6  C3  UNL     1     -35.530 -28.993  -7.642  1.00  0.00     0.715 A 
HETATM    7  N6  UNL     1     -34.214 -29.264  -7.566  1.00  0.00    -0.139 N 
ATOM      8  H6  UNL     1     -33.762 -29.815  -8.296  1.00  0.00     0.189 HD
HETATM    9  C4  UNL     1     -33.494 -28.806  -6.525  1.00  0.00     0.354 A 
HETATM   10  O1  UNL     1     -32.264 -29.074  -6.479  1.00  0.00    -0.245 OA
ENDROOT
BRANCH   6  11
HETATM   11  N4  UNL     1     -36.194 -29.449  -8.657  1.00  0.00    -0.138 N 
ATOM     12  H4  UNL     1     -36.050 -29.021  -9.572  1.00  0.00     0.205 HD
BRANCH  11  13
HETATM   13  N5  UNL     1     -37.089 -30.497  -8.547  1.00  0.00    -0.331 N 
ATOM     14  H52 UNL     1     -37.995 -30.304  -8.119  1.00  0.00     0.177 HD
ATOM     15  H51 UNL     1     -36.872 -31.438  -8.874  1.00  0.00     0.177 HD
ENDBRANCH  11  13
ENDBRANCH   6  11
BRANCH   3  16
HETATM   16  N2  UNL     1     -36.019 -27.104  -4.715  1.00  0.00    -0.234 N 
ATOM     17  H22 UNL     1     -35.521 -26.832  -3.868  1.00  0.00     0.174 HD
ATOM     18  H21 UNL     1     -36.990 -26.804  -4.801  1.00  0.00     0.174 HD
ENDBRANCH   3  16
TORSDOF 3
ENDMDL
MODEL 2
REMARK VINA RESULT: -5.745306222      1.561      2.407
REMARK  3 active torsions:
REMARK  status: ('A' for Active; 'I' for Inactive)
REMARK    1  A    between atoms: C2_3  and  N2_4 
REMARK    2  A    between atoms: C3_9  and  N4_10 
REMARK    3  A    between atoms: N4_10  and  N5_12 
ROOT
HETATM    1  C1  UNL     1     -33.486 -27.567  -4.480  1.00  0.00     0.180 C 
HETATM    2  N1  UNL     1     -34.226 -28.112  -5.598  1.00  0.00    -0.136 N 
HETATM    3  C2  UNL     1     -33.559 -28.653  -6.633  1.00  0.00     0.696 A 
HETATM    4  N3  UNL     1     -34.294 -29.147  -7.650  1.00  0.00    -0.021 N 
ATOM      5  H3  UNL     1     -33.818 -29.565  -8.449  1.00  0.00     0.203 HD
HETATM    6  C3  UNL     1     -35.631 -29.104  -7.638  1.00  0.00     0.715 A 
HETATM    7  N6  UNL     1     -36.272 -28.557  -6.589  1.00  0.00    -0.139 N 
ATOM      8  H6  UNL     1     -37.292 -28.522  -6.575  1.00  0.00     0.189 HD
HETATM    9  C4  UNL     1     -35.567 -28.056  -5.558  1.00  0.00     0.354 A 
HETATM   10  O1  UNL     1     -36.194 -27.549  -4.590  1.00  0.00    -0.245 OA
ENDROOT
BRANCH   6  11
HETATM   11  N4  UNL     1     -36.340 -29.578  -8.613  1.00  0.00    -0.138 N 
ATOM     12  H4  UNL     1     -36.182 -29.218  -9.555  1.00  0.00     0.205 HD
BRANCH  11  13
HETATM   13  N5  UNL     1     -37.302 -30.552  -8.425  1.00  0.00    -0.331 N 
ATOM     14  H52 UNL     1     -37.666 -30.684  -7.482  1.00  0.00     0.177 HD
ATOM     15  H51 UNL     1     -37.650 -31.132  -9.189  1.00  0.00     0.177 HD
ENDBRANCH  11  13
ENDBRANCH   6  11
BRANCH   3  16
HETATM   16  N2  UNL     1     -32.270 -28.709  -6.676  1.00  0.00    -0.234 N 
ATOM     17  H22 UNL     1     -31.804 -29.280  -7.380  1.00  0.00     0.174 HD
ATOM     18  H21 UNL     1     -31.676 -28.198  -6.023  1.00  0.00     0.174 HD
ENDBRANCH   3  16
TORSDOF 3
ENDMDL
MODEL 3
REMARK VINA RESULT: -5.498325718      2.085      3.573
REMARK  3 active torsions:
REMARK  status: ('A' for Active; 'I' for Inactive)
REMARK    1  A    between atoms: C2_3  and  N2_4 
REMARK    2  A    between atoms: C3_9  and  N4_10 
REMARK    3  A    between atoms: N4_10  and  N5_12 
ROOT
HETATM    1  C1  UNL     1     -33.645 -29.122  -6.952  1.00  0.00     0.180 C 
HETATM    2  N1  UNL     1     -34.745 -28.535  -6.215  1.00  0.00    -0.136 N 
HETATM    3  C2  UNL     1     -34.491 -27.818  -5.106  1.00  0.00     0.696 A 
HETATM    4  N3  UNL     1     -35.549 -27.292  -4.457  1.00  0.00    -0.021 N 
ATOM      5  H3  UNL     1     -35.390 -26.741  -3.613  1.00  0.00     0.203 HD
HETATM    6  C3  UNL     1     -36.801 -27.471  -4.890  1.00  0.00     0.715 A 
HETATM    7  N6  UNL     1     -37.026 -28.195  -6.003  1.00  0.00    -0.139 N 
ATOM      8  H6  UNL     1     -37.980 -28.335  -6.337  1.00  0.00     0.189 HD
HETATM    9  C4  UNL     1     -35.991 -28.732  -6.674  1.00  0.00     0.354 A 
HETATM   10  O1  UNL     1     -36.231 -29.404  -7.712  1.00  0.00    -0.245 OA
ENDROOT
BRANCH   6  11
HETATM   11  N4  UNL     1     -37.820 -26.968  -4.268  1.00  0.00    -0.138 N 
ATOM     12  H4  UNL     1     -38.330 -26.198  -4.701  1.00  0.00     0.205 HD
BRANCH  11  13
HETATM   13  N5  UNL     1     -38.242 -27.437  -3.038  1.00  0.00    -0.331 N 
ATOM     14  H52 UNL     1     -38.022 -28.402  -2.796  1.00  0.00     0.177 HD
ATOM     15  H51 UNL     1     -38.759 -26.854  -2.379  1.00  0.00     0.177 HD
ENDBRANCH  11  13
ENDBRANCH   6  11
BRANCH   3  16
HETATM   16  N2  UNL     1     -33.294 -27.626  -4.661  1.00  0.00    -0.234 N 
ATOM     17  H22 UNL     1     -32.972 -28.115  -3.827  1.00  0.00     0.174 HD
ATOM     18  H21 UNL     1     -32.636 -26.992  -5.114  1.00  0.00     0.174 HD
ENDBRANCH   3  16
TORSDOF 3
ENDMDL
MODEL 4
REMARK VINA RESULT: -5.458868057      1.534      3.448
REMARK  3 active torsions:
REMARK  status: ('A' for Active; 'I' for Inactive)
REMARK    1  A    between atoms: C2_3  and  N2_4 
REMARK    2  A    between atoms: C3_9  and  N4_10 
REMARK    3  A    between atoms: N4_10  and  N5_12 
ROOT
HETATM    1  C1  UNL     1     -33.422 -29.024  -6.826  1.00  0.00     0.180 C 
HETATM    2  N1  UNL     1     -34.643 -28.535  -6.220  1.00  0.00    -0.136 N 
HETATM    3  C2  UNL     1     -35.830 -28.890  -6.742  1.00  0.00     0.696 A 
HETATM    4  N3  UNL     1     -36.936 -28.409  -6.140  1.00  0.00    -0.021 N 
ATOM      5  H3  UNL     1     -37.853 -28.661  -6.511  1.00  0.00     0.203 HD
HETATM    6  C3  UNL     1     -36.865 -27.611  -5.070  1.00  0.00     0.715 A 
HETATM    7  N6  UNL     1     -35.663 -27.271  -4.569  1.00  0.00    -0.139 N 
ATOM      8  H6  UNL     1     -35.604 -26.661  -3.753  1.00  0.00     0.189 HD
HETATM    9  C4  UNL     1     -34.540 -27.736  -5.146  1.00  0.00     0.354 A 
HETATM   10  O1  UNL     1     -33.429 -27.401  -4.655  1.00  0.00    -0.245 OA
ENDROOT
BRANCH   6  11
HETATM   11  N4  UNL     1     -37.927 -27.146  -4.491  1.00  0.00    -0.138 N 
ATOM     12  H4  UNL     1     -38.588 -26.597  -5.041  1.00  0.00     0.205 HD
BRANCH  11  13
HETATM   13  N5  UNL     1     -38.198 -27.368  -3.154  1.00  0.00    -0.331 N 
ATOM     14  H52 UNL     1     -37.410 -27.396  -2.508  1.00  0.00     0.177 HD
ATOM     15  H51 UNL     1     -39.147 -27.501  -2.803  1.00  0.00     0.177 HD
ENDBRANCH  11  13
ENDBRANCH   6  11
BRANCH   3  16
HETATM   16  N2  UNL     1     -35.933 -29.659  -7.774  1.00  0.00    -0.234 N 
ATOM     17  H22 UNL     1     -35.168 -30.283  -8.028  1.00  0.00     0.174 HD
ATOM     18  H21 UNL     1     -36.764 -29.675  -8.366  1.00  0.00     0.174 HD
ENDBRANCH   3  16
TORSDOF 3
ENDMDL
MODEL 5
REMARK VINA RESULT: -5.147958801      2.157      2.741
REMARK  3 active torsions:
REMARK  status: ('A' for Active; 'I' for Inactive)
REMARK    1  A    between atoms: C2_3  and  N2_4 
REMARK    2  A    between atoms: C3_9  and  N4_10 
REMARK    3  A    between atoms: N4_10  and  N5_12 
ROOT
HETATM    1  C1  UNL     1     -35.360 -26.100  -4.076  1.00  0.00     0.180 C 
HETATM    2  N1  UNL     1     -35.469 -27.205  -5.004  1.00  0.00    -0.136 N 
HETATM    3  C2  UNL     1     -34.389 -27.964  -5.261  1.00  0.00     0.696 A 
HETATM    4  N3  UNL     1     -34.543 -28.981  -6.132  1.00  0.00    -0.021 N 
ATOM      5  H3  UNL     1     -33.743 -29.577  -6.347  1.00  0.00     0.203 HD
HETATM    6  C3  UNL     1     -35.717 -29.231  -6.722  1.00  0.00     0.715 A 
HETATM    7  N6  UNL     1     -36.781 -28.455  -6.447  1.00  0.00    -0.139 N 
ATOM      8  H6  UNL     1     -37.679 -28.641  -6.896  1.00  0.00     0.189 HD
HETATM    9  C4  UNL     1     -36.660 -27.432  -5.581  1.00  0.00     0.354 A 
HETATM   10  O1  UNL     1     -37.673 -26.722  -5.344  1.00  0.00    -0.245 OA
ENDROOT
BRANCH   6  11
HETATM   11  N4  UNL     1     -35.867 -30.207  -7.561  1.00  0.00    -0.138 N 
ATOM     12  H4  UNL     1     -35.329 -31.063  -7.422  1.00  0.00     0.205 HD
BRANCH  11  13
HETATM   13  N5  UNL     1     -36.732 -30.132  -8.637  1.00  0.00    -0.331 N 
ATOM     14  H52 UNL     1     -36.350 -29.832  -9.533  1.00  0.00     0.177 HD
ATOM     15  H51 UNL     1     -37.722 -30.364  -8.560  1.00  0.00     0.177 HD
ENDBRANCH  11  13
ENDBRANCH   6  11
BRANCH   3  16
HETATM   16  N2  UNL     1     -33.242 -27.750  -4.708  1.00  0.00    -0.234 N 
ATOM     17  H22 UNL     1     -32.397 -27.710  -5.277  1.00  0.00     0.174 HD
ATOM     18  H21 UNL     1     -33.134 -27.614  -3.703  1.00  0.00     0.174 HD
ENDBRANCH   3  16
TORSDOF 3
ENDMDL
