MODEL 1
REMARK VINA RESULT: -6.923944138      0.000      0.000
REMARK  2 active torsions:
REMARK  status: ('A' for Active; 'I' for Inactive)
REMARK    1  A    between atoms: N1_1  and  C1_4 
REMARK    2  A    between atoms: C2_11  and  N5_12 
REMARK       I    between atoms: N5_12  and  C3_14 
ROOT
HETATM    1  C1  UNL     1     -34.712 -27.823  -7.341  1.00  0.00     0.706 A 
HETATM    2  N2  UNL     1     -33.498 -28.262  -6.979  1.00  0.00    -0.117 N 
ATOM      3  H2  UNL     1     -32.863 -28.695  -7.651  1.00  0.00     0.207 HD
HETATM    4  N3  UNL     1     -33.163 -28.107  -5.712  1.00  0.00    -0.214 N 
ATOM      5  H3  UNL     1     -32.246 -28.430  -5.403  1.00  0.00     0.209 HD
HETATM    6  N4  UNL     1     -33.976 -27.546  -4.824  1.00  0.00    -0.116 N 
ATOM      7  H4  UNL     1     -33.664 -27.453  -3.857  1.00  0.00     0.207 HD
HETATM    8  C2  UNL     1     -35.201 -27.097  -5.162  1.00  0.00     0.716 A 
HETATM    9  N7  UNL     1     -35.556 -27.247  -6.450  1.00  0.00    -0.020 N 
ATOM     10  H7  UNL     1     -36.472 -26.923  -6.761  1.00  0.00     0.203 HD
ENDROOT
BRANCH   8  11
HETATM   11  N5  UNL     1     -35.984 -26.552  -4.284  1.00  0.00    -0.142 N 
HETATM   12  C3  UNL     1     -37.328 -27.008  -4.204  1.00  0.00     0.347 C 
HETATM   13  N6  UNL     1     -37.823 -27.402  -2.931  1.00  0.00    -0.039 NA
HETATM   14  O1  UNL     1     -38.096 -27.079  -5.199  1.00  0.00    -0.250 OA
ATOM     15  H5  UNL     1     -35.644 -25.815  -3.666  1.00  0.00     0.189 HD
ENDBRANCH   8  11
BRANCH   1  16
HETATM   16  N1  UNL     1     -35.088 -27.948  -8.559  1.00  0.00    -0.233 N 
ATOM     17  H12 UNL     1     -34.740 -27.287  -9.254  1.00  0.00     0.174 HD
ATOM     18  H11 UNL     1     -35.725 -28.703  -8.811  1.00  0.00     0.174 HD
ENDBRANCH   1  16
TORSDOF 2
ENDMDL
MODEL 2
REMARK VINA RESULT: -6.914483440      1.296      1.710
REMARK  2 active torsions:
REMARK  status: ('A' for Active; 'I' for Inactive)
REMARK    1  A    between atoms: N1_1  and  C1_4 
REMARK    2  A    between atoms: C2_11  and  N5_12 
REMARK       I    between atoms: N5_12  and  C3_14 
ROOT
HETATM    1  C1  UNL     1     -36.080 -29.148  -7.527  1.00  0.00     0.706 A 
HETATM    2  N2  UNL     1     -35.164 -28.550  -8.302  1.00  0.00    -0.117 N 
ATOM      3  H2  UNL     1     -34.923 -28.914  -9.225  1.00  0.00     0.207 HD
HETATM    4  N3  UNL     1     -34.587 -27.468  -7.813  1.00  0.00    -0.214 N 
ATOM      5  H3  UNL     1     -33.885 -26.988  -8.377  1.00  0.00     0.209 HD
HETATM    6  N4  UNL     1     -34.887 -26.981  -6.614  1.00  0.00    -0.116 N 
ATOM      7  H4  UNL     1     -34.409 -26.142  -6.287  1.00  0.00     0.207 HD
HETATM    8  C2  UNL     1     -35.804 -27.563  -5.816  1.00  0.00     0.716 A 
HETATM    9  N7  UNL     1     -36.401 -28.667  -6.302  1.00  0.00    -0.020 N 
ATOM     10  H7  UNL     1     -37.104 -29.146  -5.740  1.00  0.00     0.203 HD
ENDROOT
BRANCH   8  11
HETATM   11  N5  UNL     1     -36.087 -27.076  -4.649  1.00  0.00    -0.142 N 
HETATM   12  C3  UNL     1     -37.455 -26.986  -4.270  1.00  0.00     0.347 C 
HETATM   13  N6  UNL     1     -37.837 -27.550  -3.023  1.00  0.00    -0.039 NA
HETATM   14  O1  UNL     1     -38.336 -26.435  -4.980  1.00  0.00    -0.250 OA
ATOM     15  H5  UNL     1     -35.348 -26.766  -4.018  1.00  0.00     0.189 HD
ENDBRANCH   8  11
BRANCH   1  16
HETATM   16  N1  UNL     1     -36.672 -30.202  -7.953  1.00  0.00    -0.233 N 
ATOM     17  H12 UNL     1     -37.660 -30.335  -7.738  1.00  0.00     0.174 HD
ATOM     18  H11 UNL     1     -36.145 -30.885  -8.498  1.00  0.00     0.174 HD
ENDBRANCH   1  16
TORSDOF 2
ENDMDL
MODEL 3
REMARK VINA RESULT: -6.452211156      1.240      1.888
REMARK  2 active torsions:
REMARK  status: ('A' for Active; 'I' for Inactive)
REMARK    1  A    between atoms: N1_1  and  C1_4 
REMARK    2  A    between atoms: C2_11  and  N5_12 
REMARK       I    between atoms: N5_12  and  C3_14 
ROOT
HETATM    1  C1  UNL     1     -33.943 -28.770  -6.755  1.00  0.00     0.706 A 
HETATM    2  N2  UNL     1     -34.832 -29.518  -7.424  1.00  0.00    -0.117 N 
ATOM      3  H2  UNL     1     -34.543 -30.161  -8.162  1.00  0.00     0.207 HD
HETATM    4  N3  UNL     1     -36.100 -29.383  -7.082  1.00  0.00    -0.214 N 
ATOM      5  H3  UNL     1     -36.802 -29.938  -7.572  1.00  0.00     0.209 HD
HETATM    6  N4  UNL     1     -36.495 -28.551  -6.125  1.00  0.00    -0.116 N 
ATOM      7  H4  UNL     1     -37.488 -28.487  -5.904  1.00  0.00     0.207 HD
HETATM    8  C2  UNL     1     -35.622 -27.788  -5.438  1.00  0.00     0.716 A 
HETATM    9  N7  UNL     1     -34.326 -27.916  -5.774  1.00  0.00    -0.020 N 
ATOM     10  H7  UNL     1     -33.622 -27.363  -5.285  1.00  0.00     0.203 HD
ENDROOT
BRANCH   8  11
HETATM   11  N5  UNL     1     -36.022 -26.981  -4.506  1.00  0.00    -0.142 N 
HETATM   12  C3  UNL     1     -37.421 -26.853  -4.280  1.00  0.00     0.347 C 
HETATM   13  N6  UNL     1     -37.898 -27.026  -2.952  1.00  0.00    -0.039 NA
HETATM   14  O1  UNL     1     -38.250 -26.598  -5.192  1.00  0.00    -0.250 OA
ATOM     15  H5  UNL     1     -35.352 -26.451  -3.949  1.00  0.00     0.189 HD
ENDBRANCH   8  11
BRANCH   1  16
HETATM   16  N1  UNL     1     -32.699 -28.862  -7.046  1.00  0.00    -0.233 N 
ATOM     17  H12 UNL     1     -32.292 -28.185  -7.691  1.00  0.00     0.174 HD
ATOM     18  H11 UNL     1     -32.142 -29.606  -6.627  1.00  0.00     0.174 HD
ENDBRANCH   1  16
TORSDOF 2
ENDMDL
MODEL 4
REMARK VINA RESULT: -6.308692663      1.570      2.372
REMARK  2 active torsions:
REMARK  status: ('A' for Active; 'I' for Inactive)
REMARK    1  A    between atoms: N1_1  and  C1_4 
REMARK    2  A    between atoms: C2_11  and  N5_12 
REMARK       I    between atoms: N5_12  and  C3_14 
ROOT
HETATM    1  C1  UNL     1     -33.632 -28.174  -5.643  1.00  0.00     0.706 A 
HETATM    2  N2  UNL     1     -33.340 -28.354  -6.939  1.00  0.00    -0.117 N 
ATOM      3  H2  UNL     1     -32.375 -28.428  -7.265  1.00  0.00     0.207 HD
HETATM    4  N3  UNL     1     -34.360 -28.430  -7.773  1.00  0.00    -0.214 N 
ATOM      5  H3  UNL     1     -34.172 -28.566  -8.767  1.00  0.00     0.209 HD
HETATM    6  N4  UNL     1     -35.621 -28.334  -7.368  1.00  0.00    -0.116 N 
ATOM      7  H4  UNL     1     -36.369 -28.400  -8.058  1.00  0.00     0.207 HD
HETATM    8  C2  UNL     1     -35.941 -28.154  -6.071  1.00  0.00     0.716 A 
HETATM    9  N7  UNL     1     -34.912 -28.076  -5.209  1.00  0.00    -0.020 N 
ATOM     10  H7  UNL     1     -35.098 -27.940  -4.215  1.00  0.00     0.203 HD
ENDROOT
BRANCH   8  11
HETATM   11  N5  UNL     1     -37.177 -28.063  -5.690  1.00  0.00    -0.142 N 
HETATM   12  C3  UNL     1     -37.535 -27.002  -4.813  1.00  0.00     0.347 C 
HETATM   13  N6  UNL     1     -38.632 -26.176  -5.181  1.00  0.00    -0.039 NA
HETATM   14  O1  UNL     1     -36.932 -26.761  -3.734  1.00  0.00    -0.250 OA
ATOM     15  H5  UNL     1     -37.875 -28.735  -6.010  1.00  0.00     0.189 HD
ENDBRANCH   8  11
BRANCH   1  16
HETATM   16  N1  UNL     1     -32.680 -28.094  -4.789  1.00  0.00    -0.233 N 
ATOM     17  H12 UNL     1     -32.736 -28.648  -3.935  1.00  0.00     0.174 HD
ATOM     18  H11 UNL     1     -31.888 -27.482  -4.980  1.00  0.00     0.174 HD
ENDBRANCH   1  16
TORSDOF 2
ENDMDL
MODEL 5
REMARK VINA RESULT: -6.295059093      1.533      1.865
REMARK  2 active torsions:
REMARK  status: ('A' for Active; 'I' for Inactive)
REMARK    1  A    between atoms: N1_1  and  C1_4 
REMARK    2  A    between atoms: C2_11  and  N5_12 
REMARK       I    between atoms: N5_12  and  C3_14 
ROOT
HETATM    1  C1  UNL     1     -33.373 -28.551  -6.332  1.00  0.00     0.706 A 
HETATM    2  N2  UNL     1     -32.811 -28.021  -5.236  1.00  0.00    -0.117 N 
ATOM      3  H2  UNL     1     -31.804 -28.065  -5.077  1.00  0.00     0.207 HD
HETATM    4  N3  UNL     1     -33.623 -27.439  -4.374  1.00  0.00    -0.214 N 
ATOM      5  H3  UNL     1     -33.228 -27.025  -3.529  1.00  0.00     0.209 HD
HETATM    6  N4  UNL     1     -34.936 -27.372  -4.565  1.00  0.00    -0.116 N 
ATOM      7  H4  UNL     1     -35.515 -26.910  -3.864  1.00  0.00     0.207 HD
HETATM    8  C2  UNL     1     -35.525 -27.896  -5.658  1.00  0.00     0.716 A 
HETATM    9  N7  UNL     1     -34.710 -28.492  -6.546  1.00  0.00    -0.020 N 
ATOM     10  H7  UNL     1     -35.103 -28.904  -7.392  1.00  0.00     0.203 HD
ENDROOT
BRANCH   8  11
HETATM   11  N5  UNL     1     -36.808 -27.823  -5.831  1.00  0.00    -0.142 N 
HETATM   12  C3  UNL     1     -37.591 -27.209  -4.815  1.00  0.00     0.347 C 
HETATM   13  N6  UNL     1     -38.485 -26.173  -5.199  1.00  0.00    -0.039 NA
HETATM   14  O1  UNL     1     -37.530 -27.536  -3.600  1.00  0.00    -0.250 OA
ATOM     15  H5  UNL     1     -37.245 -28.195  -6.674  1.00  0.00     0.189 HD
ENDBRANCH   8  11
BRANCH   1  16
HETATM   16  N1  UNL     1     -32.631 -29.127  -7.203  1.00  0.00    -0.233 N 
ATOM     17  H12 UNL     1     -31.828 -28.623  -7.578  1.00  0.00     0.174 HD
ATOM     18  H11 UNL     1     -32.855 -30.076  -7.502  1.00  0.00     0.174 HD
ENDBRANCH   1  16
TORSDOF 2
ENDMDL
