MODEL 1
REMARK VINA RESULT: -7.244255000      0.000      0.000
REMARK  0 active torsions:
REMARK  status: ('A' for Active; 'I' for Inactive)
ROOT
HETATM    1  O1  UNL     1     -35.529 -27.355  -8.420  1.00  0.00    -0.266 OA
HETATM    2  C1  UNL     1     -34.774 -27.586  -7.441  1.00  0.00     0.280 A 
HETATM    3  N1  UNL     1     -33.685 -28.362  -7.498  1.00  0.00    -0.251 N 
ATOM      4  H1  UNL     1     -33.441 -28.799  -8.387  1.00  0.00     0.192 HD
HETATM    5  N2  UNL     1     -32.906 -28.586  -6.443  1.00  0.00    -0.238 N 
ATOM      6  H2  UNL     1     -32.090 -29.189  -6.552  1.00  0.00     0.208 HD
HETATM    7  N3  UNL     1     -33.153 -28.055  -5.256  1.00  0.00    -0.269 N 
ATOM      8  H3  UNL     1     -32.548 -28.232  -4.454  1.00  0.00     0.190 HD
HETATM    9  C2  UNL     1     -34.242 -27.269  -5.162  1.00  0.00     0.157 A 
HETATM   10  N4  UNL     1     -34.763 -26.591  -4.120  1.00  0.00    -0.281 N 
ATOM     11  H4  UNL     1     -34.367 -26.584  -3.181  1.00  0.00     0.188 HD
HETATM   12  N5  UNL     1     -35.852 -25.940  -4.476  1.00  0.00    -0.264 N 
ATOM     13  H5  UNL     1     -36.423 -25.357  -3.864  1.00  0.00     0.190 HD
HETATM   14  C3  UNL     1     -36.083 -26.170  -5.768  1.00  0.00     0.279 A 
HETATM   15  O2  UNL     1     -37.008 -25.748  -6.503  1.00  0.00    -0.266 OA
HETATM   16  C4  UNL     1     -35.080 -27.008  -6.229  1.00  0.00     0.149 A 
ENDROOT
TORSDOF 0
ENDMDL
MODEL 2
REMARK VINA RESULT: -6.659878477      1.595      3.079
REMARK  0 active torsions:
REMARK  status: ('A' for Active; 'I' for Inactive)
ROOT
HETATM    1  O1  UNL     1     -35.570 -28.245  -8.176  1.00  0.00    -0.266 OA
HETATM    2  C1  UNL     1     -35.524 -27.593  -7.102  1.00  0.00     0.280 A 
HETATM    3  N1  UNL     1     -36.428 -26.675  -6.740  1.00  0.00    -0.251 N 
ATOM      4  H1  UNL     1     -37.209 -26.483  -7.368  1.00  0.00     0.192 HD
HETATM    5  N2  UNL     1     -36.350 -26.001  -5.595  1.00  0.00    -0.238 N 
ATOM      6  H2  UNL     1     -37.071 -25.313  -5.379  1.00  0.00     0.208 HD
HETATM    7  N3  UNL     1     -35.370 -26.194  -4.727  1.00  0.00    -0.269 N 
ATOM      8  H3  UNL     1     -35.321 -25.673  -3.852  1.00  0.00     0.190 HD
HETATM    9  C2  UNL     1     -34.442 -27.111  -5.059  1.00  0.00     0.157 A 
HETATM   10  N4  UNL     1     -33.340 -27.536  -4.411  1.00  0.00    -0.281 N 
ATOM     11  H4  UNL     1     -33.034 -27.188  -3.503  1.00  0.00     0.188 HD
HETATM   12  N5  UNL     1     -32.709 -28.461  -5.106  1.00  0.00    -0.264 N 
ATOM     13  H5  UNL     1     -31.851 -28.935  -4.824  1.00  0.00     0.190 HD
HETATM   14  C3  UNL     1     -33.379 -28.674  -6.239  1.00  0.00     0.279 A 
HETATM   15  O2  UNL     1     -33.129 -29.466  -7.179  1.00  0.00    -0.266 OA
HETATM   16  C4  UNL     1     -34.481 -27.834  -6.236  1.00  0.00     0.149 A 
ENDROOT
TORSDOF 0
ENDMDL
MODEL 3
REMARK VINA RESULT: -6.590752083      2.137      3.302
REMARK  0 active torsions:
REMARK  status: ('A' for Active; 'I' for Inactive)
ROOT
HETATM    1  O1  UNL     1     -35.848 -29.798  -7.560  1.00  0.00    -0.266 OA
HETATM    2  C1  UNL     1     -35.957 -28.976  -6.614  1.00  0.00     0.280 A 
HETATM    3  N1  UNL     1     -37.123 -28.497  -6.165  1.00  0.00    -0.251 N 
ATOM      4  H1  UNL     1     -37.985 -28.811  -6.611  1.00  0.00     0.192 HD
HETATM    5  N2  UNL     1     -37.204 -27.628  -5.161  1.00  0.00    -0.238 N 
ATOM      6  H2  UNL     1     -38.124 -27.299  -4.867  1.00  0.00     0.208 HD
HETATM    7  N3  UNL     1     -36.133 -27.174  -4.531  1.00  0.00    -0.269 N 
ATOM      8  H3  UNL     1     -36.206 -26.509  -3.761  1.00  0.00     0.190 HD
HETATM    9  C2  UNL     1     -34.942 -27.636  -4.957  1.00  0.00     0.157 A 
HETATM   10  N4  UNL     1     -33.687 -27.379  -4.539  1.00  0.00    -0.281 N 
ATOM     11  H4  UNL     1     -33.451 -26.743  -3.777  1.00  0.00     0.188 HD
HETATM   12  N5  UNL     1     -32.804 -28.056  -5.244  1.00  0.00    -0.264 N 
ATOM     13  H5  UNL     1     -31.793 -28.029  -5.116  1.00  0.00     0.190 HD
HETATM   14  C3  UNL     1     -33.454 -28.783  -6.154  1.00  0.00     0.279 A 
HETATM   15  O2  UNL     1     -33.001 -29.567  -7.023  1.00  0.00    -0.266 OA
HETATM   16  C4  UNL     1     -34.808 -28.538  -5.995  1.00  0.00     0.149 A 
ENDROOT
TORSDOF 0
ENDMDL
MODEL 4
REMARK VINA RESULT: -6.422005860      2.481      3.897
REMARK  0 active torsions:
REMARK  status: ('A' for Active; 'I' for Inactive)
ROOT
HETATM    1  O1  UNL     1     -32.981 -27.700  -5.143  1.00  0.00    -0.266 OA
HETATM    2  C1  UNL     1     -34.234 -27.609  -5.199  1.00  0.00     0.280 A 
HETATM    3  N1  UNL     1     -34.957 -26.735  -4.489  1.00  0.00    -0.251 N 
ATOM      4  H1  UNL     1     -34.472 -26.097  -3.858  1.00  0.00     0.192 HD
HETATM    5  N2  UNL     1     -36.284 -26.665  -4.572  1.00  0.00    -0.238 N 
ATOM      6  H2  UNL     1     -36.777 -25.976  -4.002  1.00  0.00     0.208 HD
HETATM    7  N3  UNL     1     -36.985 -27.456  -5.367  1.00  0.00    -0.269 N 
ATOM      8  H3  UNL     1     -38.001 -27.392  -5.424  1.00  0.00     0.190 HD
HETATM    9  C2  UNL     1     -36.289 -28.348  -6.097  1.00  0.00     0.157 A 
HETATM   10  N4  UNL     1     -36.691 -29.279  -6.984  1.00  0.00    -0.281 N 
ATOM     11  H4  UNL     1     -37.663 -29.447  -7.243  1.00  0.00     0.188 HD
HETATM   12  N5  UNL     1     -35.664 -29.944  -7.472  1.00  0.00    -0.264 N 
ATOM     13  H5  UNL     1     -35.714 -30.696  -8.160  1.00  0.00     0.190 HD
HETATM   14  C3  UNL     1     -34.548 -29.470  -6.918  1.00  0.00     0.279 A 
HETATM   15  O2  UNL     1     -33.355 -29.816  -7.099  1.00  0.00    -0.266 OA
HETATM   16  C4  UNL     1     -34.913 -28.458  -6.044  1.00  0.00     0.149 A 
ENDROOT
TORSDOF 0
ENDMDL
MODEL 5
REMARK VINA RESULT: -6.396743936      1.661      1.681
REMARK  0 active torsions:
REMARK  status: ('A' for Active; 'I' for Inactive)
ROOT
HETATM    1  O1  UNL     1     -36.707 -29.950  -7.070  1.00  0.00    -0.266 OA
HETATM    2  C1  UNL     1     -35.633 -29.332  -6.855  1.00  0.00     0.280 A 
HETATM    3  N1  UNL     1     -34.444 -29.694  -7.351  1.00  0.00    -0.251 N 
ATOM      4  H1  UNL     1     -34.393 -30.523  -7.943  1.00  0.00     0.192 HD
HETATM    5  N2  UNL     1     -33.325 -29.017  -7.104  1.00  0.00    -0.238 N 
ATOM      6  H2  UNL     1     -32.450 -29.347  -7.512  1.00  0.00     0.208 HD
HETATM    7  N3  UNL     1     -33.308 -27.931  -6.348  1.00  0.00    -0.269 N 
ATOM      8  H3  UNL     1     -32.446 -27.419  -6.166  1.00  0.00     0.190 HD
HETATM    9  C2  UNL     1     -34.488 -27.538  -5.832  1.00  0.00     0.157 A 
HETATM   10  N4  UNL     1     -34.809 -26.498  -5.037  1.00  0.00    -0.281 N 
ATOM     11  H4  UNL     1     -34.142 -25.809  -4.691  1.00  0.00     0.188 HD
HETATM   12  N5  UNL     1     -36.099 -26.487  -4.768  1.00  0.00    -0.264 N 
ATOM     13  H5  UNL     1     -36.580 -25.799  -4.189  1.00  0.00     0.190 HD
HETATM   14  C3  UNL     1     -36.669 -27.526  -5.379  1.00  0.00     0.279 A 
HETATM   15  O2  UNL     1     -37.872 -27.887  -5.388  1.00  0.00    -0.266 OA
HETATM   16  C4  UNL     1     -35.675 -28.208  -6.060  1.00  0.00     0.149 A 
ENDROOT
TORSDOF 0
ENDMDL
