MODEL 1
REMARK VINA RESULT: -6.744689936      0.000      0.000
REMARK  7 active torsions:
REMARK  status: ('A' for Active; 'I' for Inactive)
REMARK    1  A    between atoms: N1_1  and  N2_4 
REMARK    2  A    between atoms: N2_4  and  N3_5 
REMARK    3  A    between atoms: N3_5  and  C1_7 
REMARK    4  A    between atoms: C5_11  and  N4_12 
REMARK       I    between atoms: N4_12  and  C6_14 
REMARK    5  A    between atoms: C6_14  and  C7_16 
REMARK    6  A    between atoms: C9_19  and  O2_20 
REMARK    7  A    between atoms: C10_22  and  O3_23 
ROOT
HETATM    1  C7  UNL     1      24.592 -14.148 -21.049  1.00  0.00     0.007 C 
HETATM    2  C8  UNL     1      23.444 -14.478 -20.943  1.00  0.00    -0.013 C 
HETATM    3 BR1  UNL     1      21.648 -14.998 -20.752  1.00  0.00     0.011 Br
ENDROOT
BRANCH   1   4
HETATM    4  C6  UNL     1      25.950 -13.737 -21.187  1.00  0.00     0.297 C 
HETATM    5  N4  UNL     1      26.988 -14.598 -20.849  1.00  0.00    -0.343 N 
ATOM      6  H4  UNL     1      26.749 -15.527 -20.502  1.00  0.00     0.163 HD
HETATM    7  O1  UNL     1      26.188 -12.587 -21.616  1.00  0.00    -0.258 OA
BRANCH   5   8
HETATM    8  C5  UNL     1      28.409 -14.248 -20.963  1.00  0.00     0.116 C 
HETATM    9  C4  UNL     1      28.863 -14.752 -22.307  1.00  0.00     0.028 C 
HETATM   10  C3  UNL     1      29.857 -13.723 -22.843  1.00  0.00     0.004 C 
HETATM   11  C2  UNL     1      30.855 -13.345 -21.775  1.00  0.00     0.030 C 
HETATM   12  C1  UNL     1      31.275 -14.578 -21.060  1.00  0.00     0.145 C 
HETATM   13  C10 UNL     1      30.558 -14.878 -19.802  1.00  0.00     0.174 C 
HETATM   14  C9  UNL     1      29.098 -14.929 -19.826  1.00  0.00     0.171 C 
BRANCH  12  15
HETATM   15  N3  UNL     1      32.703 -14.446 -20.725  1.00  0.00    -0.245 N 
ATOM     16  H3  UNL     1      33.397 -14.958 -21.270  1.00  0.00     0.197 HD
BRANCH  15  17
HETATM   17  N2  UNL     1      33.065 -13.735 -19.809  1.00  0.00    -0.248 NA
BRANCH  17  18
HETATM   18  N1  UNL     1      33.535 -12.939 -19.018  1.00  0.00    -0.261 N 
ATOM     19  H12 UNL     1      33.944 -12.462 -19.821  1.00  0.00     0.193 HD
ATOM     20  H11 UNL     1      33.858 -12.357 -18.244  1.00  0.00     0.193 HD
ENDBRANCH  17  18
ENDBRANCH  15  17
ENDBRANCH  12  15
BRANCH  13  21
HETATM   21  O3  UNL     1      31.032 -16.137 -19.354  1.00  0.00    -0.391 OA
ATOM     22  H3  UNL     1      30.947 -16.139 -18.408  1.00  0.00     0.210 HD
ENDBRANCH  13  21
BRANCH  14  23
HETATM   23  O2  UNL     1      28.602 -14.347 -18.639  1.00  0.00    -0.391 OA
ATOM     24  H2  UNL     1      28.428 -15.060 -18.035  1.00  0.00     0.210 HD
ENDBRANCH  14  23
ENDBRANCH   5   8
ENDBRANCH   1   4
TORSDOF 7
ENDMDL
MODEL 2
REMARK VINA RESULT: -6.729956594      0.711      1.105
REMARK  7 active torsions:
REMARK  status: ('A' for Active; 'I' for Inactive)
REMARK    1  A    between atoms: N1_1  and  N2_4 
REMARK    2  A    between atoms: N2_4  and  N3_5 
REMARK    3  A    between atoms: N3_5  and  C1_7 
REMARK    4  A    between atoms: C5_11  and  N4_12 
REMARK       I    between atoms: N4_12  and  C6_14 
REMARK    5  A    between atoms: C6_14  and  C7_16 
REMARK    6  A    between atoms: C9_19  and  O2_20 
REMARK    7  A    between atoms: C10_22  and  O3_23 
ROOT
HETATM    1  C7  UNL     1      24.517 -14.116 -21.062  1.00  0.00     0.007 C 
HETATM    2  C8  UNL     1      23.367 -14.435 -20.953  1.00  0.00    -0.013 C 
HETATM    3 BR1  UNL     1      21.565 -14.933 -20.756  1.00  0.00     0.011 Br
ENDROOT
BRANCH   1   4
HETATM    4  C6  UNL     1      25.879 -13.720 -21.210  1.00  0.00     0.297 C 
HETATM    5  N4  UNL     1      26.909 -14.604 -20.908  1.00  0.00    -0.343 N 
ATOM      6  H4  UNL     1      26.662 -15.537 -20.581  1.00  0.00     0.163 HD
HETATM    7  O1  UNL     1      26.128 -12.563 -21.614  1.00  0.00    -0.258 OA
BRANCH   5   8
HETATM    8  C5  UNL     1      28.333 -14.270 -21.034  1.00  0.00     0.116 C 
HETATM    9  C4  UNL     1      28.758 -14.736 -22.401  1.00  0.00     0.028 C 
HETATM   10  C3  UNL     1      29.759 -13.704 -22.920  1.00  0.00     0.004 C 
HETATM   11  C2  UNL     1      30.779 -13.377 -21.857  1.00  0.00     0.030 C 
HETATM   12  C1  UNL     1      31.192 -14.639 -21.190  1.00  0.00     0.145 C 
HETATM   13  C10 UNL     1      30.491 -14.970 -19.931  1.00  0.00     0.174 C 
HETATM   14  C9  UNL     1      29.030 -14.999 -19.932  1.00  0.00     0.171 C 
BRANCH  12  15
HETATM   15  N3  UNL     1      32.627 -14.539 -20.874  1.00  0.00    -0.245 N 
ATOM     16  H3  UNL     1      33.031 -13.628 -20.652  1.00  0.00     0.197 HD
BRANCH  15  17
HETATM   17  N2  UNL     1      33.336 -15.525 -20.874  1.00  0.00    -0.248 NA
BRANCH  17  18
HETATM   18  N1  UNL     1      33.899 -16.601 -20.947  1.00  0.00    -0.261 N 
ATOM     19  H12 UNL     1      33.280 -16.813 -21.729  1.00  0.00     0.193 HD
ATOM     20  H11 UNL     1      34.457 -17.453 -20.887  1.00  0.00     0.193 HD
ENDBRANCH  17  18
ENDBRANCH  15  17
ENDBRANCH  12  15
BRANCH  13  21
HETATM   21  O3  UNL     1      30.952 -16.251 -19.532  1.00  0.00    -0.391 OA
ATOM     22  H3  UNL     1      31.865 -16.148 -19.289  1.00  0.00     0.210 HD
ENDBRANCH  13  21
BRANCH  14  23
HETATM   23  O2  UNL     1      28.562 -14.450 -18.718  1.00  0.00    -0.391 OA
ATOM     24  H2  UNL     1      29.031 -13.634 -18.587  1.00  0.00     0.210 HD
ENDBRANCH  14  23
ENDBRANCH   5   8
ENDBRANCH   1   4
TORSDOF 7
ENDMDL
MODEL 3
REMARK VINA RESULT: -6.396720657      4.479      6.647
REMARK  7 active torsions:
REMARK  status: ('A' for Active; 'I' for Inactive)
REMARK    1  A    between atoms: N1_1  and  N2_4 
REMARK    2  A    between atoms: N2_4  and  N3_5 
REMARK    3  A    between atoms: N3_5  and  C1_7 
REMARK    4  A    between atoms: C5_11  and  N4_12 
REMARK       I    between atoms: N4_12  and  C6_14 
REMARK    5  A    between atoms: C6_14  and  C7_16 
REMARK    6  A    between atoms: C9_19  and  O2_20 
REMARK    7  A    between atoms: C10_22  and  O3_23 
ROOT
HETATM    1  C7  UNL     1      29.825 -12.642 -25.848  1.00  0.00     0.007 C 
HETATM    2  C8  UNL     1      30.748 -12.145 -26.430  1.00  0.00    -0.013 C 
HETATM    3 BR1  UNL     1      32.207 -11.390 -27.343  1.00  0.00     0.011 Br
ENDROOT
BRANCH   1   4
HETATM    4  C6  UNL     1      28.711 -13.221 -25.172  1.00  0.00     0.297 C 
HETATM    5  N4  UNL     1      28.529 -13.020 -23.808  1.00  0.00    -0.343 N 
ATOM      6  H4  UNL     1      29.213 -12.449 -23.310  1.00  0.00     0.163 HD
HETATM    7  O1  UNL     1      27.903 -13.913 -25.828  1.00  0.00    -0.258 OA
BRANCH   5   8
HETATM    8  C5  UNL     1      27.410 -13.582 -23.042  1.00  0.00     0.116 C 
HETATM    9  C4  UNL     1      26.486 -12.433 -22.736  1.00  0.00     0.028 C 
HETATM   10  C3  UNL     1      25.065 -12.983 -22.824  1.00  0.00     0.004 C 
HETATM   11  C2  UNL     1      24.955 -14.290 -22.076  1.00  0.00     0.030 C 
HETATM   12  C1  UNL     1      25.696 -14.166 -20.794  1.00  0.00     0.145 C 
HETATM   13  C10 UNL     1      27.085 -14.674 -20.792  1.00  0.00     0.174 C 
HETATM   14  C9  UNL     1      28.008 -14.187 -21.814  1.00  0.00     0.171 C 
BRANCH  12  15
HETATM   15  N3  UNL     1      24.957 -14.919 -19.767  1.00  0.00    -0.245 N 
ATOM     16  H3  UNL     1      25.445 -15.620 -19.208  1.00  0.00     0.197 HD
BRANCH  15  17
HETATM   17  N2  UNL     1      23.774 -14.717 -19.576  1.00  0.00    -0.248 NA
BRANCH  17  18
HETATM   18  N1  UNL     1      22.603 -14.646 -19.253  1.00  0.00    -0.261 N 
ATOM     19  H12 UNL     1      22.838 -13.767 -18.793  1.00  0.00     0.193 HD
ATOM     20  H11 UNL     1      21.605 -14.723 -19.059  1.00  0.00     0.193 HD
ENDBRANCH  17  18
ENDBRANCH  15  17
ENDBRANCH  12  15
BRANCH  13  21
HETATM   21  O3  UNL     1      27.633 -14.356 -19.522  1.00  0.00    -0.391 OA
ATOM     22  H3  UNL     1      27.431 -15.086 -18.948  1.00  0.00     0.210 HD
ENDBRANCH  13  21
BRANCH  14  23
HETATM   23  O2  UNL     1      28.822 -15.259 -22.241  1.00  0.00    -0.391 OA
ATOM     24  H2  UNL     1      29.414 -14.910 -22.898  1.00  0.00     0.210 HD
ENDBRANCH  14  23
ENDBRANCH   5   8
ENDBRANCH   1   4
TORSDOF 7
ENDMDL
MODEL 4
REMARK VINA RESULT: -6.351542713      1.280      1.375
REMARK  7 active torsions:
REMARK  status: ('A' for Active; 'I' for Inactive)
REMARK    1  A    between atoms: N1_1  and  N2_4 
REMARK    2  A    between atoms: N2_4  and  N3_5 
REMARK    3  A    between atoms: N3_5  and  C1_7 
REMARK    4  A    between atoms: C5_11  and  N4_12 
REMARK       I    between atoms: N4_12  and  C6_14 
REMARK    5  A    between atoms: C6_14  and  C7_16 
REMARK    6  A    between atoms: C9_19  and  O2_20 
REMARK    7  A    between atoms: C10_22  and  O3_23 
ROOT
HETATM    1  C7  UNL     1      24.924 -14.451 -20.817  1.00  0.00     0.007 C 
HETATM    2  C8  UNL     1      23.777 -14.565 -20.486  1.00  0.00    -0.013 C 
HETATM    3 BR1  UNL     1      21.973 -14.723 -19.983  1.00  0.00     0.011 Br
ENDROOT
BRANCH   1   4
HETATM    4  C6  UNL     1      26.289 -14.340 -21.215  1.00  0.00     0.297 C 
HETATM    5  N4  UNL     1      27.309 -14.754 -20.366  1.00  0.00    -0.343 N 
ATOM      6  H4  UNL     1      27.052 -15.137 -19.456  1.00  0.00     0.163 HD
HETATM    7  O1  UNL     1      26.549 -13.863 -22.341  1.00  0.00    -0.258 OA
BRANCH   5   8
HETATM    8  C5  UNL     1      28.735 -14.672 -20.704  1.00  0.00     0.116 C 
HETATM    9  C4  UNL     1      29.245 -16.088 -20.741  1.00  0.00     0.028 C 
HETATM   10  C3  UNL     1      30.265 -16.153 -21.876  1.00  0.00     0.004 C 
HETATM   11  C2  UNL     1      31.218 -14.984 -21.797  1.00  0.00     0.030 C 
HETATM   12  C1  UNL     1      31.601 -14.779 -20.376  1.00  0.00     0.145 C 
HETATM   13  C10 UNL     1      30.829 -13.760 -19.634  1.00  0.00     0.174 C 
HETATM   14  C9  UNL     1      29.372 -13.856 -19.626  1.00  0.00     0.171 C 
BRANCH  12  15
HETATM   15  N3  UNL     1      33.014 -14.365 -20.341  1.00  0.00    -0.245 N 
ATOM     16  H3  UNL     1      33.687 -14.818 -20.960  1.00  0.00     0.197 HD
BRANCH  15  17
HETATM   17  N2  UNL     1      33.389 -13.491 -19.584  1.00  0.00    -0.248 NA
BRANCH  17  18
HETATM   18  N1  UNL     1      33.936 -12.664 -18.880  1.00  0.00    -0.261 N 
ATOM     19  H12 UNL     1      34.701 -12.673 -19.554  1.00  0.00     0.193 HD
ATOM     20  H11 UNL     1      34.269 -11.983 -18.197  1.00  0.00     0.193 HD
ENDBRANCH  17  18
ENDBRANCH  15  17
ENDBRANCH  12  15
BRANCH  13  21
HETATM   21  O3  UNL     1      31.277 -13.809 -18.289  1.00  0.00    -0.391 OA
ATOM     22  H3  UNL     1      31.774 -13.013 -18.137  1.00  0.00     0.210 HD
ENDBRANCH  13  21
BRANCH  14  23
HETATM   23  O2  UNL     1      28.828 -12.556 -19.721  1.00  0.00    -0.391 OA
ATOM     24  H2  UNL     1      29.558 -11.961 -19.845  1.00  0.00     0.210 HD
ENDBRANCH  14  23
ENDBRANCH   5   8
ENDBRANCH   1   4
TORSDOF 7
ENDMDL
MODEL 5
REMARK VINA RESULT: -6.249678312      4.090      4.911
REMARK  7 active torsions:
REMARK  status: ('A' for Active; 'I' for Inactive)
REMARK    1  A    between atoms: N1_1  and  N2_4 
REMARK    2  A    between atoms: N2_4  and  N3_5 
REMARK    3  A    between atoms: N3_5  and  C1_7 
REMARK    4  A    between atoms: C5_11  and  N4_12 
REMARK       I    between atoms: N4_12  and  C6_14 
REMARK    5  A    between atoms: C6_14  and  C7_16 
REMARK    6  A    between atoms: C9_19  and  O2_20 
REMARK    7  A    between atoms: C10_22  and  O3_23 
ROOT
HETATM    1  C7  UNL     1      27.726 -12.356 -22.761  1.00  0.00     0.007 C 
HETATM    2  C8  UNL     1      26.697 -12.688 -23.279  1.00  0.00    -0.013 C 
HETATM    3 BR1  UNL     1      25.092 -13.199 -24.114  1.00  0.00     0.011 Br
ENDROOT
BRANCH   1   4
HETATM    4  C6  UNL     1      28.952 -11.984 -22.135  1.00  0.00     0.297 C 
HETATM    5  N4  UNL     1      29.009 -11.772 -20.762  1.00  0.00    -0.343 N 
ATOM      6  H4  UNL     1      28.153 -11.890 -20.221  1.00  0.00     0.163 HD
HETATM    7  O1  UNL     1      29.973 -11.853 -22.845  1.00  0.00    -0.258 OA
BRANCH   5   8
HETATM    8  C5  UNL     1      30.232 -11.387 -20.046  1.00  0.00     0.116 C 
HETATM    9  C4  UNL     1      30.584 -12.548 -19.154  1.00  0.00     0.028 C 
HETATM   10  C3  UNL     1      32.108 -12.642 -19.146  1.00  0.00     0.004 C 
HETATM   11  C2  UNL     1      32.722 -11.280 -18.929  1.00  0.00     0.030 C 
HETATM   12  C1  UNL     1      31.949 -10.575 -17.873  1.00  0.00     0.145 C 
HETATM   13  C10 UNL     1      30.897  -9.649 -18.344  1.00  0.00     0.174 C 
HETATM   14  C9  UNL     1      29.894 -10.150 -19.280  1.00  0.00     0.171 C 
BRANCH  12  15
HETATM   15  N3  UNL     1      32.896  -9.783 -17.069  1.00  0.00    -0.245 N 
ATOM     16  H3  UNL     1      33.750  -9.430 -17.501  1.00  0.00     0.197 HD
BRANCH  15  17
HETATM   17  N2  UNL     1      32.673  -9.546 -15.898  1.00  0.00    -0.248 NA
BRANCH  17  18
HETATM   18  N1  UNL     1      32.270  -9.318 -14.773  1.00  0.00    -0.261 N 
ATOM     19  H12 UNL     1      33.235  -9.432 -14.461  1.00  0.00     0.193 HD
ATOM     20  H11 UNL     1      31.792  -9.113 -13.896  1.00  0.00     0.193 HD
ENDBRANCH  17  18
ENDBRANCH  15  17
ENDBRANCH  12  15
BRANCH  13  21
HETATM   21  O3  UNL     1      30.221  -9.180 -17.189  1.00  0.00    -0.391 OA
ATOM     22  H3  UNL     1      30.471  -8.270 -17.077  1.00  0.00     0.210 HD
ENDBRANCH  13  21
BRANCH  14  23
HETATM   23  O2  UNL     1      29.613  -9.144 -20.230  1.00  0.00    -0.391 OA
ATOM     24  H2  UNL     1      29.127  -8.465 -19.776  1.00  0.00     0.210 HD
ENDBRANCH  14  23
ENDBRANCH   5   8
ENDBRANCH   1   4
TORSDOF 7
ENDMDL
