MODEL 1
REMARK VINA RESULT: -5.438185607      0.000      0.000
REMARK  8 active torsions:
REMARK  status: ('A' for Active; 'I' for Inactive)
REMARK    1  A    between atoms: O1_2  and  C2_3 
REMARK    2  A    between atoms: C2_3  and  N2_10 
REMARK    3  A    between atoms: N1_4  and  C3_6 
REMARK    4  A    between atoms: N2_10  and  N3_12 
REMARK    5  A    between atoms: N3_12  and  C7_14 
REMARK    6  A    between atoms: C7_14  and  N4_16 
REMARK    7  A    between atoms: N4_16  and  C8_18 
REMARK    8  A    between atoms: C8_18  and  C9_19 
ROOT
HETATM    1  N2  UNL     1      33.139 -12.168 -18.544  1.00  0.00    -0.263 N 
ATOM      2  H2  UNL     1      32.790 -11.927 -17.617  1.00  0.00     0.190 HD
ENDROOT
BRANCH   1   3
HETATM    3  C2  UNL     1      32.378 -13.073 -19.322  1.00  0.00     0.234 C 
HETATM    4  N1  UNL     1      31.139 -12.930 -19.434  1.00  0.00    -0.347 N 
ATOM      5  H1  UNL     1      30.697 -13.641 -20.018  1.00  0.00     0.163 HD
BRANCH   3   6
HETATM    6  O1  UNL     1      33.011 -14.124 -19.962  1.00  0.00    -0.326 OA
HETATM    7  C1  UNL     1      32.403 -14.873 -21.006  1.00  0.00     0.213 C 
ENDBRANCH   3   6
BRANCH   4   8
HETATM    8  C3  UNL     1      30.232 -11.986 -18.917  1.00  0.00     0.022 C 
HETATM    9  C4  UNL     1      28.869 -12.252 -19.572  1.00  0.00     0.037 C 
HETATM   10  C5  UNL     1      30.046 -12.176 -17.428  1.00  0.00     0.037 C 
HETATM   11  C6  UNL     1      30.568 -10.550 -19.211  1.00  0.00     0.037 C 
ENDBRANCH   4   8
ENDBRANCH   1   3
BRANCH   1  12
HETATM   12  N3  UNL     1      34.339 -11.580 -18.962  1.00  0.00    -0.273 N 
ATOM     13  H3  UNL     1      35.107 -12.179 -19.267  1.00  0.00     0.189 HD
BRANCH  12  14
HETATM   14  C7  UNL     1      34.516 -10.153 -18.973  1.00  0.00     0.186 C 
HETATM   15  S1  UNL     1      34.079  -9.360 -20.323  1.00  0.00    -0.040 SA
BRANCH  14  16
HETATM   16  N4  UNL     1      35.058  -9.508 -17.844  1.00  0.00    -0.365 N 
ATOM     17  H4  UNL     1      36.026  -9.700 -17.591  1.00  0.00     0.161 HD
BRANCH  16  18
HETATM   18  C8  UNL     1      34.304  -8.592 -17.034  1.00  0.00     0.133 C 
BRANCH  18  19
HETATM   19  C9  UNL     1      32.943  -9.066 -16.644  1.00  0.00     0.104 C 
HETATM   20 BR1  UNL     1      32.896  -9.517 -14.750  1.00  0.00    -0.095 Br
ENDBRANCH  18  19
ENDBRANCH  16  18
ENDBRANCH  14  16
ENDBRANCH  12  14
ENDBRANCH   1  12
TORSDOF 8
ENDMDL
MODEL 2
REMARK VINA RESULT: -5.375189973      6.231      7.611
REMARK  8 active torsions:
REMARK  status: ('A' for Active; 'I' for Inactive)
REMARK    1  A    between atoms: O1_2  and  C2_3 
REMARK    2  A    between atoms: C2_3  and  N2_10 
REMARK    3  A    between atoms: N1_4  and  C3_6 
REMARK    4  A    between atoms: N2_10  and  N3_12 
REMARK    5  A    between atoms: N3_12  and  C7_14 
REMARK    6  A    between atoms: C7_14  and  N4_16 
REMARK    7  A    between atoms: N4_16  and  C8_18 
REMARK    8  A    between atoms: C8_18  and  C9_19 
ROOT
HETATM    1  N2  UNL     1      27.002 -14.275 -20.282  1.00  0.00    -0.263 N 
ATOM      2  H2  UNL     1      27.313 -13.347 -19.996  1.00  0.00     0.190 HD
ENDROOT
BRANCH   1   3
HETATM    3  C2  UNL     1      25.684 -14.404 -20.783  1.00  0.00     0.234 C 
HETATM    4  N1  UNL     1      25.371 -13.903 -21.887  1.00  0.00    -0.347 N 
ATOM      5  H1  UNL     1      24.396 -14.060 -22.145  1.00  0.00     0.163 HD
BRANCH   3   6
HETATM    6  O1  UNL     1      24.737 -15.091 -20.045  1.00  0.00    -0.326 OA
HETATM    7  C1  UNL     1      23.366 -14.717 -20.006  1.00  0.00     0.213 C 
ENDBRANCH   3   6
BRANCH   4   8
HETATM    8  C3  UNL     1      26.093 -13.166 -22.845  1.00  0.00     0.022 C 
HETATM    9  C4  UNL     1      25.190 -13.005 -24.077  1.00  0.00     0.037 C 
HETATM   10  C5  UNL     1      26.394 -11.773 -22.339  1.00  0.00     0.037 C 
HETATM   11  C6  UNL     1      27.358 -13.817 -23.332  1.00  0.00     0.037 C 
ENDBRANCH   4   8
ENDBRANCH   1   3
BRANCH   1  12
HETATM   12  N3  UNL     1      27.907 -15.335 -20.153  1.00  0.00    -0.273 N 
ATOM     13  H3  UNL     1      27.553 -16.291 -20.119  1.00  0.00     0.189 HD
BRANCH  12  14
HETATM   14  C7  UNL     1      29.325 -15.109 -20.067  1.00  0.00     0.186 C 
HETATM   15  S1  UNL     1      29.858 -13.603 -20.366  1.00  0.00    -0.040 SA
BRANCH  14  16
HETATM   16  N4  UNL     1      30.184 -16.178 -19.745  1.00  0.00    -0.365 N 
ATOM     17  H4  UNL     1      30.450 -16.313 -18.770  1.00  0.00     0.161 HD
BRANCH  16  18
HETATM   18  C8  UNL     1      30.701 -17.086 -20.731  1.00  0.00     0.133 C 
BRANCH  18  19
HETATM   19  C9  UNL     1      32.163 -16.954 -21.004  1.00  0.00     0.104 C 
HETATM   20 BR1  UNL     1      32.469 -15.734 -22.491  1.00  0.00    -0.095 Br
ENDBRANCH  18  19
ENDBRANCH  16  18
ENDBRANCH  14  16
ENDBRANCH  12  14
ENDBRANCH   1  12
TORSDOF 8
ENDMDL
MODEL 3
REMARK VINA RESULT: -5.359368347      2.548      4.717
REMARK  8 active torsions:
REMARK  status: ('A' for Active; 'I' for Inactive)
REMARK    1  A    between atoms: O1_2  and  C2_3 
REMARK    2  A    between atoms: C2_3  and  N2_10 
REMARK    3  A    between atoms: N1_4  and  C3_6 
REMARK    4  A    between atoms: N2_10  and  N3_12 
REMARK    5  A    between atoms: N3_12  and  C7_14 
REMARK    6  A    between atoms: C7_14  and  N4_16 
REMARK    7  A    between atoms: N4_16  and  C8_18 
REMARK    8  A    between atoms: C8_18  and  C9_19 
ROOT
HETATM    1  N2  UNL     1      34.216 -11.319 -18.892  1.00  0.00    -0.263 N 
ATOM      2  H2  UNL     1      34.943 -11.165 -18.193  1.00  0.00     0.190 HD
ENDROOT
BRANCH   1   3
HETATM    3  C2  UNL     1      33.718 -10.190 -19.585  1.00  0.00     0.234 C 
HETATM    4  N1  UNL     1      33.974  -9.032 -19.183  1.00  0.00    -0.347 N 
ATOM      5  H1  UNL     1      33.562  -8.299 -19.762  1.00  0.00     0.163 HD
BRANCH   3   6
HETATM    6  O1  UNL     1      32.942 -10.371 -20.716  1.00  0.00    -0.326 OA
HETATM    7  C1  UNL     1      31.664  -9.771 -20.882  1.00  0.00     0.213 C 
ENDBRANCH   3   6
BRANCH   4   8
HETATM    8  C3  UNL     1      34.715  -8.537 -18.094  1.00  0.00     0.022 C 
HETATM    9  C4  UNL     1      34.796  -7.011 -18.248  1.00  0.00     0.037 C 
HETATM   10  C5  UNL     1      34.001  -8.807 -16.789  1.00  0.00     0.037 C 
HETATM   11  C6  UNL     1      36.134  -9.028 -18.011  1.00  0.00     0.037 C 
ENDBRANCH   4   8
ENDBRANCH   1   3
BRANCH   1  12
HETATM   12  N3  UNL     1      33.780 -12.632 -19.100  1.00  0.00    -0.273 N 
ATOM     13  H3  UNL     1      34.422 -13.311 -19.510  1.00  0.00     0.189 HD
BRANCH  12  14
HETATM   14  C7  UNL     1      32.448 -13.049 -18.750  1.00  0.00     0.186 C 
HETATM   15  S1  UNL     1      31.513 -13.631 -19.945  1.00  0.00    -0.040 SA
BRANCH  14  16
HETATM   16  N4  UNL     1      32.008 -12.931 -17.417  1.00  0.00    -0.365 N 
ATOM     17  H4  UNL     1      32.573 -13.348 -16.678  1.00  0.00     0.161 HD
BRANCH  16  18
HETATM   18  C8  UNL     1      30.796 -12.250 -17.054  1.00  0.00     0.133 C 
BRANCH  18  19
HETATM   19  C9  UNL     1      30.779 -10.788 -17.360  1.00  0.00     0.104 C 
HETATM   20 BR1  UNL     1      29.008 -10.239 -17.956  1.00  0.00    -0.095 Br
ENDBRANCH  18  19
ENDBRANCH  16  18
ENDBRANCH  14  16
ENDBRANCH  12  14
ENDBRANCH   1  12
TORSDOF 8
ENDMDL
MODEL 4
REMARK VINA RESULT: -5.315168567      5.725      8.377
REMARK  8 active torsions:
REMARK  status: ('A' for Active; 'I' for Inactive)
REMARK    1  A    between atoms: O1_2  and  C2_3 
REMARK    2  A    between atoms: C2_3  and  N2_10 
REMARK    3  A    between atoms: N1_4  and  C3_6 
REMARK    4  A    between atoms: N2_10  and  N3_12 
REMARK    5  A    between atoms: N3_12  and  C7_14 
REMARK    6  A    between atoms: C7_14  and  N4_16 
REMARK    7  A    between atoms: N4_16  and  C8_18 
REMARK    8  A    between atoms: C8_18  and  C9_19 
ROOT
HETATM    1  N2  UNL     1      27.977 -15.048 -20.258  1.00  0.00    -0.263 N 
ATOM      2  H2  UNL     1      28.167 -15.716 -21.005  1.00  0.00     0.190 HD
ENDROOT
BRANCH   1   3
HETATM    3  C2  UNL     1      29.082 -14.523 -19.546  1.00  0.00     0.234 C 
HETATM    4  N1  UNL     1      30.248 -14.897 -19.813  1.00  0.00    -0.347 N 
ATOM      5  H1  UNL     1      30.961 -14.451 -19.237  1.00  0.00     0.163 HD
BRANCH   3   6
HETATM    6  O1  UNL     1      28.871 -13.590 -18.547  1.00  0.00    -0.326 OA
HETATM    7  C1  UNL     1      29.885 -12.708 -18.084  1.00  0.00     0.213 C 
ENDBRANCH   3   6
BRANCH   4   8
HETATM    8  C3  UNL     1      30.771 -15.808 -20.749  1.00  0.00     0.022 C 
HETATM    9  C4  UNL     1      32.232 -15.413 -21.008  1.00  0.00     0.037 C 
HETATM   10  C5  UNL     1      30.791 -17.211 -20.183  1.00  0.00     0.037 C 
HETATM   11  C6  UNL     1      30.091 -15.809 -22.090  1.00  0.00     0.037 C 
ENDBRANCH   4   8
ENDBRANCH   1   3
BRANCH   1  12
HETATM   12  N3  UNL     1      26.642 -14.712 -20.006  1.00  0.00    -0.273 N 
ATOM     13  H3  UNL     1      26.282 -14.782 -19.054  1.00  0.00     0.189 HD
BRANCH  12  14
HETATM   14  C7  UNL     1      25.765 -14.271 -21.057  1.00  0.00     0.186 C 
HETATM   15  S1  UNL     1      26.433 -13.442 -22.285  1.00  0.00    -0.040 SA
BRANCH  14  16
HETATM   16  N4  UNL     1      24.388 -14.557 -20.983  1.00  0.00    -0.365 N 
ATOM     17  H4  UNL     1      23.809 -14.386 -21.805  1.00  0.00     0.161 HD
BRANCH  16  18
HETATM   18  C8  UNL     1      23.763 -15.081 -19.800  1.00  0.00     0.133 C 
BRANCH  18  19
HETATM   19  C9  UNL     1      22.342 -14.668 -19.601  1.00  0.00     0.104 C 
HETATM   20 BR1  UNL     1      21.287 -15.080 -21.186  1.00  0.00    -0.095 Br
ENDBRANCH  18  19
ENDBRANCH  16  18
ENDBRANCH  14  16
ENDBRANCH  12  14
ENDBRANCH   1  12
TORSDOF 8
ENDMDL
MODEL 5
REMARK VINA RESULT: -5.279414394      3.151      5.753
REMARK  8 active torsions:
REMARK  status: ('A' for Active; 'I' for Inactive)
REMARK    1  A    between atoms: O1_2  and  C2_3 
REMARK    2  A    between atoms: C2_3  and  N2_10 
REMARK    3  A    between atoms: N1_4  and  C3_6 
REMARK    4  A    between atoms: N2_10  and  N3_12 
REMARK    5  A    between atoms: N3_12  and  C7_14 
REMARK    6  A    between atoms: C7_14  and  N4_16 
REMARK    7  A    between atoms: N4_16  and  C8_18 
REMARK    8  A    between atoms: C8_18  and  C9_19 
ROOT
HETATM    1  N2  UNL     1      32.459  -9.193 -18.113  1.00  0.00    -0.263 N 
ATOM      2  H2  UNL     1      32.955  -9.291 -18.999  1.00  0.00     0.190 HD
ENDROOT
BRANCH   1   3
HETATM    3  C2  UNL     1      33.212  -9.300 -16.920  1.00  0.00     0.234 C 
HETATM    4  N1  UNL     1      34.427  -8.994 -16.904  1.00  0.00    -0.347 N 
ATOM      5  H1  UNL     1      34.864  -9.112 -15.990  1.00  0.00     0.163 HD
BRANCH   3   6
HETATM    6  O1  UNL     1      32.599  -9.748 -15.763  1.00  0.00    -0.326 OA
HETATM    7  C1  UNL     1      33.118  -9.494 -14.464  1.00  0.00     0.213 C 
ENDBRANCH   3   6
BRANCH   4   8
HETATM    8  C3  UNL     1      35.309  -8.521 -17.892  1.00  0.00     0.022 C 
HETATM    9  C4  UNL     1      36.668  -8.282 -17.219  1.00  0.00     0.037 C 
HETATM   10  C5  UNL     1      35.530  -9.566 -18.963  1.00  0.00     0.037 C 
HETATM   11  C6  UNL     1      34.917  -7.215 -18.526  1.00  0.00     0.037 C 
ENDBRANCH   4   8
ENDBRANCH   1   3
BRANCH   1  12
HETATM   12  N3  UNL     1      31.079  -8.960 -18.161  1.00  0.00    -0.273 N 
ATOM     13  H3  UNL     1      30.734  -8.002 -18.105  1.00  0.00     0.189 HD
BRANCH  12  14
HETATM   14  C7  UNL     1      30.137 -10.039 -18.286  1.00  0.00     0.186 C 
HETATM   15  S1  UNL     1      29.256 -10.103 -19.651  1.00  0.00    -0.040 SA
BRANCH  14  16
HETATM   16  N4  UNL     1      30.004 -10.975 -17.242  1.00  0.00    -0.365 N 
ATOM     17  H4  UNL     1      29.705 -10.645 -16.325  1.00  0.00     0.161 HD
BRANCH  16  18
HETATM   18  C8  UNL     1      30.273 -12.376 -17.413  1.00  0.00     0.133 C 
BRANCH  18  19
HETATM   19  C9  UNL     1      31.716 -12.754 -17.354  1.00  0.00     0.104 C 
HETATM   20 BR1  UNL     1      32.479 -12.808 -19.145  1.00  0.00    -0.095 Br
ENDBRANCH  18  19
ENDBRANCH  16  18
ENDBRANCH  14  16
ENDBRANCH  12  14
ENDBRANCH   1  12
TORSDOF 8
ENDMDL
