MODEL 1
REMARK VINA RESULT: -6.853536415      0.000      0.000
REMARK  5 active torsions:
REMARK  status: ('A' for Active; 'I' for Inactive)
REMARK    1  A    between atoms: C2_2  and  C3_4 
REMARK    2  A    between atoms: N2_6  and  C4_7 
REMARK    3  A    between atoms: C11_16  and  O3_17 
REMARK    4  A    between atoms: N3_19  and  C12_20 
REMARK    5  A    between atoms: C16_24  and  O4_25 
ROOT
HETATM    1  C3  UNL     1      -6.657 -10.400  17.528  1.00  0.00     0.176 C 
HETATM    2  N1  UNL     1      -5.913  -9.705  18.579  1.00  0.00    -0.121 NA
HETATM    3  N2  UNL     1      -6.700  -9.484  19.694  1.00  0.00    -0.255 N 
HETATM    4  C7  UNL     1      -7.480 -10.387  20.441  1.00  0.00     0.240 C 
HETATM    5  O2  UNL     1      -7.603 -10.137  21.670  1.00  0.00    -0.272 OA
HETATM    6  C8  UNL     1      -8.200 -11.612  20.020  1.00  0.00     0.148 C 
HETATM    7  C9  UNL     1      -7.475 -12.340  18.953  1.00  0.00     0.014 A 
HETATM    8  C10 UNL     1      -6.785 -11.831  17.850  1.00  0.00     0.030 A 
HETATM    9  C11 UNL     1      -6.275 -12.866  17.172  1.00  0.00     0.153 A 
HETATM   10  N3  UNL     1      -6.613 -14.033  17.802  1.00  0.00    -0.303 N 
HETATM   11  C16 UNL     1      -7.348 -13.697  18.891  1.00  0.00     0.152 A 
ENDROOT
BRANCH   3  12
HETATM   12  C4  UNL     1      -6.726  -8.117  20.170  1.00  0.00     0.155 C 
HETATM   13  C5  UNL     1      -6.488  -7.072  19.116  1.00  0.00     0.197 C 
HETATM   14  O1  UNL     1      -5.572  -6.462  19.977  1.00  0.00    -0.387 OA
HETATM   15  C6  UNL     1      -5.354  -7.646  20.645  1.00  0.00     0.197 C 
ENDBRANCH   3  12
BRANCH   1  16
HETATM   16  C2  UNL     1      -6.008 -10.085  16.245  1.00  0.00     0.005 C 
HETATM   17  C1  UNL     1      -6.689  -9.848  15.140  1.00  0.00     0.029 C 
HETATM   18 BR1  UNL     1      -4.103 -10.006  16.140  1.00  0.00    -0.054 Br
ENDBRANCH   1  16
BRANCH   9  19
HETATM   19  O3  UNL     1      -5.501 -12.842  15.993  1.00  0.00    -0.345 OA
ATOM     20  H3  UNL     1      -4.854 -13.473  15.700  1.00  0.00     0.219 HD
ENDBRANCH   9  19
BRANCH  11  21
HETATM   21  O4  UNL     1      -7.871 -14.627  19.779  1.00  0.00    -0.345 OA
ATOM     22  H4  UNL     1      -8.315 -15.438  19.562  1.00  0.00     0.219 HD
ENDBRANCH  11  21
BRANCH  10  23
HETATM   23  C12 UNL     1      -6.225 -15.315  17.333  1.00  0.00     0.094 C 
HETATM   24  C13 UNL     1      -7.215 -16.415  17.322  1.00  0.00     0.026 C 
HETATM   25  C14 UNL     1      -6.091 -17.366  17.713  1.00  0.00     0.004 C 
HETATM   26  C15 UNL     1      -5.379 -16.146  18.291  1.00  0.00     0.026 C 
ENDBRANCH  10  23
TORSDOF 5
ENDMDL
MODEL 2
REMARK VINA RESULT: -6.842213609      0.884      1.007
REMARK  5 active torsions:
REMARK  status: ('A' for Active; 'I' for Inactive)
REMARK    1  A    between atoms: C2_2  and  C3_4 
REMARK    2  A    between atoms: N2_6  and  C4_7 
REMARK    3  A    between atoms: C11_16  and  O3_17 
REMARK    4  A    between atoms: N3_19  and  C12_20 
REMARK    5  A    between atoms: C16_24  and  O4_25 
ROOT
HETATM    1  C3  UNL     1      -6.484 -10.152  17.898  1.00  0.00     0.176 C 
HETATM    2  N1  UNL     1      -5.697  -9.625  19.014  1.00  0.00    -0.121 NA
HETATM    3  N2  UNL     1      -6.477  -9.438  20.140  1.00  0.00    -0.255 N 
HETATM    4  C7  UNL     1      -7.343 -10.335  20.795  1.00  0.00     0.240 C 
HETATM    5  O2  UNL     1      -7.461 -10.188  22.041  1.00  0.00    -0.272 OA
HETATM    6  C8  UNL     1      -8.161 -11.447  20.258  1.00  0.00     0.148 C 
HETATM    7  C9  UNL     1      -7.488 -12.135  19.133  1.00  0.00     0.014 A 
HETATM    8  C10 UNL     1      -6.742 -11.590  18.086  1.00  0.00     0.030 A 
HETATM    9  C11 UNL     1      -6.314 -12.599  17.317  1.00  0.00     0.153 A 
HETATM   10  N3  UNL     1      -6.762 -13.785  17.835  1.00  0.00    -0.303 N 
HETATM   11  C16 UNL     1      -7.479 -13.487  18.946  1.00  0.00     0.152 A 
ENDROOT
BRANCH   3  12
HETATM   12  C4  UNL     1      -6.390  -8.124  20.740  1.00  0.00     0.155 C 
HETATM   13  C5  UNL     1      -7.551  -7.215  20.451  1.00  0.00     0.197 C 
HETATM   14  O1  UNL     1      -6.636  -6.205  20.139  1.00  0.00    -0.387 OA
HETATM   15  C6  UNL     1      -5.660  -7.128  19.843  1.00  0.00     0.197 C 
ENDBRANCH   3  12
BRANCH   1  16
HETATM   16  C2  UNL     1      -5.793  -9.779  16.654  1.00  0.00     0.005 C 
HETATM   17  C1  UNL     1      -4.486  -9.612  16.586  1.00  0.00     0.029 C 
HETATM   18 BR1  UNL     1      -6.798  -9.518  15.051  1.00  0.00    -0.054 Br
ENDBRANCH   1  16
BRANCH   9  19
HETATM   19  O3  UNL     1      -5.524 -12.535  16.150  1.00  0.00    -0.345 OA
ATOM     20  H3  UNL     1      -5.305 -11.771  15.630  1.00  0.00     0.219 HD
ENDBRANCH   9  19
BRANCH  11  21
HETATM   21  O4  UNL     1      -8.094 -14.444  19.741  1.00  0.00    -0.345 OA
ATOM     22  H4  UNL     1      -7.928 -15.380  19.740  1.00  0.00     0.219 HD
ENDBRANCH  11  21
BRANCH  10  23
HETATM   23  C12 UNL     1      -6.480 -15.047  17.251  1.00  0.00     0.094 C 
HETATM   24  C13 UNL     1      -7.228 -16.241  17.706  1.00  0.00     0.026 C 
HETATM   25  C14 UNL     1      -5.945 -17.046  17.546  1.00  0.00     0.004 C 
HETATM   26  C15 UNL     1      -5.199 -15.726  17.721  1.00  0.00     0.026 C 
ENDBRANCH  10  23
TORSDOF 5
ENDMDL
MODEL 3
REMARK VINA RESULT: -6.714698021      1.603      6.132
REMARK  5 active torsions:
REMARK  status: ('A' for Active; 'I' for Inactive)
REMARK    1  A    between atoms: C2_2  and  C3_4 
REMARK    2  A    between atoms: N2_6  and  C4_7 
REMARK    3  A    between atoms: C11_16  and  O3_17 
REMARK    4  A    between atoms: N3_19  and  C12_20 
REMARK    5  A    between atoms: C16_24  and  O4_25 
ROOT
HETATM    1  C3  UNL     1      -5.667 -11.618  17.315  1.00  0.00     0.176 C 
HETATM    2  N1  UNL     1      -6.729 -12.391  16.671  1.00  0.00    -0.121 NA
HETATM    3  N2  UNL     1      -7.042 -13.525  17.398  1.00  0.00    -0.255 N 
HETATM    4  C7  UNL     1      -7.371 -13.660  18.761  1.00  0.00     0.240 C 
HETATM    5  O2  UNL     1      -8.161 -14.597  19.055  1.00  0.00    -0.272 OA
HETATM    6  C8  UNL     1      -6.936 -12.872  19.937  1.00  0.00     0.148 C 
HETATM    7  C9  UNL     1      -6.754 -11.440  19.607  1.00  0.00     0.014 A 
HETATM    8  C10 UNL     1      -6.204 -10.863  18.460  1.00  0.00     0.030 A 
HETATM    9  C11 UNL     1      -6.265  -9.533  18.599  1.00  0.00     0.153 A 
HETATM   10  N3  UNL     1      -6.840  -9.229  19.804  1.00  0.00    -0.303 N 
HETATM   11  C16 UNL     1      -7.134 -10.405  20.411  1.00  0.00     0.152 A 
ENDROOT
BRANCH   3  12
HETATM   12  C4  UNL     1      -7.033 -14.762  16.646  1.00  0.00     0.155 C 
HETATM   13  C5  UNL     1      -5.731 -15.512  16.673  1.00  0.00     0.197 C 
HETATM   14  O1  UNL     1      -5.826 -15.656  15.286  1.00  0.00    -0.387 OA
HETATM   15  C6  UNL     1      -6.636 -14.548  15.188  1.00  0.00     0.197 C 
ENDBRANCH   3  12
BRANCH   1  16
HETATM   16  C2  UNL     1      -5.006 -10.819  16.270  1.00  0.00     0.005 C 
HETATM   17  C1  UNL     1      -3.707 -10.591  16.261  1.00  0.00     0.029 C 
HETATM   18 BR1  UNL     1      -6.043 -10.068  14.853  1.00  0.00    -0.054 Br
ENDBRANCH   1  16
BRANCH   9  19
HETATM   19  O3  UNL     1      -5.833  -8.539  17.696  1.00  0.00    -0.345 OA
ATOM     20  H3  UNL     1      -5.894  -7.595  17.787  1.00  0.00     0.219 HD
ENDBRANCH   9  19
BRANCH  11  21
HETATM   21  O4  UNL     1      -7.731 -10.494  21.661  1.00  0.00    -0.345 OA
ATOM     22  H4  UNL     1      -8.640 -10.700  21.847  1.00  0.00     0.219 HD
ENDBRANCH  11  21
BRANCH  10  23
HETATM   23  C12 UNL     1      -7.050  -7.900  20.255  1.00  0.00     0.094 C 
HETATM   24  C13 UNL     1      -6.012  -7.241  21.080  1.00  0.00     0.026 C 
HETATM   25  C14 UNL     1      -7.131  -6.580  21.874  1.00  0.00     0.004 C 
HETATM   26  C15 UNL     1      -8.016  -7.739  21.423  1.00  0.00     0.026 C 
ENDBRANCH  10  23
TORSDOF 5
ENDMDL
MODEL 4
REMARK VINA RESULT: -6.505389943      2.101      2.841
REMARK  5 active torsions:
REMARK  status: ('A' for Active; 'I' for Inactive)
REMARK    1  A    between atoms: C2_2  and  C3_4 
REMARK    2  A    between atoms: N2_6  and  C4_7 
REMARK    3  A    between atoms: C11_16  and  O3_17 
REMARK    4  A    between atoms: N3_19  and  C12_20 
REMARK    5  A    between atoms: C16_24  and  O4_25 
ROOT
HETATM    1  C3  UNL     1      -6.717  -9.183  17.553  1.00  0.00     0.176 C 
HETATM    2  N1  UNL     1      -5.789  -8.750  18.599  1.00  0.00    -0.121 NA
HETATM    3  N2  UNL     1      -6.141  -9.266  19.832  1.00  0.00    -0.255 N 
HETATM    4  C7  UNL     1      -6.405 -10.596  20.211  1.00  0.00     0.240 C 
HETATM    5  O2  UNL     1      -6.117 -10.908  21.398  1.00  0.00    -0.272 OA
HETATM    6  C8  UNL     1      -6.978 -11.721  19.436  1.00  0.00     0.148 C 
HETATM    7  C9  UNL     1      -6.567 -11.679  18.014  1.00  0.00     0.014 A 
HETATM    8  C10 UNL     1      -6.440 -10.577  17.166  1.00  0.00     0.030 A 
HETATM    9  C11 UNL     1      -6.023 -11.022  15.974  1.00  0.00     0.153 A 
HETATM   10  N3  UNL     1      -5.876 -12.382  16.024  1.00  0.00    -0.303 N 
HETATM   11  C16 UNL     1      -6.212 -12.772  17.278  1.00  0.00     0.152 A 
ENDROOT
BRANCH   3  12
HETATM   12  C4  UNL     1      -6.255  -8.293  20.899  1.00  0.00     0.155 C 
HETATM   13  C5  UNL     1      -7.661  -7.985  21.330  1.00  0.00     0.197 C 
HETATM   14  O1  UNL     1      -7.344  -6.625  21.268  1.00  0.00    -0.387 OA
HETATM   15  C6  UNL     1      -6.330  -6.864  20.369  1.00  0.00     0.197 C 
ENDBRANCH   3  12
BRANCH   1  16
HETATM   16  C2  UNL     1      -6.655  -8.190  16.469  1.00  0.00     0.005 C 
HETATM   17  C1  UNL     1      -7.730  -7.734  15.856  1.00  0.00     0.029 C 
HETATM   18 BR1  UNL     1      -4.963  -7.509  15.902  1.00  0.00    -0.054 Br
ENDBRANCH   1  16
BRANCH   9  19
HETATM   19  O3  UNL     1      -5.753 -10.275  14.808  1.00  0.00    -0.345 OA
ATOM     20  H3  UNL     1      -5.070  -9.630  14.668  1.00  0.00     0.219 HD
ENDBRANCH   9  19
BRANCH  11  21
HETATM   21  O4  UNL     1      -6.185 -14.093  17.703  1.00  0.00    -0.345 OA
ATOM     22  H4  UNL     1      -6.827 -14.768  17.514  1.00  0.00     0.219 HD
ENDBRANCH  11  21
BRANCH  10  23
HETATM   23  C12 UNL     1      -5.446 -13.161  14.918  1.00  0.00     0.094 C 
HETATM   24  C13 UNL     1      -4.227 -12.761  14.179  1.00  0.00     0.026 C 
HETATM   25  C14 UNL     1      -4.915 -13.212  12.897  1.00  0.00     0.004 C 
HETATM   26  C15 UNL     1      -6.235 -12.976  13.627  1.00  0.00     0.026 C 
ENDBRANCH  10  23
TORSDOF 5
ENDMDL
MODEL 5
REMARK VINA RESULT: -6.495540628      2.666      3.885
REMARK  5 active torsions:
REMARK  status: ('A' for Active; 'I' for Inactive)
REMARK    1  A    between atoms: C2_2  and  C3_4 
REMARK    2  A    between atoms: N2_6  and  C4_7 
REMARK    3  A    between atoms: C11_16  and  O3_17 
REMARK    4  A    between atoms: N3_19  and  C12_20 
REMARK    5  A    between atoms: C16_24  and  O4_25 
ROOT
HETATM    1  C3  UNL     1      -6.718 -10.158  17.113  1.00  0.00     0.176 C 
HETATM    2  N1  UNL     1      -5.947 -10.486  18.313  1.00  0.00    -0.121 NA
HETATM    3  N2  UNL     1      -6.580 -11.453  19.072  1.00  0.00    -0.255 N 
HETATM    4  C7  UNL     1      -7.077 -12.715  18.693  1.00  0.00     0.240 C 
HETATM    5  O2  UNL     1      -7.052 -13.614  19.575  1.00  0.00    -0.272 OA
HETATM    6  C8  UNL     1      -7.641 -13.178  17.404  1.00  0.00     0.148 C 
HETATM    7  C9  UNL     1      -6.977 -12.535  16.247  1.00  0.00     0.014 A 
HETATM    8  C10 UNL     1      -6.557 -11.211  16.096  1.00  0.00     0.030 A 
HETATM    9  C11 UNL     1      -5.992 -11.095  14.888  1.00  0.00     0.153 A 
HETATM   10  N3  UNL     1      -6.033 -12.305  14.249  1.00  0.00    -0.303 N 
HETATM   11  C16 UNL     1      -6.638 -13.178  15.092  1.00  0.00     0.152 A 
ENDROOT
BRANCH   3  12
HETATM   12  C4  UNL     1      -6.759 -11.121  20.470  1.00  0.00     0.155 C 
HETATM   13  C5  UNL     1      -8.141 -10.666  20.843  1.00  0.00     0.197 C 
HETATM   14  O1  UNL     1      -7.564  -9.598  21.537  1.00  0.00    -0.387 OA
HETATM   15  C6  UNL     1      -6.428  -9.660  20.763  1.00  0.00     0.197 C 
ENDBRANCH   3  12
BRANCH   1  16
HETATM   16  C2  UNL     1      -6.333  -8.799  16.699  1.00  0.00     0.005 C 
HETATM   17  C1  UNL     1      -5.108  -8.330  16.837  1.00  0.00     0.029 C 
HETATM   18 BR1  UNL     1      -7.637  -7.639  15.924  1.00  0.00    -0.054 Br
ENDBRANCH   1  16
BRANCH   9  19
HETATM   19  O3  UNL     1      -5.422  -9.948  14.297  1.00  0.00    -0.345 OA
ATOM     20  H3  UNL     1      -4.515  -9.800  14.054  1.00  0.00     0.219 HD
ENDBRANCH   9  19
BRANCH  11  21
HETATM   21  O4  UNL     1      -6.859 -14.513  14.784  1.00  0.00    -0.345 OA
ATOM     22  H4  UNL     1      -6.228 -15.130  14.431  1.00  0.00     0.219 HD
ENDBRANCH  11  21
BRANCH  10  23
HETATM   23  C12 UNL     1      -5.514 -12.517  12.946  1.00  0.00     0.094 C 
HETATM   24  C13 UNL     1      -6.333 -13.242  11.948  1.00  0.00     0.026 C 
HETATM   25  C14 UNL     1      -5.051 -13.884  11.433  1.00  0.00     0.004 C 
HETATM   26  C15 UNL     1      -4.467 -13.617  12.818  1.00  0.00     0.026 C 
ENDBRANCH  10  23
TORSDOF 5
ENDMDL
