MODEL 1
REMARK VINA RESULT: -8.443782864      0.000      0.000
REMARK  6 active torsions:
REMARK  status: ('A' for Active; 'I' for Inactive)
REMARK    1  A    between atoms: O1_1  and  C1_3 
REMARK    2  A    between atoms: C4_6  and  N1_7 
REMARK    3  A    between atoms: N1_7  and  C5_9 
REMARK    4  A    between atoms: C6_12  and  N3_13 
REMARK    5  A    between atoms: C12_21  and  N5_22 
REMARK    6  A    between atoms: N5_22  and  C13_23 
ROOT
HETATM    1  C5  UNL     1      -4.184  -8.678  14.568  1.00  0.00     0.696 A 
HETATM    2  N2  UNL     1      -4.894  -8.749  15.737  1.00  0.00    -0.022 N 
ATOM      3  H2  UNL     1      -5.301  -9.641  16.018  1.00  0.00     0.203 HD
HETATM    4  C6  UNL     1      -5.071  -7.654  16.539  1.00  0.00     0.698 A 
HETATM    5  N4  UNL     1      -4.535  -6.533  16.130  1.00  0.00    -0.148 N 
ATOM      6  H4  UNL     1      -4.667  -5.709  16.717  1.00  0.00     0.188 HD
HETATM    7  C12 UNL     1      -3.787  -6.370  14.945  1.00  0.00     0.283 A 
HETATM    8  N6  UNL     1      -3.662  -7.514  14.205  1.00  0.00    -0.148 N 
ATOM      9  H6  UNL     1      -3.141  -7.470  13.329  1.00  0.00     0.188 HD
ENDROOT
BRANCH   1  10
HETATM   10  N1  UNL     1      -4.091  -9.792  13.956  1.00  0.00    -0.221 N 
ATOM     11  H1  UNL     1      -3.688  -9.791  13.019  1.00  0.00     0.178 HD
BRANCH  10  12
HETATM   12  C4  UNL     1      -4.518 -11.045  14.503  1.00  0.00     0.099 C 
HETATM   13  C3  UNL     1      -3.824 -12.157  13.702  1.00  0.00     0.028 C 
HETATM   14  C2  UNL     1      -4.774 -12.667  12.633  1.00  0.00     0.034 C 
HETATM   15  C1  UNL     1      -5.892 -13.430  13.298  1.00  0.00     0.118 C 
HETATM   16  C18 UNL     1      -6.275 -12.734  14.573  1.00  0.00     0.034 C 
HETATM   17  C17 UNL     1      -6.014 -11.244  14.453  1.00  0.00     0.028 C 
BRANCH  15  18
HETATM   18  O1  UNL     1      -5.515 -14.727  13.579  1.00  0.00    -0.396 OA
ATOM     19  H1  UNL     1      -5.465 -14.876  14.517  1.00  0.00     0.210 HD
ENDBRANCH  15  18
ENDBRANCH  10  12
ENDBRANCH   1  10
BRANCH   4  20
HETATM   20  N3  UNL     1      -5.862  -7.781  17.698  1.00  0.00    -0.217 N 
HETATM   21  C7  UNL     1      -6.770  -8.895  17.833  1.00  0.00     0.141 C 
HETATM   22  C8  UNL     1      -6.220  -9.642  19.045  1.00  0.00     0.020 C 
HETATM   23  C9  UNL     1      -6.404  -8.798  20.246  1.00  0.00     0.003 C 
HETATM   24  C10 UNL     1      -6.577  -7.332  19.975  1.00  0.00     0.020 C 
HETATM   25  C11 UNL     1      -5.749  -6.861  18.778  1.00  0.00     0.141 C 
ENDBRANCH   4  20
BRANCH   7  26
HETATM   26  N5  UNL     1      -3.309  -5.284  14.714  1.00  0.00    -0.409 NA
BRANCH  26  27
HETATM   27  C13 UNL     1      -2.696  -4.121  14.444  1.00  0.00     0.169 C 
HETATM   28  C14 UNL     1      -3.366  -3.130  13.532  1.00  0.00     0.059 C 
HETATM   29  C15 UNL     1      -2.968  -2.028  14.515  1.00  0.00     0.088 C 
HETATM   30 CL1  UNL     1      -4.146  -0.766  14.788  1.00  0.00    -0.125 Cl
HETATM   31  C16 UNL     1      -2.913  -3.069  15.590  1.00  0.00     0.059 C 
ENDBRANCH  26  27
ENDBRANCH   7  26
TORSDOF 6
ENDMDL
MODEL 2
REMARK VINA RESULT: -8.243330390      1.069      1.489
REMARK  6 active torsions:
REMARK  status: ('A' for Active; 'I' for Inactive)
REMARK    1  A    between atoms: O1_1  and  C1_3 
REMARK    2  A    between atoms: C4_6  and  N1_7 
REMARK    3  A    between atoms: N1_7  and  C5_9 
REMARK    4  A    between atoms: C6_12  and  N3_13 
REMARK    5  A    between atoms: C12_21  and  N5_22 
REMARK    6  A    between atoms: N5_22  and  C13_23 
ROOT
HETATM    1  C5  UNL     1      -4.472  -8.697  14.611  1.00  0.00     0.696 A 
HETATM    2  N2  UNL     1      -5.138  -8.686  15.807  1.00  0.00    -0.022 N 
ATOM      3  H2  UNL     1      -5.633  -9.526  16.108  1.00  0.00     0.203 HD
HETATM    4  C6  UNL     1      -5.157  -7.579  16.610  1.00  0.00     0.698 A 
HETATM    5  N4  UNL     1      -4.513  -6.526  16.176  1.00  0.00    -0.148 N 
ATOM      6  H4  UNL     1      -4.527  -5.693  16.764  1.00  0.00     0.188 HD
HETATM    7  C12 UNL     1      -3.800  -6.449  14.961  1.00  0.00     0.283 A 
HETATM    8  N6  UNL     1      -3.836  -7.600  14.222  1.00  0.00    -0.148 N 
ATOM      9  H6  UNL     1      -3.348  -7.615  13.325  1.00  0.00     0.188 HD
ENDROOT
BRANCH   1  10
HETATM   10  N1  UNL     1      -4.532  -9.813  14.000  1.00  0.00    -0.221 N 
ATOM     11  H1  UNL     1      -4.758  -9.804  13.005  1.00  0.00     0.178 HD
BRANCH  10  12
HETATM   12  C4  UNL     1      -4.300 -11.082  14.625  1.00  0.00     0.099 C 
HETATM   13  C3  UNL     1      -5.573 -11.923  14.443  1.00  0.00     0.028 C 
HETATM   14  C2  UNL     1      -6.419 -11.821  15.700  1.00  0.00     0.034 C 
HETATM   15  C1  UNL     1      -5.727 -12.561  16.816  1.00  0.00     0.118 C 
HETATM   16  C18 UNL     1      -4.246 -12.331  16.718  1.00  0.00     0.034 C 
HETATM   17  C17 UNL     1      -3.969 -10.975  16.095  1.00  0.00     0.028 C 
BRANCH  15  18
HETATM   18  O1  UNL     1      -5.985 -13.916  16.754  1.00  0.00    -0.396 OA
ATOM     19  H1  UNL     1      -6.919 -14.089  16.761  1.00  0.00     0.210 HD
ENDBRANCH  15  18
ENDBRANCH  10  12
ENDBRANCH   1  10
BRANCH   4  20
HETATM   20  N3  UNL     1      -5.910  -7.614  17.801  1.00  0.00    -0.217 N 
HETATM   21  C7  UNL     1      -6.852  -8.685  18.026  1.00  0.00     0.141 C 
HETATM   22  C8  UNL     1      -6.286  -9.388  19.257  1.00  0.00     0.020 C 
HETATM   23  C9  UNL     1      -6.397  -8.475  20.416  1.00  0.00     0.003 C 
HETATM   24  C10 UNL     1      -6.527  -7.020  20.073  1.00  0.00     0.020 C 
HETATM   25  C11 UNL     1      -5.726  -6.644  18.825  1.00  0.00     0.141 C 
ENDBRANCH   4  20
BRANCH   7  26
HETATM   26  N5  UNL     1      -3.210  -5.425  14.706  1.00  0.00    -0.409 NA
BRANCH  26  27
HETATM   27  C13 UNL     1      -2.623  -4.242  14.467  1.00  0.00     0.169 C 
HETATM   28  C14 UNL     1      -3.335  -3.226  13.616  1.00  0.00     0.059 C 
HETATM   29  C15 UNL     1      -2.925  -2.158  14.632  1.00  0.00     0.088 C 
HETATM   30 CL1  UNL     1      -4.113  -0.928  14.991  1.00  0.00    -0.125 Cl
HETATM   31  C16 UNL     1      -2.822  -3.242  15.662  1.00  0.00     0.059 C 
ENDBRANCH  26  27
ENDBRANCH   7  26
TORSDOF 6
ENDMDL
MODEL 3
REMARK VINA RESULT: -8.149795176      3.808      6.931
REMARK  6 active torsions:
REMARK  status: ('A' for Active; 'I' for Inactive)
REMARK    1  A    between atoms: O1_1  and  C1_3 
REMARK    2  A    between atoms: C4_6  and  N1_7 
REMARK    3  A    between atoms: N1_7  and  C5_9 
REMARK    4  A    between atoms: C6_12  and  N3_13 
REMARK    5  A    between atoms: C12_21  and  N5_22 
REMARK    6  A    between atoms: N5_22  and  C13_23 
ROOT
HETATM    1  C5  UNL     1      -4.451  -7.448  15.013  1.00  0.00     0.696 A 
HETATM    2  N2  UNL     1      -5.155  -7.762  16.145  1.00  0.00    -0.022 N 
ATOM      3  H2  UNL     1      -5.511  -7.009  16.734  1.00  0.00     0.203 HD
HETATM    4  C6  UNL     1      -5.395  -9.059  16.505  1.00  0.00     0.698 A 
HETATM    5  N4  UNL     1      -4.912  -9.988  15.720  1.00  0.00    -0.148 N 
ATOM      6  H4  UNL     1      -5.079 -10.959  15.984  1.00  0.00     0.188 HD
HETATM    7  C12 UNL     1      -4.180  -9.755  14.537  1.00  0.00     0.283 A 
HETATM    8  N6  UNL     1      -3.986  -8.431  14.254  1.00  0.00    -0.148 N 
ATOM      9  H6  UNL     1      -3.456  -8.187  13.417  1.00  0.00     0.188 HD
ENDROOT
BRANCH   1  10
HETATM   10  N1  UNL     1      -4.341  -6.195  14.809  1.00  0.00    -0.221 N 
ATOM     11  H1  UNL     1      -5.193  -5.635  14.795  1.00  0.00     0.178 HD
BRANCH  10  12
HETATM   12  C4  UNL     1      -3.092  -5.525  14.597  1.00  0.00     0.099 C 
HETATM   13  C3  UNL     1      -2.233  -5.745  15.851  1.00  0.00     0.028 C 
HETATM   14  C2  UNL     1      -2.360  -4.535  16.759  1.00  0.00     0.034 C 
HETATM   15  C1  UNL     1      -1.658  -3.366  16.116  1.00  0.00     0.118 C 
HETATM   16  C18 UNL     1      -1.900  -3.398  14.634  1.00  0.00     0.034 C 
HETATM   17  C17 UNL     1      -3.241  -4.044  14.339  1.00  0.00     0.028 C 
BRANCH  15  18
HETATM   18  O1  UNL     1      -0.299  -3.403  16.359  1.00  0.00    -0.396 OA
ATOM     19  H1  UNL     1       0.167  -2.791  15.801  1.00  0.00     0.210 HD
ENDBRANCH  15  18
ENDBRANCH  10  12
ENDBRANCH   1  10
BRANCH   4  20
HETATM   20  N3  UNL     1      -6.075  -9.316  17.713  1.00  0.00    -0.217 N 
HETATM   21  C7  UNL     1      -6.764 -10.570  17.900  1.00  0.00     0.141 C 
HETATM   22  C8  UNL     1      -6.015 -11.203  19.069  1.00  0.00     0.020 C 
HETATM   23  C9  UNL     1      -6.266 -10.398  20.284  1.00  0.00     0.003 C 
HETATM   24  C10 UNL     1      -6.708  -8.986  20.034  1.00  0.00     0.020 C 
HETATM   25  C11 UNL     1      -6.055  -8.384  18.788  1.00  0.00     0.141 C 
ENDBRANCH   4  20
BRANCH   7  26
HETATM   26  N5  UNL     1      -3.833 -10.710  13.880  1.00  0.00    -0.409 NA
BRANCH  26  27
HETATM   27  C13 UNL     1      -3.515 -11.747  13.091  1.00  0.00     0.169 C 
HETATM   28  C14 UNL     1      -4.579 -12.745  12.722  1.00  0.00     0.059 C 
HETATM   29  C15 UNL     1      -4.050 -12.706  11.287  1.00  0.00     0.088 C 
HETATM   30 CL1  UNL     1      -5.247 -12.753  10.015  1.00  0.00    -0.125 Cl
HETATM   31  C16 UNL     1      -3.501 -11.342  11.574  1.00  0.00     0.059 C 
ENDBRANCH  26  27
ENDBRANCH   7  26
TORSDOF 6
ENDMDL
MODEL 4
REMARK VINA RESULT: -8.032140176      3.845      6.929
REMARK  6 active torsions:
REMARK  status: ('A' for Active; 'I' for Inactive)
REMARK    1  A    between atoms: O1_1  and  C1_3 
REMARK    2  A    between atoms: C4_6  and  N1_7 
REMARK    3  A    between atoms: N1_7  and  C5_9 
REMARK    4  A    between atoms: C6_12  and  N3_13 
REMARK    5  A    between atoms: C12_21  and  N5_22 
REMARK    6  A    between atoms: N5_22  and  C13_23 
ROOT
HETATM    1  C5  UNL     1      -4.335  -7.376  15.283  1.00  0.00     0.696 A 
HETATM    2  N2  UNL     1      -5.070  -7.805  16.356  1.00  0.00    -0.022 N 
ATOM      3  H2  UNL     1      -5.382  -7.124  17.049  1.00  0.00     0.203 HD
HETATM    4  C6  UNL     1      -5.399  -9.122  16.522  1.00  0.00     0.698 A 
HETATM    5  N4  UNL     1      -4.970  -9.955  15.608  1.00  0.00    -0.148 N 
ATOM      6  H4  UNL     1      -5.204 -10.941  15.727  1.00  0.00     0.188 HD
HETATM    7  C12 UNL     1      -4.212  -9.601  14.472  1.00  0.00     0.283 A 
HETATM    8  N6  UNL     1      -3.928  -8.266  14.388  1.00  0.00    -0.148 N 
ATOM      9  H6  UNL     1      -3.375  -7.937  13.596  1.00  0.00     0.188 HD
ENDROOT
BRANCH   1  10
HETATM   10  N1  UNL     1      -4.140  -6.117  15.265  1.00  0.00    -0.221 N 
ATOM     11  H1  UNL     1      -4.607  -5.549  15.972  1.00  0.00     0.178 HD
BRANCH  10  12
HETATM   12  C4  UNL     1      -3.305  -5.449  14.311  1.00  0.00     0.099 C 
HETATM   13  C3  UNL     1      -2.465  -4.416  15.078  1.00  0.00     0.028 C 
HETATM   14  C2  UNL     1      -3.128  -3.055  14.968  1.00  0.00     0.034 C 
HETATM   15  C1  UNL     1      -2.992  -2.559  13.551  1.00  0.00     0.118 C 
HETATM   16  C18 UNL     1      -3.162  -3.713  12.605  1.00  0.00     0.034 C 
HETATM   17  C17 UNL     1      -4.080  -4.756  13.215  1.00  0.00     0.028 C 
BRANCH  15  18
HETATM   18  O1  UNL     1      -1.759  -1.974  13.342  1.00  0.00    -0.396 OA
ATOM     19  H1  UNL     1      -1.700  -1.597  12.471  1.00  0.00     0.210 HD
ENDBRANCH  15  18
ENDBRANCH  10  12
ENDBRANCH   1  10
BRANCH   4  20
HETATM   20  N3  UNL     1      -6.107  -9.507  17.678  1.00  0.00    -0.217 N 
HETATM   21  C7  UNL     1      -6.723 -10.810  17.746  1.00  0.00     0.141 C 
HETATM   22  C8  UNL     1      -5.980 -11.482  18.898  1.00  0.00     0.020 C 
HETATM   23  C9  UNL     1      -6.326 -10.785  20.155  1.00  0.00     0.003 C 
HETATM   24  C10 UNL     1      -6.847  -9.387  19.987  1.00  0.00     0.020 C 
HETATM   25  C11 UNL     1      -6.185  -8.657  18.817  1.00  0.00     0.141 C 
ENDBRANCH   4  20
BRANCH   7  26
HETATM   26  N5  UNL     1      -3.922 -10.471  13.683  1.00  0.00    -0.409 NA
BRANCH  26  27
HETATM   27  C13 UNL     1      -3.539 -11.466  12.870  1.00  0.00     0.169 C 
HETATM   28  C14 UNL     1      -4.555 -12.479  12.417  1.00  0.00     0.059 C 
HETATM   29  C15 UNL     1      -3.968 -12.369  11.009  1.00  0.00     0.088 C 
HETATM   30 CL1  UNL     1      -5.109 -12.400   9.685  1.00  0.00    -0.125 Cl
HETATM   31  C16 UNL     1      -3.475 -11.001  11.371  1.00  0.00     0.059 C 
ENDBRANCH  26  27
ENDBRANCH   7  26
TORSDOF 6
ENDMDL
MODEL 5
REMARK VINA RESULT: -7.980415908      1.386      2.099
REMARK  6 active torsions:
REMARK  status: ('A' for Active; 'I' for Inactive)
REMARK    1  A    between atoms: O1_1  and  C1_3 
REMARK    2  A    between atoms: C4_6  and  N1_7 
REMARK    3  A    between atoms: N1_7  and  C5_9 
REMARK    4  A    between atoms: C6_12  and  N3_13 
REMARK    5  A    between atoms: C12_21  and  N5_22 
REMARK    6  A    between atoms: N5_22  and  C13_23 
ROOT
HETATM    1  C5  UNL     1      -5.938  -8.759  15.281  1.00  0.00     0.696 A 
HETATM    2  N2  UNL     1      -6.137  -8.795  16.635  1.00  0.00    -0.022 N 
ATOM      3  H2  UNL     1      -6.756  -9.505  17.028  1.00  0.00     0.203 HD
HETATM    4  C6  UNL     1      -5.527  -7.904  17.476  1.00  0.00     0.698 A 
HETATM    5  N4  UNL     1      -4.749  -7.010  16.922  1.00  0.00    -0.148 N 
ATOM      6  H4  UNL     1      -4.296  -6.337  17.540  1.00  0.00     0.188 HD
HETATM    7  C12 UNL     1      -4.486  -6.901  15.540  1.00  0.00     0.283 A 
HETATM    8  N6  UNL     1      -5.137  -7.830  14.775  1.00  0.00    -0.148 N 
ATOM      9  H6  UNL     1      -5.001  -7.806  13.764  1.00  0.00     0.188 HD
ENDROOT
BRANCH   1  10
HETATM   10  N1  UNL     1      -6.558  -9.673  14.646  1.00  0.00    -0.221 N 
ATOM     11  H1  UNL     1      -7.494  -9.466  14.300  1.00  0.00     0.178 HD
BRANCH  10  12
HETATM   12  C4  UNL     1      -6.019 -10.976  14.388  1.00  0.00     0.099 C 
HETATM   13  C3  UNL     1      -6.591 -11.929  15.449  1.00  0.00     0.028 C 
HETATM   14  C2  UNL     1      -5.582 -12.085  16.572  1.00  0.00     0.034 C 
HETATM   15  C1  UNL     1      -4.404 -12.877  16.063  1.00  0.00     0.118 C 
HETATM   16  C18 UNL     1      -4.107 -12.466  14.649  1.00  0.00     0.034 C 
HETATM   17  C17 UNL     1      -4.509 -11.020  14.431  1.00  0.00     0.028 C 
BRANCH  15  18
HETATM   18  O1  UNL     1      -4.657 -14.233  16.103  1.00  0.00    -0.396 OA
ATOM     19  H1  UNL     1      -4.630 -14.563  16.994  1.00  0.00     0.210 HD
ENDBRANCH  15  18
ENDBRANCH  10  12
ENDBRANCH   1  10
BRANCH   4  20
HETATM   20  N3  UNL     1      -5.821  -7.958  18.853  1.00  0.00    -0.217 N 
HETATM   21  C7  UNL     1      -5.392  -6.890  19.724  1.00  0.00     0.141 C 
HETATM   22  C8  UNL     1      -6.709  -6.315  20.239  1.00  0.00     0.020 C 
HETATM   23  C9  UNL     1      -7.362  -7.326  21.099  1.00  0.00     0.003 C 
HETATM   24  C10 UNL     1      -6.913  -8.740  20.876  1.00  0.00     0.020 C 
HETATM   25  C11 UNL     1      -6.587  -9.022  19.408  1.00  0.00     0.141 C 
ENDBRANCH   4  20
BRANCH   7  26
HETATM   26  N5  UNL     1      -3.706  -6.053  15.171  1.00  0.00    -0.409 NA
BRANCH  26  27
HETATM   27  C13 UNL     1      -2.871  -5.061  14.832  1.00  0.00     0.169 C 
HETATM   28  C14 UNL     1      -3.364  -3.955  13.939  1.00  0.00     0.059 C 
HETATM   29  C15 UNL     1      -2.664  -2.959  14.865  1.00  0.00     0.088 C 
HETATM   30 CL1  UNL     1      -3.509  -1.463  15.181  1.00  0.00    -0.125 Cl
HETATM   31  C16 UNL     1      -2.768  -3.975  15.962  1.00  0.00     0.059 C 
ENDBRANCH  26  27
ENDBRANCH   7  26
TORSDOF 6
ENDMDL
