MODEL 1
REMARK VINA RESULT: -6.354181664      0.000      0.000
REMARK  6 active torsions:
REMARK  status: ('A' for Active; 'I' for Inactive)
REMARK    1  A    between atoms: N1_8  and  C7_9 
REMARK    2  A    between atoms: C7_9  and  C8_10 
REMARK    3  A    between atoms: C8_10  and  O1_11 
REMARK    4  A    between atoms: C12_19  and  N3_21 
REMARK       I    between atoms: N3_21  and  C14_23 
REMARK    5  A    between atoms: C14_23  and  O4_25 
REMARK    6  A    between atoms: O4_25  and  C15_26 
ROOT
HETATM    1  C8  UNL     1      -6.167 -13.368  15.825  1.00  0.00     0.138 C 
HETATM    2  C9  UNL     1      -5.135 -13.268  14.714  1.00  0.00     0.119 C 
HETATM    3  C10 UNL     1      -4.949 -14.525  13.928  1.00  0.00     0.035 C 
HETATM    4  N2  UNL     1      -3.957 -12.892  15.478  1.00  0.00    -0.351 N 
ATOM      5  H2  UNL     1      -2.991 -13.167  15.304  1.00  0.00     0.163 HD
HETATM    6  C11 UNL     1      -4.452 -12.043  16.537  1.00  0.00     0.249 C 
HETATM    7  O2  UNL     1      -3.747 -11.479  17.402  1.00  0.00    -0.271 OA
HETATM    8  C12 UNL     1      -5.917 -11.953  16.431  1.00  0.00     0.146 C 
HETATM    9  C13 UNL     1      -6.277 -10.952  15.352  1.00  0.00     0.052 C 
ENDROOT
BRANCH   1  10
HETATM   10  C7  UNL     1      -5.749 -14.340  16.885  1.00  0.00     0.318 C 
BRANCH  10  11
HETATM   11  N1  UNL     1      -6.501 -15.539  16.940  1.00  0.00     0.120 N 
HETATM   12  C2  UNL     1      -7.320 -15.822  18.070  1.00  0.00     0.229 C 
HETATM   13  C1  UNL     1      -6.833 -15.399  19.428  1.00  0.00     0.043 C 
HETATM   14  C3  UNL     1      -7.022 -17.325  17.913  1.00  0.00     0.069 C 
HETATM   15  C4  UNL     1      -8.137 -17.979  17.153  1.00  0.00     0.016 C 
HETATM   16  C5  UNL     1      -5.865 -16.796  17.074  1.00  0.00     0.237 C 
HETATM   17  C6  UNL     1      -5.768 -17.638  15.816  1.00  0.00     0.068 C 
HETATM   18 CL1  UNL     1      -4.287 -16.808  17.900  1.00  0.00    -0.085 Cl
ENDBRANCH  10  11
ENDBRANCH   1  10
BRANCH   1  19
HETATM   19  O1  UNL     1      -7.463 -13.446  15.409  1.00  0.00    -0.383 OA
ATOM     20  H1  UNL     1      -7.600 -13.640  14.488  1.00  0.00     0.210 HD
ENDBRANCH   1  19
BRANCH   8  21
HETATM   21  N3  UNL     1      -6.642 -11.751  17.632  1.00  0.00    -0.316 N 
HETATM   22  C14 UNL     1      -6.787 -10.465  18.189  1.00  0.00     0.362 C 
HETATM   23  O3  UNL     1      -6.265  -9.486  17.608  1.00  0.00    -0.238 OA
ATOM     24  H3  UNL     1      -7.066 -12.552  18.101  1.00  0.00     0.166 HD
BRANCH  22  25
HETATM   25  O4  UNL     1      -7.508 -10.307  19.373  1.00  0.00    -0.294 OA
BRANCH  25  26
HETATM   26  C15 UNL     1      -6.884  -9.894  20.552  1.00  0.00     0.061 C 
HETATM   27  C16 UNL     1      -6.304  -8.488  20.422  1.00  0.00     0.046 C 
HETATM   28  C17 UNL     1      -5.818 -10.898  20.914  1.00  0.00     0.046 C 
HETATM   29  C18 UNL     1      -7.892  -9.838  21.690  1.00  0.00     0.046 C 
ENDBRANCH  25  26
ENDBRANCH  22  25
ENDBRANCH   8  21
TORSDOF 6
ENDMDL
MODEL 2
REMARK VINA RESULT: -6.100511587      4.767      7.804
REMARK  6 active torsions:
REMARK  status: ('A' for Active; 'I' for Inactive)
REMARK    1  A    between atoms: N1_8  and  C7_9 
REMARK    2  A    between atoms: C7_9  and  C8_10 
REMARK    3  A    between atoms: C8_10  and  O1_11 
REMARK    4  A    between atoms: C12_19  and  N3_21 
REMARK       I    between atoms: N3_21  and  C14_23 
REMARK    5  A    between atoms: C14_23  and  O4_25 
REMARK    6  A    between atoms: O4_25  and  C15_26 
ROOT
HETATM    1  C8  UNL     1      -4.595 -12.333  13.175  1.00  0.00     0.138 C 
HETATM    2  C9  UNL     1      -4.172 -13.763  13.465  1.00  0.00     0.119 C 
HETATM    3  C10 UNL     1      -4.800 -14.359  14.683  1.00  0.00     0.035 C 
HETATM    4  N2  UNL     1      -2.734 -13.596  13.587  1.00  0.00    -0.351 N 
ATOM      5  H2  UNL     1      -2.102 -14.095  14.213  1.00  0.00     0.163 HD
HETATM    6  C11 UNL     1      -2.392 -12.569  12.631  1.00  0.00     0.249 C 
HETATM    7  O2  UNL     1      -1.238 -12.151  12.397  1.00  0.00    -0.271 OA
HETATM    8  C12 UNL     1      -3.624 -12.097  11.977  1.00  0.00     0.146 C 
HETATM    9  C13 UNL     1      -4.024 -13.083  10.898  1.00  0.00     0.052 C 
ENDROOT
BRANCH   1  10
HETATM   10  C7  UNL     1      -4.145 -11.393  14.250  1.00  0.00     0.318 C 
BRANCH  10  11
HETATM   11  N1  UNL     1      -5.166 -10.599  14.829  1.00  0.00     0.120 N 
HETATM   12  C2  UNL     1      -4.993  -9.191  14.963  1.00  0.00     0.229 C 
HETATM   13  C1  UNL     1      -3.621  -8.669  15.286  1.00  0.00     0.043 C 
HETATM   14  C3  UNL     1      -5.805  -9.214  16.272  1.00  0.00     0.069 C 
HETATM   15  C4  UNL     1      -7.229  -8.842  15.983  1.00  0.00     0.016 C 
HETATM   16  C5  UNL     1      -5.479 -10.701  16.205  1.00  0.00     0.237 C 
HETATM   17  C6  UNL     1      -6.735 -11.478  16.553  1.00  0.00     0.068 C 
HETATM   18 CL1  UNL     1      -4.163 -11.218  17.288  1.00  0.00    -0.085 Cl
ENDBRANCH  10  11
ENDBRANCH   1  10
BRANCH   1  19
HETATM   19  O1  UNL     1      -5.878 -12.184  12.738  1.00  0.00    -0.383 OA
ATOM     20  H1  UNL     1      -6.052 -11.431  12.185  1.00  0.00     0.210 HD
ENDBRANCH   1  19
BRANCH   8  21
HETATM   21  N3  UNL     1      -3.646 -10.753  11.530  1.00  0.00    -0.316 N 
HETATM   22  C14 UNL     1      -3.047 -10.380  10.310  1.00  0.00     0.362 C 
HETATM   23  O3  UNL     1      -2.488 -11.257   9.612  1.00  0.00    -0.238 OA
ATOM     24  H3  UNL     1      -4.104 -10.042  12.101  1.00  0.00     0.166 HD
BRANCH  22  25
HETATM   25  O4  UNL     1      -3.089  -9.046   9.903  1.00  0.00    -0.294 OA
BRANCH  25  26
HETATM   26  C15 UNL     1      -3.614  -8.684   8.661  1.00  0.00     0.061 C 
HETATM   27  C16 UNL     1      -4.757  -9.602   8.240  1.00  0.00     0.046 C 
HETATM   28  C17 UNL     1      -2.499  -8.688   7.645  1.00  0.00     0.046 C 
HETATM   29  C18 UNL     1      -4.194  -7.278   8.725  1.00  0.00     0.046 C 
ENDBRANCH  25  26
ENDBRANCH  22  25
ENDBRANCH   8  21
TORSDOF 6
ENDMDL
MODEL 3
REMARK VINA RESULT: -5.857145293      0.719      1.060
REMARK  6 active torsions:
REMARK  status: ('A' for Active; 'I' for Inactive)
REMARK    1  A    between atoms: N1_8  and  C7_9 
REMARK    2  A    between atoms: C7_9  and  C8_10 
REMARK    3  A    between atoms: C8_10  and  O1_11 
REMARK    4  A    between atoms: C12_19  and  N3_21 
REMARK       I    between atoms: N3_21  and  C14_23 
REMARK    5  A    between atoms: C14_23  and  O4_25 
REMARK    6  A    between atoms: O4_25  and  C15_26 
ROOT
HETATM    1  C8  UNL     1      -6.133 -13.948  15.738  1.00  0.00     0.138 C 
HETATM    2  C9  UNL     1      -5.042 -14.027  14.684  1.00  0.00     0.119 C 
HETATM    3  C10 UNL     1      -4.844 -15.389  14.101  1.00  0.00     0.035 C 
HETATM    4  N2  UNL     1      -3.898 -13.561  15.449  1.00  0.00    -0.351 N 
ATOM      5  H2  UNL     1      -2.930 -13.873  15.370  1.00  0.00     0.163 HD
HETATM    6  C11 UNL     1      -4.428 -12.559  16.344  1.00  0.00     0.249 C 
HETATM    7  O2  UNL     1      -3.758 -11.883  17.154  1.00  0.00    -0.271 OA
HETATM    8  C12 UNL     1      -5.883 -12.463  16.145  1.00  0.00     0.146 C 
HETATM    9  C13 UNL     1      -6.164 -11.627  14.912  1.00  0.00     0.052 C 
ENDROOT
BRANCH   1  10
HETATM   10  C7  UNL     1      -5.793 -14.760  16.950  1.00  0.00     0.318 C 
BRANCH  10  11
HETATM   11  N1  UNL     1      -6.713 -15.789  17.269  1.00  0.00     0.120 N 
HETATM   12  C2  UNL     1      -7.603 -15.642  18.371  1.00  0.00     0.229 C 
HETATM   13  C1  UNL     1      -7.108 -14.928  19.598  1.00  0.00     0.043 C 
HETATM   14  C3  UNL     1      -7.520 -17.156  18.644  1.00  0.00     0.069 C 
HETATM   15  C4  UNL     1      -8.691 -17.843  18.007  1.00  0.00     0.016 C 
HETATM   16  C5  UNL     1      -6.271 -17.032  17.781  1.00  0.00     0.237 C 
HETATM   17  C6  UNL     1      -6.252 -18.193  16.804  1.00  0.00     0.068 C 
HETATM   18 CL1  UNL     1      -4.740 -17.021  18.693  1.00  0.00    -0.085 Cl
ENDBRANCH  10  11
ENDBRANCH   1  10
BRANCH   1  19
HETATM   19  O1  UNL     1      -7.407 -14.068  15.267  1.00  0.00    -0.383 OA
ATOM     20  H1  UNL     1      -7.988 -13.333  15.428  1.00  0.00     0.210 HD
ENDBRANCH   1  19
BRANCH   8  21
HETATM   21  N3  UNL     1      -6.666 -12.076  17.261  1.00  0.00    -0.316 N 
HETATM   22  C14 UNL     1      -6.748 -10.728  17.662  1.00  0.00     0.362 C 
HETATM   23  O3  UNL     1      -6.118  -9.860  17.016  1.00  0.00    -0.238 OA
ATOM     24  H3  UNL     1      -7.178 -12.787  17.784  1.00  0.00     0.166 HD
BRANCH  22  25
HETATM   25  O4  UNL     1      -7.529 -10.387  18.767  1.00  0.00    -0.294 OA
BRANCH  25  26
HETATM   26  C15 UNL     1      -6.963 -10.236  20.035  1.00  0.00     0.061 C 
HETATM   27  C16 UNL     1      -5.726 -11.113  20.210  1.00  0.00     0.046 C 
HETATM   28  C17 UNL     1      -8.012 -10.548  21.074  1.00  0.00     0.046 C 
HETATM   29  C18 UNL     1      -6.502  -8.800  20.239  1.00  0.00     0.046 C 
ENDBRANCH  25  26
ENDBRANCH  22  25
ENDBRANCH   8  21
TORSDOF 6
ENDMDL
MODEL 4
REMARK VINA RESULT: -5.763381979      4.424      7.669
REMARK  6 active torsions:
REMARK  status: ('A' for Active; 'I' for Inactive)
REMARK    1  A    between atoms: N1_8  and  C7_9 
REMARK    2  A    between atoms: C7_9  and  C8_10 
REMARK    3  A    between atoms: C8_10  and  O1_11 
REMARK    4  A    between atoms: C12_19  and  N3_21 
REMARK       I    between atoms: N3_21  and  C14_23 
REMARK    5  A    between atoms: C14_23  and  O4_25 
REMARK    6  A    between atoms: O4_25  and  C15_26 
ROOT
HETATM    1  C8  UNL     1      -4.996 -12.733  13.495  1.00  0.00     0.138 C 
HETATM    2  C9  UNL     1      -4.592 -14.104  14.011  1.00  0.00     0.119 C 
HETATM    3  C10 UNL     1      -5.058 -14.405  15.398  1.00  0.00     0.035 C 
HETATM    4  N2  UNL     1      -3.146 -14.015  13.901  1.00  0.00    -0.351 N 
ATOM      5  H2  UNL     1      -2.450 -14.424  14.524  1.00  0.00     0.163 HD
HETATM    6  C11 UNL     1      -2.907 -13.221  12.718  1.00  0.00     0.249 C 
HETATM    7  O2  UNL     1      -1.784 -12.937  12.250  1.00  0.00    -0.271 OA
HETATM    8  C12 UNL     1      -4.201 -12.804  12.155  1.00  0.00     0.146 C 
HETATM    9  C13 UNL     1      -4.794 -13.952  11.364  1.00  0.00     0.052 C 
ENDROOT
BRANCH   1  10
HETATM   10  C7  UNL     1      -4.355 -11.633  14.286  1.00  0.00     0.318 C 
BRANCH  10  11
HETATM   11  N1  UNL     1      -5.253 -10.731  14.907  1.00  0.00     0.120 N 
HETATM   12  C2  UNL     1      -4.942  -9.342  14.979  1.00  0.00     0.229 C 
HETATM   13  C1  UNL     1      -3.507  -8.943  15.185  1.00  0.00     0.043 C 
HETATM   14  C3  UNL     1      -5.654  -9.251  16.343  1.00  0.00     0.069 C 
HETATM   15  C4  UNL     1      -7.054  -8.754  16.142  1.00  0.00     0.016 C 
HETATM   16  C5  UNL     1      -5.472 -10.763  16.305  1.00  0.00     0.237 C 
HETATM   17  C6  UNL     1      -6.765 -11.408  16.768  1.00  0.00     0.068 C 
HETATM   18 CL1  UNL     1      -4.133 -11.372  17.310  1.00  0.00    -0.085 Cl
ENDBRANCH  10  11
ENDBRANCH   1  10
BRANCH   1  19
HETATM   19  O1  UNL     1      -6.321 -12.585  13.215  1.00  0.00    -0.383 OA
ATOM     20  H1  UNL     1      -6.786 -11.918  13.709  1.00  0.00     0.210 HD
ENDBRANCH   1  19
BRANCH   8  21
HETATM   21  N3  UNL     1      -4.235 -11.575  11.450  1.00  0.00    -0.316 N 
HETATM   22  C14 UNL     1      -3.907 -11.510  10.081  1.00  0.00     0.362 C 
HETATM   23  O3  UNL     1      -3.582 -12.560   9.481  1.00  0.00    -0.238 OA
ATOM     24  H3  UNL     1      -4.501 -10.722  11.943  1.00  0.00     0.166 HD
BRANCH  22  25
HETATM   25  O4  UNL     1      -3.951 -10.281   9.422  1.00  0.00    -0.294 OA
BRANCH  25  26
HETATM   26  C15 UNL     1      -2.784  -9.569   9.138  1.00  0.00     0.061 C 
HETATM   27  C16 UNL     1      -1.563 -10.192   9.809  1.00  0.00     0.046 C 
HETATM   28  C17 UNL     1      -2.975  -8.135   9.563  1.00  0.00     0.046 C 
HETATM   29  C18 UNL     1      -2.506  -9.589   7.641  1.00  0.00     0.046 C 
ENDBRANCH  25  26
ENDBRANCH  22  25
ENDBRANCH   8  21
TORSDOF 6
ENDMDL
MODEL 5
REMARK VINA RESULT: -5.513702446      3.028      5.477
REMARK  6 active torsions:
REMARK  status: ('A' for Active; 'I' for Inactive)
REMARK    1  A    between atoms: N1_8  and  C7_9 
REMARK    2  A    between atoms: C7_9  and  C8_10 
REMARK    3  A    between atoms: C8_10  and  O1_11 
REMARK    4  A    between atoms: C12_19  and  N3_21 
REMARK       I    between atoms: N3_21  and  C14_23 
REMARK    5  A    between atoms: C14_23  and  O4_25 
REMARK    6  A    between atoms: O4_25  and  C15_26 
ROOT
HETATM    1  C8  UNL     1      -4.629 -14.512  14.574  1.00  0.00     0.138 C 
HETATM    2  C9  UNL     1      -5.418 -15.759  14.936  1.00  0.00     0.119 C 
HETATM    3  C10 UNL     1      -5.235 -16.902  13.991  1.00  0.00     0.035 C 
HETATM    4  N2  UNL     1      -6.771 -15.228  14.935  1.00  0.00    -0.351 N 
ATOM      5  H2  UNL     1      -7.625 -15.705  14.645  1.00  0.00     0.163 HD
HETATM    6  C11 UNL     1      -6.645 -13.879  15.435  1.00  0.00     0.249 C 
HETATM    7  O2  UNL     1      -7.591 -13.084  15.623  1.00  0.00    -0.271 OA
HETATM    8  C12 UNL     1      -5.223 -13.595  15.687  1.00  0.00     0.146 C 
HETATM    9  C13 UNL     1      -4.819 -14.209  17.012  1.00  0.00     0.052 C 
ENDROOT
BRANCH   1  10
HETATM   10  C7  UNL     1      -5.090 -13.921  13.277  1.00  0.00     0.318 C 
BRANCH  10  11
HETATM   11  N1  UNL     1      -4.136 -13.937  12.230  1.00  0.00     0.120 N 
HETATM   12  C2  UNL     1      -3.324 -12.794  11.980  1.00  0.00     0.229 C 
HETATM   13  C1  UNL     1      -3.932 -11.432  12.168  1.00  0.00     0.043 C 
HETATM   14  C3  UNL     1      -3.339 -13.109  10.472  1.00  0.00     0.069 C 
HETATM   15  C4  UNL     1      -2.095 -13.863  10.107  1.00  0.00     0.016 C 
HETATM   16  C5  UNL     1      -4.539 -13.959  10.874  1.00  0.00     0.237 C 
HETATM   17  C6  UNL     1      -4.433 -15.295  10.162  1.00  0.00     0.068 C 
HETATM   18 CL1  UNL     1      -6.120 -13.229  10.498  1.00  0.00    -0.085 Cl
ENDBRANCH  10  11
ENDBRANCH   1  10
BRANCH   1  19
HETATM   19  O1  UNL     1      -3.281 -14.605  14.752  1.00  0.00    -0.383 OA
ATOM     20  H1  UNL     1      -2.978 -14.688  15.649  1.00  0.00     0.210 HD
ENDBRANCH   1  19
BRANCH   8  21
HETATM   21  N3  UNL     1      -4.798 -12.249  15.552  1.00  0.00    -0.316 N 
HETATM   22  C14 UNL     1      -4.940 -11.330  16.611  1.00  0.00     0.362 C 
HETATM   23  O3  UNL     1      -5.451 -11.714  17.688  1.00  0.00    -0.238 OA
ATOM     24  H3  UNL     1      -4.381 -11.941  14.673  1.00  0.00     0.166 HD
BRANCH  22  25
HETATM   25  O4  UNL     1      -4.510 -10.014  16.440  1.00  0.00    -0.294 OA
BRANCH  25  26
HETATM   26  C15 UNL     1      -5.417  -8.980  16.199  1.00  0.00     0.061 C 
HETATM   27  C16 UNL     1      -6.635  -9.468  15.418  1.00  0.00     0.046 C 
HETATM   28  C17 UNL     1      -4.704  -7.869  15.471  1.00  0.00     0.046 C 
HETATM   29  C18 UNL     1      -5.945  -8.426  17.514  1.00  0.00     0.046 C 
ENDBRANCH  25  26
ENDBRANCH  22  25
ENDBRANCH   8  21
TORSDOF 6
ENDMDL
