MODEL 1
REMARK VINA RESULT: -8.983030935      0.000      0.000
REMARK  7 active torsions:
REMARK  status: ('A' for Active; 'I' for Inactive)
REMARK    1  A    between atoms: C5_6  and  N2_7 
REMARK    2  A    between atoms: N2_7  and  C6_9 
REMARK    3  A    between atoms: C7_12  and  N4_13 
REMARK    4  A    between atoms: N4_13  and  C8_15 
REMARK    5  A    between atoms: C8_15  and  C9_16 
REMARK    6  A    between atoms: C14_21  and  C15_22 
REMARK    7  A    between atoms: C15_22  and  O1_23 
ROOT
HETATM    1  N1  UNL     1      -3.113  -0.838  13.341  1.00  0.00    -0.191 NA
HETATM    2  C1  UNL     1      -3.196  -1.973  13.459  1.00  0.00     0.101 C 
HETATM    3  C2  UNL     1      -3.310  -3.372  13.625  1.00  0.00     0.060 A 
HETATM    4  C3  UNL     1      -2.737  -3.977  14.751  1.00  0.00     0.028 A 
HETATM    5  C4  UNL     1      -2.843  -5.342  14.922  1.00  0.00     0.050 A 
HETATM    6  C5  UNL     1      -3.499  -6.137  14.014  1.00  0.00     0.106 A 
HETATM    7  N6  UNL     1      -4.037  -5.532  12.945  1.00  0.00    -0.351 N 
ATOM      8  H6  UNL     1      -4.528  -6.106  12.259  1.00  0.00     0.166 HD
HETATM    9  C18 UNL     1      -3.962  -4.195  12.731  1.00  0.00     0.112 A 
ENDROOT
BRANCH   6  10
HETATM   10  N2  UNL     1      -3.566  -7.406  14.223  1.00  0.00    -0.327 N 
ATOM     11  H2  UNL     1      -2.917  -8.011  13.720  1.00  0.00     0.169 HD
BRANCH  10  12
HETATM   12  C6  UNL     1      -4.480  -8.007  15.104  1.00  0.00     0.141 A 
HETATM   13  N3  UNL     1      -5.089  -7.361  16.116  1.00  0.00    -0.175 N 
HETATM   14  C7  UNL     1      -5.963  -7.952  16.951  1.00  0.00     0.679 A 
ATOM     15  H3  UNL     1      -4.878  -6.373  16.256  1.00  0.00     0.186 HD
HETATM   16  N5  UNL     1      -6.222  -9.261  16.737  1.00  0.00    -0.201 N 
HETATM   17  C16 UNL     1      -5.655  -9.964  15.753  1.00  0.00     0.129 A 
ATOM     18  H5  UNL     1      -6.881  -9.734  17.355  1.00  0.00     0.183 HD
HETATM   19  C17 UNL     1      -4.758  -9.361  14.895  1.00  0.00     0.071 A 
HETATM   20 BR1  UNL     1      -3.913 -10.304  13.472  1.00  0.00    -0.046 Br
BRANCH  14  21
HETATM   21  N4  UNL     1      -6.528  -7.288  17.916  1.00  0.00    -0.222 N 
ATOM     22  H4  UNL     1      -7.305  -6.658  17.715  1.00  0.00     0.178 HD
BRANCH  21  23
HETATM   23  C8  UNL     1      -6.056  -7.442  19.262  1.00  0.00     0.177 C 
BRANCH  23  24
HETATM   24  C9  UNL     1      -6.551  -8.683  19.903  1.00  0.00    -0.032 A 
HETATM   25  C10 UNL     1      -6.128  -9.941  19.515  1.00  0.00     0.009 A 
HETATM   26  C11 UNL     1      -6.622 -11.062  20.147  1.00  0.00     0.001 A 
HETATM   27  C12 UNL     1      -7.540 -10.970  21.171  1.00  0.00     0.001 A 
HETATM   28  C13 UNL     1      -7.950  -9.692  21.542  1.00  0.00     0.010 A 
HETATM   29  C14 UNL     1      -7.461  -8.558  20.917  1.00  0.00    -0.027 A 
BRANCH  29  30
HETATM   30  C15 UNL     1      -7.952  -7.208  21.374  1.00  0.00     0.203 C 
BRANCH  30  31
HETATM   31  O1  UNL     1      -7.344  -6.823  22.543  1.00  0.00    -0.396 OA
ATOM     32  H1  UNL     1      -7.654  -5.973  22.832  1.00  0.00     0.209 HD
ENDBRANCH  30  31
ENDBRANCH  29  30
ENDBRANCH  23  24
ENDBRANCH  21  23
ENDBRANCH  14  21
ENDBRANCH  10  12
ENDBRANCH   6  10
TORSDOF 7
ENDMDL
MODEL 2
REMARK VINA RESULT: -8.924121164      3.449      8.233
REMARK  7 active torsions:
REMARK  status: ('A' for Active; 'I' for Inactive)
REMARK    1  A    between atoms: C5_6  and  N2_7 
REMARK    2  A    between atoms: N2_7  and  C6_9 
REMARK    3  A    between atoms: C7_12  and  N4_13 
REMARK    4  A    between atoms: N4_13  and  C8_15 
REMARK    5  A    between atoms: C8_15  and  C9_16 
REMARK    6  A    between atoms: C14_21  and  C15_22 
REMARK    7  A    between atoms: C15_22  and  O1_23 
ROOT
HETATM    1  N1  UNL     1      -4.654 -15.728  13.258  1.00  0.00    -0.191 NA
HETATM    2  C1  UNL     1      -4.930 -14.916  14.015  1.00  0.00     0.101 C 
HETATM    3  C2  UNL     1      -5.255 -13.898  14.939  1.00  0.00     0.060 A 
HETATM    4  C3  UNL     1      -4.231 -13.286  15.674  1.00  0.00     0.028 A 
HETATM    5  C4  UNL     1      -4.538 -12.292  16.579  1.00  0.00     0.050 A 
HETATM    6  C5  UNL     1      -5.831 -11.875  16.785  1.00  0.00     0.106 A 
HETATM    7  N6  UNL     1      -6.791 -12.477  16.069  1.00  0.00    -0.351 N 
ATOM      8  H6  UNL     1      -7.758 -12.181  16.209  1.00  0.00     0.166 HD
HETATM    9  C18 UNL     1      -6.541 -13.459  15.168  1.00  0.00     0.112 A 
ENDROOT
BRANCH   6  10
HETATM   10  N2  UNL     1      -6.061 -10.942  17.643  1.00  0.00    -0.327 N 
ATOM     11  H2  UNL     1      -6.401 -11.212  18.566  1.00  0.00     0.169 HD
BRANCH  10  12
HETATM   12  C6  UNL     1      -5.871  -9.575  17.384  1.00  0.00     0.141 A 
HETATM   13  N3  UNL     1      -5.501  -9.078  16.188  1.00  0.00    -0.175 N 
HETATM   14  C7  UNL     1      -5.324  -7.765  15.957  1.00  0.00     0.679 A 
ATOM     15  H3  UNL     1      -5.349  -9.731  15.419  1.00  0.00     0.186 HD
HETATM   16  N5  UNL     1      -5.535  -6.927  16.996  1.00  0.00    -0.201 N 
HETATM   17  C16 UNL     1      -5.903  -7.350  18.208  1.00  0.00     0.129 A 
ATOM     18  H5  UNL     1      -5.408  -5.926  16.847  1.00  0.00     0.183 HD
HETATM   19  C17 UNL     1      -6.086  -8.696  18.449  1.00  0.00     0.071 A 
HETATM   20 BR1  UNL     1      -6.609  -9.367  20.153  1.00  0.00    -0.046 Br
BRANCH  14  21
HETATM   21  N4  UNL     1      -4.966  -7.330  14.784  1.00  0.00    -0.222 N 
ATOM     22  H4  UNL     1      -5.654  -7.257  14.035  1.00  0.00     0.178 HD
BRANCH  21  23
HETATM   23  C8  UNL     1      -3.602  -6.953  14.547  1.00  0.00     0.177 C 
BRANCH  23  24
HETATM   24  C9  UNL     1      -3.463  -5.537  14.132  1.00  0.00    -0.032 A 
HETATM   25  C10 UNL     1      -4.007  -5.050  12.957  1.00  0.00     0.009 A 
HETATM   26  C11 UNL     1      -3.847  -3.723  12.620  1.00  0.00     0.001 A 
HETATM   27  C12 UNL     1      -3.151  -2.850  13.429  1.00  0.00     0.001 A 
HETATM   28  C13 UNL     1      -2.615  -3.366  14.605  1.00  0.00     0.010 A 
HETATM   29  C14 UNL     1      -2.768  -4.696  14.956  1.00  0.00    -0.027 A 
BRANCH  29  30
HETATM   30  C15 UNL     1      -2.157  -5.182  16.245  1.00  0.00     0.203 C 
BRANCH  30  31
HETATM   31  O1  UNL     1      -0.890  -5.673  16.046  1.00  0.00    -0.396 OA
ATOM     32  H1  UNL     1      -0.772  -6.512  16.476  1.00  0.00     0.209 HD
ENDBRANCH  30  31
ENDBRANCH  29  30
ENDBRANCH  23  24
ENDBRANCH  21  23
ENDBRANCH  14  21
ENDBRANCH  10  12
ENDBRANCH   6  10
TORSDOF 7
ENDMDL
MODEL 3
REMARK VINA RESULT: -8.899664678      2.698      7.402
REMARK  7 active torsions:
REMARK  status: ('A' for Active; 'I' for Inactive)
REMARK    1  A    between atoms: C5_6  and  N2_7 
REMARK    2  A    between atoms: N2_7  and  C6_9 
REMARK    3  A    between atoms: C7_12  and  N4_13 
REMARK    4  A    between atoms: N4_13  and  C8_15 
REMARK    5  A    between atoms: C8_15  and  C9_16 
REMARK    6  A    between atoms: C14_21  and  C15_22 
REMARK    7  A    between atoms: C15_22  and  O1_23 
ROOT
HETATM    1  N1  UNL     1      -7.259  -6.857  21.899  1.00  0.00    -0.191 NA
HETATM    2  C1  UNL     1      -6.915  -7.556  21.060  1.00  0.00     0.101 C 
HETATM    3  C2  UNL     1      -6.511  -8.430  20.026  1.00  0.00     0.060 A 
HETATM    4  C3  UNL     1      -6.499  -9.811  20.261  1.00  0.00     0.028 A 
HETATM    5  C4  UNL     1      -6.106 -10.671  19.258  1.00  0.00     0.050 A 
HETATM    6  C5  UNL     1      -5.721 -10.215  18.021  1.00  0.00     0.106 A 
HETATM    7  N6  UNL     1      -5.742  -8.889  17.823  1.00  0.00    -0.351 N 
ATOM      8  H6  UNL     1      -5.459  -8.531  16.911  1.00  0.00     0.166 HD
HETATM    9  C18 UNL     1      -6.120  -8.001  18.775  1.00  0.00     0.112 A 
ENDROOT
BRANCH   6  10
HETATM   10  N2  UNL     1      -5.363 -11.064  17.121  1.00  0.00    -0.327 N 
ATOM     11  H2  UNL     1      -5.448 -12.057  17.337  1.00  0.00     0.169 HD
BRANCH  10  12
HETATM   12  C6  UNL     1      -4.863 -10.704  15.860  1.00  0.00     0.141 A 
HETATM   13  N3  UNL     1      -4.422  -9.472  15.546  1.00  0.00    -0.175 N 
HETATM   14  C7  UNL     1      -3.946  -9.143  14.331  1.00  0.00     0.679 A 
ATOM     15  H3  UNL     1      -4.451  -8.749  16.266  1.00  0.00     0.186 HD
HETATM   16  N5  UNL     1      -3.920 -10.123  13.400  1.00  0.00    -0.201 N 
HETATM   17  C16 UNL     1      -4.340 -11.367  13.641  1.00  0.00     0.129 A 
ATOM     18  H5  UNL     1      -3.562  -9.901  12.471  1.00  0.00     0.183 HD
HETATM   19  C17 UNL     1      -4.830 -11.707  14.886  1.00  0.00     0.071 A 
HETATM   20 BR1  UNL     1      -5.445 -13.462  15.298  1.00  0.00    -0.046 Br
BRANCH  14  21
HETATM   21  N4  UNL     1      -3.530  -7.938  14.073  1.00  0.00    -0.222 N 
ATOM     22  H4  UNL     1      -3.066  -7.736  13.188  1.00  0.00     0.178 HD
BRANCH  21  23
HETATM   23  C8  UNL     1      -3.726  -6.893  15.038  1.00  0.00     0.177 C 
BRANCH  23  24
HETATM   24  C9  UNL     1      -3.416  -5.549  14.497  1.00  0.00    -0.032 A 
HETATM   25  C10 UNL     1      -3.901  -5.107  13.279  1.00  0.00     0.009 A 
HETATM   26  C11 UNL     1      -3.580  -3.846  12.824  1.00  0.00     0.001 A 
HETATM   27  C12 UNL     1      -2.778  -2.996  13.555  1.00  0.00     0.001 A 
HETATM   28  C13 UNL     1      -2.303  -3.465  14.777  1.00  0.00     0.010 A 
HETATM   29  C14 UNL     1      -2.618  -4.728  15.246  1.00  0.00    -0.027 A 
BRANCH  29  30
HETATM   30  C15 UNL     1      -2.066  -5.167  16.578  1.00  0.00     0.203 C 
BRANCH  30  31
HETATM   31  O1  UNL     1      -0.752  -5.555  16.473  1.00  0.00    -0.396 OA
ATOM     32  H1  UNL     1      -0.171  -4.930  16.889  1.00  0.00     0.209 HD
ENDBRANCH  30  31
ENDBRANCH  29  30
ENDBRANCH  23  24
ENDBRANCH  21  23
ENDBRANCH  14  21
ENDBRANCH  10  12
ENDBRANCH   6  10
TORSDOF 7
ENDMDL
MODEL 4
REMARK VINA RESULT: -8.895588028      1.458      2.306
REMARK  7 active torsions:
REMARK  status: ('A' for Active; 'I' for Inactive)
REMARK    1  A    between atoms: C5_6  and  N2_7 
REMARK    2  A    between atoms: N2_7  and  C6_9 
REMARK    3  A    between atoms: C7_12  and  N4_13 
REMARK    4  A    between atoms: N4_13  and  C8_15 
REMARK    5  A    between atoms: C8_15  and  C9_16 
REMARK    6  A    between atoms: C14_21  and  C15_22 
REMARK    7  A    between atoms: C15_22  and  O1_23 
ROOT
HETATM    1  N1  UNL     1      -2.522  -2.146  15.728  1.00  0.00    -0.191 NA
HETATM    2  C1  UNL     1      -2.735  -3.215  15.380  1.00  0.00     0.101 C 
HETATM    3  C2  UNL     1      -3.009  -4.540  14.970  1.00  0.00     0.060 A 
HETATM    4  C3  UNL     1      -2.580  -5.607  15.770  1.00  0.00     0.028 A 
HETATM    5  C4  UNL     1      -2.843  -6.903  15.378  1.00  0.00     0.050 A 
HETATM    6  C5  UNL     1      -3.519  -7.186  14.216  1.00  0.00     0.106 A 
HETATM    7  N6  UNL     1      -3.917  -6.146  13.470  1.00  0.00    -0.351 N 
ATOM      8  H6  UNL     1      -4.420  -6.336  12.603  1.00  0.00     0.166 HD
HETATM    9  C18 UNL     1      -3.685  -4.854  13.811  1.00  0.00     0.112 A 
ENDROOT
BRANCH   6  10
HETATM   10  N2  UNL     1      -3.736  -8.416  13.899  1.00  0.00    -0.327 N 
ATOM     11  H2  UNL     1      -3.333  -8.765  13.029  1.00  0.00     0.169 HD
BRANCH  10  12
HETATM   12  C6  UNL     1      -4.493  -9.303  14.679  1.00  0.00     0.141 A 
HETATM   13  N3  UNL     1      -5.210  -8.938  15.758  1.00  0.00    -0.175 N 
HETATM   14  C7  UNL     1      -5.930  -9.802  16.495  1.00  0.00     0.679 A 
ATOM     15  H3  UNL     1      -5.206  -7.955  16.031  1.00  0.00     0.186 HD
HETATM   16  N5  UNL     1      -5.915 -11.096  16.107  1.00  0.00    -0.201 N 
HETATM   17  C16 UNL     1      -5.227 -11.530  15.048  1.00  0.00     0.129 A 
ATOM     18  H5  UNL     1      -6.454 -11.773  16.648  1.00  0.00     0.183 HD
HETATM   19  C17 UNL     1      -4.487 -10.646  14.290  1.00  0.00     0.071 A 
HETATM   20 BR1  UNL     1      -3.483 -11.196  12.767  1.00  0.00    -0.046 Br
BRANCH  14  21
HETATM   21  N4  UNL     1      -6.609  -9.402  17.531  1.00  0.00    -0.222 N 
ATOM     22  H4  UNL     1      -7.540  -9.006  17.410  1.00  0.00     0.178 HD
BRANCH  21  23
HETATM   23  C8  UNL     1      -6.043  -9.521  18.844  1.00  0.00     0.177 C 
BRANCH  23  24
HETATM   24  C9  UNL     1      -6.264  -8.312  19.674  1.00  0.00    -0.032 A 
HETATM   25  C10 UNL     1      -5.727  -7.080  19.349  1.00  0.00     0.009 A 
HETATM   26  C11 UNL     1      -5.964  -5.988  20.157  1.00  0.00     0.001 A 
HETATM   27  C12 UNL     1      -6.733  -6.086  21.298  1.00  0.00     0.001 A 
HETATM   28  C13 UNL     1      -7.262  -7.338  21.601  1.00  0.00     0.010 A 
HETATM   29  C14 UNL     1      -7.032  -8.442  20.798  1.00  0.00    -0.027 A 
BRANCH  29  30
HETATM   30  C15 UNL     1      -7.637  -9.765  21.192  1.00  0.00     0.203 C 
BRANCH  30  31
HETATM   31  O1  UNL     1      -8.885  -9.601  21.742  1.00  0.00    -0.396 OA
ATOM     32  H1  UNL     1      -9.171 -10.387  22.192  1.00  0.00     0.209 HD
ENDBRANCH  30  31
ENDBRANCH  29  30
ENDBRANCH  23  24
ENDBRANCH  21  23
ENDBRANCH  14  21
ENDBRANCH  10  12
ENDBRANCH   6  10
TORSDOF 7
ENDMDL
MODEL 5
REMARK VINA RESULT: -8.869093743      2.566      4.340
REMARK  7 active torsions:
REMARK  status: ('A' for Active; 'I' for Inactive)
REMARK    1  A    between atoms: C5_6  and  N2_7 
REMARK    2  A    between atoms: N2_7  and  C6_9 
REMARK    3  A    between atoms: C7_12  and  N4_13 
REMARK    4  A    between atoms: N4_13  and  C8_15 
REMARK    5  A    between atoms: C8_15  and  C9_16 
REMARK    6  A    between atoms: C14_21  and  C15_22 
REMARK    7  A    between atoms: C15_22  and  O1_23 
ROOT
HETATM    1  N1  UNL     1      -3.090  -5.657  15.398  1.00  0.00    -0.191 NA
HETATM    2  C1  UNL     1      -3.599  -6.665  15.216  1.00  0.00     0.101 C 
HETATM    3  C2  UNL     1      -4.220  -7.918  15.011  1.00  0.00     0.060 A 
HETATM    4  C3  UNL     1      -3.441  -9.082  15.041  1.00  0.00     0.028 A 
HETATM    5  C4  UNL     1      -4.038 -10.309  14.843  1.00  0.00     0.050 A 
HETATM    6  C5  UNL     1      -5.387 -10.431  14.614  1.00  0.00     0.106 A 
HETATM    7  N6  UNL     1      -6.109  -9.301  14.590  1.00  0.00    -0.351 N 
ATOM      8  H6  UNL     1      -7.112  -9.370  14.421  1.00  0.00     0.166 HD
HETATM    9  C18 UNL     1      -5.570  -8.071  14.780  1.00  0.00     0.112 A 
ENDROOT
BRANCH   6  10
HETATM   10  N2  UNL     1      -5.892 -11.602  14.434  1.00  0.00    -0.327 N 
ATOM     11  H2  UNL     1      -6.095 -11.896  13.479  1.00  0.00     0.169 HD
BRANCH  10  12
HETATM   12  C6  UNL     1      -6.178 -12.499  15.475  1.00  0.00     0.141 A 
HETATM   13  N3  UNL     1      -6.789 -12.153  16.624  1.00  0.00    -0.175 N 
HETATM   14  C7  UNL     1      -7.055 -13.027  17.612  1.00  0.00     0.679 A 
ATOM     15  H3  UNL     1      -7.064 -11.179  16.751  1.00  0.00     0.186 HD
HETATM   16  N5  UNL     1      -6.680 -14.309  17.412  1.00  0.00    -0.201 N 
HETATM   17  C16 UNL     1      -6.070 -14.723  16.298  1.00  0.00     0.129 A 
ATOM     18  H5  UNL     1      -6.871 -14.992  18.145  1.00  0.00     0.183 HD
HETATM   19  C17 UNL     1      -5.794 -13.830  15.283  1.00  0.00     0.071 A 
HETATM   20 BR1  UNL     1      -4.928 -14.352  13.669  1.00  0.00    -0.046 Br
BRANCH  14  21
HETATM   21  N4  UNL     1      -7.649 -12.646  18.705  1.00  0.00    -0.222 N 
ATOM     22  H4  UNL     1      -8.656 -12.770  18.810  1.00  0.00     0.178 HD
BRANCH  21  23
HETATM   23  C8  UNL     1      -6.884 -12.051  19.764  1.00  0.00     0.177 C 
BRANCH  23  24
HETATM   24  C9  UNL     1      -6.613 -10.612  19.535  1.00  0.00    -0.032 A 
HETATM   25  C10 UNL     1      -5.935 -10.151  18.421  1.00  0.00     0.009 A 
HETATM   26  C11 UNL     1      -5.710  -8.801  18.259  1.00  0.00     0.001 A 
HETATM   27  C12 UNL     1      -6.147  -7.879  19.187  1.00  0.00     0.001 A 
HETATM   28  C13 UNL     1      -6.826  -8.369  20.298  1.00  0.00     0.010 A 
HETATM   29  C14 UNL     1      -7.059  -9.722  20.473  1.00  0.00    -0.027 A 
BRANCH  29  30
HETATM   30  C15 UNL     1      -7.801 -10.178  21.703  1.00  0.00     0.203 C 
BRANCH  30  31
HETATM   31  O1  UNL     1      -8.940  -9.437  21.905  1.00  0.00    -0.396 OA
ATOM     32  H1  UNL     1      -9.507  -9.842  22.551  1.00  0.00     0.209 HD
ENDBRANCH  30  31
ENDBRANCH  29  30
ENDBRANCH  23  24
ENDBRANCH  21  23
ENDBRANCH  14  21
ENDBRANCH  10  12
ENDBRANCH   6  10
TORSDOF 7
ENDMDL
