MODEL 1
REMARK VINA RESULT: -7.927206189      0.000      0.000
REMARK  6 active torsions:
REMARK  status: ('A' for Active; 'I' for Inactive)
REMARK    1  A    between atoms: N1_1  and  C1_4 
REMARK    2  A    between atoms: C3_10  and  N4_11 
REMARK    3  A    between atoms: N4_11  and  S1_13 
REMARK    4  A    between atoms: S1_13  and  C4_16 
REMARK    5  A    between atoms: C7_19  and  O3_20 
REMARK    6  A    between atoms: O3_20  and  C8_21 
ROOT
HETATM    1  S1  UNL     1      -4.863 -13.908  14.140  1.00  0.00     0.276 S 
HETATM    2  O1  UNL     1      -5.318 -15.193  14.784  1.00  0.00    -0.200 OA
HETATM    3  O2  UNL     1      -3.408 -14.082  13.813  1.00  0.00    -0.200 OA
ENDROOT
BRANCH   1   4
HETATM    4  N4  UNL     1      -5.807 -13.571  12.766  1.00  0.00    -0.112 N 
ATOM      5  H4  UNL     1      -6.808 -13.443  12.919  1.00  0.00     0.197 HD
BRANCH   4   6
HETATM    6  C3  UNL     1      -5.397 -13.464  11.571  1.00  0.00     0.707 A 
HETATM    7  N3  UNL     1      -4.847 -14.569  11.002  1.00  0.00    -0.186 N 
HETATM    8  C2  UNL     1      -4.382 -14.551   9.737  1.00  0.00     0.215 A 
ATOM      9  H3  UNL     1      -4.784 -15.430  11.545  1.00  0.00     0.185 HD
HETATM   10  N2  UNL     1      -4.464 -13.415   9.019  1.00  0.00    -0.187 N 
HETATM   11  C1  UNL     1      -5.007 -12.294   9.557  1.00  0.00     0.691 A 
ATOM     12  H2  UNL     1      -4.113 -13.396   8.061  1.00  0.00     0.185 HD
HETATM   13  N5  UNL     1      -5.452 -12.368  10.815  1.00  0.00    -0.022 N 
ATOM     14  H5  UNL     1      -5.861 -11.528  11.225  1.00  0.00     0.203 HD
BRANCH  11  15
HETATM   15  N1  UNL     1      -5.062 -11.231   8.829  1.00  0.00    -0.234 N 
ATOM     16  H12 UNL     1      -5.844 -10.995   8.217  1.00  0.00     0.174 HD
ATOM     17  H11 UNL     1      -4.277 -10.581   8.862  1.00  0.00     0.174 HD
ENDBRANCH  11  15
ENDBRANCH   4   6
ENDBRANCH   1   4
BRANCH   1  18
HETATM   18  C4  UNL     1      -5.086 -12.591  15.286  1.00  0.00     0.080 A 
HETATM   19  C5  UNL     1      -6.071 -11.655  15.158  1.00  0.00     0.028 A 
HETATM   20  C6  UNL     1      -6.192 -10.646  16.091  1.00  0.00     0.039 A 
HETATM   21  C7  UNL     1      -5.353 -10.523  17.181  1.00  0.00     0.076 A 
HETATM   22  C14 UNL     1      -4.352 -11.482  17.305  1.00  0.00     0.039 A 
HETATM   23  C15 UNL     1      -4.237 -12.487  16.367  1.00  0.00     0.028 A 
BRANCH  21  24
HETATM   24  O3  UNL     1      -5.508  -9.499  18.093  1.00  0.00    -0.309 OA
BRANCH  24  25
HETATM   25  C8  UNL     1      -6.294  -9.558  19.207  1.00  0.00     0.093 A 
HETATM   26  C9  UNL     1      -6.867 -10.746  19.584  1.00  0.00     0.039 A 
HETATM   27  C10 UNL     1      -7.677 -10.825  20.724  1.00  0.00     0.003 A 
HETATM   28  C11 UNL     1      -7.899  -9.692  21.472  1.00  0.00     0.002 A 
HETATM   29  C12 UNL     1      -7.327  -8.476  21.103  1.00  0.00     0.022 A 
HETATM   30  C13 UNL     1      -6.533  -8.442  19.971  1.00  0.00     0.044 A 
HETATM   31 BR1  UNL     1      -5.745  -6.801  19.453  1.00  0.00    -0.048 Br
ENDBRANCH  24  25
ENDBRANCH  21  24
ENDBRANCH   1  18
TORSDOF 6
ENDMDL
MODEL 2
REMARK VINA RESULT: -7.834687061      1.603      1.852
REMARK  6 active torsions:
REMARK  status: ('A' for Active; 'I' for Inactive)
REMARK    1  A    between atoms: N1_1  and  C1_4 
REMARK    2  A    between atoms: C3_10  and  N4_11 
REMARK    3  A    between atoms: N4_11  and  S1_13 
REMARK    4  A    between atoms: S1_13  and  C4_16 
REMARK    5  A    between atoms: C7_19  and  O3_20 
REMARK    6  A    between atoms: O3_20  and  C8_21 
ROOT
HETATM    1  S1  UNL     1      -4.968 -12.999  13.417  1.00  0.00     0.276 S 
HETATM    2  O1  UNL     1      -6.242 -12.972  12.612  1.00  0.00    -0.200 OA
HETATM    3  O2  UNL     1      -4.798 -14.406  13.910  1.00  0.00    -0.200 OA
ENDROOT
BRANCH   1   4
HETATM    4  N4  UNL     1      -3.659 -12.476  12.466  1.00  0.00    -0.112 N 
ATOM      5  H4  UNL     1      -2.730 -12.777  12.762  1.00  0.00     0.197 HD
BRANCH   4   6
HETATM    6  C3  UNL     1      -3.718 -11.751  11.427  1.00  0.00     0.707 A 
HETATM    7  N3  UNL     1      -4.412 -12.243  10.366  1.00  0.00    -0.186 N 
HETATM    8  C2  UNL     1      -4.529 -11.545   9.219  1.00  0.00     0.215 A 
ATOM      9  H3  UNL     1      -4.853 -13.159  10.440  1.00  0.00     0.185 HD
HETATM   10  N2  UNL     1      -3.947 -10.335   9.119  1.00  0.00    -0.187 N 
HETATM   11  C1  UNL     1      -3.248  -9.816  10.159  1.00  0.00     0.691 A 
ATOM     12  H2  UNL     1      -4.033  -9.803   8.253  1.00  0.00     0.185 HD
HETATM   13  N5  UNL     1      -3.163 -10.550  11.273  1.00  0.00    -0.022 N 
ATOM     14  H5  UNL     1      -2.638 -10.164  12.057  1.00  0.00     0.203 HD
BRANCH  11  15
HETATM   15  N1  UNL     1      -2.709  -8.653  10.013  1.00  0.00    -0.234 N 
ATOM     16  H12 UNL     1      -3.109  -7.902   9.451  1.00  0.00     0.174 HD
ATOM     17  H11 UNL     1      -1.825  -8.467  10.488  1.00  0.00     0.174 HD
ENDBRANCH  11  15
ENDBRANCH   4   6
ENDBRANCH   1   4
BRANCH   1  18
HETATM   18  C4  UNL     1      -5.133 -11.885  14.770  1.00  0.00     0.080 A 
HETATM   19  C5  UNL     1      -6.070 -10.893  14.806  1.00  0.00     0.028 A 
HETATM   20  C6  UNL     1      -6.146 -10.052  15.896  1.00  0.00     0.039 A 
HETATM   21  C7  UNL     1      -5.307 -10.156  16.989  1.00  0.00     0.076 A 
HETATM   22  C14 UNL     1      -4.354 -11.170  16.945  1.00  0.00     0.039 A 
HETATM   23  C15 UNL     1      -4.284 -12.007  15.850  1.00  0.00     0.028 A 
BRANCH  21  24
HETATM   24  O3  UNL     1      -5.416  -9.295  18.061  1.00  0.00    -0.309 OA
BRANCH  24  25
HETATM   25  C8  UNL     1      -6.216  -9.498  19.147  1.00  0.00     0.093 A 
HETATM   26  C9  UNL     1      -6.704 -10.751  19.419  1.00  0.00     0.039 A 
HETATM   27  C10 UNL     1      -7.527 -10.979  20.529  1.00  0.00     0.003 A 
HETATM   28  C11 UNL     1      -7.847  -9.927  21.357  1.00  0.00     0.002 A 
HETATM   29  C12 UNL     1      -7.362  -8.647  21.096  1.00  0.00     0.022 A 
HETATM   30  C13 UNL     1      -6.553  -8.467  19.989  1.00  0.00     0.044 A 
HETATM   31 BR1  UNL     1      -5.882  -6.736  19.616  1.00  0.00    -0.048 Br
ENDBRANCH  24  25
ENDBRANCH  21  24
ENDBRANCH   1  18
TORSDOF 6
ENDMDL
MODEL 3
REMARK VINA RESULT: -7.804704638      2.978      4.048
REMARK  6 active torsions:
REMARK  status: ('A' for Active; 'I' for Inactive)
REMARK    1  A    between atoms: N1_1  and  C1_4 
REMARK    2  A    between atoms: C3_10  and  N4_11 
REMARK    3  A    between atoms: N4_11  and  S1_13 
REMARK    4  A    between atoms: S1_13  and  C4_16 
REMARK    5  A    between atoms: C7_19  and  O3_20 
REMARK    6  A    between atoms: O3_20  and  C8_21 
ROOT
HETATM    1  S1  UNL     1      -4.488 -13.266  13.970  1.00  0.00     0.276 S 
HETATM    2  O1  UNL     1      -3.327 -12.792  13.133  1.00  0.00    -0.200 OA
HETATM    3  O2  UNL     1      -5.651 -13.440  13.037  1.00  0.00    -0.200 OA
ENDROOT
BRANCH   1   4
HETATM    4  N4  UNL     1      -4.080 -14.703  14.783  1.00  0.00    -0.112 N 
ATOM      5  H4  UNL     1      -3.109 -15.009  14.710  1.00  0.00     0.197 HD
BRANCH   4   6
HETATM    6  C3  UNL     1      -4.857 -15.432  15.471  1.00  0.00     0.707 A 
HETATM    7  N3  UNL     1      -4.427 -15.804  16.705  1.00  0.00    -0.186 N 
HETATM    8  C2  UNL     1      -5.182 -16.579  17.509  1.00  0.00     0.215 A 
ATOM      9  H3  UNL     1      -3.513 -15.490  17.031  1.00  0.00     0.185 HD
HETATM   10  N2  UNL     1      -6.389 -16.995  17.081  1.00  0.00    -0.187 N 
HETATM   11  C1  UNL     1      -6.847 -16.642  15.854  1.00  0.00     0.691 A 
ATOM     12  H2  UNL     1      -6.964 -17.582  17.686  1.00  0.00     0.185 HD
HETATM   13  N5  UNL     1      -6.057 -15.873  15.099  1.00  0.00    -0.022 N 
ATOM     14  H5  UNL     1      -6.397 -15.605  14.176  1.00  0.00     0.203 HD
BRANCH  11  15
HETATM   15  N1  UNL     1      -8.010 -17.066  15.490  1.00  0.00    -0.234 N 
ATOM     16  H12 UNL     1      -8.527 -16.706  14.689  1.00  0.00     0.174 HD
ATOM     17  H11 UNL     1      -8.445 -17.811  16.035  1.00  0.00     0.174 HD
ENDBRANCH  11  15
ENDBRANCH   4   6
ENDBRANCH   1   4
BRANCH   1  18
HETATM   18  C4  UNL     1      -4.846 -12.041  15.182  1.00  0.00     0.080 A 
HETATM   19  C5  UNL     1      -5.839 -11.116  15.032  1.00  0.00     0.028 A 
HETATM   20  C6  UNL     1      -6.069 -10.181  16.020  1.00  0.00     0.039 A 
HETATM   21  C7  UNL     1      -5.334 -10.123  17.188  1.00  0.00     0.076 A 
HETATM   22  C14 UNL     1      -4.323 -11.069  17.334  1.00  0.00     0.039 A 
HETATM   23  C15 UNL     1      -4.100 -12.000  16.341  1.00  0.00     0.028 A 
BRANCH  21  24
HETATM   24  O3  UNL     1      -5.595  -9.171  18.153  1.00  0.00    -0.309 OA
BRANCH  24  25
HETATM   25  C8  UNL     1      -6.365  -9.375  19.261  1.00  0.00     0.093 A 
HETATM   26  C9  UNL     1      -6.871 -10.621  19.530  1.00  0.00     0.039 A 
HETATM   27  C10 UNL     1      -7.663 -10.849  20.662  1.00  0.00     0.003 A 
HETATM   28  C11 UNL     1      -7.937  -9.802  21.513  1.00  0.00     0.002 A 
HETATM   29  C12 UNL     1      -7.434  -8.529  21.255  1.00  0.00     0.022 A 
HETATM   30  C13 UNL     1      -6.655  -8.349  20.126  1.00  0.00     0.044 A 
HETATM   31 BR1  UNL     1      -5.961  -6.627  19.757  1.00  0.00    -0.048 Br
ENDBRANCH  24  25
ENDBRANCH  21  24
ENDBRANCH   1  18
TORSDOF 6
ENDMDL
MODEL 4
REMARK VINA RESULT: -7.763876878      0.621      1.073
REMARK  6 active torsions:
REMARK  status: ('A' for Active; 'I' for Inactive)
REMARK    1  A    between atoms: N1_1  and  C1_4 
REMARK    2  A    between atoms: C3_10  and  N4_11 
REMARK    3  A    between atoms: N4_11  and  S1_13 
REMARK    4  A    between atoms: S1_13  and  C4_16 
REMARK    5  A    between atoms: C7_19  and  O3_20 
REMARK    6  A    between atoms: O3_20  and  C8_21 
ROOT
HETATM    1  S1  UNL     1      -4.895 -13.882  14.147  1.00  0.00     0.276 S 
HETATM    2  O1  UNL     1      -5.410 -15.152  14.775  1.00  0.00    -0.200 OA
HETATM    3  O2  UNL     1      -3.437 -14.102  13.862  1.00  0.00    -0.200 OA
ENDROOT
BRANCH   1   4
HETATM    4  N4  UNL     1      -5.787 -13.513  12.748  1.00  0.00    -0.112 N 
ATOM      5  H4  UNL     1      -6.802 -13.483  12.847  1.00  0.00     0.197 HD
BRANCH   4   6
HETATM    6  C3  UNL     1      -5.322 -13.270  11.593  1.00  0.00     0.707 A 
HETATM    7  N3  UNL     1      -4.460 -12.225  11.479  1.00  0.00    -0.186 N 
HETATM    8  C2  UNL     1      -3.914 -11.890  10.293  1.00  0.00     0.215 A 
ATOM      9  H3  UNL     1      -4.221 -11.683  12.309  1.00  0.00     0.185 HD
HETATM   10  N2  UNL     1      -4.228 -12.605   9.196  1.00  0.00    -0.187 N 
HETATM   11  C1  UNL     1      -5.085 -13.654   9.276  1.00  0.00     0.691 A 
ATOM     12  H2  UNL     1      -3.818 -12.355   8.296  1.00  0.00     0.185 HD
HETATM   13  N5  UNL     1      -5.597 -13.942  10.476  1.00  0.00    -0.022 N 
ATOM     14  H5  UNL     1      -6.242 -14.729  10.541  1.00  0.00     0.203 HD
BRANCH  11  15
HETATM   15  N1  UNL     1      -5.355 -14.306   8.196  1.00  0.00    -0.234 N 
ATOM     16  H12 UNL     1      -4.664 -14.822   7.650  1.00  0.00     0.174 HD
ATOM     17  H11 UNL     1      -6.318 -14.311   7.862  1.00  0.00     0.174 HD
ENDBRANCH  11  15
ENDBRANCH   4   6
ENDBRANCH   1   4
BRANCH   1  18
HETATM   18  C4  UNL     1      -5.109 -12.561  15.290  1.00  0.00     0.080 A 
HETATM   19  C5  UNL     1      -6.093 -11.623  15.165  1.00  0.00     0.028 A 
HETATM   20  C6  UNL     1      -6.207 -10.611  16.095  1.00  0.00     0.039 A 
HETATM   21  C7  UNL     1      -5.360 -10.485  17.179  1.00  0.00     0.076 A 
HETATM   22  C14 UNL     1      -4.360 -11.445  17.300  1.00  0.00     0.039 A 
HETATM   23  C15 UNL     1      -4.253 -12.454  16.366  1.00  0.00     0.028 A 
BRANCH  21  24
HETATM   24  O3  UNL     1      -5.508  -9.458  18.088  1.00  0.00    -0.309 OA
BRANCH  24  25
HETATM   25  C8  UNL     1      -6.287  -9.511  19.207  1.00  0.00     0.093 A 
HETATM   26  C9  UNL     1      -6.837 -10.702  19.608  1.00  0.00     0.039 A 
HETATM   27  C10 UNL     1      -7.640 -10.776  20.753  1.00  0.00     0.003 A 
HETATM   28  C11 UNL     1      -7.878  -9.634  21.483  1.00  0.00     0.002 A 
HETATM   29  C12 UNL     1      -7.329  -8.415  21.091  1.00  0.00     0.022 A 
HETATM   30  C13 UNL     1      -6.542  -8.387  19.954  1.00  0.00     0.044 A 
HETATM   31 BR1  UNL     1      -5.785  -6.741  19.403  1.00  0.00    -0.048 Br
ENDBRANCH  24  25
ENDBRANCH  21  24
ENDBRANCH   1  18
TORSDOF 6
ENDMDL
MODEL 5
REMARK VINA RESULT: -7.746470239      5.796      7.274
REMARK  6 active torsions:
REMARK  status: ('A' for Active; 'I' for Inactive)
REMARK    1  A    between atoms: N1_1  and  C1_4 
REMARK    2  A    between atoms: C3_10  and  N4_11 
REMARK    3  A    between atoms: N4_11  and  S1_13 
REMARK    4  A    between atoms: S1_13  and  C4_16 
REMARK    5  A    between atoms: C7_19  and  O3_20 
REMARK    6  A    between atoms: O3_20  and  C8_21 
ROOT
HETATM    1  S1  UNL     1      -3.786  -7.076  15.300  1.00  0.00     0.276 S 
HETATM    2  O1  UNL     1      -2.285  -7.197  15.377  1.00  0.00    -0.200 OA
HETATM    3  O2  UNL     1      -4.219  -6.297  16.508  1.00  0.00    -0.200 OA
ENDROOT
BRANCH   1   4
HETATM    4  N4  UNL     1      -4.242  -6.330  13.841  1.00  0.00    -0.112 N 
ATOM      5  H4  UNL     1      -4.880  -6.852  13.240  1.00  0.00     0.197 HD
BRANCH   4   6
HETATM    6  C3  UNL     1      -3.872  -5.191  13.424  1.00  0.00     0.707 A 
HETATM    7  N3  UNL     1      -4.304  -4.812  12.192  1.00  0.00    -0.186 N 
HETATM    8  C2  UNL     1      -3.962  -3.620  11.663  1.00  0.00     0.215 A 
ATOM      9  H3  UNL     1      -4.898  -5.443  11.655  1.00  0.00     0.185 HD
HETATM   10  N2  UNL     1      -3.177  -2.784  12.370  1.00  0.00    -0.187 N 
HETATM   11  C1  UNL     1      -2.730  -3.132  13.602  1.00  0.00     0.691 A 
ATOM     12  H2  UNL     1      -2.916  -1.881  11.974  1.00  0.00     0.185 HD
HETATM   13  N5  UNL     1      -3.099  -4.326  14.078  1.00  0.00    -0.022 N 
ATOM     14  H5  UNL     1      -2.765  -4.592  15.004  1.00  0.00     0.203 HD
BRANCH  11  15
HETATM   15  N1  UNL     1      -1.981  -2.298  14.238  1.00  0.00    -0.234 N 
ATOM     16  H12 UNL     1      -2.097  -2.056  15.223  1.00  0.00     0.174 HD
ATOM     17  H11 UNL     1      -1.220  -1.845  13.730  1.00  0.00     0.174 HD
ENDBRANCH  11  15
ENDBRANCH   4   6
ENDBRANCH   1   4
BRANCH   1  18
HETATM   18  C4  UNL     1      -4.484  -8.692  15.322  1.00  0.00     0.080 A 
HETATM   19  C5  UNL     1      -3.760  -9.810  15.620  1.00  0.00     0.028 A 
HETATM   20  C6  UNL     1      -4.367 -11.048  15.620  1.00  0.00     0.039 A 
HETATM   21  C7  UNL     1      -5.705 -11.231  15.329  1.00  0.00     0.076 A 
HETATM   22  C14 UNL     1      -6.437 -10.087  15.027  1.00  0.00     0.039 A 
HETATM   23  C15 UNL     1      -5.822  -8.852  15.029  1.00  0.00     0.028 A 
BRANCH  21  24
HETATM   24  O3  UNL     1      -6.275 -12.488  15.339  1.00  0.00    -0.309 OA
BRANCH  24  25
HETATM   25  C8  UNL     1      -6.524 -13.222  16.462  1.00  0.00     0.093 A 
HETATM   26  C9  UNL     1      -7.216 -12.669  17.509  1.00  0.00     0.039 A 
HETATM   27  C10 UNL     1      -7.481 -13.406  18.669  1.00  0.00     0.003 A 
HETATM   28  C11 UNL     1      -7.037 -14.707  18.756  1.00  0.00     0.002 A 
HETATM   29  C12 UNL     1      -6.332 -15.286  17.703  1.00  0.00     0.022 A 
HETATM   30  C13 UNL     1      -6.092 -14.521  16.576  1.00  0.00     0.044 A 
HETATM   31 BR1  UNL     1      -5.136 -15.288  15.134  1.00  0.00    -0.048 Br
ENDBRANCH  24  25
ENDBRANCH  21  24
ENDBRANCH   1  18
TORSDOF 6
ENDMDL
