MODEL 1
REMARK VINA RESULT: -7.637250284      0.000      0.000
REMARK  5 active torsions:
REMARK  status: ('A' for Active; 'I' for Inactive)
REMARK    1  A    between atoms: N1_2  and  C2_5 
REMARK    2  A    between atoms: C2_5  and  C3_6 
REMARK    3  A    between atoms: C3_6  and  O1_7 
REMARK    4  A    between atoms: O1_7  and  C4_8 
REMARK    5  A    between atoms: C4_8  and  C5_10 
ROOT
HETATM    1  C5  UNL     1      16.476  -7.795   0.967  1.00  0.00     0.091 C 
HETATM    2  C6  UNL     1      15.067  -7.320   0.812  1.00  0.00     0.024 C 
HETATM    3  C7  UNL     1      14.882  -6.955  -0.630  1.00  0.00     0.016 C 
HETATM    4  C8  UNL     1      14.483  -5.521  -0.812  1.00  0.00    -0.019 C 
HETATM    5  C9  UNL     1      14.733  -4.666  -1.787  1.00  0.00    -0.084 C 
HETATM    6  C10 UNL     1      14.117  -3.342  -1.521  1.00  0.00     0.043 C 
HETATM    7  C11 UNL     1      15.464  -4.649  -3.082  1.00  0.00     0.071 C 
HETATM    8  C12 UNL     1      16.927  -4.916  -2.815  1.00  0.00     0.065 C 
HETATM    9  C13 UNL     1      17.825  -3.878  -3.407  1.00  0.00     0.046 C 
HETATM   10  C14 UNL     1      17.377  -6.296  -3.144  1.00  0.00     0.076 C 
HETATM   11  C15 UNL     1      17.159  -6.462  -1.665  1.00  0.00     0.073 C 
HETATM   12  O3  UNL     1      17.096  -5.143  -1.433  1.00  0.00    -0.368 OA
HETATM   13  C16 UNL     1      18.152  -7.282  -0.904  1.00  0.00     0.022 C 
HETATM   14  C17 UNL     1      19.154  -8.042  -1.734  1.00  0.00     0.013 C 
HETATM   15  C18 UNL     1      16.991  -8.114  -0.415  1.00  0.00     0.013 C 
HETATM   16  C19 UNL     1      16.071  -7.370  -1.389  1.00  0.00     0.034 C 
ENDROOT
BRANCH   1  17
HETATM   17  C4  UNL     1      16.494  -9.100   1.723  1.00  0.00     0.263 C 
HETATM   18  O2  UNL     1      17.254  -9.991   1.303  1.00  0.00    -0.265 OA
BRANCH  17  19
HETATM   19  O1  UNL     1      15.720  -9.307   2.823  1.00  0.00    -0.320 OA
BRANCH  19  20
HETATM   20  C3  UNL     1      15.312 -10.585   3.225  1.00  0.00     0.206 C 
BRANCH  20  21
HETATM   21  C2  UNL     1      14.112 -10.634   4.108  1.00  0.00     0.258 C 
BRANCH  21  22
HETATM   22  N1  UNL     1      12.960 -10.889   3.258  1.00  0.00    -0.077 N 
HETATM   23  C1  UNL     1      12.172  -9.684   3.080  1.00  0.00     0.267 C 
ATOM     24  H12 UNL     1      12.394 -11.661   3.611  1.00  0.00     0.276 HD
ATOM     25  H11 UNL     1      13.234 -11.296   2.363  1.00  0.00     0.276 HD
ENDBRANCH  21  22
ENDBRANCH  20  21
ENDBRANCH  19  20
ENDBRANCH  17  19
ENDBRANCH   1  17
TORSDOF 5
ENDMDL
MODEL 2
REMARK VINA RESULT: -7.114090426      1.217      1.451
REMARK  5 active torsions:
REMARK  status: ('A' for Active; 'I' for Inactive)
REMARK    1  A    between atoms: N1_2  and  C2_5 
REMARK    2  A    between atoms: C2_5  and  C3_6 
REMARK    3  A    between atoms: C3_6  and  O1_7 
REMARK    4  A    between atoms: O1_7  and  C4_8 
REMARK    5  A    between atoms: C4_8  and  C5_10 
ROOT
HETATM    1  C5  UNL     1      17.089  -7.503  -0.011  1.00  0.00     0.091 C 
HETATM    2  C6  UNL     1      15.693  -6.976   0.069  1.00  0.00     0.024 C 
HETATM    3  C7  UNL     1      15.428  -6.236  -1.208  1.00  0.00     0.016 C 
HETATM    4  C8  UNL     1      15.074  -4.798  -0.975  1.00  0.00    -0.019 C 
HETATM    5  C9  UNL     1      15.293  -3.720  -1.705  1.00  0.00    -0.084 C 
HETATM    6  C10 UNL     1      14.748  -2.501  -1.054  1.00  0.00     0.043 C 
HETATM    7  C11 UNL     1      15.937  -3.372  -2.999  1.00  0.00     0.071 C 
HETATM    8  C12 UNL     1      17.404  -3.731  -2.921  1.00  0.00     0.065 C 
HETATM    9  C13 UNL     1      18.300  -2.591  -3.282  1.00  0.00     0.046 C 
HETATM   10  C14 UNL     1      17.778  -4.982  -3.634  1.00  0.00     0.076 C 
HETATM   11  C15 UNL     1      17.650  -5.532  -2.240  1.00  0.00     0.073 C 
HETATM   12  O3  UNL     1      17.653  -4.321  -1.663  1.00  0.00    -0.368 OA
HETATM   13  C16 UNL     1      18.658  -6.545  -1.798  1.00  0.00     0.022 C 
HETATM   14  C17 UNL     1      19.573  -7.077  -2.871  1.00  0.00     0.013 C 
HETATM   15  C18 UNL     1      17.500  -7.453  -1.462  1.00  0.00     0.013 C 
HETATM   16  C19 UNL     1      16.548  -6.458  -2.134  1.00  0.00     0.034 C 
ENDROOT
BRANCH   1  17
HETATM   17  C4  UNL     1      17.105  -8.963   0.370  1.00  0.00     0.263 C 
HETATM   18  O2  UNL     1      16.973  -9.793  -0.548  1.00  0.00    -0.265 OA
BRANCH  17  19
HETATM   19  O1  UNL     1      17.262  -9.370   1.659  1.00  0.00    -0.320 OA
BRANCH  19  20
HETATM   20  C3  UNL     1      16.247 -10.024   2.369  1.00  0.00     0.206 C 
BRANCH  20  21
HETATM   21  C2  UNL     1      15.269  -9.139   3.064  1.00  0.00     0.258 C 
BRANCH  21  22
HETATM   22  N1  UNL     1      14.000  -9.849   3.108  1.00  0.00    -0.077 N 
HETATM   23  C1  UNL     1      13.959 -10.764   4.234  1.00  0.00     0.267 C 
ATOM     24  H12 UNL     1      13.803 -10.325   2.227  1.00  0.00     0.276 HD
ATOM     25  H11 UNL     1      13.208  -9.206   3.116  1.00  0.00     0.276 HD
ENDBRANCH  21  22
ENDBRANCH  20  21
ENDBRANCH  19  20
ENDBRANCH  17  19
ENDBRANCH   1  17
TORSDOF 5
ENDMDL
MODEL 3
REMARK VINA RESULT: -6.826042699      3.066      5.401
REMARK  5 active torsions:
REMARK  status: ('A' for Active; 'I' for Inactive)
REMARK    1  A    between atoms: N1_2  and  C2_5 
REMARK    2  A    between atoms: C2_5  and  C3_6 
REMARK    3  A    between atoms: C3_6  and  O1_7 
REMARK    4  A    between atoms: O1_7  and  C4_8 
REMARK    5  A    between atoms: C4_8  and  C5_10 
ROOT
HETATM    1  C5  UNL     1      13.922  -4.996  -2.282  1.00  0.00     0.091 C 
HETATM    2  C6  UNL     1      13.828  -5.910  -1.104  1.00  0.00     0.024 C 
HETATM    3  C7  UNL     1      15.200  -5.999  -0.506  1.00  0.00     0.016 C 
HETATM    4  C8  UNL     1      15.724  -7.404  -0.476  1.00  0.00    -0.019 C 
HETATM    5  C9  UNL     1      16.954  -7.875  -0.571  1.00  0.00    -0.084 C 
HETATM    6  C10 UNL     1      16.977  -9.357  -0.485  1.00  0.00     0.043 C 
HETATM    7  C11 UNL     1      18.331  -7.343  -0.746  1.00  0.00     0.071 C 
HETATM    8  C12 UNL     1      18.406  -6.619  -2.071  1.00  0.00     0.065 C 
HETATM    9  C13 UNL     1      19.529  -7.100  -2.932  1.00  0.00     0.046 C 
HETATM   10  C14 UNL     1      18.376  -5.135  -1.971  1.00  0.00     0.076 C 
HETATM   11  C15 UNL     1      16.925  -5.383  -2.279  1.00  0.00     0.073 C 
HETATM   12  O3  UNL     1      17.129  -6.649  -2.670  1.00  0.00    -0.368 OA
HETATM   13  C16 UNL     1      16.243  -4.439  -3.218  1.00  0.00     0.022 C 
HETATM   14  C17 UNL     1      17.020  -3.204  -3.592  1.00  0.00     0.013 C 
HETATM   15  C18 UNL     1      15.208  -4.220  -2.141  1.00  0.00     0.013 C 
HETATM   16  C19 UNL     1      16.078  -5.023  -1.167  1.00  0.00     0.034 C 
ENDROOT
BRANCH   1  17
HETATM   17  C4  UNL     1      12.816  -3.971  -2.221  1.00  0.00     0.263 C 
HETATM   18  O2  UNL     1      12.858  -3.037  -3.043  1.00  0.00    -0.265 OA
BRANCH  17  19
HETATM   19  O1  UNL     1      11.806  -4.054  -1.313  1.00  0.00    -0.320 OA
BRANCH  19  20
HETATM   20  C3  UNL     1      10.472  -4.262  -1.689  1.00  0.00     0.206 C 
BRANCH  20  21
HETATM   21  C2  UNL     1       9.712  -5.243  -0.865  1.00  0.00     0.258 C 
BRANCH  21  22
HETATM   22  N1  UNL     1      10.401  -6.520  -0.969  1.00  0.00    -0.077 N 
HETATM   23  C1  UNL     1      10.426  -6.984  -2.344  1.00  0.00     0.267 C 
ATOM     24  H12 UNL     1       9.999  -7.217  -0.342  1.00  0.00     0.276 HD
ATOM     25  H11 UNL     1      11.339  -6.476  -0.569  1.00  0.00     0.276 HD
ENDBRANCH  21  22
ENDBRANCH  20  21
ENDBRANCH  19  20
ENDBRANCH  17  19
ENDBRANCH   1  17
TORSDOF 5
ENDMDL
MODEL 4
REMARK VINA RESULT: -6.742249352      0.885      1.139
REMARK  5 active torsions:
REMARK  status: ('A' for Active; 'I' for Inactive)
REMARK    1  A    between atoms: N1_2  and  C2_5 
REMARK    2  A    between atoms: C2_5  and  C3_6 
REMARK    3  A    between atoms: C3_6  and  O1_7 
REMARK    4  A    between atoms: O1_7  and  C4_8 
REMARK    5  A    between atoms: C4_8  and  C5_10 
ROOT
HETATM    1  C5  UNL     1      16.564  -7.252   0.516  1.00  0.00     0.091 C 
HETATM    2  C6  UNL     1      15.256  -6.592   0.222  1.00  0.00     0.024 C 
HETATM    3  C7  UNL     1      15.232  -6.299  -1.248  1.00  0.00     0.016 C 
HETATM    4  C8  UNL     1      15.063  -4.838  -1.539  1.00  0.00    -0.019 C 
HETATM    5  C9  UNL     1      15.506  -4.093  -2.536  1.00  0.00    -0.084 C 
HETATM    6  C10 UNL     1      15.075  -2.680  -2.393  1.00  0.00     0.043 C 
HETATM    7  C11 UNL     1      16.324  -4.265  -3.766  1.00  0.00     0.071 C 
HETATM    8  C12 UNL     1      17.709  -4.721  -3.367  1.00  0.00     0.065 C 
HETATM    9  C13 UNL     1      18.790  -3.863  -3.939  1.00  0.00     0.046 C 
HETATM   10  C14 UNL     1      17.973  -6.169  -3.583  1.00  0.00     0.076 C 
HETATM   11  C15 UNL     1      17.626  -6.205  -2.119  1.00  0.00     0.073 C 
HETATM   12  O3  UNL     1      17.741  -4.879  -1.965  1.00  0.00    -0.368 OA
HETATM   13  C16 UNL     1      18.429  -7.107  -1.237  1.00  0.00     0.022 C 
HETATM   14  C17 UNL     1      19.365  -8.056  -1.941  1.00  0.00     0.013 C 
HETATM   15  C18 UNL     1      17.126  -7.731  -0.800  1.00  0.00     0.013 C 
HETATM   16  C19 UNL     1      16.399  -6.928  -1.884  1.00  0.00     0.034 C 
ENDROOT
BRANCH   1  17
HETATM   17  C4  UNL     1      16.334  -8.494   1.340  1.00  0.00     0.263 C 
HETATM   18  O2  UNL     1      17.031  -9.491   1.076  1.00  0.00    -0.265 OA
BRANCH  17  19
HETATM   19  O1  UNL     1      15.410  -8.537   2.338  1.00  0.00    -0.320 OA
BRANCH  19  20
HETATM   20  C3  UNL     1      14.910  -9.742   2.849  1.00  0.00     0.206 C 
BRANCH  20  21
HETATM   21  C2  UNL     1      13.463  -9.743   3.206  1.00  0.00     0.258 C 
BRANCH  21  22
HETATM   22  N1  UNL     1      13.235 -10.884   4.079  1.00  0.00    -0.077 N 
HETATM   23  C1  UNL     1      14.447 -11.666   4.236  1.00  0.00     0.267 C 
ATOM     24  H12 UNL     1      12.455 -11.457   3.755  1.00  0.00     0.276 HD
ATOM     25  H11 UNL     1      12.852 -10.598   4.981  1.00  0.00     0.276 HD
ENDBRANCH  21  22
ENDBRANCH  20  21
ENDBRANCH  19  20
ENDBRANCH  17  19
ENDBRANCH   1  17
TORSDOF 5
ENDMDL
MODEL 5
REMARK VINA RESULT: -6.705416152      1.362      1.905
REMARK  5 active torsions:
REMARK  status: ('A' for Active; 'I' for Inactive)
REMARK    1  A    between atoms: N1_2  and  C2_5 
REMARK    2  A    between atoms: C2_5  and  C3_6 
REMARK    3  A    between atoms: C3_6  and  O1_7 
REMARK    4  A    between atoms: O1_7  and  C4_8 
REMARK    5  A    between atoms: C4_8  and  C5_10 
ROOT
HETATM    1  C5  UNL     1      17.343  -7.359  -0.361  1.00  0.00     0.091 C 
HETATM    2  C6  UNL     1      15.992  -6.834  -0.725  1.00  0.00     0.024 C 
HETATM    3  C7  UNL     1      16.089  -6.304  -2.125  1.00  0.00     0.016 C 
HETATM    4  C8  UNL     1      15.738  -4.849  -2.213  1.00  0.00    -0.019 C 
HETATM    5  C9  UNL     1      16.174  -3.897  -3.017  1.00  0.00    -0.084 C 
HETATM    6  C10 UNL     1      15.524  -2.595  -2.723  1.00  0.00     0.043 C 
HETATM    7  C11 UNL     1      17.141  -3.753  -4.138  1.00  0.00     0.071 C 
HETATM    8  C12 UNL     1      18.525  -4.087  -3.629  1.00  0.00     0.065 C 
HETATM    9  C13 UNL     1      19.523  -3.012  -3.916  1.00  0.00     0.046 C 
HETATM   10  C14 UNL     1      19.024  -5.432  -4.023  1.00  0.00     0.076 C 
HETATM   11  C15 UNL     1      18.525  -5.757  -2.642  1.00  0.00     0.073 C 
HETATM   12  O3  UNL     1      18.423  -4.472  -2.276  1.00  0.00    -0.368 OA
HETATM   13  C16 UNL     1      19.350  -6.683  -1.806  1.00  0.00     0.022 C 
HETATM   14  C17 UNL     1      20.489  -7.372  -2.511  1.00  0.00     0.013 C 
HETATM   15  C18 UNL     1      18.113  -7.535  -1.647  1.00  0.00     0.013 C 
HETATM   16  C19 UNL     1      17.400  -6.662  -2.685  1.00  0.00     0.034 C 
ENDROOT
BRANCH   1  17
HETATM   17  C4  UNL     1      17.209  -8.741   0.229  1.00  0.00     0.263 C 
HETATM   18  O2  UNL     1      17.134  -9.696  -0.566  1.00  0.00    -0.265 OA
BRANCH  17  19
HETATM   19  O1  UNL     1      17.176  -8.952   1.573  1.00  0.00    -0.320 OA
BRANCH  19  20
HETATM   20  C3  UNL     1      16.541 -10.063   2.145  1.00  0.00     0.206 C 
BRANCH  20  21
HETATM   21  C2  UNL     1      15.336  -9.766   2.970  1.00  0.00     0.258 C 
BRANCH  21  22
HETATM   22  N1  UNL     1      14.823 -11.038   3.457  1.00  0.00    -0.077 N 
HETATM   23  C1  UNL     1      13.699 -10.833   4.352  1.00  0.00     0.267 C 
ATOM     24  H12 UNL     1      15.556 -11.597   3.894  1.00  0.00     0.276 HD
ATOM     25  H11 UNL     1      14.585 -11.667   2.690  1.00  0.00     0.276 HD
ENDBRANCH  21  22
ENDBRANCH  20  21
ENDBRANCH  19  20
ENDBRANCH  17  19
ENDBRANCH   1  17
TORSDOF 5
ENDMDL
