MODEL 1
REMARK VINA RESULT: -8.075516586      0.000      0.000
REMARK  4 active torsions:
REMARK  status: ('A' for Active; 'I' for Inactive)
REMARK    1  A    between atoms: C2_2  and  C3_3 
REMARK    2  A    between atoms: C5_5  and  C6_6 
REMARK    3  A    between atoms: C6_6  and  C8_8 
REMARK    4  A    between atoms: N3_14  and  S1_16 
ROOT
HETATM    1  C8  UNL     1      14.293  -5.894  -1.496  1.00  0.00     0.078 A 
HETATM    2  N1  UNL     1      13.175  -6.569  -1.415  1.00  0.00    -0.295 N 
ATOM      3  H1  UNL     1      13.210  -7.588  -1.375  1.00  0.00     0.187 HD
HETATM    4  N2  UNL     1      12.050  -5.986  -1.385  1.00  0.00    -0.278 N 
ATOM      5  H2  UNL     1      11.187  -6.526  -1.323  1.00  0.00     0.189 HD
HETATM    6  C9  UNL     1      12.014  -4.652  -1.438  1.00  0.00     0.174 A 
HETATM    7  N3  UNL     1      10.982  -3.849  -1.421  1.00  0.00    -0.263 N 
ATOM      8  H3  UNL     1      11.119  -2.839  -1.469  1.00  0.00     0.180 HD
HETATM    9  S2  UNL     1      13.686  -4.272  -1.533  1.00  0.00    -0.037 SA
ENDROOT
BRANCH   1  10
HETATM   10  C6  UNL     1      15.718  -6.308  -1.546  1.00  0.00     0.073 C 
HETATM   11  C7  UNL     1      16.555  -5.091  -1.213  1.00  0.00     0.022 C 
BRANCH  10  12
HETATM   12  C5  UNL     1      16.046  -7.373  -0.591  1.00  0.00    -0.048 A 
HETATM   13  C4  UNL     1      15.408  -7.365   0.634  1.00  0.00     0.015 A 
HETATM   14  C3  UNL     1      15.677  -8.347   1.579  1.00  0.00    -0.052 A 
HETATM   15  C13 UNL     1      16.596  -9.321   1.251  1.00  0.00    -0.056 A 
HETATM   16  C12 UNL     1      17.239  -9.333   0.021  1.00  0.00     0.008 A 
HETATM   17  C14 UNL     1      16.912 -10.384   2.222  1.00  0.00     0.049 C 
HETATM   18  C11 UNL     1      16.968  -8.352  -0.918  1.00  0.00     0.008 A 
BRANCH  14  19
HETATM   19  C2  UNL     1      15.036  -8.401   2.898  1.00  0.00     0.034 C 
HETATM   20  C1  UNL     1      13.620  -8.944   2.833  1.00  0.00     0.010 C 
ENDBRANCH  14  19
ENDBRANCH  10  12
ENDBRANCH   1  10
BRANCH   7  21
HETATM   21  S1  UNL     1       9.404  -4.493  -1.320  1.00  0.00     0.228 S 
HETATM   22  C10 UNL     1       8.268  -3.100  -1.364  1.00  0.00     0.186 C 
HETATM   23  O1  UNL     1       9.052  -5.388  -2.470  1.00  0.00    -0.206 OA
HETATM   24  O2  UNL     1       9.142  -5.228  -0.030  1.00  0.00    -0.206 OA
ENDBRANCH   7  21
TORSDOF 4
ENDMDL
MODEL 2
REMARK VINA RESULT: -7.142588536      5.464      6.898
REMARK  4 active torsions:
REMARK  status: ('A' for Active; 'I' for Inactive)
REMARK    1  A    between atoms: C2_2  and  C3_3 
REMARK    2  A    between atoms: C5_5  and  C6_6 
REMARK    3  A    between atoms: C6_6  and  C8_8 
REMARK    4  A    between atoms: N3_14  and  S1_16 
ROOT
HETATM    1  C8  UNL     1      16.898  -6.907  -0.488  1.00  0.00     0.078 A 
HETATM    2  N1  UNL     1      18.144  -7.053  -0.115  1.00  0.00    -0.295 N 
ATOM      3  H1  UNL     1      18.352  -7.233   0.867  1.00  0.00     0.187 HD
HETATM    4  N2  UNL     1      19.098  -6.975  -0.947  1.00  0.00    -0.278 N 
ATOM      5  H2  UNL     1      20.064  -7.091  -0.640  1.00  0.00     0.189 HD
HETATM    6  C9  UNL     1      18.816  -6.740  -2.230  1.00  0.00     0.174 A 
HETATM    7  N3  UNL     1      19.627  -6.621  -3.249  1.00  0.00    -0.263 N 
ATOM      8  H3  UNL     1      19.255  -6.438  -4.181  1.00  0.00     0.180 HD
HETATM    9  S2  UNL     1      17.103  -6.634  -2.187  1.00  0.00    -0.037 SA
ENDROOT
BRANCH   1  10
HETATM   10  C6  UNL     1      15.613  -6.949   0.254  1.00  0.00     0.073 C 
HETATM   11  C7  UNL     1      14.503  -7.070  -0.769  1.00  0.00     0.022 C 
BRANCH  10  12
HETATM   12  C5  UNL     1      15.516  -8.082   1.181  1.00  0.00    -0.048 A 
HETATM   13  C4  UNL     1      14.352  -8.227   1.910  1.00  0.00     0.015 A 
HETATM   14  C3  UNL     1      14.202  -9.280   2.803  1.00  0.00    -0.052 A 
HETATM   15  C13 UNL     1      15.249 -10.167   2.934  1.00  0.00    -0.056 A 
HETATM   16  C12 UNL     1      16.420 -10.026   2.203  1.00  0.00     0.008 A 
HETATM   17  C14 UNL     1      15.133 -11.300   3.869  1.00  0.00     0.049 C 
HETATM   18  C11 UNL     1      16.566  -8.974   1.314  1.00  0.00     0.008 A 
BRANCH  14  19
HETATM   19  C2  UNL     1      12.993  -9.495   3.607  1.00  0.00     0.034 C 
HETATM   20  C1  UNL     1      11.748  -9.653   2.753  1.00  0.00     0.010 C 
ENDBRANCH  14  19
ENDBRANCH  10  12
ENDBRANCH   1  10
BRANCH   7  21
HETATM   21  S1  UNL     1      21.313  -6.772  -3.017  1.00  0.00     0.228 S 
HETATM   22  C10 UNL     1      22.093  -6.366  -4.585  1.00  0.00     0.186 C 
HETATM   23  O1  UNL     1      21.858  -5.824  -1.993  1.00  0.00    -0.206 OA
HETATM   24  O2  UNL     1      21.743  -8.173  -2.666  1.00  0.00    -0.206 OA
ENDBRANCH   7  21
TORSDOF 4
ENDMDL
MODEL 3
REMARK VINA RESULT: -7.117890436      1.241      1.365
REMARK  4 active torsions:
REMARK  status: ('A' for Active; 'I' for Inactive)
REMARK    1  A    between atoms: C2_2  and  C3_3 
REMARK    2  A    between atoms: C5_5  and  C6_6 
REMARK    3  A    between atoms: C6_6  and  C8_8 
REMARK    4  A    between atoms: N3_14  and  S1_16 
ROOT
HETATM    1  C8  UNL     1      14.082  -5.614  -1.617  1.00  0.00     0.078 A 
HETATM    2  N1  UNL     1      13.454  -4.471  -1.513  1.00  0.00    -0.295 N 
ATOM      3  H1  UNL     1      13.995  -3.612  -1.414  1.00  0.00     0.187 HD
HETATM    4  N2  UNL     1      12.188  -4.407  -1.531  1.00  0.00    -0.278 N 
ATOM      5  H2  UNL     1      11.712  -3.508  -1.448  1.00  0.00     0.189 HD
HETATM    6  C9  UNL     1      11.488  -5.536  -1.661  1.00  0.00     0.174 A 
HETATM    7  N3  UNL     1      10.191  -5.708  -1.705  1.00  0.00    -0.263 N 
ATOM      8  H3  UNL     1       9.803  -6.645  -1.809  1.00  0.00     0.180 HD
HETATM    9  S2  UNL     1      12.742  -6.704  -1.755  1.00  0.00    -0.037 SA
ENDROOT
BRANCH   1  10
HETATM   10  C6  UNL     1      15.522  -5.974  -1.625  1.00  0.00     0.073 C 
HETATM   11  C7  UNL     1      16.299  -4.742  -1.211  1.00  0.00     0.022 C 
BRANCH  10  12
HETATM   12  C5  UNL     1      15.853  -7.065  -0.701  1.00  0.00    -0.048 A 
HETATM   13  C4  UNL     1      15.252  -7.066   0.543  1.00  0.00     0.015 A 
HETATM   14  C3  UNL     1      15.526  -8.072   1.461  1.00  0.00    -0.052 A 
HETATM   15  C13 UNL     1      16.411  -9.061   1.087  1.00  0.00    -0.056 A 
HETATM   16  C12 UNL     1      17.016  -9.064  -0.162  1.00  0.00     0.008 A 
HETATM   17  C14 UNL     1      16.730 -10.149   2.028  1.00  0.00     0.049 C 
HETATM   18  C11 UNL     1      16.741  -8.058  -1.074  1.00  0.00     0.008 A 
BRANCH  14  19
HETATM   19  C2  UNL     1      14.923  -8.136   2.798  1.00  0.00     0.034 C 
HETATM   20  C1  UNL     1      13.604  -8.887   2.804  1.00  0.00     0.010 C 
ENDBRANCH  14  19
ENDBRANCH  10  12
ENDBRANCH   1  10
BRANCH   7  21
HETATM   21  S1  UNL     1       9.150  -4.359  -1.588  1.00  0.00     0.228 S 
HETATM   22  C10 UNL     1       8.085  -4.397  -3.036  1.00  0.00     0.186 C 
HETATM   23  O1  UNL     1       8.260  -4.399  -0.382  1.00  0.00    -0.206 OA
HETATM   24  O2  UNL     1       9.878  -3.040  -1.617  1.00  0.00    -0.206 OA
ENDBRANCH   7  21
TORSDOF 4
ENDMDL
MODEL 4
REMARK VINA RESULT: -7.093363745      1.067      1.449
REMARK  4 active torsions:
REMARK  status: ('A' for Active; 'I' for Inactive)
REMARK    1  A    between atoms: C2_2  and  C3_3 
REMARK    2  A    between atoms: C5_5  and  C6_6 
REMARK    3  A    between atoms: C6_6  and  C8_8 
REMARK    4  A    between atoms: N3_14  and  S1_16 
ROOT
HETATM    1  C8  UNL     1      14.133  -4.540  -1.544  1.00  0.00     0.078 A 
HETATM    2  N1  UNL     1      13.208  -5.455  -1.410  1.00  0.00    -0.295 N 
ATOM      3  H1  UNL     1      13.483  -6.435  -1.333  1.00  0.00     0.187 HD
HETATM    4  N2  UNL     1      11.977  -5.153  -1.373  1.00  0.00    -0.278 N 
ATOM      5  H2  UNL     1      11.267  -5.878  -1.269  1.00  0.00     0.189 HD
HETATM    6  C9  UNL     1      11.626  -3.869  -1.474  1.00  0.00     0.174 A 
HETATM    7  N3  UNL     1      10.434  -3.331  -1.461  1.00  0.00    -0.263 N 
ATOM      8  H3  UNL     1      10.327  -2.321  -1.550  1.00  0.00     0.180 HD
HETATM    9  S2  UNL     1      13.158  -3.110  -1.626  1.00  0.00    -0.037 SA
ENDROOT
BRANCH   1  10
HETATM   10  C6  UNL     1      15.614  -4.608  -1.615  1.00  0.00     0.073 C 
HETATM   11  C7  UNL     1      16.161  -3.543  -0.688  1.00  0.00     0.022 C 
BRANCH  10  12
HETATM   12  C5  UNL     1      16.155  -5.907  -1.199  1.00  0.00    -0.048 A 
HETATM   13  C4  UNL     1      15.638  -6.491  -0.059  1.00  0.00     0.015 A 
HETATM   14  C3  UNL     1      16.110  -7.720   0.383  1.00  0.00    -0.052 A 
HETATM   15  C13 UNL     1      17.104  -8.331  -0.352  1.00  0.00    -0.056 A 
HETATM   16  C12 UNL     1      17.626  -7.748  -1.498  1.00  0.00     0.008 A 
HETATM   17  C14 UNL     1      17.634  -9.636   0.080  1.00  0.00     0.049 C 
HETATM   18  C11 UNL     1      17.153  -6.522  -1.935  1.00  0.00     0.008 A 
BRANCH  14  19
HETATM   19  C2  UNL     1      15.605  -8.398   1.583  1.00  0.00     0.034 C 
HETATM   20  C1  UNL     1      14.952  -7.439   2.561  1.00  0.00     0.010 C 
ENDBRANCH  14  19
ENDBRANCH  10  12
ENDBRANCH   1  10
BRANCH   7  21
HETATM   21  S1  UNL     1       9.054  -4.325  -1.296  1.00  0.00     0.228 S 
HETATM   22  C10 UNL     1       7.636  -3.229  -1.161  1.00  0.00     0.186 C 
HETATM   23  O1  UNL     1       8.817  -5.213  -2.480  1.00  0.00    -0.206 OA
HETATM   24  O2  UNL     1       9.074  -5.168  -0.047  1.00  0.00    -0.206 OA
ENDBRANCH   7  21
TORSDOF 4
ENDMDL
MODEL 5
REMARK VINA RESULT: -6.912377634      1.737      2.372
REMARK  4 active torsions:
REMARK  status: ('A' for Active; 'I' for Inactive)
REMARK    1  A    between atoms: C2_2  and  C3_3 
REMARK    2  A    between atoms: C5_5  and  C6_6 
REMARK    3  A    between atoms: C6_6  and  C8_8 
REMARK    4  A    between atoms: N3_14  and  S1_16 
ROOT
HETATM    1  C8  UNL     1      15.176  -6.916  -0.665  1.00  0.00     0.078 A 
HETATM    2  N1  UNL     1      13.888  -7.033  -0.864  1.00  0.00    -0.295 N 
ATOM      3  H1  UNL     1      13.450  -7.949  -0.766  1.00  0.00     0.187 HD
HETATM    4  N2  UNL     1      13.172  -6.034  -1.177  1.00  0.00    -0.278 N 
ATOM      5  H2  UNL     1      12.169  -6.142  -1.330  1.00  0.00     0.189 HD
HETATM    6  C9  UNL     1      13.754  -4.839  -1.303  1.00  0.00     0.174 A 
HETATM    7  N3  UNL     1      13.221  -3.686  -1.614  1.00  0.00    -0.263 N 
ATOM      8  H3  UNL     1      13.805  -2.852  -1.671  1.00  0.00     0.180 HD
HETATM    9  S2  UNL     1      15.390  -5.220  -0.950  1.00  0.00    -0.037 SA
ENDROOT
BRANCH   1  10
HETATM   10  C6  UNL     1      16.231  -7.893  -0.298  1.00  0.00     0.073 C 
HETATM   11  C7  UNL     1      17.489  -7.108   0.007  1.00  0.00     0.022 C 
BRANCH  10  12
HETATM   12  C5  UNL     1      15.890  -8.698   0.881  1.00  0.00    -0.048 A 
HETATM   13  C4  UNL     1      14.672  -8.472   1.491  1.00  0.00     0.015 A 
HETATM   14  C3  UNL     1      14.294  -9.203   2.610  1.00  0.00    -0.052 A 
HETATM   15  C13 UNL     1      15.172 -10.155   3.083  1.00  0.00    -0.056 A 
HETATM   16  C12 UNL     1      16.396 -10.386   2.473  1.00  0.00     0.008 A 
HETATM   17  C14 UNL     1      14.812 -10.956   4.267  1.00  0.00     0.049 C 
HETATM   18  C11 UNL     1      16.769  -9.654   1.357  1.00  0.00     0.008 A 
BRANCH  14  19
HETATM   19  C2  UNL     1      13.016  -9.017   3.307  1.00  0.00     0.034 C 
HETATM   20  C1  UNL     1      11.863  -9.704   2.598  1.00  0.00     0.010 C 
ENDBRANCH  14  19
ENDBRANCH  10  12
ENDBRANCH   1  10
BRANCH   7  21
HETATM   21  S1  UNL     1      11.544  -3.579  -1.922  1.00  0.00     0.228 S 
HETATM   22  C10 UNL     1      11.305  -4.006  -3.652  1.00  0.00     0.186 C 
HETATM   23  O1  UNL     1      10.729  -4.541  -1.111  1.00  0.00    -0.206 OA
HETATM   24  O2  UNL     1      10.991  -2.190  -1.735  1.00  0.00    -0.206 OA
ENDBRANCH   7  21
TORSDOF 4
ENDMDL
