MODEL 1
REMARK VINA RESULT: -5.826867395      0.000      0.000
REMARK  4 active torsions:
REMARK  status: ('A' for Active; 'I' for Inactive)
REMARK    1  A    between atoms: C2_2  and  C4_4 
REMARK    2  A    between atoms: C15_17  and  N2_18 
REMARK    3  A    between atoms: N2_18  and  C16_20 
REMARK    4  A    between atoms: C16_20  and  C17_21 
REMARK       I    between atoms: C17_21  and  N3_23 
ROOT
HETATM    1  C4  UNL     1      15.970  -4.078  -2.008  1.00  0.00     0.097 C 
HETATM    2  C5  UNL     1      16.261  -2.879  -1.220  1.00  0.00     0.076 C 
HETATM    3  N1  UNL     1      16.499  -1.905  -0.603  1.00  0.00    -0.196 NA
HETATM    4  C6  UNL     1      17.325  -4.726  -2.263  1.00  0.00     0.109 C 
HETATM    5  C7  UNL     1      17.124  -6.206  -2.180  1.00  0.00     0.134 C 
HETATM    6  O1  UNL     1      17.173  -6.925  -3.145  1.00  0.00    -0.297 OA
HETATM    7  C8  UNL     1      16.867  -6.646  -0.795  1.00  0.00     0.073 C 
HETATM    8  C9  UNL     1      15.614  -5.957  -0.345  1.00  0.00     0.045 C 
HETATM    9  C10 UNL     1      14.741  -7.089   0.077  1.00  0.00     0.012 C 
HETATM   10  C11 UNL     1      15.754  -8.109   0.623  1.00  0.00     0.010 C 
HETATM   11  C12 UNL     1      16.748  -8.090  -0.549  1.00  0.00    -0.037 C 
HETATM   12  C13 UNL     1      18.005  -8.746  -0.019  1.00  0.00     0.015 C 
HETATM   13  C14 UNL     1      16.211  -8.910  -1.664  1.00  0.00     0.015 C 
HETATM   14  C15 UNL     1      15.018  -4.999  -1.297  1.00  0.00     0.011 C 
ENDROOT
BRANCH   1  15
HETATM   15  C2  UNL     1      15.511  -3.591  -3.350  1.00  0.00     0.006 C 
HETATM   16  C1  UNL     1      14.642  -2.397  -3.374  1.00  0.00     0.011 C 
HETATM   17  C3  UNL     1      16.783  -3.214  -4.121  1.00  0.00     0.011 C 
ENDBRANCH   1  15
BRANCH  14  18
HETATM   18  N2  UNL     1      13.921  -5.435  -2.104  1.00  0.00    -0.386 N 
ATOM     19  H2  UNL     1      14.052  -5.971  -2.961  1.00  0.00     0.159 HD
BRANCH  18  20
HETATM   20  C16 UNL     1      12.617  -5.062  -1.617  1.00  0.00     0.222 C 
BRANCH  20  21
HETATM   21  C17 UNL     1      11.525  -5.944  -2.001  1.00  0.00     0.236 C 
HETATM   22  O2  UNL     1      11.329  -7.027  -1.401  1.00  0.00    -0.272 OA
HETATM   23  N3  UNL     1      10.689  -5.532  -3.083  1.00  0.00    -0.359 N 
HETATM   24  C18 UNL     1       9.637  -6.391  -3.603  1.00  0.00     0.152 C 
HETATM   25  C19 UNL     1      10.821  -4.219  -3.693  1.00  0.00     0.152 C 
ENDBRANCH  20  21
ENDBRANCH  18  20
ENDBRANCH  14  18
TORSDOF 4
ENDMDL
MODEL 2
REMARK VINA RESULT: -5.810553114      1.097      1.148
REMARK  4 active torsions:
REMARK  status: ('A' for Active; 'I' for Inactive)
REMARK    1  A    between atoms: C2_2  and  C4_4 
REMARK    2  A    between atoms: C15_17  and  N2_18 
REMARK    3  A    between atoms: N2_18  and  C16_20 
REMARK    4  A    between atoms: C16_20  and  C17_21 
REMARK       I    between atoms: C17_21  and  N3_23 
ROOT
HETATM    1  C4  UNL     1      14.913  -3.587  -2.100  1.00  0.00     0.097 C 
HETATM    2  C5  UNL     1      14.751  -2.407  -1.249  1.00  0.00     0.076 C 
HETATM    3  N1  UNL     1      14.625  -1.446  -0.581  1.00  0.00    -0.196 NA
HETATM    4  C6  UNL     1      16.413  -3.852  -2.132  1.00  0.00     0.109 C 
HETATM    5  C7  UNL     1      16.595  -5.337  -2.115  1.00  0.00     0.134 C 
HETATM    6  O1  UNL     1      16.984  -5.956  -3.072  1.00  0.00    -0.297 OA
HETATM    7  C8  UNL     1      16.243  -5.916  -0.804  1.00  0.00     0.073 C 
HETATM    8  C9  UNL     1      14.799  -5.598  -0.561  1.00  0.00     0.045 C 
HETATM    9  C10 UNL     1      14.195  -6.939  -0.319  1.00  0.00     0.012 C 
HETATM   10  C11 UNL     1      15.338  -7.701   0.372  1.00  0.00     0.010 C 
HETATM   11  C12 UNL     1      16.467  -7.356  -0.612  1.00  0.00    -0.037 C 
HETATM   12  C13 UNL     1      17.750  -7.704   0.112  1.00  0.00     0.015 C 
HETATM   13  C14 UNL     1      16.349  -8.211  -1.819  1.00  0.00     0.015 C 
HETATM   14  C15 UNL     1      14.133  -4.763  -1.581  1.00  0.00     0.011 C 
ENDROOT
BRANCH   1  15
HETATM   15  C2  UNL     1      14.565  -3.148  -3.491  1.00  0.00     0.006 C 
HETATM   16  C1  UNL     1      13.433  -2.210  -3.638  1.00  0.00     0.011 C 
HETATM   17  C3  UNL     1      15.803  -2.416  -4.026  1.00  0.00     0.011 C 
ENDBRANCH   1  15
BRANCH  14  18
HETATM   18  N2  UNL     1      13.332  -5.410  -2.573  1.00  0.00    -0.386 N 
ATOM     19  H2  UNL     1      13.738  -5.900  -3.371  1.00  0.00     0.159 HD
BRANCH  18  20
HETATM   20  C16 UNL     1      11.909  -5.321  -2.364  1.00  0.00     0.222 C 
BRANCH  20  21
HETATM   21  C17 UNL     1      11.125  -6.435  -2.879  1.00  0.00     0.236 C 
HETATM   22  O2  UNL     1      10.978  -7.483  -2.208  1.00  0.00    -0.272 OA
HETATM   23  N3  UNL     1      10.535  -6.289  -4.171  1.00  0.00    -0.359 N 
HETATM   24  C18 UNL     1       9.819  -7.382  -4.809  1.00  0.00     0.152 C 
HETATM   25  C19 UNL     1      10.583  -5.029  -4.894  1.00  0.00     0.152 C 
ENDBRANCH  20  21
ENDBRANCH  18  20
ENDBRANCH  14  18
TORSDOF 4
ENDMDL
MODEL 3
REMARK VINA RESULT: -5.781505615      0.906      1.105
REMARK  4 active torsions:
REMARK  status: ('A' for Active; 'I' for Inactive)
REMARK    1  A    between atoms: C2_2  and  C4_4 
REMARK    2  A    between atoms: C15_17  and  N2_18 
REMARK    3  A    between atoms: N2_18  and  C16_20 
REMARK    4  A    between atoms: C16_20  and  C17_21 
REMARK       I    between atoms: C17_21  and  N3_23 
ROOT
HETATM    1  C4  UNL     1      16.143  -4.008  -2.033  1.00  0.00     0.097 C 
HETATM    2  C5  UNL     1      16.462  -2.816  -1.245  1.00  0.00     0.076 C 
HETATM    3  N1  UNL     1      16.724  -1.848  -0.629  1.00  0.00    -0.196 NA
HETATM    4  C6  UNL     1      17.478  -4.705  -2.260  1.00  0.00     0.109 C 
HETATM    5  C7  UNL     1      17.223  -6.176  -2.174  1.00  0.00     0.134 C 
HETATM    6  O1  UNL     1      17.264  -6.902  -3.135  1.00  0.00    -0.297 OA
HETATM    7  C8  UNL     1      16.927  -6.600  -0.792  1.00  0.00     0.073 C 
HETATM    8  C9  UNL     1      15.692  -5.865  -0.367  1.00  0.00     0.045 C 
HETATM    9  C10 UNL     1      14.771  -6.963   0.044  1.00  0.00     0.012 C 
HETATM   10  C11 UNL     1      15.738  -8.015   0.613  1.00  0.00     0.010 C 
HETATM   11  C12 UNL     1      16.752  -8.038  -0.541  1.00  0.00    -0.037 C 
HETATM   12  C13 UNL     1      17.976  -8.735   0.014  1.00  0.00     0.015 C 
HETATM   13  C14 UNL     1      16.206  -8.844  -1.662  1.00  0.00     0.015 C 
HETATM   14  C15 UNL     1      15.146  -4.891  -1.334  1.00  0.00     0.011 C 
ENDROOT
BRANCH   1  15
HETATM   15  C2  UNL     1      15.725  -3.513  -3.385  1.00  0.00     0.006 C 
HETATM   16  C1  UNL     1      14.951  -2.255  -3.433  1.00  0.00     0.011 C 
HETATM   17  C3  UNL     1      17.024  -3.250  -4.159  1.00  0.00     0.011 C 
ENDBRANCH   1  15
BRANCH  14  18
HETATM   18  N2  UNL     1      14.049  -5.292  -2.158  1.00  0.00    -0.386 N 
ATOM     19  H2  UNL     1      14.167  -5.899  -2.969  1.00  0.00     0.159 HD
BRANCH  18  20
HETATM   20  C16 UNL     1      12.764  -4.777  -1.759  1.00  0.00     0.222 C 
BRANCH  20  21
HETATM   21  C17 UNL     1      11.736  -4.780  -2.790  1.00  0.00     0.236 C 
HETATM   22  O2  UNL     1      11.632  -3.829  -3.599  1.00  0.00    -0.272 OA
HETATM   23  N3  UNL     1      10.853  -5.902  -2.842  1.00  0.00    -0.359 N 
HETATM   24  C18 UNL     1       9.735  -5.948  -3.771  1.00  0.00     0.152 C 
HETATM   25  C19 UNL     1      11.053  -7.070  -2.000  1.00  0.00     0.152 C 
ENDBRANCH  20  21
ENDBRANCH  18  20
ENDBRANCH  14  18
TORSDOF 4
ENDMDL
MODEL 4
REMARK VINA RESULT: -5.733515339      2.211      6.526
REMARK  4 active torsions:
REMARK  status: ('A' for Active; 'I' for Inactive)
REMARK    1  A    between atoms: C2_2  and  C4_4 
REMARK    2  A    between atoms: C15_17  and  N2_18 
REMARK    3  A    between atoms: N2_18  and  C16_20 
REMARK    4  A    between atoms: C16_20  and  C17_21 
REMARK       I    between atoms: C17_21  and  N3_23 
ROOT
HETATM    1  C4  UNL     1      11.205  -4.924  -2.124  1.00  0.00     0.097 C 
HETATM    2  C5  UNL     1      10.205  -5.159  -1.081  1.00  0.00     0.076 C 
HETATM    3  N1  UNL     1       9.392  -5.363  -0.254  1.00  0.00    -0.196 NA
HETATM    4  C6  UNL     1      10.542  -3.963  -3.101  1.00  0.00     0.109 C 
HETATM    5  C7  UNL     1      11.601  -3.014  -3.567  1.00  0.00     0.134 C 
HETATM    6  O1  UNL     1      12.048  -3.034  -4.685  1.00  0.00    -0.297 OA
HETATM    7  C8  UNL     1      12.006  -2.080  -2.498  1.00  0.00     0.073 C 
HETATM    8  C9  UNL     1      12.554  -2.912  -1.379  1.00  0.00     0.045 C 
HETATM    9  C10 UNL     1      13.915  -2.341  -1.170  1.00  0.00     0.012 C 
HETATM   10  C11 UNL     1      13.711  -0.855  -1.507  1.00  0.00     0.010 C 
HETATM   11  C12 UNL     1      12.971  -1.025  -2.843  1.00  0.00    -0.037 C 
HETATM   12  C13 UNL     1      12.352   0.325  -3.134  1.00  0.00     0.015 C 
HETATM   13  C14 UNL     1      13.949  -1.347  -3.912  1.00  0.00     0.015 C 
HETATM   14  C15 UNL     1      12.486  -4.376  -1.559  1.00  0.00     0.011 C 
ENDROOT
BRANCH   1  15
HETATM   15  C2  UNL     1      11.335  -6.216  -2.874  1.00  0.00     0.006 C 
HETATM   16  C1  UNL     1      11.267  -7.464  -2.085  1.00  0.00     0.011 C 
HETATM   17  C3  UNL     1      10.152  -6.259  -3.851  1.00  0.00     0.011 C 
ENDBRANCH   1  15
BRANCH  14  18
HETATM   18  N2  UNL     1      13.658  -5.061  -2.006  1.00  0.00    -0.386 N 
ATOM     19  H2  UNL     1      13.997  -4.996  -2.966  1.00  0.00     0.159 HD
BRANCH  18  20
HETATM   20  C16 UNL     1      14.325  -5.852  -1.003  1.00  0.00     0.222 C 
BRANCH  20  21
HETATM   21  C17 UNL     1      15.712  -6.190  -1.287  1.00  0.00     0.236 C 
HETATM   22  O2  UNL     1      16.294  -5.732  -2.298  1.00  0.00    -0.272 OA
HETATM   23  N3  UNL     1      16.382  -7.061  -0.375  1.00  0.00    -0.359 N 
HETATM   24  C18 UNL     1      17.734  -7.535  -0.627  1.00  0.00     0.152 C 
HETATM   25  C19 UNL     1      15.762  -7.485   0.870  1.00  0.00     0.152 C 
ENDBRANCH  20  21
ENDBRANCH  18  20
ENDBRANCH  14  18
TORSDOF 4
ENDMDL
MODEL 5
REMARK VINA RESULT: -5.732121976      1.445      1.649
REMARK  4 active torsions:
REMARK  status: ('A' for Active; 'I' for Inactive)
REMARK    1  A    between atoms: C2_2  and  C4_4 
REMARK    2  A    between atoms: C15_17  and  N2_18 
REMARK    3  A    between atoms: N2_18  and  C16_20 
REMARK    4  A    between atoms: C16_20  and  C17_21 
REMARK       I    between atoms: C17_21  and  N3_23 
ROOT
HETATM    1  C4  UNL     1      14.404  -3.522  -2.049  1.00  0.00     0.097 C 
HETATM    2  C5  UNL     1      14.219  -2.385  -1.146  1.00  0.00     0.076 C 
HETATM    3  N1  UNL     1      14.068  -1.458  -0.437  1.00  0.00    -0.196 NA
HETATM    4  C6  UNL     1      15.881  -3.500  -2.420  1.00  0.00     0.109 C 
HETATM    5  C7  UNL     1      16.336  -4.923  -2.492  1.00  0.00     0.134 C 
HETATM    6  O1  UNL     1      16.610  -5.469  -3.530  1.00  0.00    -0.297 OA
HETATM    7  C8  UNL     1      16.399  -5.544  -1.154  1.00  0.00     0.073 C 
HETATM    8  C9  UNL     1      15.013  -5.503  -0.589  1.00  0.00     0.045 C 
HETATM    9  C10 UNL     1      14.739  -6.931  -0.262  1.00  0.00     0.012 C 
HETATM   10  C11 UNL     1      16.128  -7.456   0.135  1.00  0.00     0.010 C 
HETATM   11  C12 UNL     1      16.925  -6.914  -1.063  1.00  0.00    -0.037 C 
HETATM   12  C13 UNL     1      18.379  -7.006  -0.652  1.00  0.00     0.015 C 
HETATM   13  C14 UNL     1      16.702  -7.790  -2.240  1.00  0.00     0.015 C 
HETATM   14  C15 UNL     1      13.993  -4.819  -1.409  1.00  0.00     0.011 C 
ENDROOT
BRANCH   1  15
HETATM   15  C2  UNL     1      13.678  -3.171  -3.314  1.00  0.00     0.006 C 
HETATM   16  C1  UNL     1      12.410  -2.425  -3.179  1.00  0.00     0.011 C 
HETATM   17  C3  UNL     1      14.629  -2.266  -4.110  1.00  0.00     0.011 C 
ENDBRANCH   1  15
BRANCH  14  18
HETATM   18  N2  UNL     1      13.125  -5.616  -2.219  1.00  0.00    -0.386 N 
ATOM     19  H2  UNL     1      13.443  -6.077  -3.072  1.00  0.00     0.159 HD
BRANCH  18  20
HETATM   20  C16 UNL     1      11.769  -5.722  -1.744  1.00  0.00     0.222 C 
BRANCH  20  21
HETATM   21  C17 UNL     1      10.765  -6.004  -2.760  1.00  0.00     0.236 C 
HETATM   22  O2  UNL     1      10.940  -6.915  -3.603  1.00  0.00    -0.272 OA
HETATM   23  N3  UNL     1       9.581  -5.208  -2.760  1.00  0.00    -0.359 N 
HETATM   24  C18 UNL     1       8.568  -5.349  -3.794  1.00  0.00     0.152 C 
HETATM   25  C19 UNL     1       9.307  -4.246  -1.704  1.00  0.00     0.152 C 
ENDBRANCH  20  21
ENDBRANCH  18  20
ENDBRANCH  14  18
TORSDOF 4
ENDMDL
