MODEL 1
REMARK VINA RESULT: -7.290793348      0.000      0.000
REMARK  8 active torsions:
REMARK  status: ('A' for Active; 'I' for Inactive)
REMARK    1  A    between atoms: C2_2  and  C3_3 
REMARK    2  A    between atoms: C3_3  and  C4_4 
REMARK    3  A    between atoms: C4_4  and  C5_5 
REMARK    4  A    between atoms: C5_5  and  C6_6 
REMARK    5  A    between atoms: C5_5  and  C12_16 
REMARK    6  A    between atoms: C6_6  and  N1_7 
REMARK       I    between atoms: N1_7  and  C7_9 
REMARK    7  A    between atoms: C7_9  and  C8_11 
REMARK       I    between atoms: C12_16  and  N2_18 
REMARK    8  A    between atoms: N2_18  and  C13_20 
ROOT
HETATM    1  C5  UNL     1      -6.973   7.964 -20.507  1.00  0.00     0.027 C 
ENDROOT
BRANCH   1   2
HETATM    2  C4  UNL     1      -7.241   7.923 -21.920  1.00  0.00     0.010 C 
BRANCH   2   3
HETATM    3  C3  UNL     1      -7.158   6.849 -22.881  1.00  0.00    -0.026 C 
BRANCH   3   4
HETATM    4  C2  UNL     1      -6.146   6.840 -23.970  1.00  0.00     0.022 C 
HETATM    5  C1  UNL     1      -4.795   6.362 -23.351  1.00  0.00     0.009 C 
ENDBRANCH   3   4
ENDBRANCH   2   3
ENDBRANCH   1   2
BRANCH   1   6
HETATM    6  C6  UNL     1      -7.600   8.827 -19.510  1.00  0.00     0.166 C 
BRANCH   6   7
HETATM    7  N1  UNL     1      -8.059   8.275 -18.274  1.00  0.00    -0.354 N 
HETATM    8  C7  UNL     1      -7.277   8.272 -17.086  1.00  0.00     0.246 C 
HETATM    9  O1  UNL     1      -6.131   8.778 -17.135  1.00  0.00    -0.271 OA
ATOM     10  H1  UNL     1      -8.991   7.864 -18.243  1.00  0.00     0.162 HD
BRANCH   8  11
HETATM   11  C8  UNL     1      -7.751   7.702 -15.806  1.00  0.00     0.213 C 
HETATM   12  C9  UNL     1      -7.330   6.257 -15.743  1.00  0.00     0.043 C 
HETATM   13  C10 UNL     1      -6.765   6.107 -14.372  1.00  0.00     0.029 C 
HETATM   14  C11 UNL     1      -6.665   7.498 -13.856  1.00  0.00     0.168 C 
HETATM   15  O2  UNL     1      -7.215   8.364 -14.746  1.00  0.00    -0.376 OA
ENDBRANCH   8  11
ENDBRANCH   6   7
ENDBRANCH   1   6
BRANCH   1  16
HETATM   16  C12 UNL     1      -5.451   7.926 -20.260  1.00  0.00     0.249 C 
HETATM   17  O3  UNL     1      -4.700   8.812 -20.676  1.00  0.00    -0.268 OA
HETATM   18  N2  UNL     1      -4.958   6.832 -19.537  1.00  0.00    -0.352 N 
ATOM     19  H2  UNL     1      -5.612   6.121 -19.209  1.00  0.00     0.163 HD
BRANCH  18  20
HETATM   20  C13 UNL     1      -3.526   6.675 -19.233  1.00  0.00     0.086 C 
HETATM   21  C14 UNL     1      -3.451   6.219 -17.796  1.00  0.00     0.035 C 
HETATM   22  C15 UNL     1      -2.055   6.355 -17.229  1.00  0.00     0.076 C 
HETATM   23  S1  UNL     1      -0.936   5.569 -18.453  1.00  0.00    -0.169 SA
HETATM   24  C16 UNL     1      -2.055   4.672 -19.596  1.00  0.00     0.076 C 
HETATM   25  C17 UNL     1      -2.961   5.707 -20.207  1.00  0.00     0.035 C 
ENDBRANCH  18  20
ENDBRANCH   1  16
TORSDOF 8
ENDMDL
MODEL 2
REMARK VINA RESULT: -7.143527457      3.515      5.929
REMARK  8 active torsions:
REMARK  status: ('A' for Active; 'I' for Inactive)
REMARK    1  A    between atoms: C2_2  and  C3_3 
REMARK    2  A    between atoms: C3_3  and  C4_4 
REMARK    3  A    between atoms: C4_4  and  C5_5 
REMARK    4  A    between atoms: C5_5  and  C6_6 
REMARK    5  A    between atoms: C5_5  and  C12_16 
REMARK    6  A    between atoms: C6_6  and  N1_7 
REMARK       I    between atoms: N1_7  and  C7_9 
REMARK    7  A    between atoms: C7_9  and  C8_11 
REMARK       I    between atoms: C12_16  and  N2_18 
REMARK    8  A    between atoms: N2_18  and  C13_20 
ROOT
HETATM    1  C5  UNL     1      -2.741   6.905 -16.877  1.00  0.00     0.027 C 
ENDROOT
BRANCH   1   2
HETATM    2  C4  UNL     1      -3.489   6.662 -15.673  1.00  0.00     0.010 C 
BRANCH   2   3
HETATM    3  C3  UNL     1      -4.808   7.080 -15.262  1.00  0.00    -0.026 C 
BRANCH   3   4
HETATM    4  C2  UNL     1      -5.067   7.682 -13.928  1.00  0.00     0.022 C 
HETATM    5  C1  UNL     1      -6.406   7.081 -13.394  1.00  0.00     0.009 C 
ENDBRANCH   3   4
ENDBRANCH   2   3
ENDBRANCH   1   2
BRANCH   1   6
HETATM    6  C6  UNL     1      -2.071   8.141 -17.272  1.00  0.00     0.166 C 
BRANCH   6   7
HETATM    7  N1  UNL     1      -2.442   9.381 -16.665  1.00  0.00    -0.354 N 
HETATM    8  C7  UNL     1      -3.443  10.238 -17.198  1.00  0.00     0.246 C 
HETATM    9  O1  UNL     1      -4.022   9.883 -18.252  1.00  0.00    -0.271 OA
ATOM     10  H1  UNL     1      -1.966   9.664 -15.809  1.00  0.00     0.162 HD
BRANCH   8  11
HETATM   11  C8  UNL     1      -3.829  11.522 -16.571  1.00  0.00     0.213 C 
HETATM   12  C9  UNL     1      -4.088  11.277 -15.108  1.00  0.00     0.043 C 
HETATM   13  C10 UNL     1      -3.364  12.387 -14.426  1.00  0.00     0.029 C 
HETATM   14  C11 UNL     1      -2.551  13.017 -15.500  1.00  0.00     0.168 C 
HETATM   15  O2  UNL     1      -2.840  12.446 -16.697  1.00  0.00    -0.376 OA
ENDBRANCH   8  11
ENDBRANCH   6   7
ENDBRANCH   1   6
BRANCH   1  16
HETATM   16  C12 UNL     1      -3.497   6.328 -18.090  1.00  0.00     0.249 C 
HETATM   17  O3  UNL     1      -3.997   5.201 -18.072  1.00  0.00    -0.268 OA
HETATM   18  N2  UNL     1      -3.591   7.150 -19.222  1.00  0.00    -0.352 N 
ATOM     19  H2  UNL     1      -3.164   8.076 -19.197  1.00  0.00     0.163 HD
BRANCH  18  20
HETATM   20  C13 UNL     1      -4.284   6.719 -20.447  1.00  0.00     0.086 C 
HETATM   21  C14 UNL     1      -4.869   7.970 -21.058  1.00  0.00     0.035 C 
HETATM   22  C15 UNL     1      -5.902   7.655 -22.117  1.00  0.00     0.076 C 
HETATM   23  S1  UNL     1      -5.123   6.423 -23.231  1.00  0.00    -0.169 SA
HETATM   24  C16 UNL     1      -3.350   6.428 -22.761  1.00  0.00     0.076 C 
HETATM   25  C17 UNL     1      -3.292   6.029 -21.310  1.00  0.00     0.035 C 
ENDBRANCH  18  20
ENDBRANCH   1  16
TORSDOF 8
ENDMDL
MODEL 3
REMARK VINA RESULT: -7.111502540      2.675      6.396
REMARK  8 active torsions:
REMARK  status: ('A' for Active; 'I' for Inactive)
REMARK    1  A    between atoms: C2_2  and  C3_3 
REMARK    2  A    between atoms: C3_3  and  C4_4 
REMARK    3  A    between atoms: C4_4  and  C5_5 
REMARK    4  A    between atoms: C5_5  and  C6_6 
REMARK    5  A    between atoms: C5_5  and  C12_16 
REMARK    6  A    between atoms: C6_6  and  N1_7 
REMARK       I    between atoms: N1_7  and  C7_9 
REMARK    7  A    between atoms: C7_9  and  C8_11 
REMARK       I    between atoms: C12_16  and  N2_18 
REMARK    8  A    between atoms: N2_18  and  C13_20 
ROOT
HETATM    1  C5  UNL     1      -2.485   5.047 -19.318  1.00  0.00     0.027 C 
ENDROOT
BRANCH   1   2
HETATM    2  C4  UNL     1      -1.176   4.803 -18.776  1.00  0.00     0.010 C 
BRANCH   2   3
HETATM    3  C3  UNL     1      -0.317   5.610 -17.944  1.00  0.00    -0.026 C 
BRANCH   3   4
HETATM    4  C2  UNL     1       0.462   6.754 -18.486  1.00  0.00     0.022 C 
HETATM    5  C1  UNL     1       0.061   8.023 -17.670  1.00  0.00     0.009 C 
ENDBRANCH   3   4
ENDBRANCH   2   3
ENDBRANCH   1   2
BRANCH   1   6
HETATM    6  C6  UNL     1      -2.853   5.175 -20.725  1.00  0.00     0.166 C 
BRANCH   6   7
HETATM    7  N1  UNL     1      -3.999   5.943 -21.098  1.00  0.00    -0.354 N 
HETATM    8  C7  UNL     1      -4.026   6.795 -22.237  1.00  0.00     0.246 C 
HETATM    9  O1  UNL     1      -2.992   6.870 -22.941  1.00  0.00    -0.271 OA
ATOM     10  H1  UNL     1      -4.836   5.878 -20.521  1.00  0.00     0.162 HD
BRANCH   8  11
HETATM   11  C8  UNL     1      -5.212   7.590 -22.625  1.00  0.00     0.213 C 
HETATM   12  C9  UNL     1      -5.955   6.842 -23.700  1.00  0.00     0.043 C 
HETATM   13  C10 UNL     1      -7.379   6.910 -23.265  1.00  0.00     0.029 C 
HETATM   14  C11 UNL     1      -7.320   7.449 -21.881  1.00  0.00     0.168 C 
HETATM   15  O2  UNL     1      -6.042   7.782 -21.566  1.00  0.00    -0.376 OA
ENDBRANCH   8  11
ENDBRANCH   6   7
ENDBRANCH   1   6
BRANCH   1  16
HETATM   16  C12 UNL     1      -3.192   6.152 -18.507  1.00  0.00     0.249 C 
HETATM   17  O3  UNL     1      -3.161   7.336 -18.852  1.00  0.00    -0.268 OA
HETATM   18  N2  UNL     1      -3.876   5.746 -17.353  1.00  0.00    -0.352 N 
ATOM     19  H2  UNL     1      -3.878   4.757 -17.102  1.00  0.00     0.163 HD
BRANCH  18  20
HETATM   20  C13 UNL     1      -4.591   6.700 -16.490  1.00  0.00     0.086 C 
HETATM   21  C14 UNL     1      -5.697   5.916 -15.826  1.00  0.00     0.035 C 
HETATM   22  C15 UNL     1      -6.731   6.819 -15.191  1.00  0.00     0.076 C 
HETATM   23  S1  UNL     1      -5.791   8.027 -14.179  1.00  0.00    -0.169 SA
HETATM   24  C16 UNL     1      -4.086   7.355 -14.118  1.00  0.00     0.076 C 
HETATM   25  C17 UNL     1      -3.605   7.279 -15.543  1.00  0.00     0.035 C 
ENDBRANCH  18  20
ENDBRANCH   1  16
TORSDOF 8
ENDMDL
MODEL 4
REMARK VINA RESULT: -7.052775434      1.796      5.771
REMARK  8 active torsions:
REMARK  status: ('A' for Active; 'I' for Inactive)
REMARK    1  A    between atoms: C2_2  and  C3_3 
REMARK    2  A    between atoms: C3_3  and  C4_4 
REMARK    3  A    between atoms: C4_4  and  C5_5 
REMARK    4  A    between atoms: C5_5  and  C6_6 
REMARK    5  A    between atoms: C5_5  and  C12_16 
REMARK    6  A    between atoms: C6_6  and  N1_7 
REMARK       I    between atoms: N1_7  and  C7_9 
REMARK    7  A    between atoms: C7_9  and  C8_11 
REMARK       I    between atoms: C12_16  and  N2_18 
REMARK    8  A    between atoms: N2_18  and  C13_20 
ROOT
HETATM    1  C5  UNL     1      -6.931   7.103 -17.047  1.00  0.00     0.027 C 
ENDROOT
BRANCH   1   2
HETATM    2  C4  UNL     1      -7.458   6.724 -15.763  1.00  0.00     0.010 C 
BRANCH   2   3
HETATM    3  C3  UNL     1      -6.821   6.188 -14.585  1.00  0.00    -0.026 C 
BRANCH   3   4
HETATM    4  C2  UNL     1      -6.345   7.059 -13.478  1.00  0.00     0.022 C 
HETATM    5  C1  UNL     1      -4.905   7.538 -13.843  1.00  0.00     0.009 C 
ENDBRANCH   3   4
ENDBRANCH   2   3
ENDBRANCH   1   2
BRANCH   1   6
HETATM    6  C6  UNL     1      -7.685   7.432 -18.253  1.00  0.00     0.166 C 
BRANCH   6   7
HETATM    7  N1  UNL     1      -7.015   7.526 -19.512  1.00  0.00    -0.354 N 
HETATM    8  C7  UNL     1      -7.556   8.215 -20.632  1.00  0.00     0.246 C 
HETATM    9  O1  UNL     1      -8.676   8.762 -20.500  1.00  0.00    -0.271 OA
ATOM     10  H1  UNL     1      -6.105   7.077 -19.612  1.00  0.00     0.162 HD
BRANCH   8  11
HETATM   11  C8  UNL     1      -6.864   8.314 -21.935  1.00  0.00     0.213 C 
HETATM   12  C9  UNL     1      -5.787   7.262 -21.982  1.00  0.00     0.043 C 
HETATM   13  C10 UNL     1      -5.954   6.637 -23.325  1.00  0.00     0.029 C 
HETATM   14  C11 UNL     1      -7.242   7.182 -23.831  1.00  0.00     0.168 C 
HETATM   15  O2  UNL     1      -7.727   8.109 -22.966  1.00  0.00    -0.376 OA
ENDBRANCH   8  11
ENDBRANCH   6   7
ENDBRANCH   1   6
BRANCH   1  16
HETATM   16  C12 UNL     1      -5.750   6.186 -17.421  1.00  0.00     0.249 C 
HETATM   17  O3  UNL     1      -5.916   5.011 -17.756  1.00  0.00    -0.268 OA
HETATM   18  N2  UNL     1      -4.469   6.754 -17.364  1.00  0.00    -0.352 N 
ATOM     19  H2  UNL     1      -4.374   7.730 -17.083  1.00  0.00     0.163 HD
BRANCH  18  20
HETATM   20  C13 UNL     1      -3.257   5.987 -17.695  1.00  0.00     0.086 C 
HETATM   21  C14 UNL     1      -3.075   6.119 -19.188  1.00  0.00     0.035 C 
HETATM   22  C15 UNL     1      -2.089   5.108 -19.731  1.00  0.00     0.076 C 
HETATM   23  S1  UNL     1      -0.606   5.223 -18.658  1.00  0.00    -0.169 SA
HETATM   24  C16 UNL     1      -0.863   6.748 -17.672  1.00  0.00     0.076 C 
HETATM   25  C17 UNL     1      -2.137   6.544 -16.896  1.00  0.00     0.035 C 
ENDBRANCH  18  20
ENDBRANCH   1  16
TORSDOF 8
ENDMDL
MODEL 5
REMARK VINA RESULT: -7.040635156      2.944      5.482
REMARK  8 active torsions:
REMARK  status: ('A' for Active; 'I' for Inactive)
REMARK    1  A    between atoms: C2_2  and  C3_3 
REMARK    2  A    between atoms: C3_3  and  C4_4 
REMARK    3  A    between atoms: C4_4  and  C5_5 
REMARK    4  A    between atoms: C5_5  and  C6_6 
REMARK    5  A    between atoms: C5_5  and  C12_16 
REMARK    6  A    between atoms: C6_6  and  N1_7 
REMARK       I    between atoms: N1_7  and  C7_9 
REMARK    7  A    between atoms: C7_9  and  C8_11 
REMARK       I    between atoms: C12_16  and  N2_18 
REMARK    8  A    between atoms: N2_18  and  C13_20 
ROOT
HETATM    1  C5  UNL     1      -3.208   5.125 -20.016  1.00  0.00     0.027 C 
ENDROOT
BRANCH   1   2
HETATM    2  C4  UNL     1      -1.997   4.423 -19.683  1.00  0.00     0.010 C 
BRANCH   2   3
HETATM    3  C3  UNL     1      -0.951   4.713 -18.733  1.00  0.00    -0.026 C 
BRANCH   3   4
HETATM    4  C2  UNL     1      -0.114   5.939 -18.828  1.00  0.00     0.022 C 
HETATM    5  C1  UNL     1       0.135   6.451 -17.374  1.00  0.00     0.009 C 
ENDBRANCH   3   4
ENDBRANCH   2   3
ENDBRANCH   1   2
BRANCH   1   6
HETATM    6  C6  UNL     1      -3.416   6.062 -21.117  1.00  0.00     0.166 C 
BRANCH   6   7
HETATM    7  N1  UNL     1      -4.733   6.525 -21.423  1.00  0.00    -0.354 N 
HETATM    8  C7  UNL     1      -5.157   7.864 -21.202  1.00  0.00     0.246 C 
HETATM    9  O1  UNL     1      -4.331   8.670 -20.713  1.00  0.00    -0.271 OA
ATOM     10  H1  UNL     1      -5.400   5.863 -21.819  1.00  0.00     0.162 HD
BRANCH   8  11
HETATM   11  C8  UNL     1      -6.520   8.345 -21.519  1.00  0.00     0.213 C 
HETATM   12  C9  UNL     1      -7.508   7.537 -20.719  1.00  0.00     0.043 C 
HETATM   13  C10 UNL     1      -8.433   8.560 -20.153  1.00  0.00     0.029 C 
HETATM   14  C11 UNL     1      -7.774   9.860 -20.447  1.00  0.00     0.168 C 
HETATM   15  O2  UNL     1      -6.663   9.659 -21.200  1.00  0.00    -0.376 OA
ENDBRANCH   8  11
ENDBRANCH   6   7
ENDBRANCH   1   6
BRANCH   1  16
HETATM   16  C12 UNL     1      -3.854   5.693 -18.737  1.00  0.00     0.249 C 
HETATM   17  O3  UNL     1      -4.724   5.077 -18.116  1.00  0.00    -0.268 OA
HETATM   18  N2  UNL     1      -3.406   6.951 -18.310  1.00  0.00    -0.352 N 
ATOM     19  H2  UNL     1      -2.685   7.428 -18.852  1.00  0.00     0.163 HD
BRANCH  18  20
HETATM   20  C13 UNL     1      -3.942   7.606 -17.106  1.00  0.00     0.086 C 
HETATM   21  C14 UNL     1      -3.192   7.012 -15.939  1.00  0.00     0.035 C 
HETATM   22  C15 UNL     1      -3.865   7.315 -14.618  1.00  0.00     0.076 C 
HETATM   23  S1  UNL     1      -4.188   9.122 -14.619  1.00  0.00    -0.169 SA
HETATM   24  C16 UNL     1      -3.224   9.765 -16.041  1.00  0.00     0.076 C 
HETATM   25  C17 UNL     1      -3.756   9.070 -17.267  1.00  0.00     0.035 C 
ENDBRANCH  18  20
ENDBRANCH   1  16
TORSDOF 8
ENDMDL
