MODEL 1
REMARK VINA RESULT: -7.696061061      0.000      0.000
REMARK  9 active torsions:
REMARK  status: ('A' for Active; 'I' for Inactive)
REMARK    1  A    between atoms: C2_2  and  C3_3 
REMARK    2  A    between atoms: C3_3  and  C4_4 
REMARK    3  A    between atoms: C3_3  and  N2_12 
REMARK    4  A    between atoms: C4_4  and  N1_5 
REMARK       I    between atoms: N2_12  and  C11_14 
REMARK    5  A    between atoms: C11_14  and  C12_16 
REMARK    6  A    between atoms: C12_16  and  O2_17 
REMARK    7  A    between atoms: O2_17  and  C13_18 
REMARK    8  A    between atoms: C13_18  and  C14_20 
REMARK    9  A    between atoms: C14_20  and  O4_21 
ROOT
HETATM    1  N2  UNL     1      -3.135   8.788 -16.259  1.00  0.00    -0.353 N 
ATOM      2  H2  UNL     1      -3.011   7.911 -15.753  1.00  0.00     0.163 HD
HETATM    3  C11 UNL     1      -2.173   9.191 -17.214  1.00  0.00     0.242 C 
HETATM    4  O1  UNL     1      -2.341  10.278 -17.831  1.00  0.00    -0.271 OA
ENDROOT
BRANCH   1   5
HETATM    5  C3  UNL     1      -4.332   9.640 -15.988  1.00  0.00     0.112 C 
BRANCH   5   6
HETATM    6  C2  UNL     1      -4.113  10.238 -14.666  1.00  0.00     0.022 C 
HETATM    7  C1  UNL     1      -3.741  11.691 -14.660  1.00  0.00     0.007 C 
ENDBRANCH   5   6
BRANCH   5   8
HETATM    8  C4  UNL     1      -5.488   8.810 -16.331  1.00  0.00     0.297 C 
BRANCH   8   9
HETATM    9  N1  UNL     1      -6.110   7.908 -15.435  1.00  0.00     0.094 N 
HETATM   10  C5  UNL     1      -7.574   8.038 -15.774  1.00  0.00     0.273 C 
HETATM   11  C6  UNL     1      -7.809   7.886 -17.225  1.00  0.00     0.030 C 
HETATM   12  C7  UNL     1      -7.310   6.585 -17.805  1.00  0.00     0.004 C 
HETATM   13  C8  UNL     1      -6.015   6.148 -17.186  1.00  0.00     0.035 C 
HETATM   14  C9  UNL     1      -5.885   6.492 -15.731  1.00  0.00     0.219 C 
HETATM   15  C10 UNL     1      -6.927   5.700 -14.923  1.00  0.00     0.043 C 
ENDBRANCH   8   9
ENDBRANCH   5   8
ENDBRANCH   1   5
BRANCH   3  16
HETATM   16  C12 UNL     1      -0.995   8.342 -17.476  1.00  0.00     0.281 C 
BRANCH  16  17
HETATM   17  O2  UNL     1      -1.102   7.021 -17.063  1.00  0.00    -0.310 OA
BRANCH  17  18
HETATM   18  C13 UNL     1      -0.887   5.961 -17.895  1.00  0.00     0.294 C 
HETATM   19  O3  UNL     1       0.242   5.523 -18.155  1.00  0.00    -0.262 OA
BRANCH  18  20
HETATM   20  C14 UNL     1      -2.042   5.272 -18.537  1.00  0.00     0.145 C 
HETATM   21  C15 UNL     1      -2.786   6.216 -19.467  1.00  0.00     0.048 C 
HETATM   22  C16 UNL     1      -3.397   5.320 -20.501  1.00  0.00     0.004 C 
HETATM   23  C17 UNL     1      -2.824   3.946 -20.314  1.00  0.00     0.004 C 
HETATM   24  C18 UNL     1      -1.584   4.196 -19.485  1.00  0.00     0.048 C 
BRANCH  20  25
HETATM   25  O4  UNL     1      -2.935   4.747 -17.633  1.00  0.00    -0.380 OA
ATOM     26  H4  UNL     1      -3.823   4.696 -17.967  1.00  0.00     0.211 HD
ENDBRANCH  20  25
ENDBRANCH  18  20
ENDBRANCH  17  18
ENDBRANCH  16  17
ENDBRANCH   3  16
TORSDOF 9
ENDMDL
MODEL 2
REMARK VINA RESULT: -7.679375253      2.195      3.540
REMARK  9 active torsions:
REMARK  status: ('A' for Active; 'I' for Inactive)
REMARK    1  A    between atoms: C2_2  and  C3_3 
REMARK    2  A    between atoms: C3_3  and  C4_4 
REMARK    3  A    between atoms: C3_3  and  N2_12 
REMARK    4  A    between atoms: C4_4  and  N1_5 
REMARK       I    between atoms: N2_12  and  C11_14 
REMARK    5  A    between atoms: C11_14  and  C12_16 
REMARK    6  A    between atoms: C12_16  and  O2_17 
REMARK    7  A    between atoms: O2_17  and  C13_18 
REMARK    8  A    between atoms: C13_18  and  C14_20 
REMARK    9  A    between atoms: C14_20  and  O4_21 
ROOT
HETATM    1  N2  UNL     1      -5.504   7.258 -16.604  1.00  0.00    -0.353 N 
ATOM      2  H2  UNL     1      -5.048   6.435 -16.998  1.00  0.00     0.163 HD
HETATM    3  C11 UNL     1      -4.723   8.281 -16.017  1.00  0.00     0.242 C 
HETATM    4  O1  UNL     1      -5.301   9.292 -15.534  1.00  0.00    -0.271 OA
ENDROOT
BRANCH   1   5
HETATM    5  C3  UNL     1      -6.993   7.378 -16.648  1.00  0.00     0.112 C 
BRANCH   5   6
HETATM    6  C2  UNL     1      -7.518   6.094 -16.171  1.00  0.00     0.022 C 
HETATM    7  C1  UNL     1      -6.973   5.613 -14.858  1.00  0.00     0.007 C 
ENDBRANCH   5   6
BRANCH   5   8
HETATM    8  C4  UNL     1      -7.299   7.951 -17.960  1.00  0.00     0.297 C 
BRANCH   8   9
HETATM    9  N1  UNL     1      -6.759   7.476 -19.179  1.00  0.00     0.094 N 
HETATM   10  C5  UNL     1      -7.963   7.405 -20.086  1.00  0.00     0.273 C 
HETATM   11  C6  UNL     1      -8.720   8.675 -20.081  1.00  0.00     0.030 C 
HETATM   12  C7  UNL     1      -7.908   9.885 -20.476  1.00  0.00     0.004 C 
HETATM   13  C8  UNL     1      -6.506   9.825 -19.949  1.00  0.00     0.035 C 
HETATM   14  C9  UNL     1      -5.928   8.440 -19.902  1.00  0.00     0.219 C 
HETATM   15  C10 UNL     1      -5.772   7.903 -21.335  1.00  0.00     0.043 C 
ENDBRANCH   8   9
ENDBRANCH   5   8
ENDBRANCH   1   5
BRANCH   3  16
HETATM   16  C12 UNL     1      -3.253   8.154 -15.979  1.00  0.00     0.281 C 
BRANCH  16  17
HETATM   17  O2  UNL     1      -2.761   6.856 -16.003  1.00  0.00    -0.310 OA
BRANCH  17  18
HETATM   18  C13 UNL     1      -2.013   6.362 -17.032  1.00  0.00     0.294 C 
HETATM   19  O3  UNL     1      -0.789   6.529 -17.121  1.00  0.00    -0.262 OA
BRANCH  18  20
HETATM   20  C14 UNL     1      -2.667   5.579 -18.119  1.00  0.00     0.145 C 
HETATM   21  C15 UNL     1      -2.970   6.463 -19.316  1.00  0.00     0.048 C 
HETATM   22  C16 UNL     1      -2.944   5.530 -20.488  1.00  0.00     0.004 C 
HETATM   23  C17 UNL     1      -2.405   4.213 -20.014  1.00  0.00     0.004 C 
HETATM   24  C18 UNL     1      -1.725   4.565 -18.710  1.00  0.00     0.048 C 
BRANCH  20  25
HETATM   25  O4  UNL     1      -3.828   4.960 -17.721  1.00  0.00    -0.380 OA
ATOM     26  H4  UNL     1      -3.703   4.051 -17.470  1.00  0.00     0.211 HD
ENDBRANCH  20  25
ENDBRANCH  18  20
ENDBRANCH  17  18
ENDBRANCH  16  17
ENDBRANCH   3  16
TORSDOF 9
ENDMDL
MODEL 3
REMARK VINA RESULT: -7.676723757      1.850      2.828
REMARK  9 active torsions:
REMARK  status: ('A' for Active; 'I' for Inactive)
REMARK    1  A    between atoms: C2_2  and  C3_3 
REMARK    2  A    between atoms: C3_3  and  C4_4 
REMARK    3  A    between atoms: C3_3  and  N2_12 
REMARK    4  A    between atoms: C4_4  and  N1_5 
REMARK       I    between atoms: N2_12  and  C11_14 
REMARK    5  A    between atoms: C11_14  and  C12_16 
REMARK    6  A    between atoms: C12_16  and  O2_17 
REMARK    7  A    between atoms: O2_17  and  C13_18 
REMARK    8  A    between atoms: C13_18  and  C14_20 
REMARK    9  A    between atoms: C14_20  and  O4_21 
ROOT
HETATM    1  N2  UNL     1      -3.835   8.240 -17.072  1.00  0.00    -0.353 N 
ATOM      2  H2  UNL     1      -3.794   7.271 -17.388  1.00  0.00     0.163 HD
HETATM    3  C11 UNL     1      -2.649   9.007 -17.000  1.00  0.00     0.242 C 
HETATM    4  O1  UNL     1      -2.717  10.204 -16.607  1.00  0.00    -0.271 OA
ENDROOT
BRANCH   1   5
HETATM    5  C3  UNL     1      -5.147   8.843 -16.687  1.00  0.00     0.112 C 
BRANCH   5   6
HETATM    6  C2  UNL     1      -5.647   8.044 -15.562  1.00  0.00     0.022 C 
HETATM    7  C1  UNL     1      -7.138   7.903 -15.474  1.00  0.00     0.007 C 
ENDBRANCH   5   6
BRANCH   5   8
HETATM    8  C4  UNL     1      -5.874   9.031 -17.944  1.00  0.00     0.297 C 
BRANCH   8   9
HETATM    9  N1  UNL     1      -5.482   8.462 -19.180  1.00  0.00     0.094 N 
HETATM   10  C5  UNL     1      -6.373   7.250 -19.301  1.00  0.00     0.273 C 
HETATM   11  C6  UNL     1      -7.793   7.599 -19.089  1.00  0.00     0.030 C 
HETATM   12  C7  UNL     1      -8.320   8.661 -20.024  1.00  0.00     0.004 C 
HETATM   13  C8  UNL     1      -7.302   9.724 -20.306  1.00  0.00     0.035 C 
HETATM   14  C9  UNL     1      -5.889   9.220 -20.364  1.00  0.00     0.219 C 
HETATM   15  C10 UNL     1      -5.733   8.277 -21.569  1.00  0.00     0.043 C 
ENDBRANCH   8   9
ENDBRANCH   5   8
ENDBRANCH   1   5
BRANCH   3  16
HETATM   16  C12 UNL     1      -1.358   8.405 -17.383  1.00  0.00     0.281 C 
BRANCH  16  17
HETATM   17  O2  UNL     1      -1.169   7.088 -16.985  1.00  0.00    -0.310 OA
BRANCH  17  18
HETATM   18  C13 UNL     1      -0.946   6.068 -17.864  1.00  0.00     0.294 C 
HETATM   19  O3  UNL     1       0.188   5.679 -18.177  1.00  0.00    -0.262 OA
BRANCH  18  20
HETATM   20  C14 UNL     1      -2.098   5.366 -18.497  1.00  0.00     0.145 C 
HETATM   21  C15 UNL     1      -2.575   6.113 -19.731  1.00  0.00     0.048 C 
HETATM   22  C16 UNL     1      -3.174   5.052 -20.603  1.00  0.00     0.004 C 
HETATM   23  C17 UNL     1      -2.833   3.719 -20.005  1.00  0.00     0.004 C 
HETATM   24  C18 UNL     1      -1.684   4.040 -19.075  1.00  0.00     0.048 C 
BRANCH  20  25
HETATM   25  O4  UNL     1      -3.163   5.192 -17.646  1.00  0.00    -0.380 OA
ATOM     26  H4  UNL     1      -3.672   4.412 -17.834  1.00  0.00     0.211 HD
ENDBRANCH  20  25
ENDBRANCH  18  20
ENDBRANCH  17  18
ENDBRANCH  16  17
ENDBRANCH   3  16
TORSDOF 9
ENDMDL
MODEL 4
REMARK VINA RESULT: -7.657076786      2.235      3.584
REMARK  9 active torsions:
REMARK  status: ('A' for Active; 'I' for Inactive)
REMARK    1  A    between atoms: C2_2  and  C3_3 
REMARK    2  A    between atoms: C3_3  and  C4_4 
REMARK    3  A    between atoms: C3_3  and  N2_12 
REMARK    4  A    between atoms: C4_4  and  N1_5 
REMARK       I    between atoms: N2_12  and  C11_14 
REMARK    5  A    between atoms: C11_14  and  C12_16 
REMARK    6  A    between atoms: C12_16  and  O2_17 
REMARK    7  A    between atoms: O2_17  and  C13_18 
REMARK    8  A    between atoms: C13_18  and  C14_20 
REMARK    9  A    between atoms: C14_20  and  O4_21 
ROOT
HETATM    1  N2  UNL     1      -5.440   6.928 -16.638  1.00  0.00    -0.353 N 
ATOM      2  H2  UNL     1      -4.973   6.037 -16.809  1.00  0.00     0.163 HD
HETATM    3  C11 UNL     1      -4.699   8.030 -16.155  1.00  0.00     0.242 C 
HETATM    4  O1  UNL     1      -5.292   9.124 -15.949  1.00  0.00    -0.271 OA
ENDROOT
BRANCH   1   5
HETATM    5  C3  UNL     1      -6.906   7.061 -16.899  1.00  0.00     0.112 C 
BRANCH   5   6
HETATM    6  C2  UNL     1      -7.548   5.950 -16.187  1.00  0.00     0.022 C 
HETATM    7  C1  UNL     1      -6.999   5.645 -14.825  1.00  0.00     0.007 C 
ENDBRANCH   5   6
BRANCH   5   8
HETATM    8  C4  UNL     1      -7.026   7.288 -18.340  1.00  0.00     0.297 C 
BRANCH   8   9
HETATM    9  N1  UNL     1      -7.793   8.328 -18.918  1.00  0.00     0.094 N 
HETATM   10  C5  UNL     1      -6.809   9.469 -19.018  1.00  0.00     0.273 C 
HETATM   11  C6  UNL     1      -5.556   9.047 -19.678  1.00  0.00     0.030 C 
HETATM   12  C7  UNL     1      -5.744   8.471 -21.061  1.00  0.00     0.004 C 
HETATM   13  C8  UNL     1      -6.986   7.637 -21.164  1.00  0.00     0.035 C 
HETATM   14  C9  UNL     1      -8.130   8.135 -20.330  1.00  0.00     0.219 C 
HETATM   15  C10 UNL     1      -8.596   9.500 -20.865  1.00  0.00     0.043 C 
ENDBRANCH   8   9
ENDBRANCH   5   8
ENDBRANCH   1   5
BRANCH   3  16
HETATM   16  C12 UNL     1      -3.252   7.890 -15.901  1.00  0.00     0.281 C 
BRANCH  16  17
HETATM   17  O2  UNL     1      -2.450   7.799 -17.030  1.00  0.00    -0.310 OA
BRANCH  17  18
HETATM   18  C13 UNL     1      -1.770   6.666 -17.372  1.00  0.00     0.294 C 
HETATM   19  O3  UNL     1      -0.621   6.422 -16.982  1.00  0.00    -0.262 OA
BRANCH  18  20
HETATM   20  C14 UNL     1      -2.412   5.652 -18.256  1.00  0.00     0.145 C 
HETATM   21  C15 UNL     1      -3.120   6.321 -19.422  1.00  0.00     0.048 C 
HETATM   22  C16 UNL     1      -3.092   5.296 -20.515  1.00  0.00     0.004 C 
HETATM   23  C17 UNL     1      -2.190   4.181 -20.077  1.00  0.00     0.004 C 
HETATM   24  C18 UNL     1      -1.385   4.805 -18.958  1.00  0.00     0.048 C 
BRANCH  20  25
HETATM   25  O4  UNL     1      -3.310   4.846 -17.597  1.00  0.00    -0.380 OA
ATOM     26  H4  UNL     1      -3.923   4.411 -18.178  1.00  0.00     0.211 HD
ENDBRANCH  20  25
ENDBRANCH  18  20
ENDBRANCH  17  18
ENDBRANCH  16  17
ENDBRANCH   3  16
TORSDOF 9
ENDMDL
MODEL 5
REMARK VINA RESULT: -7.636806863      2.550      4.584
REMARK  9 active torsions:
REMARK  status: ('A' for Active; 'I' for Inactive)
REMARK    1  A    between atoms: C2_2  and  C3_3 
REMARK    2  A    between atoms: C3_3  and  C4_4 
REMARK    3  A    between atoms: C3_3  and  N2_12 
REMARK    4  A    between atoms: C4_4  and  N1_5 
REMARK       I    between atoms: N2_12  and  C11_14 
REMARK    5  A    between atoms: C11_14  and  C12_16 
REMARK    6  A    between atoms: C12_16  and  O2_17 
REMARK    7  A    between atoms: O2_17  and  C13_18 
REMARK    8  A    between atoms: C13_18  and  C14_20 
REMARK    9  A    between atoms: C14_20  and  O4_21 
ROOT
HETATM    1  N2  UNL     1      -2.973   8.631 -17.928  1.00  0.00    -0.353 N 
ATOM      2  H2  UNL     1      -3.061   8.411 -18.921  1.00  0.00     0.163 HD
HETATM    3  C11 UNL     1      -2.941   9.980 -17.507  1.00  0.00     0.242 C 
HETATM    4  O1  UNL     1      -2.831  10.234 -16.276  1.00  0.00    -0.271 OA
ENDROOT
BRANCH   1   5
HETATM    5  C3  UNL     1      -2.878   7.525 -16.927  1.00  0.00     0.112 C 
BRANCH   5   6
HETATM    6  C2  UNL     1      -1.729   6.707 -17.334  1.00  0.00     0.022 C 
HETATM    7  C1  UNL     1      -1.880   5.971 -18.633  1.00  0.00     0.007 C 
ENDBRANCH   5   6
BRANCH   5   8
HETATM    8  C4  UNL     1      -4.240   7.009 -16.784  1.00  0.00     0.297 C 
BRANCH   8   9
HETATM    9  N1  UNL     1      -4.891   6.823 -15.541  1.00  0.00     0.094 N 
HETATM   10  C5  UNL     1      -5.541   8.161 -15.287  1.00  0.00     0.273 C 
HETATM   11  C6  UNL     1      -6.331   8.609 -16.452  1.00  0.00     0.030 C 
HETATM   12  C7  UNL     1      -7.408   7.643 -16.884  1.00  0.00     0.004 C 
HETATM   13  C8  UNL     1      -6.972   6.214 -16.755  1.00  0.00     0.035 C 
HETATM   14  C9  UNL     1      -6.067   5.952 -15.586  1.00  0.00     0.219 C 
HETATM   15  C10 UNL     1      -6.842   6.186 -14.278  1.00  0.00     0.043 C 
ENDBRANCH   8   9
ENDBRANCH   5   8
ENDBRANCH   1   5
BRANCH   3  16
HETATM   16  C12 UNL     1      -3.037  11.065 -18.502  1.00  0.00     0.281 C 
BRANCH  16  17
HETATM   17  O2  UNL     1      -3.802  10.783 -19.626  1.00  0.00    -0.310 OA
BRANCH  17  18
HETATM   18  C13 UNL     1      -5.166  10.756 -19.611  1.00  0.00     0.294 C 
HETATM   19  O3  UNL     1      -5.851  11.505 -18.901  1.00  0.00    -0.262 OA
BRANCH  18  20
HETATM   20  C14 UNL     1      -5.901   9.792 -20.478  1.00  0.00     0.145 C 
HETATM   21  C15 UNL     1      -5.624   8.360 -20.051  1.00  0.00     0.048 C 
HETATM   22  C16 UNL     1      -6.850   7.602 -20.462  1.00  0.00     0.004 C 
HETATM   23  C17 UNL     1      -7.887   8.601 -20.882  1.00  0.00     0.004 C 
HETATM   24  C18 UNL     1      -7.389   9.895 -20.279  1.00  0.00     0.048 C 
BRANCH  20  25
HETATM   25  O4  UNL     1      -5.599   9.921 -21.813  1.00  0.00    -0.380 OA
ATOM     26  H4  UNL     1      -4.674  10.060 -21.978  1.00  0.00     0.211 HD
ENDBRANCH  20  25
ENDBRANCH  18  20
ENDBRANCH  17  18
ENDBRANCH  16  17
ENDBRANCH   3  16
TORSDOF 9
ENDMDL
