MODEL 1
REMARK VINA RESULT: -7.111593060      0.000      0.000
REMARK  9 active torsions:
REMARK  status: ('A' for Active; 'I' for Inactive)
REMARK    1  A    between atoms: N1_2  and  C2_5 
REMARK    2  A    between atoms: C2_5  and  C3_6 
REMARK    3  A    between atoms: C2_5  and  N2_12 
REMARK    4  A    between atoms: C3_6  and  C4_7 
REMARK    5  A    between atoms: N2_12  and  C9_15 
REMARK    6  A    between atoms: C9_15  and  C10_16 
REMARK    7  A    between atoms: C10_16  and  C11_17 
REMARK    8  A    between atoms: N4_21  and  C13_22 
REMARK    9  A    between atoms: C13_22  and  C14_23 
ROOT
HETATM    1  C9  UNL     1      -3.594   9.549 -16.467  1.00  0.00     0.241 C 
ENDROOT
BRANCH   1   2
HETATM    2  N2  UNL     1      -2.655   8.486 -16.245  1.00  0.00    -0.046 N 
ATOM      3  H22 UNL     1      -3.094   7.693 -15.777  1.00  0.00     0.279 HD
ATOM      4  H21 UNL     1      -1.973   8.736 -15.528  1.00  0.00     0.279 HD
BRANCH   2   5
HETATM    5  C2  UNL     1      -2.015   8.087 -17.457  1.00  0.00     0.382 C 
BRANCH   5   6
HETATM    6  N1  UNL     1      -0.575   8.322 -17.330  1.00  0.00    -0.050 N 
HETATM    7  C1  UNL     1       0.162   7.116 -17.738  1.00  0.00     0.269 C 
ATOM      8  H12 UNL     1      -0.318   8.632 -16.393  1.00  0.00     0.279 HD
ATOM      9  H11 UNL     1      -0.274   9.150 -17.846  1.00  0.00     0.279 HD
ENDBRANCH   5   6
BRANCH   5  10
HETATM   10  C3  UNL     1      -2.185   6.634 -17.812  1.00  0.00     0.068 C 
BRANCH  10  11
HETATM   11  C4  UNL     1      -3.020   6.451 -19.059  1.00  0.00    -0.002 A 
HETATM   12  C5  UNL     1      -3.989   5.255 -19.005  1.00  0.00     0.014 A 
HETATM   13  C6  UNL     1      -2.811   5.282 -19.944  1.00  0.00    -0.044 A 
HETATM   14  C7  UNL     1      -3.085   5.485 -21.437  1.00  0.00     0.015 C 
HETATM   15  C8  UNL     1      -1.765   4.243 -19.665  1.00  0.00     0.015 C 
ENDBRANCH  10  11
ENDBRANCH   5  10
ENDBRANCH   2   5
ENDBRANCH   1   2
BRANCH   1  16
HETATM   16  C10 UNL     1      -4.985   8.913 -16.605  1.00  0.00     0.086 C 
BRANCH  16  17
HETATM   17  C11 UNL     1      -5.590   9.281 -17.913  1.00  0.00     0.034 A 
HETATM   18  N3  UNL     1      -5.408  10.371 -18.679  1.00  0.00    -0.354 N 
HETATM   19  C12 UNL     1      -6.151  10.260 -19.798  1.00  0.00     0.183 A 
ATOM     20  H3  UNL     1      -4.804  11.160 -18.448  1.00  0.00     0.166 HD
HETATM   21  N4  UNL     1      -6.812   9.078 -19.740  1.00  0.00    -0.343 N 
HETATM   22  C18 UNL     1      -6.474   8.475 -18.590  1.00  0.00     0.031 A 
HETATM   23  C19 UNL     1      -7.019   7.141 -18.150  1.00  0.00     0.070 C 
BRANCH  21  24
HETATM   24  C13 UNL     1      -7.738   8.546 -20.751  1.00  0.00     0.161 C 
BRANCH  24  25
HETATM   25  C14 UNL     1      -7.030   8.341 -22.069  1.00  0.00     0.139 C 
HETATM   26  C15 UNL     1      -6.179   7.107 -22.098  1.00  0.00     0.035 C 
HETATM   27  C16 UNL     1      -6.176   6.731 -23.567  1.00  0.00     0.029 C 
HETATM   28  C17 UNL     1      -7.301   7.550 -24.127  1.00  0.00     0.168 C 
HETATM   29  O1  UNL     1      -8.003   8.054 -23.029  1.00  0.00    -0.384 OA
ENDBRANCH  24  25
ENDBRANCH  21  24
ENDBRANCH  16  17
ENDBRANCH   1  16
TORSDOF 9
ENDMDL
MODEL 2
REMARK VINA RESULT: -7.022919773      2.548      5.839
REMARK  9 active torsions:
REMARK  status: ('A' for Active; 'I' for Inactive)
REMARK    1  A    between atoms: N1_2  and  C2_5 
REMARK    2  A    between atoms: C2_5  and  C3_6 
REMARK    3  A    between atoms: C2_5  and  N2_12 
REMARK    4  A    between atoms: C3_6  and  C4_7 
REMARK    5  A    between atoms: N2_12  and  C9_15 
REMARK    6  A    between atoms: C9_15  and  C10_16 
REMARK    7  A    between atoms: C10_16  and  C11_17 
REMARK    8  A    between atoms: N4_21  and  C13_22 
REMARK    9  A    between atoms: C13_22  and  C14_23 
ROOT
HETATM    1  C9  UNL     1      -7.949   8.332 -17.687  1.00  0.00     0.241 C 
ENDROOT
BRANCH   1   2
HETATM    2  N2  UNL     1      -7.203   7.632 -18.694  1.00  0.00    -0.046 N 
ATOM      3  H22 UNL     1      -6.877   6.727 -18.354  1.00  0.00     0.279 HD
ATOM      4  H21 UNL     1      -6.298   8.074 -18.861  1.00  0.00     0.279 HD
BRANCH   2   5
HETATM    5  C2  UNL     1      -7.948   7.496 -19.904  1.00  0.00     0.382 C 
BRANCH   5   6
HETATM    6  N1  UNL     1      -8.960   8.553 -19.956  1.00  0.00    -0.050 N 
HETATM    7  C1  UNL     1      -8.544   9.591 -20.912  1.00  0.00     0.269 C 
ATOM      8  H12 UNL     1      -9.160   8.939 -19.033  1.00  0.00     0.279 HD
ATOM      9  H11 UNL     1      -9.889   8.187 -20.166  1.00  0.00     0.279 HD
ENDBRANCH   5   6
BRANCH   5  10
HETATM   10  C3  UNL     1      -7.134   7.616 -21.164  1.00  0.00     0.068 C 
BRANCH  10  11
HETATM   11  C4  UNL     1      -5.685   7.248 -20.938  1.00  0.00    -0.002 A 
HETATM   12  C5  UNL     1      -4.676   8.185 -21.627  1.00  0.00     0.014 A 
HETATM   13  C6  UNL     1      -4.848   6.751 -22.054  1.00  0.00    -0.044 A 
HETATM   14  C7  UNL     1      -3.740   5.756 -21.700  1.00  0.00     0.015 C 
HETATM   15  C8  UNL     1      -5.389   6.573 -23.443  1.00  0.00     0.015 C 
ENDBRANCH  10  11
ENDBRANCH   5  10
ENDBRANCH   2   5
ENDBRANCH   1   2
BRANCH   1  16
HETATM   16  C10 UNL     1      -7.096   9.522 -17.225  1.00  0.00     0.086 C 
BRANCH  16  17
HETATM   17  C11 UNL     1      -5.787   9.043 -16.705  1.00  0.00     0.034 A 
HETATM   18  N3  UNL     1      -5.496   8.338 -15.598  1.00  0.00    -0.354 N 
HETATM   19  C12 UNL     1      -4.169   8.110 -15.548  1.00  0.00     0.183 A 
ATOM     20  H3  UNL     1      -6.175   8.025 -14.903  1.00  0.00     0.166 HD
HETATM   21  N4  UNL     1      -3.610   8.679 -16.645  1.00  0.00    -0.343 N 
HETATM   22  C18 UNL     1      -4.594   9.253 -17.356  1.00  0.00     0.031 A 
HETATM   23  C19 UNL     1      -4.371  10.007 -18.640  1.00  0.00     0.070 C 
BRANCH  21  24
HETATM   24  C13 UNL     1      -2.183   8.676 -16.997  1.00  0.00     0.161 C 
BRANCH  24  25
HETATM   25  C14 UNL     1      -1.686   7.266 -17.204  1.00  0.00     0.139 C 
HETATM   26  C15 UNL     1      -2.203   6.635 -18.463  1.00  0.00     0.035 C 
HETATM   27  C16 UNL     1      -1.113   5.642 -18.818  1.00  0.00     0.029 C 
HETATM   28  C17 UNL     1       0.035   6.081 -17.957  1.00  0.00     0.168 C 
HETATM   29  O1  UNL     1      -0.312   7.335 -17.449  1.00  0.00    -0.384 OA
ENDBRANCH  24  25
ENDBRANCH  21  24
ENDBRANCH  16  17
ENDBRANCH   1  16
TORSDOF 9
ENDMDL
MODEL 3
REMARK VINA RESULT: -6.972910999      1.174      1.656
REMARK  9 active torsions:
REMARK  status: ('A' for Active; 'I' for Inactive)
REMARK    1  A    between atoms: N1_2  and  C2_5 
REMARK    2  A    between atoms: C2_5  and  C3_6 
REMARK    3  A    between atoms: C2_5  and  N2_12 
REMARK    4  A    between atoms: C3_6  and  C4_7 
REMARK    5  A    between atoms: N2_12  and  C9_15 
REMARK    6  A    between atoms: C9_15  and  C10_16 
REMARK    7  A    between atoms: C10_16  and  C11_17 
REMARK    8  A    between atoms: N4_21  and  C13_22 
REMARK    9  A    between atoms: C13_22  and  C14_23 
ROOT
HETATM    1  C9  UNL     1      -3.472   9.443 -16.195  1.00  0.00     0.241 C 
ENDROOT
BRANCH   1   2
HETATM    2  N2  UNL     1      -2.465   9.767 -17.166  1.00  0.00    -0.046 N 
ATOM      3  H22 UNL     1      -1.752  10.380 -16.772  1.00  0.00     0.279 HD
ATOM      4  H21 UNL     1      -2.830  10.391 -17.886  1.00  0.00     0.279 HD
BRANCH   2   5
HETATM    5  C2  UNL     1      -1.887   8.594 -17.737  1.00  0.00     0.382 C 
BRANCH   5   6
HETATM    6  N1  UNL     1      -0.569   8.377 -17.137  1.00  0.00    -0.050 N 
HETATM    7  C1  UNL     1       0.211   7.452 -17.975  1.00  0.00     0.269 C 
ATOM      8  H12 UNL     1      -0.635   8.058 -16.170  1.00  0.00     0.279 HD
ATOM      9  H11 UNL     1      -0.075   9.253 -16.969  1.00  0.00     0.279 HD
ENDBRANCH   5   6
BRANCH   5  10
HETATM   10  C3  UNL     1      -2.674   7.330 -17.517  1.00  0.00     0.068 C 
BRANCH  10  11
HETATM   11  C4  UNL     1      -3.245   6.787 -18.808  1.00  0.00    -0.002 A 
HETATM   12  C5  UNL     1      -4.219   5.609 -18.627  1.00  0.00     0.014 A 
HETATM   13  C6  UNL     1      -2.877   5.436 -19.288  1.00  0.00    -0.044 A 
HETATM   14  C7  UNL     1      -2.844   5.224 -20.805  1.00  0.00     0.015 C 
HETATM   15  C8  UNL     1      -1.920   4.553 -18.541  1.00  0.00     0.015 C 
ENDBRANCH  10  11
ENDBRANCH   5  10
ENDBRANCH   2   5
ENDBRANCH   1   2
BRANCH   1  16
HETATM   16  C10 UNL     1      -4.727  10.257 -16.543  1.00  0.00     0.086 C 
BRANCH  16  17
HETATM   17  C11 UNL     1      -5.614   9.473 -17.444  1.00  0.00     0.034 A 
HETATM   18  N3  UNL     1      -6.384   8.401 -17.187  1.00  0.00    -0.354 N 
HETATM   19  C12 UNL     1      -7.037   8.040 -18.310  1.00  0.00     0.183 A 
ATOM     20  H3  UNL     1      -6.463   7.933 -16.284  1.00  0.00     0.166 HD
HETATM   21  N4  UNL     1      -6.673   8.901 -19.294  1.00  0.00    -0.343 N 
HETATM   22  C18 UNL     1      -5.803   9.778 -18.771  1.00  0.00     0.031 A 
HETATM   23  C19 UNL     1      -5.153  10.885 -19.557  1.00  0.00     0.070 C 
BRANCH  21  24
HETATM   24  C13 UNL     1      -7.143   8.880 -20.687  1.00  0.00     0.161 C 
BRANCH  24  25
HETATM   25  C14 UNL     1      -6.559   7.702 -21.430  1.00  0.00     0.139 C 
HETATM   26  C15 UNL     1      -7.238   7.435 -22.741  1.00  0.00     0.035 C 
HETATM   27  C16 UNL     1      -6.142   6.785 -23.564  1.00  0.00     0.029 C 
HETATM   28  C17 UNL     1      -4.902   7.096 -22.779  1.00  0.00     0.168 C 
HETATM   29  O1  UNL     1      -5.268   8.054 -21.830  1.00  0.00    -0.384 OA
ENDBRANCH  24  25
ENDBRANCH  21  24
ENDBRANCH  16  17
ENDBRANCH   1  16
TORSDOF 9
ENDMDL
MODEL 4
REMARK VINA RESULT: -6.893024899      1.341      1.727
REMARK  9 active torsions:
REMARK  status: ('A' for Active; 'I' for Inactive)
REMARK    1  A    between atoms: N1_2  and  C2_5 
REMARK    2  A    between atoms: C2_5  and  C3_6 
REMARK    3  A    between atoms: C2_5  and  N2_12 
REMARK    4  A    between atoms: C3_6  and  C4_7 
REMARK    5  A    between atoms: N2_12  and  C9_15 
REMARK    6  A    between atoms: C9_15  and  C10_16 
REMARK    7  A    between atoms: C10_16  and  C11_17 
REMARK    8  A    between atoms: N4_21  and  C13_22 
REMARK    9  A    between atoms: C13_22  and  C14_23 
ROOT
HETATM    1  C9  UNL     1      -4.489   9.094 -15.111  1.00  0.00     0.241 C 
ENDROOT
BRANCH   1   2
HETATM    2  N2  UNL     1      -3.317   8.364 -15.501  1.00  0.00    -0.046 N 
ATOM      3  H22 UNL     1      -3.424   7.365 -15.324  1.00  0.00     0.279 HD
ATOM      4  H21 UNL     1      -2.534   8.553 -14.874  1.00  0.00     0.279 HD
BRANCH   2   5
HETATM    5  C2  UNL     1      -2.966   8.618 -16.862  1.00  0.00     0.382 C 
BRANCH   5   6
HETATM    6  N1  UNL     1      -2.329   9.933 -16.948  1.00  0.00    -0.050 N 
HETATM    7  C1  UNL     1      -2.773  10.619 -18.172  1.00  0.00     0.269 C 
ATOM      8  H12 UNL     1      -1.313   9.872 -16.887  1.00  0.00     0.279 HD
ATOM      9  H11 UNL     1      -2.492  10.494 -16.112  1.00  0.00     0.279 HD
ENDBRANCH   5   6
BRANCH   5  10
HETATM   10  C3  UNL     1      -2.000   7.631 -17.460  1.00  0.00     0.068 C 
BRANCH  10  11
HETATM   11  C4  UNL     1      -2.686   6.668 -18.402  1.00  0.00    -0.002 A 
HETATM   12  C5  UNL     1      -2.944   5.271 -17.807  1.00  0.00     0.014 A 
HETATM   13  C6  UNL     1      -1.967   5.487 -18.933  1.00  0.00    -0.044 A 
HETATM   14  C7  UNL     1      -2.362   5.006 -20.332  1.00  0.00     0.015 C 
HETATM   15  C8  UNL     1      -0.536   5.197 -18.584  1.00  0.00     0.015 C 
ENDBRANCH  10  11
ENDBRANCH   5  10
ENDBRANCH   2   5
ENDBRANCH   1   2
BRANCH   1  16
HETATM   16  C10 UNL     1      -5.706   8.211 -15.421  1.00  0.00     0.086 C 
BRANCH  16  17
HETATM   17  C11 UNL     1      -6.252   8.542 -16.765  1.00  0.00     0.034 A 
HETATM   18  N3  UNL     1      -6.453   9.736 -17.351  1.00  0.00    -0.354 N 
HETATM   19  C12 UNL     1      -6.945   9.547 -18.592  1.00  0.00     0.183 A 
ATOM     20  H3  UNL     1      -6.262  10.643 -16.924  1.00  0.00     0.166 HD
HETATM   21  N4  UNL     1      -7.055   8.211 -18.794  1.00  0.00    -0.343 N 
HETATM   22  C18 UNL     1      -6.635   7.591 -17.680  1.00  0.00     0.031 A 
HETATM   23  C19 UNL     1      -6.622   6.095 -17.506  1.00  0.00     0.070 C 
BRANCH  21  24
HETATM   24  C13 UNL     1      -7.550   7.551 -20.011  1.00  0.00     0.161 C 
BRANCH  24  25
HETATM   25  C14 UNL     1      -6.646   7.845 -21.184  1.00  0.00     0.139 C 
HETATM   26  C15 UNL     1      -5.277   7.250 -21.038  1.00  0.00     0.035 C 
HETATM   27  C16 UNL     1      -4.844   7.038 -22.476  1.00  0.00     0.029 C 
HETATM   28  C17 UNL     1      -6.128   7.179 -23.238  1.00  0.00     0.168 C 
HETATM   29  O1  UNL     1      -7.153   7.157 -22.289  1.00  0.00    -0.384 OA
ENDBRANCH  24  25
ENDBRANCH  21  24
ENDBRANCH  16  17
ENDBRANCH   1  16
TORSDOF 9
ENDMDL
MODEL 5
REMARK VINA RESULT: -6.843613105      1.905      3.431
REMARK  9 active torsions:
REMARK  status: ('A' for Active; 'I' for Inactive)
REMARK    1  A    between atoms: N1_2  and  C2_5 
REMARK    2  A    between atoms: C2_5  and  C3_6 
REMARK    3  A    between atoms: C2_5  and  N2_12 
REMARK    4  A    between atoms: C3_6  and  C4_7 
REMARK    5  A    between atoms: N2_12  and  C9_15 
REMARK    6  A    between atoms: C9_15  and  C10_16 
REMARK    7  A    between atoms: C10_16  and  C11_17 
REMARK    8  A    between atoms: N4_21  and  C13_22 
REMARK    9  A    between atoms: C13_22  and  C14_23 
ROOT
HETATM    1  C9  UNL     1      -3.226   9.694 -16.440  1.00  0.00     0.241 C 
ENDROOT
BRANCH   1   2
HETATM    2  N2  UNL     1      -2.728   8.389 -16.112  1.00  0.00    -0.046 N 
ATOM      3  H22 UNL     1      -1.984   8.438 -15.415  1.00  0.00     0.279 HD
ATOM      4  H21 UNL     1      -2.195   7.988 -16.884  1.00  0.00     0.279 HD
BRANCH   2   5
HETATM    5  C2  UNL     1      -3.776   7.514 -15.693  1.00  0.00     0.382 C 
BRANCH   5   6
HETATM    6  N1  UNL     1      -3.337   6.788 -14.500  1.00  0.00    -0.050 N 
HETATM    7  C1  UNL     1      -3.673   7.565 -13.296  1.00  0.00     0.269 C 
ATOM      8  H12 UNL     1      -2.346   6.549 -14.539  1.00  0.00     0.279 HD
ATOM      9  H11 UNL     1      -3.716   5.842 -14.465  1.00  0.00     0.279 HD
ENDBRANCH   5   6
BRANCH   5  10
HETATM   10  C3  UNL     1      -5.065   8.202 -15.330  1.00  0.00     0.068 C 
BRANCH  10  11
HETATM   11  C4  UNL     1      -6.193   7.815 -16.258  1.00  0.00    -0.002 A 
HETATM   12  C5  UNL     1      -7.601   8.019 -15.668  1.00  0.00     0.014 A 
HETATM   13  C6  UNL     1      -7.052   6.647 -15.958  1.00  0.00    -0.044 A 
HETATM   14  C7  UNL     1      -7.624   5.881 -17.155  1.00  0.00     0.015 C 
HETATM   15  C8  UNL     1      -6.841   5.788 -14.745  1.00  0.00     0.015 C 
ENDBRANCH  10  11
ENDBRANCH   5  10
ENDBRANCH   2   5
ENDBRANCH   1   2
BRANCH   1  16
HETATM   16  C10 UNL     1      -2.977   9.918 -17.939  1.00  0.00     0.086 C 
BRANCH  16  17
HETATM   17  C11 UNL     1      -4.260   9.837 -18.689  1.00  0.00     0.034 A 
HETATM   18  N3  UNL     1      -5.169  10.790 -18.961  1.00  0.00    -0.354 N 
HETATM   19  C12 UNL     1      -6.167  10.259 -19.696  1.00  0.00     0.183 A 
ATOM     20  H3  UNL     1      -5.114  11.762 -18.657  1.00  0.00     0.166 HD
HETATM   21  N4  UNL     1      -5.882   8.948 -19.894  1.00  0.00    -0.343 N 
HETATM   22  C18 UNL     1      -4.718   8.684 -19.280  1.00  0.00     0.031 A 
HETATM   23  C19 UNL     1      -4.072   7.324 -19.256  1.00  0.00     0.070 C 
BRANCH  21  24
HETATM   24  C13 UNL     1      -6.699   7.983 -20.643  1.00  0.00     0.161 C 
BRANCH  24  25
HETATM   25  C14 UNL     1      -6.354   8.017 -22.113  1.00  0.00     0.139 C 
HETATM   26  C15 UNL     1      -5.587   6.812 -22.569  1.00  0.00     0.035 C 
HETATM   27  C16 UNL     1      -5.968   6.700 -24.032  1.00  0.00     0.029 C 
HETATM   28  C17 UNL     1      -7.165   7.599 -24.138  1.00  0.00     0.168 C 
HETATM   29  O1  UNL     1      -7.548   7.897 -22.828  1.00  0.00    -0.384 OA
ENDBRANCH  24  25
ENDBRANCH  21  24
ENDBRANCH  16  17
ENDBRANCH   1  16
TORSDOF 9
ENDMDL
