MODEL 1
REMARK VINA RESULT: -7.060796215      0.000      0.000
REMARK  8 active torsions:
REMARK  status: ('A' for Active; 'I' for Inactive)
REMARK    1  A    between atoms: C2_2  and  N1_3 
REMARK    2  A    between atoms: N1_3  and  C4_5 
REMARK    3  A    between atoms: C4_5  and  C5_6 
REMARK    4  A    between atoms: C5_6  and  O1_7 
REMARK    5  A    between atoms: O1_7  and  C6_8 
REMARK    6  A    between atoms: C6_8  and  C8_10 
REMARK       I    between atoms: C8_10  and  N2_12 
REMARK    7  A    between atoms: N2_12  and  C9_14 
REMARK    8  A    between atoms: C13_18  and  O3_20 
ROOT
HETATM    1  C9  UNL     1      -5.453   6.141 -17.387  1.00  0.00     0.096 C 
HETATM    2  C10 UNL     1      -6.856   5.520 -17.410  1.00  0.00     0.031 C 
HETATM    3  C11 UNL     1      -7.520   6.342 -16.327  1.00  0.00    -0.001 C 
HETATM    4  C12 UNL     1      -6.705   6.359 -15.059  1.00  0.00     0.043 C 
HETATM    5  C13 UNL     1      -5.499   7.246 -15.291  1.00  0.00     0.064 C 
HETATM    6  C14 UNL     1      -5.337   8.387 -14.389  1.00  0.00     0.047 C 
HETATM    7  C15 UNL     1      -5.655   7.520 -16.768  1.00  0.00     0.014 C 
HETATM    8  C16 UNL     1      -4.799   8.575 -17.310  1.00  0.00     0.021 C 
HETATM    9  C17 UNL     1      -7.129   7.722 -16.907  1.00  0.00    -0.032 C 
HETATM   10  C18 UNL     1      -7.669   7.913 -18.268  1.00  0.00     0.016 C 
HETATM   11  C19 UNL     1      -7.743   8.781 -16.029  1.00  0.00     0.016 C 
ENDROOT
BRANCH   1  12
HETATM   12  N2  UNL     1      -4.758   6.098 -18.609  1.00  0.00    -0.353 N 
HETATM   13  C8  UNL     1      -3.482   5.480 -18.686  1.00  0.00     0.246 C 
HETATM   14  O2  UNL     1      -3.000   4.977 -17.635  1.00  0.00    -0.271 OA
ATOM     15  H2  UNL     1      -5.173   6.513 -19.443  1.00  0.00     0.163 HD
BRANCH  13  16
HETATM   16  C6  UNL     1      -2.707   5.416 -19.983  1.00  0.00     0.209 C 
HETATM   17  C7  UNL     1      -1.780   4.213 -19.960  1.00  0.00     0.049 C 
BRANCH  16  18
HETATM   18  O1  UNL     1      -3.609   5.379 -20.997  1.00  0.00    -0.375 OA
BRANCH  18  19
HETATM   19  C5  UNL     1      -3.291   6.133 -22.135  1.00  0.00     0.199 C 
BRANCH  19  20
HETATM   20  C4  UNL     1      -4.264   7.217 -22.281  1.00  0.00     0.298 C 
BRANCH  20  21
HETATM   21  N1  UNL     1      -5.634   6.953 -22.518  1.00  0.00     0.085 N 
HETATM   22  C3  UNL     1      -6.399   8.038 -21.833  1.00  0.00     0.310 C 
BRANCH  21  23
HETATM   23  C2  UNL     1      -6.129   6.890 -23.834  1.00  0.00     0.267 C 
HETATM   24  C1  UNL     1      -7.556   7.290 -23.936  1.00  0.00     0.037 C 
ENDBRANCH  21  23
ENDBRANCH  20  21
ENDBRANCH  19  20
ENDBRANCH  18  19
ENDBRANCH  16  18
ENDBRANCH  13  16
ENDBRANCH   1  12
BRANCH   5  25
HETATM   25  O3  UNL     1      -4.375   6.410 -15.046  1.00  0.00    -0.389 OA
ATOM     26  H3  UNL     1      -3.667   7.007 -14.831  1.00  0.00     0.210 HD
ENDBRANCH   5  25
TORSDOF 8
ENDMDL
MODEL 2
REMARK VINA RESULT: -6.959312860      1.255      2.061
REMARK  8 active torsions:
REMARK  status: ('A' for Active; 'I' for Inactive)
REMARK    1  A    between atoms: C2_2  and  N1_3 
REMARK    2  A    between atoms: N1_3  and  C4_5 
REMARK    3  A    between atoms: C4_5  and  C5_6 
REMARK    4  A    between atoms: C5_6  and  O1_7 
REMARK    5  A    between atoms: O1_7  and  C6_8 
REMARK    6  A    between atoms: C6_8  and  C8_10 
REMARK       I    between atoms: C8_10  and  N2_12 
REMARK    7  A    between atoms: N2_12  and  C9_14 
REMARK    8  A    between atoms: C13_18  and  O3_20 
ROOT
HETATM    1  C9  UNL     1      -5.130   7.315 -17.732  1.00  0.00     0.096 C 
HETATM    2  C10 UNL     1      -5.727   8.725 -17.836  1.00  0.00     0.031 C 
HETATM    3  C11 UNL     1      -6.494   8.778 -16.532  1.00  0.00    -0.001 C 
HETATM    4  C12 UNL     1      -7.384   7.574 -16.357  1.00  0.00     0.043 C 
HETATM    5  C13 UNL     1      -6.502   6.383 -16.039  1.00  0.00     0.064 C 
HETATM    6  C14 UNL     1      -6.766   5.686 -14.780  1.00  0.00     0.047 C 
HETATM    7  C15 UNL     1      -5.140   7.005 -16.239  1.00  0.00     0.014 C 
HETATM    8  C16 UNL     1      -4.007   6.212 -15.762  1.00  0.00     0.021 C 
HETATM    9  C17 UNL     1      -5.309   8.359 -15.630  1.00  0.00    -0.032 C 
HETATM   10  C18 UNL     1      -4.180   9.304 -15.740  1.00  0.00     0.016 C 
HETATM   11  C19 UNL     1      -5.784   8.393 -14.200  1.00  0.00     0.016 C 
ENDROOT
BRANCH   1  12
HETATM   12  N2  UNL     1      -3.908   7.131 -18.402  1.00  0.00    -0.353 N 
HETATM   13  C8  UNL     1      -3.582   5.868 -18.964  1.00  0.00     0.246 C 
HETATM   14  O2  UNL     1      -4.416   4.930 -18.844  1.00  0.00    -0.271 OA
ATOM     15  H2  UNL     1      -3.252   7.907 -18.485  1.00  0.00     0.163 HD
BRANCH  13  16
HETATM   16  C6  UNL     1      -2.276   5.635 -19.691  1.00  0.00     0.209 C 
HETATM   17  C7  UNL     1      -1.442   4.625 -18.920  1.00  0.00     0.049 C 
BRANCH  16  18
HETATM   18  O1  UNL     1      -2.577   5.232 -20.952  1.00  0.00    -0.375 OA
BRANCH  18  19
HETATM   19  C5  UNL     1      -3.052   6.223 -21.820  1.00  0.00     0.199 C 
BRANCH  19  20
HETATM   20  C4  UNL     1      -4.227   5.716 -22.531  1.00  0.00     0.298 C 
BRANCH  20  21
HETATM   21  N1  UNL     1      -5.426   6.464 -22.603  1.00  0.00     0.085 N 
HETATM   22  C3  UNL     1      -5.189   7.721 -21.830  1.00  0.00     0.310 C 
BRANCH  21  23
HETATM   23  C2  UNL     1      -5.945   6.859 -23.851  1.00  0.00     0.267 C 
HETATM   24  C1  UNL     1      -7.396   7.175 -23.802  1.00  0.00     0.037 C 
ENDBRANCH  21  23
ENDBRANCH  20  21
ENDBRANCH  19  20
ENDBRANCH  18  19
ENDBRANCH  16  18
ENDBRANCH  13  16
ENDBRANCH   1  12
BRANCH   5  25
HETATM   25  O3  UNL     1      -6.782   5.434 -17.061  1.00  0.00    -0.389 OA
ATOM     26  H3  UNL     1      -6.087   4.789 -16.994  1.00  0.00     0.210 HD
ENDBRANCH   5  25
TORSDOF 8
ENDMDL
MODEL 3
REMARK VINA RESULT: -6.953219826      1.742      2.476
REMARK  8 active torsions:
REMARK  status: ('A' for Active; 'I' for Inactive)
REMARK    1  A    between atoms: C2_2  and  N1_3 
REMARK    2  A    between atoms: N1_3  and  C4_5 
REMARK    3  A    between atoms: C4_5  and  C5_6 
REMARK    4  A    between atoms: C5_6  and  O1_7 
REMARK    5  A    between atoms: O1_7  and  C6_8 
REMARK    6  A    between atoms: C6_8  and  C8_10 
REMARK       I    between atoms: C8_10  and  N2_12 
REMARK    7  A    between atoms: N2_12  and  C9_14 
REMARK    8  A    between atoms: C13_18  and  O3_20 
ROOT
HETATM    1  C9  UNL     1      -3.943   7.946 -17.616  1.00  0.00     0.096 C 
HETATM    2  C10 UNL     1      -4.947   7.642 -16.495  1.00  0.00     0.031 C 
HETATM    3  C11 UNL     1      -5.296   9.053 -16.071  1.00  0.00    -0.001 C 
HETATM    4  C12 UNL     1      -4.063   9.876 -15.799  1.00  0.00     0.043 C 
HETATM    5  C13 UNL     1      -3.419  10.206 -17.131  1.00  0.00     0.064 C 
HETATM    6  C14 UNL     1      -3.247  11.625 -17.446  1.00  0.00     0.047 C 
HETATM    7  C15 UNL     1      -4.276   9.369 -18.051  1.00  0.00     0.014 C 
HETATM    8  C16 UNL     1      -4.115   9.635 -19.481  1.00  0.00     0.021 C 
HETATM    9  C17 UNL     1      -5.646   9.567 -17.487  1.00  0.00    -0.032 C 
HETATM   10  C18 UNL     1      -6.751   8.794 -18.089  1.00  0.00     0.016 C 
HETATM   11  C19 UNL     1      -6.115  10.992 -17.357  1.00  0.00     0.016 C 
ENDROOT
BRANCH   1  12
HETATM   12  N2  UNL     1      -3.872   6.980 -18.634  1.00  0.00    -0.353 N 
HETATM   13  C8  UNL     1      -2.630   6.373 -18.960  1.00  0.00     0.246 C 
HETATM   14  O2  UNL     1      -1.607   6.726 -18.313  1.00  0.00    -0.271 OA
ATOM     15  H2  UNL     1      -4.715   6.713 -19.141  1.00  0.00     0.163 HD
BRANCH  13  16
HETATM   16  C6  UNL     1      -2.516   5.331 -20.050  1.00  0.00     0.209 C 
HETATM   17  C7  UNL     1      -2.461   3.947 -19.423  1.00  0.00     0.049 C 
BRANCH  16  18
HETATM   18  O1  UNL     1      -3.571   5.498 -20.889  1.00  0.00    -0.375 OA
BRANCH  18  19
HETATM   19  C5  UNL     1      -3.295   6.128 -22.110  1.00  0.00     0.199 C 
BRANCH  19  20
HETATM   20  C4  UNL     1      -4.292   7.172 -22.349  1.00  0.00     0.298 C 
BRANCH  20  21
HETATM   21  N1  UNL     1      -5.652   6.855 -22.584  1.00  0.00     0.085 N 
HETATM   22  C3  UNL     1      -6.458   7.838 -21.798  1.00  0.00     0.310 C 
BRANCH  21  23
HETATM   23  C2  UNL     1      -6.171   6.875 -23.892  1.00  0.00     0.267 C 
HETATM   24  C1  UNL     1      -7.606   7.255 -23.940  1.00  0.00     0.037 C 
ENDBRANCH  21  23
ENDBRANCH  20  21
ENDBRANCH  19  20
ENDBRANCH  18  19
ENDBRANCH  16  18
ENDBRANCH  13  16
ENDBRANCH   1  12
BRANCH   5  25
HETATM   25  O3  UNL     1      -2.102   9.677 -17.044  1.00  0.00    -0.389 OA
ATOM     26  H3  UNL     1      -1.561  10.408 -16.767  1.00  0.00     0.210 HD
ENDBRANCH   5  25
TORSDOF 8
ENDMDL
MODEL 4
REMARK VINA RESULT: -6.938285171      2.564      5.790
REMARK  8 active torsions:
REMARK  status: ('A' for Active; 'I' for Inactive)
REMARK    1  A    between atoms: C2_2  and  N1_3 
REMARK    2  A    between atoms: N1_3  and  C4_5 
REMARK    3  A    between atoms: C4_5  and  C5_6 
REMARK    4  A    between atoms: C5_6  and  O1_7 
REMARK    5  A    between atoms: O1_7  and  C6_8 
REMARK    6  A    between atoms: C6_8  and  C8_10 
REMARK       I    between atoms: C8_10  and  N2_12 
REMARK    7  A    between atoms: N2_12  and  C9_14 
REMARK    8  A    between atoms: C13_18  and  O3_20 
ROOT
HETATM    1  C9  UNL     1      -6.029   8.934 -18.261  1.00  0.00     0.096 C 
HETATM    2  C10 UNL     1      -7.366   9.664 -18.449  1.00  0.00     0.031 C 
HETATM    3  C11 UNL     1      -7.411   9.737 -19.960  1.00  0.00    -0.001 C 
HETATM    4  C12 UNL     1      -6.137  10.303 -20.530  1.00  0.00     0.043 C 
HETATM    5  C13 UNL     1      -5.057   9.248 -20.400  1.00  0.00     0.064 C 
HETATM    6  C14 UNL     1      -4.404   8.817 -21.637  1.00  0.00     0.047 C 
HETATM    7  C15 UNL     1      -5.798   8.214 -19.586  1.00  0.00     0.014 C 
HETATM    8  C16 UNL     1      -5.147   6.908 -19.478  1.00  0.00     0.021 C 
HETATM    9  C17 UNL     1      -7.159   8.230 -20.203  1.00  0.00    -0.032 C 
HETATM   10  C18 UNL     1      -8.204   7.395 -19.577  1.00  0.00     0.016 C 
HETATM   11  C19 UNL     1      -7.222   7.987 -21.688  1.00  0.00     0.016 C 
ENDROOT
BRANCH   1  12
HETATM   12  N2  UNL     1      -5.931   8.151 -17.098  1.00  0.00    -0.353 N 
HETATM   13  C8  UNL     1      -5.474   8.726 -15.883  1.00  0.00     0.246 C 
HETATM   14  O2  UNL     1      -5.163   9.949 -15.884  1.00  0.00    -0.271 OA
ATOM     15  H2  UNL     1      -6.191   7.165 -17.126  1.00  0.00     0.163 HD
BRANCH  13  16
HETATM   16  C6  UNL     1      -5.357   7.914 -14.613  1.00  0.00     0.209 C 
HETATM   17  C7  UNL     1      -6.741   7.679 -14.033  1.00  0.00     0.049 C 
BRANCH  16  18
HETATM   18  O1  UNL     1      -4.701   6.766 -14.921  1.00  0.00    -0.375 OA
BRANCH  18  19
HETATM   19  C5  UNL     1      -3.337   6.893 -15.214  1.00  0.00     0.199 C 
BRANCH  19  20
HETATM   20  C4  UNL     1      -3.029   6.117 -16.416  1.00  0.00     0.298 C 
BRANCH  20  21
HETATM   21  N1  UNL     1      -2.200   6.636 -17.438  1.00  0.00     0.085 N 
HETATM   22  C3  UNL     1      -2.147   8.116 -17.231  1.00  0.00     0.310 C 
BRANCH  21  23
HETATM   23  C2  UNL     1      -0.864   6.207 -17.559  1.00  0.00     0.267 C 
HETATM   24  C1  UNL     1      -0.692   5.125 -18.562  1.00  0.00     0.037 C 
ENDBRANCH  21  23
ENDBRANCH  20  21
ENDBRANCH  19  20
ENDBRANCH  18  19
ENDBRANCH  16  18
ENDBRANCH  13  16
ENDBRANCH   1  12
BRANCH   5  25
HETATM   25  O3  UNL     1      -4.033   9.863 -19.628  1.00  0.00    -0.389 OA
ATOM     26  H3  UNL     1      -3.418  10.208 -20.265  1.00  0.00     0.210 HD
ENDBRANCH   5  25
TORSDOF 8
ENDMDL
MODEL 5
REMARK VINA RESULT: -6.929277233      2.749      4.542
REMARK  8 active torsions:
REMARK  status: ('A' for Active; 'I' for Inactive)
REMARK    1  A    between atoms: C2_2  and  N1_3 
REMARK    2  A    between atoms: N1_3  and  C4_5 
REMARK    3  A    between atoms: C4_5  and  C5_6 
REMARK    4  A    between atoms: C5_6  and  O1_7 
REMARK    5  A    between atoms: O1_7  and  C6_8 
REMARK    6  A    between atoms: C6_8  and  C8_10 
REMARK       I    between atoms: C8_10  and  N2_12 
REMARK    7  A    between atoms: N2_12  and  C9_14 
REMARK    8  A    between atoms: C13_18  and  O3_20 
ROOT
HETATM    1  C9  UNL     1      -4.515   8.742 -18.587  1.00  0.00     0.096 C 
HETATM    2  C10 UNL     1      -3.646   7.609 -18.025  1.00  0.00     0.031 C 
HETATM    3  C11 UNL     1      -2.911   8.361 -16.937  1.00  0.00    -0.001 C 
HETATM    4  C12 UNL     1      -2.283   9.628 -17.459  1.00  0.00     0.043 C 
HETATM    5  C13 UNL     1      -3.391  10.633 -17.702  1.00  0.00     0.064 C 
HETATM    6  C14 UNL     1      -3.298  11.904 -16.984  1.00  0.00     0.047 C 
HETATM    7  C15 UNL     1      -4.598   9.759 -17.453  1.00  0.00     0.014 C 
HETATM    8  C16 UNL     1      -5.876  10.461 -17.341  1.00  0.00     0.021 C 
HETATM    9  C17 UNL     1      -4.174   8.953 -16.267  1.00  0.00    -0.032 C 
HETATM   10  C18 UNL     1      -5.089   7.893 -15.798  1.00  0.00     0.016 C 
HETATM   11  C19 UNL     1      -3.731   9.731 -15.055  1.00  0.00     0.016 C 
ENDROOT
BRANCH   1  12
HETATM   12  N2  UNL     1      -5.735   8.337 -19.155  1.00  0.00    -0.353 N 
HETATM   13  C8  UNL     1      -6.144   8.848 -20.415  1.00  0.00     0.246 C 
HETATM   14  O2  UNL     1      -5.384   9.666 -21.000  1.00  0.00    -0.271 OA
ATOM     15  H2  UNL     1      -6.330   7.672 -18.660  1.00  0.00     0.163 HD
BRANCH  13  16
HETATM   16  C6  UNL     1      -7.450   8.434 -21.055  1.00  0.00     0.209 C 
HETATM   17  C7  UNL     1      -8.500   9.502 -20.800  1.00  0.00     0.049 C 
BRANCH  16  18
HETATM   18  O1  UNL     1      -7.209   8.222 -22.375  1.00  0.00    -0.375 OA
BRANCH  18  19
HETATM   19  C5  UNL     1      -6.973   6.894 -22.754  1.00  0.00     0.199 C 
BRANCH  19  20
HETATM   20  C4  UNL     1      -5.660   6.803 -23.394  1.00  0.00     0.298 C 
BRANCH  20  21
HETATM   21  N1  UNL     1      -4.620   6.021 -22.837  1.00  0.00     0.085 N 
HETATM   22  C3  UNL     1      -3.508   6.020 -23.836  1.00  0.00     0.310 C 
BRANCH  21  23
HETATM   23  C2  UNL     1      -4.042   6.380 -21.604  1.00  0.00     0.267 C 
HETATM   24  C1  UNL     1      -3.226   5.291 -21.008  1.00  0.00     0.037 C 
ENDBRANCH  21  23
ENDBRANCH  20  21
ENDBRANCH  19  20
ENDBRANCH  18  19
ENDBRANCH  16  18
ENDBRANCH  13  16
ENDBRANCH   1  12
BRANCH   5  25
HETATM   25  O3  UNL     1      -3.286  10.970 -19.081  1.00  0.00    -0.389 OA
ATOM     26  H3  UNL     1      -4.150  11.284 -19.324  1.00  0.00     0.210 HD
ENDBRANCH   5  25
TORSDOF 8
ENDMDL
