MODEL 1
REMARK VINA RESULT: -7.401886020      0.000      0.000
REMARK  10 active torsions:
REMARK  status: ('A' for Active; 'I' for Inactive)
REMARK    1  A    between atoms: N4_14  and  C7_15 
REMARK    2  A    between atoms: C7_15  and  C8_16 
REMARK    3  A    between atoms: C8_16  and  N5_17 
REMARK    4  A    between atoms: N5_17  and  C9_18 
REMARK    5  A    between atoms: N5_17  and  C15_24 
REMARK    6  A    between atoms: C9_18  and  C10_19 
REMARK    7  A    between atoms: C11_20  and  C12_21 
REMARK    8  A    between atoms: C12_21  and  C13_22 
REMARK    9  A    between atoms: C15_24  and  C16_25 
REMARK   10  A    between atoms: C16_25  and  C17_26 
ROOT
HETATM    1  C1  UNL     1      -4.214  12.207 -14.534  1.00  0.00     0.045 C 
HETATM    2  C2  UNL     1      -3.743  11.557 -15.571  1.00  0.00     0.057 A 
HETATM    3  N1  UNL     1      -3.339  12.232 -16.750  1.00  0.00    -0.307 N 
ATOM      4  H1  UNL     1      -3.409  13.248 -16.808  1.00  0.00     0.170 HD
HETATM    5  C3  UNL     1      -2.835  11.481 -17.859  1.00  0.00     0.326 A 
HETATM    6  O1  UNL     1      -2.476  12.098 -18.906  1.00  0.00    -0.247 OA
HETATM    7  N2  UNL     1      -2.722  10.071 -17.819  1.00  0.00    -0.292 N 
ATOM      8  H2  UNL     1      -2.359   9.551 -18.618  1.00  0.00     0.172 HD
HETATM    9  C4  UNL     1      -3.130   9.396 -16.629  1.00  0.00     0.142 A 
HETATM   10  C5  UNL     1      -3.615  10.094 -15.559  1.00  0.00     0.104 A 
HETATM   11  N3  UNL     1      -3.924   9.223 -14.578  1.00  0.00    -0.347 N 
ATOM     12  H3  UNL     1      -4.306   9.450 -13.659  1.00  0.00     0.167 HD
HETATM   13  C6  UNL     1      -3.630   7.995 -15.046  1.00  0.00     0.185 A 
HETATM   14  N4  UNL     1      -3.147   8.089 -16.290  1.00  0.00    -0.326 N 
ENDROOT
BRANCH  14  15
HETATM   15  C7  UNL     1      -2.704   6.979 -17.148  1.00  0.00     0.161 C 
BRANCH  15  16
HETATM   16  C8  UNL     1      -3.925   6.173 -17.449  1.00  0.00     0.293 C 
BRANCH  16  17
HETATM   17  N5  UNL     1      -4.444   6.394 -18.762  1.00  0.00     0.100 N 
BRANCH  17  18
HETATM   18  C9  UNL     1      -3.360   6.417 -19.735  1.00  0.00     0.365 C 
BRANCH  18  19
HETATM   19  C10 UNL     1      -3.982   6.450 -21.060  1.00  0.00    -0.076 C 
HETATM   20  C11 UNL     1      -4.518   6.479 -22.137  1.00  0.00    -0.105 C 
BRANCH  20  21
HETATM   21  C12 UNL     1      -5.204   6.511 -23.446  1.00  0.00     0.093 C 
BRANCH  21  22
HETATM   22  C13 UNL     1      -6.721   6.499 -23.207  1.00  0.00     0.007 C 
HETATM   23  C14 UNL     1      -7.397   7.524 -24.075  1.00  0.00     0.006 C 
ENDBRANCH  21  22
ENDBRANCH  20  21
ENDBRANCH  18  19
ENDBRANCH  17  18
BRANCH  17  24
HETATM   24  C15 UNL     1      -5.318   7.515 -18.910  1.00  0.00     0.274 C 
BRANCH  24  25
HETATM   25  C16 UNL     1      -6.788   7.190 -18.778  1.00  0.00     0.034 C 
BRANCH  25  26
HETATM   26  C17 UNL     1      -7.458   7.814 -19.997  1.00  0.00    -0.021 C 
HETATM   27  C18 UNL     1      -6.724   9.023 -20.500  1.00  0.00     0.009 C 
HETATM   28  C19 UNL     1      -8.859   8.287 -19.596  1.00  0.00     0.009 C 
ENDBRANCH  25  26
ENDBRANCH  24  25
ENDBRANCH  17  24
ENDBRANCH  16  17
ENDBRANCH  15  16
ENDBRANCH  14  15
TORSDOF 10
ENDMDL
MODEL 2
REMARK VINA RESULT: -7.318522470      2.098      3.853
REMARK  10 active torsions:
REMARK  status: ('A' for Active; 'I' for Inactive)
REMARK    1  A    between atoms: N4_14  and  C7_15 
REMARK    2  A    between atoms: C7_15  and  C8_16 
REMARK    3  A    between atoms: C8_16  and  N5_17 
REMARK    4  A    between atoms: N5_17  and  C9_18 
REMARK    5  A    between atoms: N5_17  and  C15_24 
REMARK    6  A    between atoms: C9_18  and  C10_19 
REMARK    7  A    between atoms: C11_20  and  C12_21 
REMARK    8  A    between atoms: C12_21  and  C13_22 
REMARK    9  A    between atoms: C15_24  and  C16_25 
REMARK   10  A    between atoms: C16_25  and  C17_26 
ROOT
HETATM    1  C1  UNL     1      -2.500  12.460 -18.396  1.00  0.00     0.045 C 
HETATM    2  C2  UNL     1      -3.548  11.676 -18.308  1.00  0.00     0.057 A 
HETATM    3  N1  UNL     1      -4.559  11.674 -19.301  1.00  0.00    -0.307 N 
ATOM      4  H1  UNL     1      -4.482  12.289 -20.112  1.00  0.00     0.170 HD
HETATM    5  C3  UNL     1      -5.687  10.805 -19.161  1.00  0.00     0.326 A 
HETATM    6  O1  UNL     1      -6.583  10.812 -20.058  1.00  0.00    -0.247 OA
HETATM    7  N2  UNL     1      -5.830   9.937 -18.053  1.00  0.00    -0.292 N 
ATOM      8  H2  UNL     1      -6.641   9.323 -17.969  1.00  0.00     0.172 HD
HETATM    9  C4  UNL     1      -4.810   9.944 -17.055  1.00  0.00     0.142 A 
HETATM   10  C5  UNL     1      -3.724  10.766 -17.169  1.00  0.00     0.104 A 
HETATM   11  N3  UNL     1      -2.923  10.576 -16.102  1.00  0.00    -0.347 N 
ATOM     12  H3  UNL     1      -2.039  11.048 -15.912  1.00  0.00     0.167 HD
HETATM   13  C6  UNL     1      -3.516   9.641 -15.336  1.00  0.00     0.185 A 
HETATM   14  N4  UNL     1      -4.663   9.250 -15.905  1.00  0.00    -0.326 N 
ENDROOT
BRANCH  14  15
HETATM   15  C7  UNL     1      -5.602   8.244 -15.389  1.00  0.00     0.161 C 
BRANCH  15  16
HETATM   16  C8  UNL     1      -4.899   6.930 -15.483  1.00  0.00     0.293 C 
BRANCH  16  17
HETATM   17  N5  UNL     1      -4.319   6.684 -16.766  1.00  0.00     0.100 N 
BRANCH  17  18
HETATM   18  C9  UNL     1      -5.275   6.002 -17.629  1.00  0.00     0.365 C 
BRANCH  18  19
HETATM   19  C10 UNL     1      -5.153   6.605 -18.956  1.00  0.00    -0.076 C 
HETATM   20  C11 UNL     1      -5.025   7.106 -20.043  1.00  0.00    -0.105 C 
BRANCH  20  21
HETATM   21  C12 UNL     1      -4.840   7.734 -21.368  1.00  0.00     0.093 C 
BRANCH  21  22
HETATM   22  C13 UNL     1      -4.719   6.627 -22.425  1.00  0.00     0.007 C 
HETATM   23  C14 UNL     1      -3.272   6.346 -22.725  1.00  0.00     0.006 C 
ENDBRANCH  21  22
ENDBRANCH  20  21
ENDBRANCH  18  19
ENDBRANCH  17  18
BRANCH  17  24
HETATM   24  C15 UNL     1      -3.045   6.035 -16.765  1.00  0.00     0.274 C 
BRANCH  24  25
HETATM   25  C16 UNL     1      -1.918   6.859 -17.345  1.00  0.00     0.034 C 
BRANCH  25  26
HETATM   26  C17 UNL     1      -1.001   5.863 -18.048  1.00  0.00    -0.021 C 
HETATM   27  C18 UNL     1       0.300   6.480 -18.469  1.00  0.00     0.009 C 
HETATM   28  C19 UNL     1      -1.693   5.382 -19.327  1.00  0.00     0.009 C 
ENDBRANCH  25  26
ENDBRANCH  24  25
ENDBRANCH  17  24
ENDBRANCH  16  17
ENDBRANCH  15  16
ENDBRANCH  14  15
TORSDOF 10
ENDMDL
MODEL 3
REMARK VINA RESULT: -7.252728548      2.416      4.970
REMARK  10 active torsions:
REMARK  status: ('A' for Active; 'I' for Inactive)
REMARK    1  A    between atoms: N4_14  and  C7_15 
REMARK    2  A    between atoms: C7_15  and  C8_16 
REMARK    3  A    between atoms: C8_16  and  N5_17 
REMARK    4  A    between atoms: N5_17  and  C9_18 
REMARK    5  A    between atoms: N5_17  and  C15_24 
REMARK    6  A    between atoms: C9_18  and  C10_19 
REMARK    7  A    between atoms: C11_20  and  C12_21 
REMARK    8  A    between atoms: C12_21  and  C13_22 
REMARK    9  A    between atoms: C15_24  and  C16_25 
REMARK   10  A    between atoms: C16_25  and  C17_26 
ROOT
HETATM    1  C1  UNL     1      -3.880   7.709 -13.689  1.00  0.00     0.045 C 
HETATM    2  C2  UNL     1      -3.864   7.502 -14.984  1.00  0.00     0.057 A 
HETATM    3  N1  UNL     1      -3.500   6.245 -15.530  1.00  0.00    -0.307 N 
ATOM      4  H1  UNL     1      -3.245   5.473 -14.914  1.00  0.00     0.170 HD
HETATM    5  C3  UNL     1      -3.493   6.066 -16.950  1.00  0.00     0.326 A 
HETATM    6  O1  UNL     1      -3.167   4.937 -17.425  1.00  0.00    -0.247 OA
HETATM    7  N2  UNL     1      -3.840   7.112 -17.838  1.00  0.00    -0.292 N 
ATOM      8  H2  UNL     1      -3.830   6.967 -18.848  1.00  0.00     0.172 HD
HETATM    9  C4  UNL     1      -4.205   8.375 -17.283  1.00  0.00     0.142 A 
HETATM   10  C5  UNL     1      -4.218   8.568 -15.930  1.00  0.00     0.104 A 
HETATM   11  N3  UNL     1      -4.595   9.837 -15.676  1.00  0.00    -0.347 N 
ATOM     12  H3  UNL     1      -4.697  10.271 -14.759  1.00  0.00     0.167 HD
HETATM   13  C6  UNL     1      -4.809  10.421 -16.871  1.00  0.00     0.185 A 
HETATM   14  N4  UNL     1      -4.576   9.542 -17.853  1.00  0.00    -0.326 N 
ENDROOT
BRANCH  14  15
HETATM   15  C7  UNL     1      -4.701   9.784 -19.298  1.00  0.00     0.161 C 
BRANCH  15  16
HETATM   16  C8  UNL     1      -6.121  10.183 -19.532  1.00  0.00     0.293 C 
BRANCH  16  17
HETATM   17  N5  UNL     1      -6.800   9.351 -20.473  1.00  0.00     0.100 N 
BRANCH  17  18
HETATM   18  C9  UNL     1      -8.156   9.074 -20.016  1.00  0.00     0.365 C 
BRANCH  18  19
HETATM   19  C10 UNL     1      -8.045   8.557 -18.652  1.00  0.00    -0.076 C 
HETATM   20  C11 UNL     1      -7.928   8.142 -17.528  1.00  0.00    -0.105 C 
BRANCH  20  21
HETATM   21  C12 UNL     1      -7.754   7.638 -16.150  1.00  0.00     0.093 C 
BRANCH  21  22
HETATM   22  C13 UNL     1      -7.269   6.183 -16.215  1.00  0.00     0.007 C 
HETATM   23  C14 UNL     1      -7.051   5.639 -14.830  1.00  0.00     0.006 C 
ENDBRANCH  21  22
ENDBRANCH  20  21
ENDBRANCH  18  19
ENDBRANCH  17  18
BRANCH  17  24
HETATM   24  C15 UNL     1      -6.116   8.158 -20.864  1.00  0.00     0.274 C 
BRANCH  24  25
HETATM   25  C16 UNL     1      -6.938   7.209 -21.706  1.00  0.00     0.034 C 
BRANCH  25  26
HETATM   26  C17 UNL     1      -6.541   7.494 -23.151  1.00  0.00    -0.021 C 
HETATM   27  C18 UNL     1      -7.648   7.196 -24.120  1.00  0.00     0.009 C 
HETATM   28  C19 UNL     1      -5.372   6.578 -23.526  1.00  0.00     0.009 C 
ENDBRANCH  25  26
ENDBRANCH  24  25
ENDBRANCH  17  24
ENDBRANCH  16  17
ENDBRANCH  15  16
ENDBRANCH  14  15
TORSDOF 10
ENDMDL
MODEL 4
REMARK VINA RESULT: -7.207370152      1.025      2.918
REMARK  10 active torsions:
REMARK  status: ('A' for Active; 'I' for Inactive)
REMARK    1  A    between atoms: N4_14  and  C7_15 
REMARK    2  A    between atoms: C7_15  and  C8_16 
REMARK    3  A    between atoms: C8_16  and  N5_17 
REMARK    4  A    between atoms: N5_17  and  C9_18 
REMARK    5  A    between atoms: N5_17  and  C15_24 
REMARK    6  A    between atoms: C9_18  and  C10_19 
REMARK    7  A    between atoms: C11_20  and  C12_21 
REMARK    8  A    between atoms: C12_21  and  C13_22 
REMARK    9  A    between atoms: C15_24  and  C16_25 
REMARK   10  A    between atoms: C16_25  and  C17_26 
ROOT
HETATM    1  C1  UNL     1      -4.407  12.437 -14.663  1.00  0.00     0.045 C 
HETATM    2  C2  UNL     1      -3.872  11.702 -15.608  1.00  0.00     0.057 A 
HETATM    3  N1  UNL     1      -3.435  12.270 -16.831  1.00  0.00    -0.307 N 
ATOM      4  H1  UNL     1      -3.530  13.272 -16.994  1.00  0.00     0.170 HD
HETATM    5  C3  UNL     1      -2.861  11.428 -17.837  1.00  0.00     0.326 A 
HETATM    6  O1  UNL     1      -2.474  11.949 -18.925  1.00  0.00    -0.247 OA
HETATM    7  N2  UNL     1      -2.712  10.034 -17.650  1.00  0.00    -0.292 N 
ATOM      8  H2  UNL     1      -2.300   9.448 -18.377  1.00  0.00     0.172 HD
HETATM    9  C4  UNL     1      -3.154   9.468 -16.417  1.00  0.00     0.142 A 
HETATM   10  C5  UNL     1      -3.705  10.252 -15.443  1.00  0.00     0.104 A 
HETATM   11  N3  UNL     1      -4.033   9.474 -14.393  1.00  0.00    -0.347 N 
ATOM     12  H3  UNL     1      -4.461   9.779 -13.519  1.00  0.00     0.167 HD
HETATM   13  C6  UNL     1      -3.685   8.216 -14.723  1.00  0.00     0.185 A 
HETATM   14  N4  UNL     1      -3.150   8.200 -15.949  1.00  0.00    -0.326 N 
ENDROOT
BRANCH  14  15
HETATM   15  C7  UNL     1      -2.640   7.025 -16.671  1.00  0.00     0.161 C 
BRANCH  15  16
HETATM   16  C8  UNL     1      -3.767   6.047 -16.725  1.00  0.00     0.293 C 
BRANCH  16  17
HETATM   17  N5  UNL     1      -4.734   6.346 -17.734  1.00  0.00     0.100 N 
BRANCH  17  18
HETATM   18  C9  UNL     1      -6.075   6.041 -17.253  1.00  0.00     0.365 C 
BRANCH  18  19
HETATM   19  C10 UNL     1      -7.008   6.784 -18.101  1.00  0.00    -0.076 C 
HETATM   20  C11 UNL     1      -7.754   7.410 -18.808  1.00  0.00    -0.105 C 
BRANCH  20  21
HETATM   21  C12 UNL     1      -8.647   8.199 -19.683  1.00  0.00     0.093 C 
BRANCH  21  22
HETATM   22  C13 UNL     1      -7.828   8.737 -20.865  1.00  0.00     0.007 C 
HETATM   23  C14 UNL     1      -7.251   7.602 -21.665  1.00  0.00     0.006 C 
ENDBRANCH  21  22
ENDBRANCH  20  21
ENDBRANCH  18  19
ENDBRANCH  17  18
BRANCH  17  24
HETATM   24  C15 UNL     1      -4.490   5.781 -19.024  1.00  0.00     0.274 C 
BRANCH  24  25
HETATM   25  C16 UNL     1      -3.992   6.766 -20.058  1.00  0.00     0.034 C 
BRANCH  25  26
HETATM   26  C17 UNL     1      -3.153   5.947 -21.034  1.00  0.00    -0.021 C 
HETATM   27  C18 UNL     1      -3.883   5.651 -22.312  1.00  0.00     0.009 C 
HETATM   28  C19 UNL     1      -2.834   4.595 -20.389  1.00  0.00     0.009 C 
ENDBRANCH  25  26
ENDBRANCH  24  25
ENDBRANCH  17  24
ENDBRANCH  16  17
ENDBRANCH  15  16
ENDBRANCH  14  15
TORSDOF 10
ENDMDL
MODEL 5
REMARK VINA RESULT: -7.192624189      1.842      3.363
REMARK  10 active torsions:
REMARK  status: ('A' for Active; 'I' for Inactive)
REMARK    1  A    between atoms: N4_14  and  C7_15 
REMARK    2  A    between atoms: C7_15  and  C8_16 
REMARK    3  A    between atoms: C8_16  and  N5_17 
REMARK    4  A    between atoms: N5_17  and  C9_18 
REMARK    5  A    between atoms: N5_17  and  C15_24 
REMARK    6  A    between atoms: C9_18  and  C10_19 
REMARK    7  A    between atoms: C11_20  and  C12_21 
REMARK    8  A    between atoms: C12_21  and  C13_22 
REMARK    9  A    between atoms: C15_24  and  C16_25 
REMARK   10  A    between atoms: C16_25  and  C17_26 
ROOT
HETATM    1  C1  UNL     1      -2.850  12.525 -14.521  1.00  0.00     0.045 C 
HETATM    2  C2  UNL     1      -3.251  11.791 -15.530  1.00  0.00     0.057 A 
HETATM    3  N1  UNL     1      -3.075  12.214 -16.872  1.00  0.00    -0.307 N 
ATOM      4  H1  UNL     1      -2.625  13.107 -17.073  1.00  0.00     0.170 HD
HETATM    5  C3  UNL     1      -3.533  11.381 -17.943  1.00  0.00     0.326 A 
HETATM    6  O1  UNL     1      -3.368  11.771 -19.137  1.00  0.00    -0.247 OA
HETATM    7  N2  UNL     1      -4.161  10.136 -17.706  1.00  0.00    -0.292 N 
ATOM      8  H2  UNL     1      -4.481   9.554 -18.481  1.00  0.00     0.172 HD
HETATM    9  C4  UNL     1      -4.336   9.715 -16.354  1.00  0.00     0.142 A 
HETATM   10  C5  UNL     1      -3.907  10.495 -15.316  1.00  0.00     0.104 A 
HETATM   11  N3  UNL     1      -4.193   9.870 -14.157  1.00  0.00    -0.347 N 
ATOM     12  H3  UNL     1      -3.991  10.208 -13.216  1.00  0.00     0.167 HD
HETATM   13  C6  UNL     1      -4.797   8.711 -14.483  1.00  0.00     0.185 A 
HETATM   14  N4  UNL     1      -4.889   8.607 -15.814  1.00  0.00    -0.326 N 
ENDROOT
BRANCH  14  15
HETATM   15  C7  UNL     1      -5.477   7.491 -16.570  1.00  0.00     0.161 C 
BRANCH  15  16
HETATM   16  C8  UNL     1      -4.368   6.519 -16.808  1.00  0.00     0.293 C 
BRANCH  16  17
HETATM   17  N5  UNL     1      -3.769   6.642 -18.099  1.00  0.00     0.100 N 
BRANCH  17  18
HETATM   18  C9  UNL     1      -4.032   5.448 -18.893  1.00  0.00     0.365 C 
BRANCH  18  19
HETATM   19  C10 UNL     1      -3.752   5.795 -20.287  1.00  0.00    -0.076 C 
HETATM   20  C11 UNL     1      -3.550   6.080 -21.438  1.00  0.00    -0.105 C 
BRANCH  20  21
HETATM   21  C12 UNL     1      -3.330   6.420 -22.860  1.00  0.00     0.093 C 
BRANCH  21  22
HETATM   22  C13 UNL     1      -4.614   6.111 -23.644  1.00  0.00     0.007 C 
HETATM   23  C14 UNL     1      -5.739   6.992 -23.176  1.00  0.00     0.006 C 
ENDBRANCH  21  22
ENDBRANCH  20  21
ENDBRANCH  18  19
ENDBRANCH  17  18
BRANCH  17  24
HETATM   24  C15 UNL     1      -2.385   6.999 -18.118  1.00  0.00     0.274 C 
BRANCH  24  25
HETATM   25  C16 UNL     1      -1.553   6.352 -17.034  1.00  0.00     0.034 C 
BRANCH  25  26
HETATM   26  C17 UNL     1      -0.253   5.932 -17.711  1.00  0.00    -0.021 C 
HETATM   27  C18 UNL     1       0.343   7.031 -18.542  1.00  0.00     0.009 C 
HETATM   28  C19 UNL     1      -0.552   4.773 -18.667  1.00  0.00     0.009 C 
ENDBRANCH  25  26
ENDBRANCH  24  25
ENDBRANCH  17  24
ENDBRANCH  16  17
ENDBRANCH  15  16
ENDBRANCH  14  15
TORSDOF 10
ENDMDL
