MODEL 1
REMARK VINA RESULT: -8.095657241      0.000      0.000
REMARK  8 active torsions:
REMARK  status: ('A' for Active; 'I' for Inactive)
REMARK    1  A    between atoms: C2_2  and  C4_4 
REMARK    2  A    between atoms: C4_4  and  N1_5 
REMARK    3  A    between atoms: C4_4  and  C13_19 
REMARK       I    between atoms: N1_5  and  C5_7 
REMARK    4  A    between atoms: C5_7  and  C6_9 
REMARK    5  A    between atoms: C8_11  and  C9_12 
REMARK    6  A    between atoms: C9_12  and  C10_13 
REMARK       I    between atoms: C13_19  and  N3_21 
REMARK    7  A    between atoms: N3_21  and  C14_23 
REMARK    8  A    between atoms: C14_23  and  C15_24 
ROOT
HETATM    1  C4  UNL     1      -5.405   7.453 -15.372  1.00  0.00     0.180 C 
ENDROOT
BRANCH   1   2
HETATM    2  C2  UNL     1      -6.059   6.610 -14.323  1.00  0.00     0.009 C 
HETATM    3  C1  UNL     1      -6.975   5.564 -14.832  1.00  0.00     0.012 C 
HETATM    4  C3  UNL     1      -6.742   7.546 -13.334  1.00  0.00     0.012 C 
ENDBRANCH   1   2
BRANCH   1   5
HETATM    5  N1  UNL     1      -6.120   7.497 -16.619  1.00  0.00    -0.342 N 
HETATM    6  C5  UNL     1      -6.745   8.600 -17.187  1.00  0.00     0.278 C 
HETATM    7  O1  UNL     1      -6.728   9.705 -16.617  1.00  0.00    -0.265 OA
ATOM      8  H1  UNL     1      -6.174   6.624 -17.143  1.00  0.00     0.163 HD
BRANCH   6   9
HETATM    9  C6  UNL     1      -7.427   8.490 -18.453  1.00  0.00     0.168 A 
HETATM   10  C7  UNL     1      -6.810   8.476 -19.710  1.00  0.00     0.072 A 
HETATM   11  C8  UNL     1      -7.799   8.358 -20.685  1.00  0.00     0.036 A 
HETATM   12  N2  UNL     1      -8.943   8.306 -19.981  1.00  0.00    -0.265 N 
HETATM   13  O2  UNL     1      -8.709   8.383 -18.714  1.00  0.00    -0.232 OA
ATOM     14  H2  UNL     1      -9.872   8.218 -20.394  1.00  0.00     0.194 HD
BRANCH  11  15
HETATM   15  C9  UNL     1      -7.579   8.305 -22.146  1.00  0.00     0.064 C 
BRANCH  15  16
HETATM   16  C10 UNL     1      -7.008   6.978 -22.550  1.00  0.00    -0.009 A 
HETATM   17  C11 UNL     1      -5.524   6.939 -22.684  1.00  0.00     0.005 A 
HETATM   18  C12 UNL     1      -6.403   6.850 -23.903  1.00  0.00     0.005 A 
ENDBRANCH  15  16
ENDBRANCH  11  15
ENDBRANCH   6   9
ENDBRANCH   1   5
BRANCH   1  19
HETATM   19  C13 UNL     1      -4.001   7.146 -15.605  1.00  0.00     0.244 C 
HETATM   20  O3  UNL     1      -3.296   6.709 -14.664  1.00  0.00    -0.271 OA
HETATM   21  N3  UNL     1      -3.332   7.308 -16.875  1.00  0.00    -0.339 N 
ATOM     22  H3  UNL     1      -3.864   7.661 -17.670  1.00  0.00     0.167 HD
BRANCH  21  23
HETATM   23  C14 UNL     1      -1.971   6.997 -17.052  1.00  0.00     0.069 C 
BRANCH  23  24
HETATM   24  C15 UNL     1      -1.492   5.814 -17.724  1.00  0.00     0.033 A 
HETATM   25  C16 UNL     1      -0.526   5.807 -18.847  1.00  0.00     0.020 A 
HETATM   26  C17 UNL     1      -1.927   5.294 -19.044  1.00  0.00    -0.039 A 
HETATM   27  C18 UNL     1      -2.727   5.986 -20.068  1.00  0.00     0.015 C 
HETATM   28  C19 UNL     1      -2.106   3.762 -19.079  1.00  0.00     0.015 C 
ENDBRANCH  23  24
ENDBRANCH  21  23
ENDBRANCH   1  19
TORSDOF 8
ENDMDL
MODEL 2
REMARK VINA RESULT: -7.859871005      2.618      6.251
REMARK  8 active torsions:
REMARK  status: ('A' for Active; 'I' for Inactive)
REMARK    1  A    between atoms: C2_2  and  C4_4 
REMARK    2  A    between atoms: C4_4  and  N1_5 
REMARK    3  A    between atoms: C4_4  and  C13_19 
REMARK       I    between atoms: N1_5  and  C5_7 
REMARK    4  A    between atoms: C5_7  and  C6_9 
REMARK    5  A    between atoms: C8_11  and  C9_12 
REMARK    6  A    between atoms: C9_12  and  C10_13 
REMARK       I    between atoms: C13_19  and  N3_21 
REMARK    7  A    between atoms: N3_21  and  C14_23 
REMARK    8  A    between atoms: C14_23  and  C15_24 
ROOT
HETATM    1  C4  UNL     1      -4.769  10.965 -16.512  1.00  0.00     0.180 C 
ENDROOT
BRANCH   1   2
HETATM    2  C2  UNL     1      -4.332  12.307 -16.014  1.00  0.00     0.009 C 
HETATM    3  C1  UNL     1      -3.073  12.821 -16.599  1.00  0.00     0.012 C 
HETATM    4  C3  UNL     1      -4.280  12.243 -14.493  1.00  0.00     0.012 C 
ENDBRANCH   1   2
BRANCH   1   5
HETATM    5  N1  UNL     1      -3.691  10.129 -16.966  1.00  0.00    -0.342 N 
HETATM    6  C5  UNL     1      -3.121   9.058 -16.289  1.00  0.00     0.278 C 
HETATM    7  O1  UNL     1      -3.532   8.723 -15.165  1.00  0.00    -0.265 OA
ATOM      8  H1  UNL     1      -3.302  10.345 -17.883  1.00  0.00     0.163 HD
BRANCH   6   9
HETATM    9  C6  UNL     1      -2.037   8.307 -16.876  1.00  0.00     0.168 A 
HETATM   10  C7  UNL     1      -2.127   6.997 -17.362  1.00  0.00     0.072 A 
HETATM   11  C8  UNL     1      -0.876   6.621 -17.848  1.00  0.00     0.036 A 
HETATM   12  N2  UNL     1      -0.107   7.703 -17.636  1.00  0.00    -0.265 N 
HETATM   13  O2  UNL     1      -0.788   8.650 -17.082  1.00  0.00    -0.232 OA
ATOM     14  H2  UNL     1       0.881   7.767 -17.880  1.00  0.00     0.194 HD
BRANCH  11  15
HETATM   15  C9  UNL     1      -0.533   5.314 -18.450  1.00  0.00     0.064 C 
BRANCH  15  16
HETATM   16  C10 UNL     1      -1.774   4.557 -18.818  1.00  0.00    -0.009 A 
HETATM   17  C11 UNL     1      -1.681   3.755 -20.071  1.00  0.00     0.005 A 
HETATM   18  C12 UNL     1      -2.538   4.992 -20.018  1.00  0.00     0.005 A 
ENDBRANCH  15  16
ENDBRANCH  11  15
ENDBRANCH   6   9
ENDBRANCH   1   5
BRANCH   1  19
HETATM   19  C13 UNL     1      -5.830  11.007 -17.508  1.00  0.00     0.244 C 
HETATM   20  O3  UNL     1      -6.733  11.872 -17.418  1.00  0.00    -0.271 OA
HETATM   21  N3  UNL     1      -5.929  10.102 -18.630  1.00  0.00    -0.339 N 
ATOM     22  H3  UNL     1      -5.217   9.381 -18.745  1.00  0.00     0.167 HD
BRANCH  21  23
HETATM   23  C14 UNL     1      -6.975  10.181 -19.569  1.00  0.00     0.069 C 
BRANCH  23  24
HETATM   24  C15 UNL     1      -7.525   9.045 -20.265  1.00  0.00     0.033 A 
HETATM   25  C16 UNL     1      -7.764   7.713 -19.663  1.00  0.00     0.020 A 
HETATM   26  C17 UNL     1      -6.786   7.872 -20.795  1.00  0.00    -0.039 A 
HETATM   27  C18 UNL     1      -5.397   7.474 -20.506  1.00  0.00     0.015 C 
HETATM   28  C19 UNL     1      -7.259   7.418 -22.191  1.00  0.00     0.015 C 
ENDBRANCH  23  24
ENDBRANCH  21  23
ENDBRANCH   1  19
TORSDOF 8
ENDMDL
MODEL 3
REMARK VINA RESULT: -7.825737373      2.439      5.254
REMARK  8 active torsions:
REMARK  status: ('A' for Active; 'I' for Inactive)
REMARK    1  A    between atoms: C2_2  and  C4_4 
REMARK    2  A    between atoms: C4_4  and  N1_5 
REMARK    3  A    between atoms: C4_4  and  C13_19 
REMARK       I    between atoms: N1_5  and  C5_7 
REMARK    4  A    between atoms: C5_7  and  C6_9 
REMARK    5  A    between atoms: C8_11  and  C9_12 
REMARK    6  A    between atoms: C9_12  and  C10_13 
REMARK       I    between atoms: C13_19  and  N3_21 
REMARK    7  A    between atoms: N3_21  and  C14_23 
REMARK    8  A    between atoms: C14_23  and  C15_24 
ROOT
HETATM    1  C4  UNL     1      -2.271   6.110 -17.474  1.00  0.00     0.180 C 
ENDROOT
BRANCH   1   2
HETATM    2  C2  UNL     1      -0.934   6.767 -17.334  1.00  0.00     0.009 C 
HETATM    3  C1  UNL     1      -0.901   8.211 -17.658  1.00  0.00     0.012 C 
HETATM    4  C3  UNL     1       0.066   5.966 -18.159  1.00  0.00     0.012 C 
ENDBRANCH   1   2
BRANCH   1   5
HETATM    5  N1  UNL     1      -3.034   6.569 -18.603  1.00  0.00    -0.342 N 
HETATM    6  C5  UNL     1      -3.165   5.941 -19.836  1.00  0.00     0.278 C 
HETATM    7  O1  UNL     1      -2.591   4.863 -20.065  1.00  0.00    -0.265 OA
ATOM      8  H1  UNL     1      -3.533   7.450 -18.487  1.00  0.00     0.163 HD
BRANCH   6   9
HETATM    9  C6  UNL     1      -3.971   6.527 -20.880  1.00  0.00     0.168 A 
HETATM   10  C7  UNL     1      -5.281   6.997 -20.726  1.00  0.00     0.072 A 
HETATM   11  C8  UNL     1      -5.719   7.487 -21.956  1.00  0.00     0.036 A 
HETATM   12  N2  UNL     1      -4.672   7.292 -22.774  1.00  0.00    -0.265 N 
HETATM   13  O2  UNL     1      -3.688   6.745 -22.142  1.00  0.00    -0.232 OA
ATOM     14  H2  UNL     1      -4.656   7.543 -23.762  1.00  0.00     0.194 HD
BRANCH  11  15
HETATM   15  C9  UNL     1      -7.047   8.077 -22.234  1.00  0.00     0.064 C 
BRANCH  15  16
HETATM   16  C10 UNL     1      -7.753   8.422 -20.957  1.00  0.00    -0.009 A 
HETATM   17  C11 UNL     1      -8.770   9.506 -21.065  1.00  0.00     0.005 A 
HETATM   18  C12 UNL     1      -7.478   9.742 -20.330  1.00  0.00     0.005 A 
ENDBRANCH  15  16
ENDBRANCH  11  15
ENDBRANCH   6   9
ENDBRANCH   1   5
BRANCH   1  19
HETATM   19  C13 UNL     1      -3.086   6.137 -16.269  1.00  0.00     0.244 C 
HETATM   20  O3  UNL     1      -3.637   5.084 -15.867  1.00  0.00    -0.271 OA
HETATM   21  N3  UNL     1      -3.321   7.318 -15.470  1.00  0.00    -0.339 N 
ATOM     22  H3  UNL     1      -2.894   8.198 -15.758  1.00  0.00     0.167 HD
BRANCH  21  23
HETATM   23  C14 UNL     1      -4.118   7.295 -14.310  1.00  0.00     0.069 C 
BRANCH  23  24
HETATM   24  C15 UNL     1      -5.470   7.792 -14.247  1.00  0.00     0.033 A 
HETATM   25  C16 UNL     1      -6.468   7.413 -13.221  1.00  0.00     0.020 A 
HETATM   26  C17 UNL     1      -6.705   7.090 -14.672  1.00  0.00    -0.039 A 
HETATM   27  C18 UNL     1      -6.867   5.662 -14.995  1.00  0.00     0.015 C 
HETATM   28  C19 UNL     1      -7.703   7.990 -15.429  1.00  0.00     0.015 C 
ENDBRANCH  23  24
ENDBRANCH  21  23
ENDBRANCH   1  19
TORSDOF 8
ENDMDL
MODEL 4
REMARK VINA RESULT: -7.780350449      2.403      5.203
REMARK  8 active torsions:
REMARK  status: ('A' for Active; 'I' for Inactive)
REMARK    1  A    between atoms: C2_2  and  C4_4 
REMARK    2  A    between atoms: C4_4  and  N1_5 
REMARK    3  A    between atoms: C4_4  and  C13_19 
REMARK       I    between atoms: N1_5  and  C5_7 
REMARK    4  A    between atoms: C5_7  and  C6_9 
REMARK    5  A    between atoms: C8_11  and  C9_12 
REMARK    6  A    between atoms: C9_12  and  C10_13 
REMARK       I    between atoms: C13_19  and  N3_21 
REMARK    7  A    between atoms: N3_21  and  C14_23 
REMARK    8  A    between atoms: C14_23  and  C15_24 
ROOT
HETATM    1  C4  UNL     1      -2.235   6.029 -17.490  1.00  0.00     0.180 C 
ENDROOT
BRANCH   1   2
HETATM    2  C2  UNL     1      -0.854   6.567 -17.286  1.00  0.00     0.009 C 
HETATM    3  C1  UNL     1      -0.672   7.995 -17.632  1.00  0.00     0.012 C 
HETATM    4  C3  UNL     1       0.113   5.662 -18.040  1.00  0.00     0.012 C 
ENDBRANCH   1   2
BRANCH   1   5
HETATM    5  N1  UNL     1      -2.902   6.552 -18.652  1.00  0.00    -0.342 N 
HETATM    6  C5  UNL     1      -3.070   5.917 -19.876  1.00  0.00     0.278 C 
HETATM    7  O1  UNL     1      -2.625   4.772 -20.066  1.00  0.00    -0.265 OA
ATOM      8  H1  UNL     1      -3.293   7.489 -18.569  1.00  0.00     0.163 HD
BRANCH   6   9
HETATM    9  C6  UNL     1      -3.767   6.572 -20.957  1.00  0.00     0.168 A 
HETATM   10  C7  UNL     1      -4.347   5.928 -22.057  1.00  0.00     0.072 A 
HETATM   11  C8  UNL     1      -4.923   6.896 -22.879  1.00  0.00     0.036 A 
HETATM   12  N2  UNL     1      -4.667   8.053 -22.246  1.00  0.00    -0.265 N 
HETATM   13  O2  UNL     1      -4.008   7.846 -21.155  1.00  0.00    -0.232 OA
ATOM     14  H2  UNL     1      -4.954   8.972 -22.583  1.00  0.00     0.194 HD
BRANCH  11  15
HETATM   15  C9  UNL     1      -5.640   6.644 -24.148  1.00  0.00     0.064 C 
BRANCH  15  16
HETATM   16  C10 UNL     1      -7.115   6.512 -23.907  1.00  0.00    -0.009 A 
HETATM   17  C11 UNL     1      -7.890   7.781 -23.999  1.00  0.00     0.005 A 
HETATM   18  C12 UNL     1      -7.686   7.106 -22.669  1.00  0.00     0.005 A 
ENDBRANCH  15  16
ENDBRANCH  11  15
ENDBRANCH   6   9
ENDBRANCH   1   5
BRANCH   1  19
HETATM   19  C13 UNL     1      -3.100   6.129 -16.323  1.00  0.00     0.244 C 
HETATM   20  O3  UNL     1      -3.709   5.113 -15.912  1.00  0.00    -0.271 OA
HETATM   21  N3  UNL     1      -3.322   7.346 -15.576  1.00  0.00    -0.339 N 
ATOM     22  H3  UNL     1      -2.849   8.199 -15.873  1.00  0.00     0.167 HD
BRANCH  21  23
HETATM   23  C14 UNL     1      -4.169   7.394 -14.453  1.00  0.00     0.069 C 
BRANCH  23  24
HETATM   24  C15 UNL     1      -5.515   7.910 -14.475  1.00  0.00     0.033 A 
HETATM   25  C16 UNL     1      -6.530   7.683 -13.422  1.00  0.00     0.020 A 
HETATM   26  C17 UNL     1      -6.754   7.171 -14.819  1.00  0.00    -0.039 A 
HETATM   27  C18 UNL     1      -6.930   5.714 -14.949  1.00  0.00     0.015 C 
HETATM   28  C19 UNL     1      -7.731   7.972 -15.703  1.00  0.00     0.015 C 
ENDBRANCH  23  24
ENDBRANCH  21  23
ENDBRANCH   1  19
TORSDOF 8
ENDMDL
MODEL 5
REMARK VINA RESULT: -7.584590892      2.369      2.822
REMARK  8 active torsions:
REMARK  status: ('A' for Active; 'I' for Inactive)
REMARK    1  A    between atoms: C2_2  and  C4_4 
REMARK    2  A    between atoms: C4_4  and  N1_5 
REMARK    3  A    between atoms: C4_4  and  C13_19 
REMARK       I    between atoms: N1_5  and  C5_7 
REMARK    4  A    between atoms: C5_7  and  C6_9 
REMARK    5  A    between atoms: C8_11  and  C9_12 
REMARK    6  A    between atoms: C9_12  and  C10_13 
REMARK       I    between atoms: C13_19  and  N3_21 
REMARK    7  A    between atoms: N3_21  and  C14_23 
REMARK    8  A    between atoms: C14_23  and  C15_24 
ROOT
HETATM    1  C4  UNL     1      -3.024   9.876 -17.037  1.00  0.00     0.180 C 
ENDROOT
BRANCH   1   2
HETATM    2  C2  UNL     1      -3.261  10.504 -15.699  1.00  0.00     0.009 C 
HETATM    3  C1  UNL     1      -4.305   9.857 -14.872  1.00  0.00     0.012 C 
HETATM    4  C3  UNL     1      -3.536  11.985 -15.923  1.00  0.00     0.012 C 
ENDBRANCH   1   2
BRANCH   1   5
HETATM    5  N1  UNL     1      -4.219   9.680 -17.812  1.00  0.00    -0.342 N 
HETATM    6  C5  UNL     1      -4.530  10.264 -19.034  1.00  0.00     0.278 C 
HETATM    7  O1  UNL     1      -3.741  11.054 -19.581  1.00  0.00    -0.265 OA
ATOM      8  H1  UNL     1      -4.914   9.043 -17.424  1.00  0.00     0.163 HD
BRANCH   6   9
HETATM    9  C6  UNL     1      -5.777   9.968 -19.697  1.00  0.00     0.168 A 
HETATM   10  C7  UNL     1      -6.003   8.884 -20.553  1.00  0.00     0.072 A 
HETATM   11  C8  UNL     1      -7.325   8.939 -20.993  1.00  0.00     0.036 A 
HETATM   12  N2  UNL     1      -7.821  10.034 -20.392  1.00  0.00    -0.265 N 
HETATM   13  O2  UNL     1      -6.924  10.604 -19.659  1.00  0.00    -0.232 OA
ATOM     14  H2  UNL     1      -8.778  10.368 -20.500  1.00  0.00     0.194 HD
BRANCH  11  15
HETATM   15  C9  UNL     1      -7.976   7.982 -21.914  1.00  0.00     0.064 C 
BRANCH  15  16
HETATM   16  C10 UNL     1      -7.266   7.947 -23.234  1.00  0.00    -0.009 A 
HETATM   17  C11 UNL     1      -7.674   6.842 -24.147  1.00  0.00     0.005 A 
HETATM   18  C12 UNL     1      -6.316   6.834 -23.498  1.00  0.00     0.005 A 
ENDBRANCH  15  16
ENDBRANCH  11  15
ENDBRANCH   6   9
ENDBRANCH   1   5
BRANCH   1  19
HETATM   19  C13 UNL     1      -2.240   8.651 -16.999  1.00  0.00     0.244 C 
HETATM   20  O3  UNL     1      -0.987   8.713 -17.023  1.00  0.00    -0.271 OA
HETATM   21  N3  UNL     1      -2.806   7.323 -16.933  1.00  0.00    -0.339 N 
ATOM     22  H3  UNL     1      -3.821   7.222 -16.912  1.00  0.00     0.167 HD
BRANCH  21  23
HETATM   23  C14 UNL     1      -2.006   6.166 -16.898  1.00  0.00     0.069 C 
BRANCH  23  24
HETATM   24  C15 UNL     1      -1.763   5.315 -18.036  1.00  0.00     0.033 A 
HETATM   25  C16 UNL     1      -1.091   5.738 -19.286  1.00  0.00     0.020 A 
HETATM   26  C17 UNL     1      -2.523   5.280 -19.309  1.00  0.00    -0.039 A 
HETATM   27  C18 UNL     1      -3.505   6.261 -19.802  1.00  0.00     0.015 C 
HETATM   28  C19 UNL     1      -2.788   3.854 -19.836  1.00  0.00     0.015 C 
ENDBRANCH  23  24
ENDBRANCH  21  23
ENDBRANCH   1  19
TORSDOF 8
ENDMDL
