MODEL 1
REMARK VINA RESULT: -8.113574780      0.000      0.000
REMARK  8 active torsions:
REMARK  status: ('A' for Active; 'I' for Inactive)
REMARK    1  A    between atoms: C2_2  and  C3_3 
REMARK    2  A    between atoms: C3_3  and  C5_5 
REMARK       I    between atoms: C5_5  and  N1_7 
REMARK    3  A    between atoms: N1_7  and  C6_9 
REMARK    4  A    between atoms: C6_9  and  C7_10 
REMARK    5  A    between atoms: C6_9  and  C15_24 
REMARK       I    between atoms: C7_10  and  N2_12 
REMARK    6  A    between atoms: N2_12  and  C8_14 
REMARK    7  A    between atoms: C8_14  and  C9_15 
REMARK    8  A    between atoms: C11_17  and  C12_18 
ROOT
HETATM    1  C7  UNL     1      -5.178   9.913 -16.817  1.00  0.00     0.241 C 
HETATM    2  O2  UNL     1      -5.439  11.099 -16.438  1.00  0.00    -0.271 OA
HETATM    3  N2  UNL     1      -5.750   9.503 -18.048  1.00  0.00    -0.354 N 
ATOM      4  H2  UNL     1      -5.567   8.560 -18.391  1.00  0.00     0.162 HD
ENDROOT
BRANCH   1   5
HETATM    5  C6  UNL     1      -4.328   9.097 -15.954  1.00  0.00     0.181 C 
BRANCH   5   6
HETATM    6  N1  UNL     1      -3.763   7.982 -16.708  1.00  0.00    -0.347 N 
HETATM    7  C5  UNL     1      -2.466   7.994 -17.247  1.00  0.00     0.222 C 
HETATM    8  O1  UNL     1      -1.709   8.990 -17.106  1.00  0.00    -0.273 OA
ATOM      9  H1  UNL     1      -4.339   7.152 -16.850  1.00  0.00     0.163 HD
BRANCH   7  10
HETATM   10  C3  UNL     1      -1.962   6.821 -18.000  1.00  0.00     0.073 C 
HETATM   11  C4  UNL     1      -2.938   5.688 -17.861  1.00  0.00     0.020 C 
BRANCH  10  12
HETATM   12  C2  UNL     1      -0.592   6.396 -17.468  1.00  0.00     0.009 C 
HETATM   13  C1  UNL     1       0.376   6.484 -18.620  1.00  0.00     0.006 C 
ENDBRANCH  10  12
ENDBRANCH   7  10
ENDBRANCH   5   6
BRANCH   5  14
HETATM   14  C15 UNL     1      -4.926   8.643 -14.668  1.00  0.00     0.021 A 
HETATM   15  C16 UNL     1      -4.037   7.637 -13.929  1.00  0.00     0.012 A 
HETATM   16  C17 UNL     1      -5.493   7.330 -14.389  1.00  0.00    -0.012 A 
HETATM   17  C18 UNL     1      -6.510   7.222 -13.248  1.00  0.00     0.010 C 
ENDBRANCH   5  14
ENDBRANCH   1   5
BRANCH   3  18
HETATM   18  C8  UNL     1      -6.572  10.371 -18.819  1.00  0.00     0.181 C 
BRANCH  18  19
HETATM   19  C9  UNL     1      -7.167   9.670 -19.984  1.00  0.00     0.052 A 
HETATM   20  C10 UNL     1      -6.643   8.522 -20.589  1.00  0.00     0.064 A 
HETATM   21  C11 UNL     1      -7.475   8.166 -21.631  1.00  0.00     0.082 A 
HETATM   22  O3  UNL     1      -8.428   9.046 -21.641  1.00  0.00    -0.242 OA
HETATM   23  N3  UNL     1      -8.272   9.924 -20.699  1.00  0.00    -0.264 N 
ATOM     24  H3  UNL     1      -8.905  10.704 -20.526  1.00  0.00     0.194 HD
BRANCH  21  25
HETATM   25  C12 UNL     1      -7.298   7.009 -22.545  1.00  0.00     0.045 A 
HETATM   26  C13 UNL     1      -6.206   7.156 -23.581  1.00  0.00     0.012 A 
HETATM   27  C14 UNL     1      -7.659   7.106 -23.983  1.00  0.00     0.012 A 
ENDBRANCH  21  25
ENDBRANCH  18  19
ENDBRANCH   3  18
TORSDOF 8
ENDMDL
MODEL 2
REMARK VINA RESULT: -8.056051376      1.022      1.342
REMARK  8 active torsions:
REMARK  status: ('A' for Active; 'I' for Inactive)
REMARK    1  A    between atoms: C2_2  and  C3_3 
REMARK    2  A    between atoms: C3_3  and  C5_5 
REMARK       I    between atoms: C5_5  and  N1_7 
REMARK    3  A    between atoms: N1_7  and  C6_9 
REMARK    4  A    between atoms: C6_9  and  C7_10 
REMARK    5  A    between atoms: C6_9  and  C15_24 
REMARK       I    between atoms: C7_10  and  N2_12 
REMARK    6  A    between atoms: N2_12  and  C8_14 
REMARK    7  A    between atoms: C8_14  and  C9_15 
REMARK    8  A    between atoms: C11_17  and  C12_18 
ROOT
HETATM    1  C7  UNL     1      -4.654   9.435 -17.575  1.00  0.00     0.241 C 
HETATM    2  O2  UNL     1      -3.911  10.298 -18.144  1.00  0.00    -0.271 OA
HETATM    3  N2  UNL     1      -6.022   9.436 -17.948  1.00  0.00    -0.354 N 
ATOM      4  H2  UNL     1      -6.654   8.761 -17.517  1.00  0.00     0.162 HD
ENDROOT
BRANCH   1   5
HETATM    5  C6  UNL     1      -4.032   8.542 -16.602  1.00  0.00     0.181 C 
BRANCH   5   6
HETATM    6  N1  UNL     1      -3.559   7.327 -17.259  1.00  0.00    -0.347 N 
HETATM    7  C5  UNL     1      -2.201   7.062 -17.504  1.00  0.00     0.222 C 
HETATM    8  O1  UNL     1      -1.304   7.876 -17.164  1.00  0.00    -0.273 OA
ATOM      9  H1  UNL     1      -4.249   6.636 -17.555  1.00  0.00     0.163 HD
BRANCH   7  10
HETATM   10  C3  UNL     1      -1.799   5.804 -18.178  1.00  0.00     0.073 C 
HETATM   11  C4  UNL     1      -0.304   5.776 -18.319  1.00  0.00     0.020 C 
BRANCH  10  12
HETATM   12  C2  UNL     1      -2.454   5.706 -19.556  1.00  0.00     0.009 C 
HETATM   13  C1  UNL     1      -2.206   4.310 -20.066  1.00  0.00     0.006 C 
ENDBRANCH  10  12
ENDBRANCH   7  10
ENDBRANCH   5   6
BRANCH   5  14
HETATM   14  C15 UNL     1      -4.826   8.231 -15.381  1.00  0.00     0.021 A 
HETATM   15  C16 UNL     1      -3.981   7.578 -14.280  1.00  0.00     0.012 A 
HETATM   16  C17 UNL     1      -5.233   6.909 -14.922  1.00  0.00    -0.012 A 
HETATM   17  C18 UNL     1      -6.451   6.821 -13.997  1.00  0.00     0.010 C 
ENDBRANCH   5  14
ENDBRANCH   1   5
BRANCH   3  18
HETATM   18  C8  UNL     1      -6.537  10.353 -18.905  1.00  0.00     0.181 C 
BRANCH  18  19
HETATM   19  C9  UNL     1      -7.155   9.650 -20.057  1.00  0.00     0.052 A 
HETATM   20  C10 UNL     1      -6.643   8.504 -20.673  1.00  0.00     0.064 A 
HETATM   21  C11 UNL     1      -7.496   8.145 -21.697  1.00  0.00     0.082 A 
HETATM   22  O3  UNL     1      -8.451   9.023 -21.686  1.00  0.00    -0.242 OA
HETATM   23  N3  UNL     1      -8.277   9.901 -20.748  1.00  0.00    -0.264 N 
ATOM     24  H3  UNL     1      -8.908  10.680 -20.561  1.00  0.00     0.194 HD
BRANCH  21  25
HETATM   25  C12 UNL     1      -7.337   6.989 -22.614  1.00  0.00     0.045 A 
HETATM   26  C13 UNL     1      -6.250   7.126 -23.657  1.00  0.00     0.012 A 
HETATM   27  C14 UNL     1      -7.706   7.093 -24.050  1.00  0.00     0.012 A 
ENDBRANCH  21  25
ENDBRANCH  18  19
ENDBRANCH   3  18
TORSDOF 8
ENDMDL
MODEL 3
REMARK VINA RESULT: -7.882401753      2.719      5.320
REMARK  8 active torsions:
REMARK  status: ('A' for Active; 'I' for Inactive)
REMARK    1  A    between atoms: C2_2  and  C3_3 
REMARK    2  A    between atoms: C3_3  and  C5_5 
REMARK       I    between atoms: C5_5  and  N1_7 
REMARK    3  A    between atoms: N1_7  and  C6_9 
REMARK    4  A    between atoms: C6_9  and  C7_10 
REMARK    5  A    between atoms: C6_9  and  C15_24 
REMARK       I    between atoms: C7_10  and  N2_12 
REMARK    6  A    between atoms: N2_12  and  C8_14 
REMARK    7  A    between atoms: C8_14  and  C9_15 
REMARK    8  A    between atoms: C11_17  and  C12_18 
ROOT
HETATM    1  C7  UNL     1      -2.464   8.422 -16.759  1.00  0.00     0.241 C 
HETATM    2  O2  UNL     1      -1.526   9.034 -17.364  1.00  0.00    -0.271 OA
HETATM    3  N2  UNL     1      -2.402   7.006 -16.769  1.00  0.00    -0.354 N 
ATOM      4  H2  UNL     1      -3.133   6.474 -16.296  1.00  0.00     0.162 HD
ENDROOT
BRANCH   1   5
HETATM    5  C6  UNL     1      -3.502   9.231 -16.126  1.00  0.00     0.181 C 
BRANCH   5   6
HETATM    6  N1  UNL     1      -4.661   9.347 -17.005  1.00  0.00    -0.347 N 
HETATM    7  C5  UNL     1      -5.661   8.365 -17.097  1.00  0.00     0.222 C 
HETATM    8  O1  UNL     1      -5.607   7.311 -16.411  1.00  0.00    -0.273 OA
ATOM      9  H1  UNL     1      -4.749  10.183 -17.583  1.00  0.00     0.163 HD
BRANCH   7  10
HETATM   10  C3  UNL     1      -6.810   8.556 -18.015  1.00  0.00     0.073 C 
HETATM   11  C4  UNL     1      -8.089   8.364 -17.252  1.00  0.00     0.020 C 
BRANCH  10  12
HETATM   12  C2  UNL     1      -6.738   7.556 -19.170  1.00  0.00     0.009 C 
HETATM   13  C1  UNL     1      -8.050   7.638 -19.908  1.00  0.00     0.006 C 
ENDBRANCH  10  12
ENDBRANCH   7  10
ENDBRANCH   5   6
BRANCH   5  14
HETATM   14  C15 UNL     1      -3.082  10.557 -15.595  1.00  0.00     0.021 A 
HETATM   15  C16 UNL     1      -4.036  11.090 -14.520  1.00  0.00     0.012 A 
HETATM   16  C17 UNL     1      -3.725  11.839 -15.849  1.00  0.00    -0.012 A 
HETATM   17  C18 UNL     1      -2.880  13.106 -15.682  1.00  0.00     0.010 C 
ENDBRANCH   5  14
ENDBRANCH   1   5
BRANCH   3  18
HETATM   18  C8  UNL     1      -1.350   6.306 -17.420  1.00  0.00     0.181 C 
BRANCH  18  19
HETATM   19  C9  UNL     1      -1.804   5.699 -18.696  1.00  0.00     0.052 A 
HETATM   20  C10 UNL     1      -2.767   6.245 -19.552  1.00  0.00     0.064 A 
HETATM   21  C11 UNL     1      -2.913   5.399 -20.633  1.00  0.00     0.082 A 
HETATM   22  O3  UNL     1      -2.090   4.418 -20.429  1.00  0.00    -0.242 OA
HETATM   23  N3  UNL     1      -1.438   4.569 -19.318  1.00  0.00    -0.264 N 
ATOM     24  H3  UNL     1      -0.740   3.915 -18.964  1.00  0.00     0.194 HD
BRANCH  21  25
HETATM   25  C12 UNL     1      -3.831   5.589 -21.784  1.00  0.00     0.045 A 
HETATM   26  C13 UNL     1      -3.256   6.345 -22.961  1.00  0.00     0.012 A 
HETATM   27  C14 UNL     1      -4.365   6.934 -22.125  1.00  0.00     0.012 A 
ENDBRANCH  21  25
ENDBRANCH  18  19
ENDBRANCH   3  18
TORSDOF 8
ENDMDL
MODEL 4
REMARK VINA RESULT: -7.873804015      1.495      2.054
REMARK  8 active torsions:
REMARK  status: ('A' for Active; 'I' for Inactive)
REMARK    1  A    between atoms: C2_2  and  C3_3 
REMARK    2  A    between atoms: C3_3  and  C5_5 
REMARK       I    between atoms: C5_5  and  N1_7 
REMARK    3  A    between atoms: N1_7  and  C6_9 
REMARK    4  A    between atoms: C6_9  and  C7_10 
REMARK    5  A    between atoms: C6_9  and  C15_24 
REMARK       I    between atoms: C7_10  and  N2_12 
REMARK    6  A    between atoms: N2_12  and  C8_14 
REMARK    7  A    between atoms: C8_14  and  C9_15 
REMARK    8  A    between atoms: C11_17  and  C12_18 
ROOT
HETATM    1  C7  UNL     1      -3.714  10.150 -18.391  1.00  0.00     0.241 C 
HETATM    2  O2  UNL     1      -3.253  11.199 -18.945  1.00  0.00    -0.271 OA
HETATM    3  N2  UNL     1      -5.067   9.831 -18.670  1.00  0.00    -0.354 N 
ATOM      4  H2  UNL     1      -5.478   8.998 -18.247  1.00  0.00     0.162 HD
ENDROOT
BRANCH   1   5
HETATM    5  C6  UNL     1      -2.815   9.389 -17.528  1.00  0.00     0.181 C 
BRANCH   5   6
HETATM    6  N1  UNL     1      -2.821   7.979 -17.907  1.00  0.00    -0.347 N 
HETATM    7  C5  UNL     1      -1.697   7.145 -17.795  1.00  0.00     0.222 C 
HETATM    8  O1  UNL     1      -0.602   7.580 -17.353  1.00  0.00    -0.273 OA
ATOM      9  H1  UNL     1      -3.686   7.580 -18.273  1.00  0.00     0.163 HD
BRANCH   7  10
HETATM   10  C3  UNL     1      -1.782   5.722 -18.201  1.00  0.00     0.073 C 
HETATM   11  C4  UNL     1      -0.400   5.201 -18.469  1.00  0.00     0.020 C 
BRANCH  10  12
HETATM   12  C2  UNL     1      -2.644   5.579 -19.456  1.00  0.00     0.009 C 
HETATM   13  C1  UNL     1      -2.219   4.306 -20.142  1.00  0.00     0.006 C 
ENDBRANCH  10  12
ENDBRANCH   7  10
ENDBRANCH   5   6
BRANCH   5  14
HETATM   14  C15 UNL     1      -2.995   9.563 -16.060  1.00  0.00     0.021 A 
HETATM   15  C16 UNL     1      -4.002   8.569 -15.469  1.00  0.00     0.012 A 
HETATM   16  C17 UNL     1      -4.163  10.116 -15.388  1.00  0.00    -0.012 A 
HETATM   17  C18 UNL     1      -3.966  10.702 -13.986  1.00  0.00     0.010 C 
ENDBRANCH   5  14
ENDBRANCH   1   5
BRANCH   3  18
HETATM   18  C8  UNL     1      -5.868  10.640 -19.523  1.00  0.00     0.181 C 
BRANCH  18  19
HETATM   19  C9  UNL     1      -6.721   9.816 -20.415  1.00  0.00     0.052 A 
HETATM   20  C10 UNL     1      -6.301   8.674 -21.105  1.00  0.00     0.064 A 
HETATM   21  C11 UNL     1      -7.373   8.183 -21.821  1.00  0.00     0.082 A 
HETATM   22  O3  UNL     1      -8.363   8.983 -21.570  1.00  0.00    -0.242 OA
HETATM   23  N3  UNL     1      -8.011   9.933 -20.760  1.00  0.00    -0.264 N 
ATOM     24  H3  UNL     1      -8.632  10.671 -20.430  1.00  0.00     0.194 HD
BRANCH  21  25
HETATM   25  C12 UNL     1      -7.376   6.984 -22.696  1.00  0.00     0.045 A 
HETATM   26  C13 UNL     1      -6.328   6.969 -23.787  1.00  0.00     0.012 A 
HETATM   27  C14 UNL     1      -7.796   7.074 -24.119  1.00  0.00     0.012 A 
ENDBRANCH  21  25
ENDBRANCH  18  19
ENDBRANCH   3  18
TORSDOF 8
ENDMDL
MODEL 5
REMARK VINA RESULT: -7.799817992      1.479      2.151
REMARK  8 active torsions:
REMARK  status: ('A' for Active; 'I' for Inactive)
REMARK    1  A    between atoms: C2_2  and  C3_3 
REMARK    2  A    between atoms: C3_3  and  C5_5 
REMARK       I    between atoms: C5_5  and  N1_7 
REMARK    3  A    between atoms: N1_7  and  C6_9 
REMARK    4  A    between atoms: C6_9  and  C7_10 
REMARK    5  A    between atoms: C6_9  and  C15_24 
REMARK       I    between atoms: C7_10  and  N2_12 
REMARK    6  A    between atoms: N2_12  and  C8_14 
REMARK    7  A    between atoms: C8_14  and  C9_15 
REMARK    8  A    between atoms: C11_17  and  C12_18 
ROOT
HETATM    1  C7  UNL     1      -4.962   9.753 -17.821  1.00  0.00     0.241 C 
HETATM    2  O2  UNL     1      -5.317  10.800 -18.452  1.00  0.00    -0.271 OA
HETATM    3  N2  UNL     1      -5.969   8.781 -17.595  1.00  0.00    -0.354 N 
ATOM      4  H2  UNL     1      -5.729   7.925 -17.093  1.00  0.00     0.162 HD
ENDROOT
BRANCH   1   5
HETATM    5  C6  UNL     1      -3.569   9.659 -17.392  1.00  0.00     0.181 C 
BRANCH   5   6
HETATM    6  N1  UNL     1      -3.138   8.265 -17.373  1.00  0.00    -0.347 N 
HETATM    7  C5  UNL     1      -1.791   7.874 -17.443  1.00  0.00     0.222 C 
HETATM    8  O1  UNL     1      -0.866   8.724 -17.529  1.00  0.00    -0.273 OA
ATOM      9  H1  UNL     1      -3.850   7.538 -17.306  1.00  0.00     0.163 HD
BRANCH   7  10
HETATM   10  C3  UNL     1      -1.431   6.435 -17.417  1.00  0.00     0.073 C 
HETATM   11  C4  UNL     1      -0.066   6.257 -18.016  1.00  0.00     0.020 C 
BRANCH  10  12
HETATM   12  C2  UNL     1      -2.455   5.618 -18.205  1.00  0.00     0.009 C 
HETATM   13  C1  UNL     1      -1.689   4.807 -19.218  1.00  0.00     0.006 C 
ENDBRANCH  10  12
ENDBRANCH   7  10
ENDBRANCH   5   6
BRANCH   5  14
HETATM   14  C15 UNL     1      -3.213  10.361 -16.128  1.00  0.00     0.021 A 
HETATM   15  C16 UNL     1      -4.044   9.879 -14.933  1.00  0.00     0.012 A 
HETATM   16  C17 UNL     1      -4.018  11.355 -15.429  1.00  0.00    -0.012 A 
HETATM   17  C18 UNL     1      -3.293  12.327 -14.493  1.00  0.00     0.010 C 
ENDBRANCH   5  14
ENDBRANCH   1   5
BRANCH   3  18
HETATM   18  C8  UNL     1      -7.304   8.965 -18.048  1.00  0.00     0.181 C 
BRANCH  18  19
HETATM   19  C9  UNL     1      -7.407   8.815 -19.521  1.00  0.00     0.052 A 
HETATM   20  C10 UNL     1      -7.237   7.618 -20.225  1.00  0.00     0.064 A 
HETATM   21  C11 UNL     1      -7.415   7.878 -21.569  1.00  0.00     0.082 A 
HETATM   22  O3  UNL     1      -7.673   9.147 -21.653  1.00  0.00    -0.242 OA
HETATM   23  N3  UNL     1      -7.675   9.709 -20.484  1.00  0.00    -0.264 N 
ATOM     24  H3  UNL     1      -7.855  10.699 -20.319  1.00  0.00     0.194 HD
BRANCH  21  25
HETATM   25  C12 UNL     1      -7.323   6.895 -22.677  1.00  0.00     0.045 A 
HETATM   26  C13 UNL     1      -6.050   6.947 -23.493  1.00  0.00     0.012 A 
HETATM   27  C14 UNL     1      -7.378   7.333 -24.096  1.00  0.00     0.012 A 
ENDBRANCH  21  25
ENDBRANCH  18  19
ENDBRANCH   3  18
TORSDOF 8
ENDMDL
