MODEL 1
REMARK VINA RESULT: -8.077262414      0.000      0.000
REMARK  8 active torsions:
REMARK  status: ('A' for Active; 'I' for Inactive)
REMARK    1  A    between atoms: C2_2  and  N1_4 
REMARK    2  A    between atoms: N1_4  and  C3_6 
REMARK    3  A    between atoms: C3_6  and  C4_7 
REMARK    4  A    between atoms: C4_7  and  N2_8 
REMARK       I    between atoms: N2_8  and  C5_9 
REMARK    5  A    between atoms: N2_8  and  C17_25 
REMARK       I    between atoms: C5_9  and  N3_11 
REMARK    6  A    between atoms: N3_11  and  C6_13 
REMARK    7  A    between atoms: N4_16  and  C9_17 
REMARK    8  A    between atoms: C9_17  and  C10_18 
ROOT
HETATM    1  N2  UNL     1      -4.377  10.797 -16.082  1.00  0.00    -0.325 N 
HETATM    2  C5  UNL     1      -5.551  10.600 -16.815  1.00  0.00     0.319 C 
HETATM    3  O1  UNL     1      -6.351  11.558 -17.078  1.00  0.00    -0.247 OA
HETATM    4  N3  UNL     1      -5.972   9.342 -17.333  1.00  0.00    -0.336 N 
ATOM      5  H3  UNL     1      -5.379   8.530 -17.164  1.00  0.00     0.164 HD
ENDROOT
BRANCH   1   6
HETATM    6  C4  UNL     1      -3.497   9.644 -15.792  1.00  0.00     0.172 C 
BRANCH   6   7
HETATM    7  C3  UNL     1      -2.717   9.413 -17.036  1.00  0.00     0.076 C 
BRANCH   7   8
HETATM    8  N1  UNL     1      -1.916   8.275 -17.157  1.00  0.00    -0.384 N 
ATOM      9  H1  UNL     1      -0.952   8.322 -16.825  1.00  0.00     0.160 HD
BRANCH   8  10
HETATM   10  C2  UNL     1      -2.371   7.076 -17.710  1.00  0.00     0.174 C 
HETATM   11  C1  UNL     1      -2.875   6.092 -16.688  1.00  0.00     0.049 C 
HETATM   12 CL1  UNL     1      -0.976   6.258 -18.521  1.00  0.00    -0.103 Cl
ENDBRANCH   8  10
ENDBRANCH   7   8
ENDBRANCH   6   7
ENDBRANCH   1   6
BRANCH   1  13
HETATM   13  C17 UNL     1      -3.981  12.085 -15.604  1.00  0.00     0.089 C 
HETATM   14  C18 UNL     1      -3.018  12.035 -14.423  1.00  0.00     0.025 C 
HETATM   15  C19 UNL     1      -2.322  13.234 -15.026  1.00  0.00     0.004 C 
HETATM   16  C20 UNL     1      -2.988  12.882 -16.365  1.00  0.00     0.025 C 
ENDBRANCH   1  13
BRANCH   4  17
HETATM   17  C6  UNL     1      -7.189   9.152 -18.083  1.00  0.00     0.109 C 
HETATM   18  C7  UNL     1      -7.579   7.693 -18.019  1.00  0.00     0.071 C 
HETATM   19  C8  UNL     1      -8.175   7.436 -19.404  1.00  0.00     0.065 C 
HETATM   20  N4  UNL     1      -7.696   8.408 -20.272  1.00  0.00    -0.371 N 
HETATM   21  C16 UNL     1      -6.872   9.357 -19.553  1.00  0.00     0.152 C 
BRANCH  20  22
HETATM   22  C9  UNL     1      -7.233   8.093 -21.559  1.00  0.00     0.067 C 
BRANCH  22  23
HETATM   23  C10 UNL     1      -6.053   7.207 -21.622  1.00  0.00     0.024 C 
HETATM   24  C11 UNL     1      -4.837   7.545 -20.841  1.00  0.00     0.010 C 
HETATM   25  C12 UNL     1      -3.880   6.369 -20.922  1.00  0.00     0.001 C 
HETATM   26  C13 UNL     1      -3.561   5.865 -22.262  1.00  0.00     0.000 C 
HETATM   27  C14 UNL     1      -4.681   5.905 -23.255  1.00  0.00     0.001 C 
HETATM   28  C15 UNL     1      -5.602   7.067 -23.087  1.00  0.00     0.010 C 
ENDBRANCH  22  23
ENDBRANCH  20  22
ENDBRANCH   4  17
TORSDOF 8
ENDMDL
MODEL 2
REMARK VINA RESULT: -8.048260818      0.708      1.164
REMARK  8 active torsions:
REMARK  status: ('A' for Active; 'I' for Inactive)
REMARK    1  A    between atoms: C2_2  and  N1_4 
REMARK    2  A    between atoms: N1_4  and  C3_6 
REMARK    3  A    between atoms: C3_6  and  C4_7 
REMARK    4  A    between atoms: C4_7  and  N2_8 
REMARK       I    between atoms: N2_8  and  C5_9 
REMARK    5  A    between atoms: N2_8  and  C17_25 
REMARK       I    between atoms: C5_9  and  N3_11 
REMARK    6  A    between atoms: N3_11  and  C6_13 
REMARK    7  A    between atoms: N4_16  and  C9_17 
REMARK    8  A    between atoms: C9_17  and  C10_18 
ROOT
HETATM    1  N2  UNL     1      -4.427  10.690 -16.185  1.00  0.00    -0.325 N 
HETATM    2  C5  UNL     1      -5.519  10.696 -17.058  1.00  0.00     0.319 C 
HETATM    3  O1  UNL     1      -6.274  11.716 -17.186  1.00  0.00    -0.247 OA
HETATM    4  N3  UNL     1      -5.899   9.595 -17.877  1.00  0.00    -0.336 N 
ATOM      5  H3  UNL     1      -5.338   8.744 -17.830  1.00  0.00     0.164 HD
ENDROOT
BRANCH   1   6
HETATM    6  C4  UNL     1      -3.598   9.471 -16.066  1.00  0.00     0.172 C 
BRANCH   6   7
HETATM    7  C3  UNL     1      -2.647   9.519 -17.207  1.00  0.00     0.076 C 
BRANCH   7   8
HETATM    8  N1  UNL     1      -1.524   8.688 -17.218  1.00  0.00    -0.384 N 
ATOM      9  H1  UNL     1      -0.691   8.992 -16.713  1.00  0.00     0.160 HD
BRANCH   8  10
HETATM   10  C2  UNL     1      -1.488   7.462 -17.885  1.00  0.00     0.174 C 
HETATM   11  C1  UNL     1      -2.126   6.336 -17.116  1.00  0.00     0.049 C 
HETATM   12 CL1  UNL     1       0.243   6.982 -18.099  1.00  0.00    -0.103 Cl
ENDBRANCH   8  10
ENDBRANCH   7   8
ENDBRANCH   6   7
ENDBRANCH   1   6
BRANCH   1  13
HETATM   13  C17 UNL     1      -4.068  11.830 -15.402  1.00  0.00     0.089 C 
HETATM   14  C18 UNL     1      -3.071  11.524 -14.290  1.00  0.00     0.025 C 
HETATM   15  C19 UNL     1      -2.439  12.867 -14.579  1.00  0.00     0.004 C 
HETATM   16  C20 UNL     1      -3.127  12.837 -15.951  1.00  0.00     0.025 C 
ENDBRANCH   1  13
BRANCH   4  17
HETATM   17  C6  UNL     1      -7.032   9.614 -18.769  1.00  0.00     0.109 C 
HETATM   18  C7  UNL     1      -7.929   8.441 -18.444  1.00  0.00     0.071 C 
HETATM   19  C8  UNL     1      -8.454   8.021 -19.818  1.00  0.00     0.065 C 
HETATM   20  N4  UNL     1      -7.582   8.501 -20.785  1.00  0.00    -0.371 N 
HETATM   21  C16 UNL     1      -6.536   9.288 -20.166  1.00  0.00     0.152 C 
BRANCH  20  22
HETATM   22  C9  UNL     1      -7.153   7.709 -21.862  1.00  0.00     0.067 C 
BRANCH  22  23
HETATM   23  C10 UNL     1      -5.729   7.321 -21.852  1.00  0.00     0.024 C 
HETATM   24  C11 UNL     1      -5.166   6.560 -22.996  1.00  0.00     0.010 C 
HETATM   25  C12 UNL     1      -3.659   6.488 -22.821  1.00  0.00     0.001 C 
HETATM   26  C13 UNL     1      -3.165   6.002 -21.529  1.00  0.00     0.000 C 
HETATM   27  C14 UNL     1      -3.974   6.396 -20.332  1.00  0.00     0.001 C 
HETATM   28  C15 UNL     1      -5.440   6.485 -20.592  1.00  0.00     0.010 C 
ENDBRANCH  22  23
ENDBRANCH  20  22
ENDBRANCH   4  17
TORSDOF 8
ENDMDL
MODEL 3
REMARK VINA RESULT: -7.933749698      1.185      1.594
REMARK  8 active torsions:
REMARK  status: ('A' for Active; 'I' for Inactive)
REMARK    1  A    between atoms: C2_2  and  N1_4 
REMARK    2  A    between atoms: N1_4  and  C3_6 
REMARK    3  A    between atoms: C3_6  and  C4_7 
REMARK    4  A    between atoms: C4_7  and  N2_8 
REMARK       I    between atoms: N2_8  and  C5_9 
REMARK    5  A    between atoms: N2_8  and  C17_25 
REMARK       I    between atoms: C5_9  and  N3_11 
REMARK    6  A    between atoms: N3_11  and  C6_13 
REMARK    7  A    between atoms: N4_16  and  C9_17 
REMARK    8  A    between atoms: C9_17  and  C10_18 
ROOT
HETATM    1  N2  UNL     1      -4.286  10.699 -16.275  1.00  0.00    -0.325 N 
HETATM    2  C5  UNL     1      -5.411  10.707 -17.105  1.00  0.00     0.319 C 
HETATM    3  O1  UNL     1      -6.268  11.651 -17.070  1.00  0.00    -0.247 OA
HETATM    4  N3  UNL     1      -5.716   9.690 -18.054  1.00  0.00    -0.336 N 
ATOM      5  H3  UNL     1      -5.072   8.904 -18.141  1.00  0.00     0.164 HD
ENDROOT
BRANCH   1   6
HETATM    6  C4  UNL     1      -3.335   9.568 -16.349  1.00  0.00     0.172 C 
BRANCH   6   7
HETATM    7  C3  UNL     1      -3.991   8.446 -15.627  1.00  0.00     0.076 C 
BRANCH   7   8
HETATM    8  N1  UNL     1      -3.264   7.293 -15.318  1.00  0.00    -0.384 N 
ATOM      9  H1  UNL     1      -2.699   7.289 -14.468  1.00  0.00     0.160 HD
BRANCH   8  10
HETATM   10  C2  UNL     1      -3.272   6.148 -16.117  1.00  0.00     0.174 C 
HETATM   11  C1  UNL     1      -2.239   6.167 -17.213  1.00  0.00     0.049 C 
HETATM   12 CL1  UNL     1      -4.869   6.055 -16.962  1.00  0.00    -0.103 Cl
ENDBRANCH   8  10
ENDBRANCH   7   8
ENDBRANCH   6   7
ENDBRANCH   1   6
BRANCH   1  13
HETATM   13  C17 UNL     1      -4.007  11.756 -15.355  1.00  0.00     0.089 C 
HETATM   14  C18 UNL     1      -2.935  11.411 -14.327  1.00  0.00     0.025 C 
HETATM   15  C19 UNL     1      -2.453  12.839 -14.450  1.00  0.00     0.004 C 
HETATM   16  C20 UNL     1      -3.197  12.920 -15.791  1.00  0.00     0.025 C 
ENDBRANCH   1  13
BRANCH   4  17
HETATM   17  C6  UNL     1      -6.884   9.709 -18.900  1.00  0.00     0.109 C 
HETATM   18  C7  UNL     1      -7.786   8.560 -18.512  1.00  0.00     0.071 C 
HETATM   19  C8  UNL     1      -8.374   8.118 -19.853  1.00  0.00     0.065 C 
HETATM   20  N4  UNL     1      -7.534   8.561 -20.866  1.00  0.00    -0.371 N 
HETATM   21  C16 UNL     1      -6.451   9.343 -20.307  1.00  0.00     0.152 C 
BRANCH  20  22
HETATM   22  C9  UNL     1      -7.164   7.737 -21.940  1.00  0.00     0.067 C 
BRANCH  22  23
HETATM   23  C10 UNL     1      -5.750   7.313 -21.971  1.00  0.00     0.024 C 
HETATM   24  C11 UNL     1      -5.255   6.485 -23.100  1.00  0.00     0.010 C 
HETATM   25  C12 UNL     1      -3.744   6.383 -22.986  1.00  0.00     0.001 C 
HETATM   26  C13 UNL     1      -3.206   5.946 -21.693  1.00  0.00     0.000 C 
HETATM   27  C14 UNL     1      -3.953   6.418 -20.484  1.00  0.00     0.001 C 
HETATM   28  C15 UNL     1      -5.426   6.531 -20.685  1.00  0.00     0.010 C 
ENDBRANCH  22  23
ENDBRANCH  20  22
ENDBRANCH   4  17
TORSDOF 8
ENDMDL
MODEL 4
REMARK VINA RESULT: -7.645317734      1.350      1.416
REMARK  8 active torsions:
REMARK  status: ('A' for Active; 'I' for Inactive)
REMARK    1  A    between atoms: C2_2  and  N1_4 
REMARK    2  A    between atoms: N1_4  and  C3_6 
REMARK    3  A    between atoms: C3_6  and  C4_7 
REMARK    4  A    between atoms: C4_7  and  N2_8 
REMARK       I    between atoms: N2_8  and  C5_9 
REMARK    5  A    between atoms: N2_8  and  C17_25 
REMARK       I    between atoms: C5_9  and  N3_11 
REMARK    6  A    between atoms: N3_11  and  C6_13 
REMARK    7  A    between atoms: N4_16  and  C9_17 
REMARK    8  A    between atoms: C9_17  and  C10_18 
ROOT
HETATM    1  N2  UNL     1      -4.211  10.967 -16.404  1.00  0.00    -0.325 N 
HETATM    2  C5  UNL     1      -5.459  10.741 -16.991  1.00  0.00     0.319 C 
HETATM    3  O1  UNL     1      -6.393  11.609 -16.944  1.00  0.00    -0.247 OA
HETATM    4  N3  UNL     1      -5.817   9.551 -17.686  1.00  0.00    -0.336 N 
ATOM      5  H3  UNL     1      -5.117   8.813 -17.766  1.00  0.00     0.164 HD
ENDROOT
BRANCH   1   6
HETATM    6  C4  UNL     1      -3.172   9.916 -16.475  1.00  0.00     0.172 C 
BRANCH   6   7
HETATM    7  C3  UNL     1      -3.614   8.852 -15.537  1.00  0.00     0.076 C 
BRANCH   7   8
HETATM    8  N1  UNL     1      -3.159   7.541 -15.702  1.00  0.00    -0.384 N 
ATOM      9  H1  UNL     1      -2.155   7.366 -15.654  1.00  0.00     0.160 HD
BRANCH   8  10
HETATM   10  C2  UNL     1      -4.013   6.460 -15.931  1.00  0.00     0.174 C 
HETATM   11  C1  UNL     1      -4.265   6.187 -17.390  1.00  0.00     0.049 C 
HETATM   12 CL1  UNL     1      -5.631   6.853 -15.226  1.00  0.00    -0.103 Cl
ENDBRANCH   8  10
ENDBRANCH   7   8
ENDBRANCH   6   7
ENDBRANCH   1   6
BRANCH   1  13
HETATM   13  C17 UNL     1      -3.888  12.191 -15.739  1.00  0.00     0.089 C 
HETATM   14  C18 UNL     1      -3.049  12.005 -14.480  1.00  0.00     0.025 C 
HETATM   15  C19 UNL     1      -2.317  13.271 -14.862  1.00  0.00     0.004 C 
HETATM   16  C20 UNL     1      -2.836  13.078 -16.294  1.00  0.00     0.025 C 
ENDBRANCH   1  13
BRANCH   4  17
HETATM   17  C6  UNL     1      -7.111   9.329 -18.281  1.00  0.00     0.109 C 
HETATM   18  C7  UNL     1      -7.484   7.874 -18.112  1.00  0.00     0.071 C 
HETATM   19  C8  UNL     1      -8.234   7.560 -19.407  1.00  0.00     0.065 C 
HETATM   20  N4  UNL     1      -7.864   8.494 -20.364  1.00  0.00    -0.371 N 
HETATM   21  C16 UNL     1      -6.967   9.472 -19.785  1.00  0.00     0.152 C 
BRANCH  20  22
HETATM   22  C9  UNL     1      -7.550   8.126 -21.682  1.00  0.00     0.067 C 
BRANCH  22  23
HETATM   23  C10 UNL     1      -6.343   7.292 -21.850  1.00  0.00     0.024 C 
HETATM   24  C11 UNL     1      -5.084   7.675 -21.163  1.00  0.00     0.010 C 
HETATM   25  C12 UNL     1      -4.088   6.542 -21.336  1.00  0.00     0.001 C 
HETATM   26  C13 UNL     1      -3.856   6.065 -22.704  1.00  0.00     0.000 C 
HETATM   27  C14 UNL     1      -5.053   6.067 -23.604  1.00  0.00     0.001 C 
HETATM   28  C15 UNL     1      -6.005   7.186 -23.348  1.00  0.00     0.010 C 
ENDBRANCH  22  23
ENDBRANCH  20  22
ENDBRANCH   4  17
TORSDOF 8
ENDMDL
MODEL 5
REMARK VINA RESULT: -7.608653769      1.927      2.378
REMARK  8 active torsions:
REMARK  status: ('A' for Active; 'I' for Inactive)
REMARK    1  A    between atoms: C2_2  and  N1_4 
REMARK    2  A    between atoms: N1_4  and  C3_6 
REMARK    3  A    between atoms: C3_6  and  C4_7 
REMARK    4  A    between atoms: C4_7  and  N2_8 
REMARK       I    between atoms: N2_8  and  C5_9 
REMARK    5  A    between atoms: N2_8  and  C17_25 
REMARK       I    between atoms: C5_9  and  N3_11 
REMARK    6  A    between atoms: N3_11  and  C6_13 
REMARK    7  A    between atoms: N4_16  and  C9_17 
REMARK    8  A    between atoms: C9_17  and  C10_18 
ROOT
HETATM    1  N2  UNL     1      -4.341  10.667 -16.067  1.00  0.00    -0.325 N 
HETATM    2  C5  UNL     1      -5.421  10.699 -16.954  1.00  0.00     0.319 C 
HETATM    3  O1  UNL     1      -6.168  11.727 -17.069  1.00  0.00    -0.247 OA
HETATM    4  N3  UNL     1      -5.798   9.618 -17.800  1.00  0.00    -0.336 N 
ATOM      5  H3  UNL     1      -5.243   8.763 -17.764  1.00  0.00     0.164 HD
ENDROOT
BRANCH   1   6
HETATM    6  C4  UNL     1      -3.520   9.440 -15.963  1.00  0.00     0.172 C 
BRANCH   6   7
HETATM    7  C3  UNL     1      -4.156   8.622 -14.897  1.00  0.00     0.076 C 
BRANCH   7   8
HETATM    8  N1  UNL     1      -4.966   7.536 -15.239  1.00  0.00    -0.384 N 
ATOM      9  H1  UNL     1      -4.549   6.765 -15.761  1.00  0.00     0.160 HD
BRANCH   8  10
HETATM   10  C2  UNL     1      -6.319   7.456 -14.902  1.00  0.00     0.174 C 
HETATM   11  C1  UNL     1      -6.568   7.366 -13.419  1.00  0.00     0.049 C 
HETATM   12 CL1  UNL     1      -6.989   5.927 -15.598  1.00  0.00    -0.103 Cl
ENDBRANCH   8  10
ENDBRANCH   7   8
ENDBRANCH   6   7
ENDBRANCH   1   6
BRANCH   1  13
HETATM   13  C17 UNL     1      -3.984  11.788 -15.255  1.00  0.00     0.089 C 
HETATM   14  C18 UNL     1      -2.854  11.502 -14.272  1.00  0.00     0.025 C 
HETATM   15  C19 UNL     1      -2.356  12.904 -14.540  1.00  0.00     0.004 C 
HETATM   16  C20 UNL     1      -3.183  12.894 -15.834  1.00  0.00     0.025 C 
ENDBRANCH   1  13
BRANCH   4  17
HETATM   17  C6  UNL     1      -6.919   9.663 -18.705  1.00  0.00     0.109 C 
HETATM   18  C7  UNL     1      -7.845   8.509 -18.394  1.00  0.00     0.071 C 
HETATM   19  C8  UNL     1      -8.363   8.103 -19.775  1.00  0.00     0.065 C 
HETATM   20  N4  UNL     1      -7.469   8.567 -20.730  1.00  0.00    -0.371 N 
HETATM   21  C16 UNL     1      -6.413   9.329 -20.097  1.00  0.00     0.152 C 
BRANCH  20  22
HETATM   22  C9  UNL     1      -7.045   7.767 -21.804  1.00  0.00     0.067 C 
BRANCH  22  23
HETATM   23  C10 UNL     1      -5.633   7.337 -21.771  1.00  0.00     0.024 C 
HETATM   24  C11 UNL     1      -5.081   6.541 -22.896  1.00  0.00     0.010 C 
HETATM   25  C12 UNL     1      -3.579   6.427 -22.702  1.00  0.00     0.001 C 
HETATM   26  C13 UNL     1      -3.113   5.948 -21.396  1.00  0.00     0.000 C 
HETATM   27  C14 UNL     1      -3.924   6.387 -20.216  1.00  0.00     0.001 C 
HETATM   28  C15 UNL     1      -5.384   6.515 -20.493  1.00  0.00     0.010 C 
ENDBRANCH  22  23
ENDBRANCH  20  22
ENDBRANCH   4  17
TORSDOF 8
ENDMDL
