MODEL 1
REMARK VINA RESULT: -7.280204668      0.000      0.000
REMARK  8 active torsions:
REMARK  status: ('A' for Active; 'I' for Inactive)
REMARK    1  A    between atoms: C2_2  and  C3_3 
REMARK    2  A    between atoms: C3_3  and  C5_5 
REMARK    3  A    between atoms: C5_5  and  C6_6 
REMARK    4  A    between atoms: C5_5  and  N2_9 
REMARK    5  A    between atoms: C10_13  and  C12_15 
REMARK       I    between atoms: C12_15  and  N3_17 
REMARK    6  A    between atoms: N3_17  and  C13_19 
REMARK    7  A    between atoms: C13_19  and  C18_25 
REMARK    8  A    between atoms: C14_20  and  C15_21 
ROOT
HETATM    1  N2  UNL     1      -6.264   8.063 -20.478  1.00  0.00    -0.362 N 
HETATM    2  C7  UNL     1      -7.416   7.344 -20.179  1.00  0.00     0.060 C 
HETATM    3  C8  UNL     1      -8.349   8.282 -19.479  1.00  0.00     0.047 C 
HETATM    4  C9  UNL     1      -7.588   9.559 -19.338  1.00  0.00     0.046 C 
HETATM    5  C10 UNL     1      -6.146   9.256 -19.777  1.00  0.00     0.110 C 
HETATM    6  C11 UNL     1      -5.690  10.475 -20.535  1.00  0.00     0.049 C 
ENDROOT
BRANCH   5   7
HETATM    7  C12 UNL     1      -5.356   9.204 -18.511  1.00  0.00     0.250 C 
HETATM    8  O2  UNL     1      -5.089  10.319 -18.007  1.00  0.00    -0.270 OA
HETATM    9  N3  UNL     1      -4.932   8.026 -17.907  1.00  0.00    -0.329 N 
ATOM     10  H3  UNL     1      -5.178   7.142 -18.352  1.00  0.00     0.168 HD
BRANCH   9  11
HETATM   11  C13 UNL     1      -4.140   7.983 -16.650  1.00  0.00     0.013 C 
HETATM   12  C14 UNL     1      -4.860   8.220 -15.615  1.00  0.00     0.023 C 
BRANCH  12  13
HETATM   13  C15 UNL     1      -4.691   8.314 -14.182  1.00  0.00     0.049 C 
HETATM   14  C16 UNL     1      -6.061   7.888 -13.534  1.00  0.00     0.036 C 
HETATM   15  C17 UNL     1      -4.455   9.680 -13.612  1.00  0.00     0.036 C 
HETATM   16 CL1  UNL     1      -3.526   7.177 -13.470  1.00  0.00    -0.116 Cl
ENDBRANCH  12  13
BRANCH  11  17
HETATM   17  C18 UNL     1      -2.750   7.682 -16.839  1.00  0.00     0.027 C 
HETATM   18  C19 UNL     1      -2.231   6.530 -17.576  1.00  0.00     0.016 C 
HETATM   19  C20 UNL     1      -1.997   8.925 -17.424  1.00  0.00     0.016 C 
ENDBRANCH  11  17
ENDBRANCH   9  11
ENDBRANCH   5   7
BRANCH   1  20
HETATM   20  C5  UNL     1      -5.517   7.801 -21.640  1.00  0.00     0.177 C 
BRANCH  20  21
HETATM   21  C3  UNL     1      -4.186   7.155 -21.387  1.00  0.00     0.013 C 
HETATM   22  C4  UNL     1      -3.479   6.867 -22.709  1.00  0.00     0.012 C 
BRANCH  21  23
HETATM   23  C2  UNL     1      -4.132   5.953 -20.544  1.00  0.00     0.002 C 
HETATM   24  C1  UNL     1      -3.069   4.942 -20.823  1.00  0.00     0.005 C 
ENDBRANCH  21  23
ENDBRANCH  20  21
BRANCH  20  25
HETATM   25  C6  UNL     1      -6.288   7.199 -22.750  1.00  0.00     0.254 C 
HETATM   26  N1  UNL     1      -7.014   7.949 -23.713  1.00  0.00    -0.060 NA
HETATM   27  O1  UNL     1      -6.353   5.932 -22.915  1.00  0.00    -0.275 OA
ENDBRANCH  20  25
ENDBRANCH   1  20
TORSDOF 8
ENDMDL
MODEL 2
REMARK VINA RESULT: -7.086736136      2.912      6.627
REMARK  8 active torsions:
REMARK  status: ('A' for Active; 'I' for Inactive)
REMARK    1  A    between atoms: C2_2  and  C3_3 
REMARK    2  A    between atoms: C3_3  and  C5_5 
REMARK    3  A    between atoms: C5_5  and  C6_6 
REMARK    4  A    between atoms: C5_5  and  N2_9 
REMARK    5  A    between atoms: C10_13  and  C12_15 
REMARK       I    between atoms: C12_15  and  N3_17 
REMARK    6  A    between atoms: N3_17  and  C13_19 
REMARK    7  A    between atoms: C13_19  and  C18_25 
REMARK    8  A    between atoms: C14_20  and  C15_21 
ROOT
HETATM    1  N2  UNL     1      -3.877   9.345 -15.811  1.00  0.00    -0.362 N 
HETATM    2  C7  UNL     1      -4.459   8.890 -14.632  1.00  0.00     0.060 C 
HETATM    3  C8  UNL     1      -4.015   7.473 -14.442  1.00  0.00     0.047 C 
HETATM    4  C9  UNL     1      -3.207   7.150 -15.656  1.00  0.00     0.046 C 
HETATM    5  C10 UNL     1      -3.383   8.333 -16.622  1.00  0.00     0.110 C 
HETATM    6  C11 UNL     1      -2.033   8.538 -17.259  1.00  0.00     0.049 C 
ENDROOT
BRANCH   5   7
HETATM    7  C12 UNL     1      -4.301   7.832 -17.688  1.00  0.00     0.250 C 
HETATM    8  O2  UNL     1      -5.338   7.268 -17.271  1.00  0.00    -0.270 OA
HETATM    9  N3  UNL     1      -4.058   7.965 -19.050  1.00  0.00    -0.329 N 
ATOM     10  H3  UNL     1      -3.202   8.437 -19.342  1.00  0.00     0.168 HD
BRANCH   9  11
HETATM   11  C13 UNL     1      -4.973   7.458 -20.105  1.00  0.00     0.013 C 
HETATM   12  C14 UNL     1      -6.150   7.961 -20.010  1.00  0.00     0.023 C 
BRANCH  12  13
HETATM   13  C15 UNL     1      -7.418   7.877 -20.698  1.00  0.00     0.049 C 
HETATM   14  C16 UNL     1      -7.951   9.351 -20.849  1.00  0.00     0.036 C 
HETATM   15  C17 UNL     1      -8.537   7.181 -19.983  1.00  0.00     0.036 C 
HETATM   16 CL1  UNL     1      -7.344   7.290 -22.374  1.00  0.00    -0.116 Cl
ENDBRANCH  12  13
BRANCH  11  17
HETATM   17  C18 UNL     1      -4.368   6.525 -21.013  1.00  0.00     0.027 C 
HETATM   18  C19 UNL     1      -3.810   6.867 -22.321  1.00  0.00     0.016 C 
HETATM   19  C20 UNL     1      -3.252   5.701 -20.285  1.00  0.00     0.016 C 
ENDBRANCH  11  17
ENDBRANCH   9  11
ENDBRANCH   5   7
BRANCH   1  20
HETATM   20  C5  UNL     1      -3.486  10.687 -15.965  1.00  0.00     0.177 C 
BRANCH  20  21
HETATM   21  C3  UNL     1      -4.244  11.435 -17.022  1.00  0.00     0.013 C 
HETATM   22  C4  UNL     1      -5.694  10.957 -17.070  1.00  0.00     0.012 C 
BRANCH  21  23
HETATM   23  C2  UNL     1      -3.707  11.467 -18.389  1.00  0.00     0.002 C 
HETATM   24  C1  UNL     1      -4.667  11.364 -19.529  1.00  0.00     0.005 C 
ENDBRANCH  21  23
ENDBRANCH  20  21
BRANCH  20  25
HETATM   25  C6  UNL     1      -3.308  11.430 -14.698  1.00  0.00     0.254 C 
HETATM   26  N1  UNL     1      -2.087  11.488 -13.975  1.00  0.00    -0.060 NA
HETATM   27  O1  UNL     1      -4.268  12.082 -14.160  1.00  0.00    -0.275 OA
ENDBRANCH  20  25
ENDBRANCH   1  20
TORSDOF 8
ENDMDL
MODEL 3
REMARK VINA RESULT: -7.040066982      3.397      6.740
REMARK  8 active torsions:
REMARK  status: ('A' for Active; 'I' for Inactive)
REMARK    1  A    between atoms: C2_2  and  C3_3 
REMARK    2  A    between atoms: C3_3  and  C5_5 
REMARK    3  A    between atoms: C5_5  and  C6_6 
REMARK    4  A    between atoms: C5_5  and  N2_9 
REMARK    5  A    between atoms: C10_13  and  C12_15 
REMARK       I    between atoms: C12_15  and  N3_17 
REMARK    6  A    between atoms: N3_17  and  C13_19 
REMARK    7  A    between atoms: C13_19  and  C18_25 
REMARK    8  A    between atoms: C14_20  and  C15_21 
ROOT
HETATM    1  N2  UNL     1      -5.195   8.277 -15.970  1.00  0.00    -0.362 N 
HETATM    2  C7  UNL     1      -6.571   8.468 -16.053  1.00  0.00     0.060 C 
HETATM    3  C8  UNL     1      -7.217   7.166 -15.697  1.00  0.00     0.047 C 
HETATM    4  C9  UNL     1      -6.086   6.211 -15.491  1.00  0.00     0.046 C 
HETATM    5  C10 UNL     1      -4.812   6.943 -15.945  1.00  0.00     0.110 C 
HETATM    6  C11 UNL     1      -3.743   6.537 -14.964  1.00  0.00     0.049 C 
ENDROOT
BRANCH   5   7
HETATM    7  C12 UNL     1      -4.459   6.330 -17.260  1.00  0.00     0.250 C 
HETATM    8  O2  UNL     1      -4.972   5.208 -17.476  1.00  0.00    -0.270 OA
HETATM    9  N3  UNL     1      -3.628   6.930 -18.199  1.00  0.00    -0.329 N 
ATOM     10  H3  UNL     1      -3.238   7.846 -17.980  1.00  0.00     0.168 HD
BRANCH   9  11
HETATM   11  C13 UNL     1      -3.275   6.311 -19.503  1.00  0.00     0.013 C 
HETATM   12  C14 UNL     1      -4.144   6.568 -20.412  1.00  0.00     0.023 C 
BRANCH  12  13
HETATM   13  C15 UNL     1      -4.360   6.274 -21.811  1.00  0.00     0.049 C 
HETATM   14  C16 UNL     1      -3.307   7.120 -22.621  1.00  0.00     0.036 C 
HETATM   15  C17 UNL     1      -5.668   6.702 -22.404  1.00  0.00     0.036 C 
HETATM   16 CL1  UNL     1      -4.015   4.602 -22.306  1.00  0.00    -0.116 Cl
ENDBRANCH  12  13
BRANCH  11  17
HETATM   17  C18 UNL     1      -2.049   5.565 -19.491  1.00  0.00     0.027 C 
HETATM   18  C19 UNL     1      -0.940   5.788 -18.564  1.00  0.00     0.016 C 
HETATM   19  C20 UNL     1      -2.346   4.029 -19.425  1.00  0.00     0.016 C 
ENDBRANCH  11  17
ENDBRANCH   9  11
ENDBRANCH   5   7
BRANCH   1  20
HETATM   20  C5  UNL     1      -4.334   9.310 -15.561  1.00  0.00     0.177 C 
BRANCH  20  21
HETATM   21  C3  UNL     1      -4.409  10.548 -16.407  1.00  0.00     0.013 C 
HETATM   22  C4  UNL     1      -3.284  10.550 -17.440  1.00  0.00     0.012 C 
BRANCH  21  23
HETATM   23  C2  UNL     1      -4.449  11.857 -15.743  1.00  0.00     0.002 C 
HETATM   24  C1  UNL     1      -3.217  12.702 -15.769  1.00  0.00     0.005 C 
ENDBRANCH  21  23
ENDBRANCH  20  21
BRANCH  20  25
HETATM   25  C6  UNL     1      -4.321   9.565 -14.104  1.00  0.00     0.254 C 
HETATM   26  N1  UNL     1      -3.152   9.884 -13.363  1.00  0.00    -0.060 NA
HETATM   27  O1  UNL     1      -5.389   9.510 -13.401  1.00  0.00    -0.275 OA
ENDBRANCH  20  25
ENDBRANCH   1  20
TORSDOF 8
ENDMDL
MODEL 4
REMARK VINA RESULT: -7.001721827      1.897      2.331
REMARK  8 active torsions:
REMARK  status: ('A' for Active; 'I' for Inactive)
REMARK    1  A    between atoms: C2_2  and  C3_3 
REMARK    2  A    between atoms: C3_3  and  C5_5 
REMARK    3  A    between atoms: C5_5  and  C6_6 
REMARK    4  A    between atoms: C5_5  and  N2_9 
REMARK    5  A    between atoms: C10_13  and  C12_15 
REMARK       I    between atoms: C12_15  and  N3_17 
REMARK    6  A    between atoms: N3_17  and  C13_19 
REMARK    7  A    between atoms: C13_19  and  C18_25 
REMARK    8  A    between atoms: C14_20  and  C15_21 
ROOT
HETATM    1  N2  UNL     1      -6.125   7.977 -20.387  1.00  0.00    -0.362 N 
HETATM    2  C7  UNL     1      -7.391   7.463 -20.127  1.00  0.00     0.060 C 
HETATM    3  C8  UNL     1      -8.302   8.632 -19.912  1.00  0.00     0.047 C 
HETATM    4  C9  UNL     1      -7.420   9.835 -19.989  1.00  0.00     0.046 C 
HETATM    5  C10 UNL     1      -5.975   9.312 -20.038  1.00  0.00     0.110 C 
HETATM    6  C11 UNL     1      -5.252  10.214 -21.004  1.00  0.00     0.049 C 
ENDROOT
BRANCH   5   7
HETATM    7  C12 UNL     1      -5.416   9.583 -18.681  1.00  0.00     0.250 C 
HETATM    8  O2  UNL     1      -6.260   9.606 -17.755  1.00  0.00    -0.270 OA
HETATM    9  N3  UNL     1      -4.067   9.796 -18.423  1.00  0.00    -0.329 N 
ATOM     10  H3  UNL     1      -3.417   9.762 -19.208  1.00  0.00     0.168 HD
BRANCH   9  11
HETATM   11  C13 UNL     1      -3.519  10.072 -17.070  1.00  0.00     0.013 C 
HETATM   12  C14 UNL     1      -3.668  11.300 -16.727  1.00  0.00     0.023 C 
BRANCH  12  13
HETATM   13  C15 UNL     1      -3.365  12.148 -15.596  1.00  0.00     0.049 C 
HETATM   14  C16 UNL     1      -4.740  12.700 -15.062  1.00  0.00     0.036 C 
HETATM   15  C17 UNL     1      -2.580  13.395 -15.870  1.00  0.00     0.036 C 
HETATM   16 CL1  UNL     1      -2.674  11.323 -14.181  1.00  0.00    -0.116 Cl
ENDBRANCH  12  13
BRANCH  11  17
HETATM   17  C18 UNL     1      -2.946   8.928 -16.420  1.00  0.00     0.027 C 
HETATM   18  C19 UNL     1      -3.708   7.862 -15.769  1.00  0.00     0.016 C 
HETATM   19  C20 UNL     1      -1.947   8.199 -17.381  1.00  0.00     0.016 C 
ENDBRANCH  11  17
ENDBRANCH   9  11
ENDBRANCH   5   7
BRANCH   1  20
HETATM   20  C5  UNL     1      -5.236   7.327 -21.262  1.00  0.00     0.177 C 
BRANCH  20  21
HETATM   21  C3  UNL     1      -4.517   6.156 -20.657  1.00  0.00     0.013 C 
HETATM   22  C4  UNL     1      -4.579   6.228 -19.133  1.00  0.00     0.012 C 
BRANCH  21  23
HETATM   23  C2  UNL     1      -3.133   5.887 -21.067  1.00  0.00     0.002 C 
HETATM   24  C1  UNL     1      -2.328   4.929 -20.252  1.00  0.00     0.005 C 
ENDBRANCH  21  23
ENDBRANCH  20  21
BRANCH  20  25
HETATM   25  C6  UNL     1      -5.770   7.083 -22.619  1.00  0.00     0.254 C 
HETATM   26  N1  UNL     1      -6.771   7.880 -23.236  1.00  0.00    -0.060 NA
HETATM   27  O1  UNL     1      -5.355   6.111 -23.342  1.00  0.00    -0.275 OA
ENDBRANCH  20  25
ENDBRANCH   1  20
TORSDOF 8
ENDMDL
MODEL 5
REMARK VINA RESULT: -6.933979303      1.967      2.675
REMARK  8 active torsions:
REMARK  status: ('A' for Active; 'I' for Inactive)
REMARK    1  A    between atoms: C2_2  and  C3_3 
REMARK    2  A    between atoms: C3_3  and  C5_5 
REMARK    3  A    between atoms: C5_5  and  C6_6 
REMARK    4  A    between atoms: C5_5  and  N2_9 
REMARK    5  A    between atoms: C10_13  and  C12_15 
REMARK       I    between atoms: C12_15  and  N3_17 
REMARK    6  A    between atoms: N3_17  and  C13_19 
REMARK    7  A    between atoms: C13_19  and  C18_25 
REMARK    8  A    between atoms: C14_20  and  C15_21 
ROOT
HETATM    1  N2  UNL     1      -5.579   7.731 -19.902  1.00  0.00    -0.362 N 
HETATM    2  C7  UNL     1      -6.771   7.019 -19.822  1.00  0.00     0.060 C 
HETATM    3  C8  UNL     1      -7.884   8.014 -19.928  1.00  0.00     0.047 C 
HETATM    4  C9  UNL     1      -7.213   9.347 -19.989  1.00  0.00     0.046 C 
HETATM    5  C10 UNL     1      -5.723   9.097 -19.701  1.00  0.00     0.110 C 
HETATM    6  C11 UNL     1      -4.974  10.027 -20.619  1.00  0.00     0.049 C 
ENDROOT
BRANCH   5   7
HETATM    7  C12 UNL     1      -5.508   9.587 -18.307  1.00  0.00     0.250 C 
HETATM    8  O2  UNL     1      -6.418  10.321 -17.857  1.00  0.00    -0.270 OA
HETATM    9  N3  UNL     1      -4.396   9.273 -17.535  1.00  0.00    -0.329 N 
ATOM     10  H3  UNL     1      -3.684   8.667 -17.943  1.00  0.00     0.168 HD
BRANCH   9  11
HETATM   11  C13 UNL     1      -4.185   9.770 -16.151  1.00  0.00     0.013 C 
HETATM   12  C14 UNL     1      -3.716  10.964 -16.130  1.00  0.00     0.023 C 
BRANCH  12  13
HETATM   13  C15 UNL     1      -3.319  11.950 -15.151  1.00  0.00     0.049 C 
HETATM   14  C16 UNL     1      -4.637  12.446 -14.446  1.00  0.00     0.036 C 
HETATM   15  C17 UNL     1      -2.712  13.220 -15.668  1.00  0.00     0.036 C 
HETATM   16 CL1  UNL     1      -2.335  11.340 -13.803  1.00  0.00    -0.116 Cl
ENDBRANCH  12  13
BRANCH  11  17
HETATM   17  C18 UNL     1      -4.548   8.834 -15.126  1.00  0.00     0.027 C 
HETATM   18  C19 UNL     1      -5.896   8.312 -14.904  1.00  0.00     0.016 C 
HETATM   19  C20 UNL     1      -3.618   7.575 -15.183  1.00  0.00     0.016 C 
ENDBRANCH  11  17
ENDBRANCH   9  11
ENDBRANCH   5   7
BRANCH   1  20
HETATM   20  C5  UNL     1      -4.435   7.181 -20.508  1.00  0.00     0.177 C 
BRANCH  20  21
HETATM   21  C3  UNL     1      -3.914   5.944 -19.836  1.00  0.00     0.013 C 
HETATM   22  C4  UNL     1      -3.054   6.319 -18.632  1.00  0.00     0.012 C 
BRANCH  21  23
HETATM   23  C2  UNL     1      -3.197   4.949 -20.644  1.00  0.00     0.002 C 
HETATM   24  C1  UNL     1      -2.203   4.068 -19.962  1.00  0.00     0.005 C 
ENDBRANCH  21  23
ENDBRANCH  20  21
BRANCH  20  25
HETATM   25  C6  UNL     1      -4.495   7.097 -21.983  1.00  0.00     0.254 C 
HETATM   26  N1  UNL     1      -5.629   6.647 -22.709  1.00  0.00    -0.060 NA
HETATM   27  O1  UNL     1      -3.501   7.432 -22.718  1.00  0.00    -0.275 OA
ENDBRANCH  20  25
ENDBRANCH   1  20
TORSDOF 8
ENDMDL
