MODEL 1
REMARK VINA RESULT: -4.008452613      0.000      0.000
REMARK  4 active torsions:
REMARK  status: ('A' for Active; 'I' for Inactive)
REMARK    1  A    between atoms: C2_2  and  N1_3 
REMARK    2  A    between atoms: C2_2  and  C3_7 
REMARK    3  A    between atoms: C3_7  and  C4_8 
REMARK    4  A    between atoms: C4_8  and  N2_9 
ROOT
HETATM    1  N2  UNL     1       8.548   7.662  13.834  1.00  0.00    -0.217 N 
HETATM    2  C5  UNL     1       8.079   6.476  14.542  1.00  0.00     0.161 C 
HETATM    3  C6  UNL     1       6.712   6.814  15.056  1.00  0.00     0.158 C 
HETATM    4  N3  UNL     1       6.427   8.184  14.654  1.00  0.00    -0.225 N 
ATOM      5  H3  UNL     1       5.526   8.662  14.678  1.00  0.00     0.177 HD
HETATM    6  C7  UNL     1       7.673   8.714  14.221  1.00  0.00     0.669 C 
HETATM    7  N4  UNL     1       7.933  10.000  14.198  1.00  0.00    -0.235 N 
ATOM      8  H41 UNL     1       7.305  10.754  14.476  1.00  0.00     0.174 HD
ATOM      9  H42 UNL     1       8.827  10.380  13.887  1.00  0.00     0.174 HD
ENDROOT
BRANCH   1  10
HETATM   10  C4  UNL     1       9.655   7.751  12.944  1.00  0.00     0.143 C 
BRANCH  10  11
HETATM   11  C3  UNL     1       9.661   6.598  11.961  1.00  0.00     0.052 C 
BRANCH  11  12
HETATM   12  C2  UNL     1      10.876   5.735  12.109  1.00  0.00     0.181 C 
HETATM   13  C1  UNL     1      12.108   6.462  12.571  1.00  0.00     0.039 C 
BRANCH  12  14
HETATM   14  N1  UNL     1      11.182   5.129  10.826  1.00  0.00    -0.075 N 
ATOM     15  H13 UNL     1      10.554   5.436  10.083  1.00  0.00     0.274 HD
ATOM     16  H12 UNL     1      12.050   5.477  10.420  1.00  0.00     0.274 HD
ATOM     17  H11 UNL     1      11.181   4.117  10.957  1.00  0.00     0.274 HD
ENDBRANCH  12  14
ENDBRANCH  11  12
ENDBRANCH  10  11
ENDBRANCH   1  10
TORSDOF 4
ENDMDL
MODEL 2
REMARK VINA RESULT: -3.920110755      1.126      1.320
REMARK  4 active torsions:
REMARK  status: ('A' for Active; 'I' for Inactive)
REMARK    1  A    between atoms: C2_2  and  N1_3 
REMARK    2  A    between atoms: C2_2  and  C3_7 
REMARK    3  A    between atoms: C3_7  and  C4_8 
REMARK    4  A    between atoms: C4_8  and  N2_9 
ROOT
HETATM    1  N2  UNL     1       8.561   6.973  13.538  1.00  0.00    -0.217 N 
HETATM    2  C5  UNL     1       8.285   5.818  14.384  1.00  0.00     0.161 C 
HETATM    3  C6  UNL     1       7.153   6.222  15.280  1.00  0.00     0.158 C 
HETATM    4  N3  UNL     1       6.811   7.598  14.948  1.00  0.00    -0.225 N 
ATOM      5  H3  UNL     1       5.979   8.115  15.232  1.00  0.00     0.177 HD
HETATM    6  C7  UNL     1       7.885   8.068  14.145  1.00  0.00     0.669 C 
HETATM    7  N4  UNL     1       8.174   9.340  14.011  1.00  0.00    -0.235 N 
ATOM      8  H41 UNL     1       7.689  10.125  14.446  1.00  0.00     0.174 HD
ATOM      9  H42 UNL     1       8.945   9.677  13.434  1.00  0.00     0.174 HD
ENDROOT
BRANCH   1  10
HETATM   10  C4  UNL     1       9.347   7.002  12.351  1.00  0.00     0.143 C 
BRANCH  10  11
HETATM   11  C3  UNL     1      10.807   7.252  12.667  1.00  0.00     0.052 C 
BRANCH  11  12
HETATM   12  C2  UNL     1      11.701   6.205  12.078  1.00  0.00     0.181 C 
HETATM   13  C1  UNL     1      10.984   5.130  11.311  1.00  0.00     0.039 C 
BRANCH  12  14
HETATM   14  N1  UNL     1      12.439   5.560  13.148  1.00  0.00    -0.075 N 
ATOM     15  H13 UNL     1      12.662   6.195  13.915  1.00  0.00     0.274 HD
ATOM     16  H12 UNL     1      11.872   4.901  13.681  1.00  0.00     0.274 HD
ATOM     17  H11 UNL     1      13.266   5.129  12.734  1.00  0.00     0.274 HD
ENDBRANCH  12  14
ENDBRANCH  11  12
ENDBRANCH  10  11
ENDBRANCH   1  10
TORSDOF 4
ENDMDL
MODEL 3
REMARK VINA RESULT: -3.840545340      1.456      4.862
REMARK  4 active torsions:
REMARK  status: ('A' for Active; 'I' for Inactive)
REMARK    1  A    between atoms: C2_2  and  N1_3 
REMARK    2  A    between atoms: C2_2  and  C3_7 
REMARK    3  A    between atoms: C3_7  and  C4_8 
REMARK    4  A    between atoms: C4_8  and  N2_9 
ROOT
HETATM    1  N2  UNL     1      10.023   6.993  12.560  1.00  0.00    -0.217 N 
HETATM    2  C5  UNL     1       9.400   6.194  11.512  1.00  0.00     0.161 C 
HETATM    3  C6  UNL     1      10.393   5.129  11.158  1.00  0.00     0.158 C 
HETATM    4  N3  UNL     1      11.570   5.343  11.989  1.00  0.00    -0.225 N 
ATOM      5  H3  UNL     1      12.349   4.701  12.137  1.00  0.00     0.177 HD
HETATM    6  C7  UNL     1      11.400   6.637  12.551  1.00  0.00     0.669 C 
HETATM    7  N4  UNL     1      12.401   7.363  12.989  1.00  0.00    -0.235 N 
ATOM      8  H41 UNL     1      13.389   7.107  12.982  1.00  0.00     0.174 HD
ATOM      9  H42 UNL     1      12.279   8.292  13.393  1.00  0.00     0.174 HD
ENDROOT
BRANCH   1  10
HETATM   10  C4  UNL     1       9.387   7.939  13.413  1.00  0.00     0.143 C 
BRANCH  10  11
HETATM   11  C3  UNL     1       8.236   7.308  14.170  1.00  0.00     0.052 C 
BRANCH  11  12
HETATM   12  C2  UNL     1       7.125   8.279  14.423  1.00  0.00     0.181 C 
HETATM   13  C1  UNL     1       7.567   9.708  14.576  1.00  0.00     0.039 C 
BRANCH  12  14
HETATM   14  N1  UNL     1       6.439   7.901  15.644  1.00  0.00    -0.075 N 
ATOM     15  H13 UNL     1       6.948   7.202  16.186  1.00  0.00     0.274 HD
ATOM     16  H12 UNL     1       6.441   8.641  16.346  1.00  0.00     0.274 HD
ATOM     17  H11 UNL     1       5.500   7.598  15.387  1.00  0.00     0.274 HD
ENDBRANCH  12  14
ENDBRANCH  11  12
ENDBRANCH  10  11
ENDBRANCH   1  10
TORSDOF 4
ENDMDL
MODEL 4
REMARK VINA RESULT: -3.780403688      1.889      2.690
REMARK  4 active torsions:
REMARK  status: ('A' for Active; 'I' for Inactive)
REMARK    1  A    between atoms: C2_2  and  N1_3 
REMARK    2  A    between atoms: C2_2  and  C3_7 
REMARK    3  A    between atoms: C3_7  and  C4_8 
REMARK    4  A    between atoms: C4_8  and  N2_9 
ROOT
HETATM    1  N2  UNL     1       9.005   6.485  12.387  1.00  0.00    -0.217 N 
HETATM    2  C5  UNL     1       9.295   7.751  13.048  1.00  0.00     0.161 C 
HETATM    3  C6  UNL     1       8.131   8.021  13.953  1.00  0.00     0.158 C 
HETATM    4  N3  UNL     1       7.189   6.923  13.783  1.00  0.00    -0.225 N 
ATOM      5  H3  UNL     1       6.388   6.698  14.374  1.00  0.00     0.177 HD
HETATM    6  C7  UNL     1       7.625   6.233  12.620  1.00  0.00     0.669 C 
HETATM    7  N4  UNL     1       6.830   5.480  11.897  1.00  0.00    -0.235 N 
ATOM      8  H41 UNL     1       5.841   5.300  12.065  1.00  0.00     0.174 HD
ATOM      9  H42 UNL     1       7.143   4.984  11.062  1.00  0.00     0.174 HD
ENDROOT
BRANCH   1  10
HETATM   10  C4  UNL     1       9.913   5.670  11.653  1.00  0.00     0.143 C 
BRANCH  10  11
HETATM   11  C3  UNL     1      11.121   5.304  12.491  1.00  0.00     0.052 C 
BRANCH  11  12
HETATM   12  C2  UNL     1      12.362   6.005  12.031  1.00  0.00     0.181 C 
HETATM   13  C1  UNL     1      13.580   5.129  11.945  1.00  0.00     0.039 C 
BRANCH  12  14
HETATM   14  N1  UNL     1      12.663   7.083  12.955  1.00  0.00    -0.075 N 
ATOM     15  H13 UNL     1      13.195   6.772  13.768  1.00  0.00     0.274 HD
ATOM     16  H12 UNL     1      13.351   7.740  12.588  1.00  0.00     0.274 HD
ATOM     17  H11 UNL     1      11.780   7.530  13.204  1.00  0.00     0.274 HD
ENDBRANCH  12  14
ENDBRANCH  11  12
ENDBRANCH  10  11
ENDBRANCH   1  10
TORSDOF 4
ENDMDL
MODEL 5
REMARK VINA RESULT: -3.731600364      1.590      2.352
REMARK  4 active torsions:
REMARK  status: ('A' for Active; 'I' for Inactive)
REMARK    1  A    between atoms: C2_2  and  N1_3 
REMARK    2  A    between atoms: C2_2  and  C3_7 
REMARK    3  A    between atoms: C3_7  and  C4_8 
REMARK    4  A    between atoms: C4_8  and  N2_9 
ROOT
HETATM    1  N2  UNL     1       9.127   7.168  12.766  1.00  0.00    -0.217 N 
HETATM    2  C5  UNL     1       8.618   8.176  13.687  1.00  0.00     0.161 C 
HETATM    3  C6  UNL     1       7.536   7.505  14.478  1.00  0.00     0.158 C 
HETATM    4  N3  UNL     1       7.430   6.138  13.990  1.00  0.00    -0.225 N 
ATOM      5  H3  UNL     1       6.930   5.362  14.424  1.00  0.00     0.177 HD
HETATM    6  C7  UNL     1       8.172   6.114  12.778  1.00  0.00     0.669 C 
HETATM    7  N4  UNL     1       7.970   5.227  11.834  1.00  0.00    -0.235 N 
ATOM      8  H41 UNL     1       7.284   4.471  11.842  1.00  0.00     0.174 HD
ATOM      9  H42 UNL     1       8.503   5.210  10.963  1.00  0.00     0.174 HD
ENDROOT
BRANCH   1  10
HETATM   10  C4  UNL     1      10.330   7.226  12.006  1.00  0.00     0.143 C 
BRANCH  10  11
HETATM   11  C3  UNL     1      11.496   6.647  12.781  1.00  0.00     0.052 C 
BRANCH  11  12
HETATM   12  C2  UNL     1      11.968   5.347  12.206  1.00  0.00     0.181 C 
HETATM   13  C1  UNL     1      13.450   5.271  11.966  1.00  0.00     0.039 C 
BRANCH  12  14
HETATM   14  N1  UNL     1      11.307   5.129  10.933  1.00  0.00    -0.075 N 
ATOM     15  H13 UNL     1      10.555   5.795  10.756  1.00  0.00     0.274 HD
ATOM     16  H12 UNL     1      11.893   5.373  10.134  1.00  0.00     0.274 HD
ATOM     17  H11 UNL     1      10.993   4.159  10.912  1.00  0.00     0.274 HD
ENDBRANCH  12  14
ENDBRANCH  11  12
ENDBRANCH  10  11
ENDBRANCH   1  10
TORSDOF 4
ENDMDL
