MODEL 1
REMARK VINA RESULT: -4.662036894      0.000      0.000
REMARK  4 active torsions:
REMARK  status: ('A' for Active; 'I' for Inactive)
REMARK    1  A    between atoms: C2_2  and  C3_3 
REMARK    2  A    between atoms: C3_3  and  N1_4 
REMARK    3  A    between atoms: N1_4  and  C4_6 
REMARK    4  A    between atoms: C6_12  and  N4_13 
ROOT
HETATM    1  C4  UNL     1      10.131   7.170  12.496  1.00  0.00     0.693 A 
HETATM    2  N2  UNL     1       9.490   6.271  11.750  1.00  0.00    -0.187 N 
ATOM      3  H2  UNL     1       8.483   6.360  11.616  1.00  0.00     0.185 HD
HETATM    4  C5  UNL     1      10.154   5.230  11.161  1.00  0.00     0.215 A 
HETATM    5  N3  UNL     1      11.472   5.129  11.347  1.00  0.00    -0.187 N 
ATOM      6  H3  UNL     1      11.980   4.358  10.913  1.00  0.00     0.185 HD
HETATM    7  C6  UNL     1      12.143   6.021  12.093  1.00  0.00     0.691 A 
HETATM    8  N5  UNL     1      11.447   7.040  12.662  1.00  0.00    -0.023 N 
ATOM      9  H5  UNL     1      11.945   7.725  13.231  1.00  0.00     0.203 HD
ENDROOT
BRANCH   1  10
HETATM   10  N1  UNL     1       9.501   8.133  13.038  1.00  0.00    -0.222 N 
ATOM     11  H1  UNL     1       9.899   9.066  12.931  1.00  0.00     0.178 HD
BRANCH  10  12
HETATM   12  C3  UNL     1       8.287   8.026  13.786  1.00  0.00     0.164 C 
BRANCH  12  13
HETATM   13  C2  UNL     1       7.855   9.412  14.161  1.00  0.00    -0.017 C 
HETATM   14  C1  UNL     1       7.130   9.616  15.266  1.00  0.00     0.008 C 
ENDBRANCH  12  13
ENDBRANCH  10  12
ENDBRANCH   1  10
BRANCH   7  15
HETATM   15  N4  UNL     1      13.436   5.936  12.286  1.00  0.00    -0.234 N 
ATOM     16  H42 UNL     1      13.962   5.184  11.841  1.00  0.00     0.174 HD
ATOM     17  H41 UNL     1      13.942   6.602  12.870  1.00  0.00     0.174 HD
ENDBRANCH   7  15
TORSDOF 4
ENDMDL
MODEL 2
REMARK VINA RESULT: -4.529123679      1.885      5.072
REMARK  4 active torsions:
REMARK  status: ('A' for Active; 'I' for Inactive)
REMARK    1  A    between atoms: C2_2  and  C3_3 
REMARK    2  A    between atoms: C3_3  and  N1_4 
REMARK    3  A    between atoms: N1_4  and  C4_6 
REMARK    4  A    between atoms: C6_12  and  N4_13 
ROOT
HETATM    1  C4  UNL     1       8.939   7.877  13.211  1.00  0.00     0.693 A 
HETATM    2  N2  UNL     1       8.109   6.835  13.253  1.00  0.00    -0.187 N 
ATOM      3  H2  UNL     1       8.338   5.993  12.726  1.00  0.00     0.185 HD
HETATM    4  C5  UNL     1       6.957   6.871  13.989  1.00  0.00     0.215 A 
HETATM    5  N3  UNL     1       6.672   7.981  14.673  1.00  0.00    -0.187 N 
ATOM      6  H3  UNL     1       5.816   8.022  15.226  1.00  0.00     0.185 HD
HETATM    7  C6  UNL     1       7.490   9.046  14.649  1.00  0.00     0.691 A 
HETATM    8  N5  UNL     1       8.626   8.970  13.906  1.00  0.00    -0.023 N 
ATOM      9  H5  UNL     1       9.256   9.772  13.879  1.00  0.00     0.203 HD
ENDROOT
BRANCH   1  10
HETATM   10  N1  UNL     1      10.008   7.830  12.523  1.00  0.00    -0.222 N 
ATOM     11  H1  UNL     1      10.491   8.713  12.357  1.00  0.00     0.178 HD
BRANCH  10  12
HETATM   12  C3  UNL     1      10.593   6.653  11.961  1.00  0.00     0.164 C 
BRANCH  12  13
HETATM   13  C2  UNL     1      11.919   6.437  12.626  1.00  0.00    -0.017 C 
HETATM   14  C1  UNL     1      12.742   5.476  12.193  1.00  0.00     0.008 C 
ENDBRANCH  12  13
ENDBRANCH  10  12
ENDBRANCH   1  10
BRANCH   7  15
HETATM   15  N4  UNL     1       7.226  10.143  15.314  1.00  0.00    -0.234 N 
ATOM     16  H42 UNL     1       6.553  10.810  14.936  1.00  0.00     0.174 HD
ATOM     17  H41 UNL     1       7.673  10.357  16.206  1.00  0.00     0.174 HD
ENDBRANCH   7  15
TORSDOF 4
ENDMDL
MODEL 3
REMARK VINA RESULT: -4.440435267      1.529      4.870
REMARK  4 active torsions:
REMARK  status: ('A' for Active; 'I' for Inactive)
REMARK    1  A    between atoms: C2_2  and  C3_3 
REMARK    2  A    between atoms: C3_3  and  N1_4 
REMARK    3  A    between atoms: N1_4  and  C4_6 
REMARK    4  A    between atoms: C6_12  and  N4_13 
ROOT
HETATM    1  C4  UNL     1       9.474   6.889  12.593  1.00  0.00     0.693 A 
HETATM    2  N2  UNL     1       8.912   5.877  13.253  1.00  0.00    -0.187 N 
ATOM      3  H2  UNL     1       9.161   4.920  13.006  1.00  0.00     0.185 HD
HETATM    4  C5  UNL     1       8.007   6.095  14.256  1.00  0.00     0.215 A 
HETATM    5  N3  UNL     1       7.692   7.355  14.566  1.00  0.00    -0.187 N 
ATOM      6  H3  UNL     1       7.019   7.532  15.311  1.00  0.00     0.185 HD
HETATM    7  C6  UNL     1       8.243   8.393  13.917  1.00  0.00     0.691 A 
HETATM    8  N5  UNL     1       9.138   8.134  12.927  1.00  0.00    -0.023 N 
ATOM      9  H5  UNL     1       9.564   8.914  12.427  1.00  0.00     0.203 HD
ENDROOT
BRANCH   1  10
HETATM   10  N1  UNL     1      10.314   6.672  11.663  1.00  0.00    -0.222 N 
ATOM     11  H1  UNL     1      10.419   7.398  10.954  1.00  0.00     0.178 HD
BRANCH  10  12
HETATM   12  C3  UNL     1      11.124   5.502  11.519  1.00  0.00     0.164 C 
BRANCH  12  13
HETATM   13  C2  UNL     1      12.409   5.740  12.253  1.00  0.00    -0.017 C 
HETATM   14  C1  UNL     1      13.532   5.129  11.863  1.00  0.00     0.008 C 
ENDBRANCH  12  13
ENDBRANCH  10  12
ENDBRANCH   1  10
BRANCH   7  15
HETATM   15  N4  UNL     1       7.945   9.635  14.209  1.00  0.00    -0.234 N 
ATOM     16  H42 UNL     1       6.968   9.927  14.223  1.00  0.00     0.174 HD
ATOM     17  H41 UNL     1       8.662  10.328  14.425  1.00  0.00     0.174 HD
ENDBRANCH   7  15
TORSDOF 4
ENDMDL
MODEL 4
REMARK VINA RESULT: -4.321259033      1.636      4.867
REMARK  4 active torsions:
REMARK  status: ('A' for Active; 'I' for Inactive)
REMARK    1  A    between atoms: C2_2  and  C3_3 
REMARK    2  A    between atoms: C3_3  and  N1_4 
REMARK    3  A    between atoms: N1_4  and  C4_6 
REMARK    4  A    between atoms: C6_12  and  N4_13 
ROOT
HETATM    1  C4  UNL     1       9.645   7.234  12.415  1.00  0.00     0.693 A 
HETATM    2  N2  UNL     1       9.266   8.126  13.331  1.00  0.00    -0.187 N 
ATOM      3  H2  UNL     1       9.919   8.853  13.620  1.00  0.00     0.185 HD
HETATM    4  C5  UNL     1       8.018   8.086  13.890  1.00  0.00     0.215 A 
HETATM    5  N3  UNL     1       7.175   7.126  13.499  1.00  0.00    -0.187 N 
ATOM      6  H3  UNL     1       6.242   7.085  13.908  1.00  0.00     0.185 HD
HETATM    7  C6  UNL     1       7.532   6.216  12.579  1.00  0.00     0.691 A 
HETATM    8  N5  UNL     1       8.780   6.290  12.047  1.00  0.00    -0.023 N 
ATOM      9  H5  UNL     1       9.063   5.603  11.347  1.00  0.00     0.203 HD
ENDROOT
BRANCH   1  10
HETATM   10  N1  UNL     1      10.809   7.283  11.903  1.00  0.00    -0.222 N 
ATOM     11  H1  UNL     1      10.875   7.590  10.933  1.00  0.00     0.178 HD
BRANCH  10  12
HETATM   12  C3  UNL     1      12.031   6.946  12.564  1.00  0.00     0.164 C 
BRANCH  12  13
HETATM   13  C2  UNL     1      12.327   5.505  12.275  1.00  0.00    -0.017 C 
HETATM   14  C1  UNL     1      13.558   5.129  11.912  1.00  0.00     0.008 C 
ENDBRANCH  12  13
ENDBRANCH  10  12
ENDBRANCH   1  10
BRANCH   7  15
HETATM   15  N4  UNL     1       6.717   5.268  12.185  1.00  0.00    -0.234 N 
ATOM     16  H42 UNL     1       5.722   5.341  12.395  1.00  0.00     0.174 HD
ATOM     17  H41 UNL     1       7.046   4.451  11.669  1.00  0.00     0.174 HD
ENDBRANCH   7  15
TORSDOF 4
ENDMDL
MODEL 5
REMARK VINA RESULT: -4.201271254      1.945      4.994
REMARK  4 active torsions:
REMARK  status: ('A' for Active; 'I' for Inactive)
REMARK    1  A    between atoms: C2_2  and  C3_3 
REMARK    2  A    between atoms: C3_3  and  N1_4 
REMARK    3  A    between atoms: N1_4  and  C4_6 
REMARK    4  A    between atoms: C6_12  and  N4_13 
ROOT
HETATM    1  C4  UNL     1       9.006   7.846  13.376  1.00  0.00     0.693 A 
HETATM    2  N2  UNL     1       8.418   8.980  13.755  1.00  0.00    -0.187 N 
ATOM      3  H2  UNL     1       8.761   9.867  13.388  1.00  0.00     0.185 HD
HETATM    4  C5  UNL     1       7.363   8.979  14.626  1.00  0.00     0.215 A 
HETATM    5  N3  UNL     1       6.926   7.808  15.097  1.00  0.00    -0.187 N 
ATOM      6  H3  UNL     1       6.141   7.793  15.747  1.00  0.00     0.185 HD
HETATM    7  C6  UNL     1       7.501   6.651  14.732  1.00  0.00     0.691 A 
HETATM    8  N5  UNL     1       8.546   6.694  13.864  1.00  0.00    -0.023 N 
ATOM      9  H5  UNL     1       8.991   5.821  13.580  1.00  0.00     0.203 HD
ENDROOT
BRANCH   1  10
HETATM   10  N1  UNL     1       9.987   7.861  12.566  1.00  0.00    -0.222 N 
ATOM     11  H1  UNL     1      10.371   8.773  12.320  1.00  0.00     0.178 HD
BRANCH  10  12
HETATM   12  C3  UNL     1      10.599   6.715  11.968  1.00  0.00     0.164 C 
BRANCH  12  13
HETATM   13  C2  UNL     1      11.963   6.557  12.569  1.00  0.00    -0.017 C 
HETATM   14  C1  UNL     1      12.726   5.509  12.245  1.00  0.00     0.008 C 
ENDBRANCH  12  13
ENDBRANCH  10  12
ENDBRANCH   1  10
BRANCH   7  15
HETATM   15  N4  UNL     1       7.085   5.493  15.184  1.00  0.00    -0.234 N 
ATOM     16  H42 UNL     1       7.611   5.024  15.922  1.00  0.00     0.174 HD
ATOM     17  H41 UNL     1       6.247   5.040  14.823  1.00  0.00     0.174 HD
ENDBRANCH   7  15
TORSDOF 4
ENDMDL
