MODEL 1
REMARK VINA RESULT: -4.279986734      0.000      0.000
REMARK  5 active torsions:
REMARK  status: ('A' for Active; 'I' for Inactive)
REMARK    1  A    between atoms: N1_1  and  C1_5 
REMARK    2  A    between atoms: C1_5  and  C2_6 
REMARK    3  A    between atoms: C3_7  and  C4_8 
REMARK    4  A    between atoms: C4_8  and  C5_9 
REMARK    5  A    between atoms: C5_9  and  N2_10 
ROOT
HETATM    1  C4  UNL     1       9.256   7.750  13.308  1.00  0.00     0.057 C 
ENDROOT
BRANCH   1   2
HETATM    2  C3  UNL     1       7.982   8.181  13.895  1.00  0.00    -0.027 C 
HETATM    3  C2  UNL     1       7.805   9.424  14.296  1.00  0.00    -0.004 C 
BRANCH   3   4
HETATM    4  C1  UNL     1       6.462   9.786  14.888  1.00  0.00     0.256 C 
BRANCH   4   5
HETATM    5  N1  UNL     1       6.411   9.300  16.253  1.00  0.00    -0.076 N 
ATOM      6  H13 UNL     1       6.834   8.377  16.356  1.00  0.00     0.274 HD
ATOM      7  H12 UNL     1       7.039   9.811  16.873  1.00  0.00     0.274 HD
ATOM      8  H11 UNL     1       5.443   9.323  16.572  1.00  0.00     0.274 HD
ENDBRANCH   4   5
ENDBRANCH   3   4
ENDBRANCH   1   2
BRANCH   1   9
HETATM    9  C5  UNL     1       9.086   6.667  12.264  1.00  0.00     0.278 C 
BRANCH   9  10
HETATM   10  N2  UNL     1      10.404   6.519  11.650  1.00  0.00     0.115 N 
HETATM   11  C6  UNL     1      10.728   5.129  11.375  1.00  0.00     0.302 C 
HETATM   12  C7  UNL     1      12.233   5.129  11.566  1.00  0.00     0.264 C 
HETATM   13  N3  UNL     1      12.310   5.869  12.829  1.00  0.00    -0.047 N 
HETATM   14  C8  UNL     1      11.438   7.021  12.533  1.00  0.00     0.502 C 
ATOM     15  H32 UNL     1      12.066   5.337  13.664  1.00  0.00     0.279 HD
ATOM     16  H31 UNL     1      13.251   6.102  13.144  1.00  0.00     0.279 HD
ENDBRANCH   9  10
ENDBRANCH   1   9
TORSDOF 5
ENDMDL
MODEL 2
REMARK VINA RESULT: -3.927878641      1.341      1.373
REMARK  5 active torsions:
REMARK  status: ('A' for Active; 'I' for Inactive)
REMARK    1  A    between atoms: N1_1  and  C1_5 
REMARK    2  A    between atoms: C1_5  and  C2_6 
REMARK    3  A    between atoms: C3_7  and  C4_8 
REMARK    4  A    between atoms: C4_8  and  C5_9 
REMARK    5  A    between atoms: C5_9  and  N2_10 
ROOT
HETATM    1  C4  UNL     1       8.545   6.479  13.578  1.00  0.00     0.057 C 
ENDROOT
BRANCH   1   2
HETATM    2  C3  UNL     1       8.247   7.869  13.941  1.00  0.00    -0.027 C 
HETATM    3  C2  UNL     1       7.278   8.156  14.785  1.00  0.00    -0.004 C 
BRANCH   3   4
HETATM    4  C1  UNL     1       7.037   9.614  15.107  1.00  0.00     0.256 C 
BRANCH   4   5
HETATM    5  N1  UNL     1       7.847  10.424  14.217  1.00  0.00    -0.076 N 
ATOM      6  H13 UNL     1       7.312  10.797  13.432  1.00  0.00     0.274 HD
ATOM      7  H12 UNL     1       8.118  11.313  14.637  1.00  0.00     0.274 HD
ATOM      8  H11 UNL     1       8.650   9.873  13.916  1.00  0.00     0.274 HD
ENDBRANCH   4   5
ENDBRANCH   3   4
ENDBRANCH   1   2
BRANCH   1   9
HETATM    9  C5  UNL     1       8.652   6.271  12.081  1.00  0.00     0.278 C 
BRANCH   9  10
HETATM   10  N2  UNL     1      10.016   5.798  11.858  1.00  0.00     0.115 N 
HETATM   11  C6  UNL     1      10.563   5.132  13.029  1.00  0.00     0.302 C 
HETATM   12  C7  UNL     1      12.034   5.482  12.913  1.00  0.00     0.264 C 
HETATM   13  N3  UNL     1      11.912   6.916  12.632  1.00  0.00    -0.047 N 
HETATM   14  C8  UNL     1      10.900   6.906  11.560  1.00  0.00     0.502 C 
ATOM     15  H32 UNL     1      11.694   7.504  13.436  1.00  0.00     0.279 HD
ATOM     16  H31 UNL     1      12.784   7.394  12.407  1.00  0.00     0.279 HD
ENDBRANCH   9  10
ENDBRANCH   1   9
TORSDOF 5
ENDMDL
MODEL 3
REMARK VINA RESULT: -3.906174620      1.166      1.528
REMARK  5 active torsions:
REMARK  status: ('A' for Active; 'I' for Inactive)
REMARK    1  A    between atoms: N1_1  and  C1_5 
REMARK    2  A    between atoms: C1_5  and  C2_6 
REMARK    3  A    between atoms: C3_7  and  C4_8 
REMARK    4  A    between atoms: C4_8  and  C5_9 
REMARK    5  A    between atoms: C5_9  and  N2_10 
ROOT
HETATM    1  C4  UNL     1       8.793   7.017  13.225  1.00  0.00     0.057 C 
ENDROOT
BRANCH   1   2
HETATM    2  C3  UNL     1       8.171   8.179  13.869  1.00  0.00    -0.027 C 
HETATM    3  C2  UNL     1       7.044   8.060  14.542  1.00  0.00    -0.004 C 
BRANCH   3   4
HETATM    4  C1  UNL     1       6.470   9.307  15.176  1.00  0.00     0.256 C 
BRANCH   4   5
HETATM    5  N1  UNL     1       7.519  10.303  15.271  1.00  0.00    -0.076 N 
ATOM      6  H13 UNL     1       8.434   9.933  15.011  1.00  0.00     0.274 HD
ATOM      7  H12 UNL     1       7.447  11.017  14.547  1.00  0.00     0.274 HD
ATOM      8  H11 UNL     1       7.510  10.698  16.211  1.00  0.00     0.274 HD
ENDBRANCH   4   5
ENDBRANCH   3   4
ENDBRANCH   1   2
BRANCH   1   9
HETATM    9  C5  UNL     1      10.106   7.352  12.549  1.00  0.00     0.278 C 
BRANCH   9  10
HETATM   10  N2  UNL     1      10.909   6.136  12.654  1.00  0.00     0.115 N 
HETATM   11  C6  UNL     1      12.336   6.420  12.666  1.00  0.00     0.302 C 
HETATM   12  C7  UNL     1      12.892   5.193  11.969  1.00  0.00     0.264 C 
HETATM   13  N3  UNL     1      11.967   5.129  10.834  1.00  0.00    -0.047 N 
HETATM   14  C8  UNL     1      10.669   5.266  11.521  1.00  0.00     0.502 C 
ATOM     15  H32 UNL     1      12.141   5.801  10.087  1.00  0.00     0.279 HD
ATOM     16  H31 UNL     1      12.062   4.307  10.237  1.00  0.00     0.279 HD
ENDBRANCH   9  10
ENDBRANCH   1   9
TORSDOF 5
ENDMDL
MODEL 4
REMARK VINA RESULT: -3.746300863      1.626      5.605
REMARK  5 active torsions:
REMARK  status: ('A' for Active; 'I' for Inactive)
REMARK    1  A    between atoms: N1_1  and  C1_5 
REMARK    2  A    between atoms: C1_5  and  C2_6 
REMARK    3  A    between atoms: C3_7  and  C4_8 
REMARK    4  A    between atoms: C4_8  and  C5_9 
REMARK    5  A    between atoms: C5_9  and  N2_10 
ROOT
HETATM    1  C4  UNL     1       9.827   7.583  12.787  1.00  0.00     0.057 C 
ENDROOT
BRANCH   1   2
HETATM    2  C3  UNL     1      11.129   6.984  12.471  1.00  0.00    -0.027 C 
HETATM    3  C2  UNL     1      11.269   5.677  12.377  1.00  0.00    -0.004 C 
BRANCH   3   4
HETATM    4  C1  UNL     1      12.644   5.141  12.048  1.00  0.00     0.256 C 
BRANCH   4   5
HETATM    5  N1  UNL     1      13.613   6.203  12.239  1.00  0.00    -0.076 N 
ATOM      6  H13 UNL     1      14.525   5.976  11.841  1.00  0.00     0.274 HD
ATOM      7  H12 UNL     1      13.411   7.023  11.669  1.00  0.00     0.274 HD
ATOM      8  H11 UNL     1      13.665   6.421  13.234  1.00  0.00     0.274 HD
ENDBRANCH   4   5
ENDBRANCH   3   4
ENDBRANCH   1   2
BRANCH   1   9
HETATM    9  C5  UNL     1       8.703   6.569  12.809  1.00  0.00     0.278 C 
BRANCH   9  10
HETATM   10  N2  UNL     1       7.545   7.295  13.326  1.00  0.00     0.115 N 
HETATM   11  C6  UNL     1       7.933   8.448  14.123  1.00  0.00     0.302 C 
HETATM   12  C7  UNL     1       6.809   8.501  15.140  1.00  0.00     0.264 C 
HETATM   13  N3  UNL     1       6.764   7.085  15.515  1.00  0.00    -0.047 N 
HETATM   14  C8  UNL     1       6.751   6.443  14.187  1.00  0.00     0.502 C 
ATOM     15  H32 UNL     1       7.504   6.774  16.145  1.00  0.00     0.279 HD
ATOM     16  H31 UNL     1       6.001   6.820  16.138  1.00  0.00     0.279 HD
ENDBRANCH   9  10
ENDBRANCH   1   9
TORSDOF 5
ENDMDL
MODEL 5
REMARK VINA RESULT: -3.724084937      1.624      5.418
REMARK  5 active torsions:
REMARK  status: ('A' for Active; 'I' for Inactive)
REMARK    1  A    between atoms: N1_1  and  C1_5 
REMARK    2  A    between atoms: C1_5  and  C2_6 
REMARK    3  A    between atoms: C3_7  and  C4_8 
REMARK    4  A    between atoms: C4_8  and  C5_9 
REMARK    5  A    between atoms: C5_9  and  N2_10 
ROOT
HETATM    1  C4  UNL     1       9.308   5.129  11.992  1.00  0.00     0.057 C 
ENDROOT
BRANCH   1   2
HETATM    2  C3  UNL     1      10.705   5.318  11.585  1.00  0.00    -0.027 C 
HETATM    3  C2  UNL     1      11.691   5.140  12.441  1.00  0.00    -0.004 C 
BRANCH   3   4
HETATM    4  C1  UNL     1      13.102   5.355  11.940  1.00  0.00     0.256 C 
BRANCH   4   5
HETATM    5  N1  UNL     1      13.535   6.682  12.334  1.00  0.00    -0.076 N 
ATOM      6  H13 UNL     1      12.892   7.411  12.024  1.00  0.00     0.274 HD
ATOM      7  H12 UNL     1      13.452   6.839  13.337  1.00  0.00     0.274 HD
ATOM      8  H11 UNL     1      14.486   6.828  11.993  1.00  0.00     0.274 HD
ENDBRANCH   4   5
ENDBRANCH   3   4
ENDBRANCH   1   2
BRANCH   1   9
HETATM    9  C5  UNL     1       8.493   6.402  11.909  1.00  0.00     0.278 C 
BRANCH   9  10
HETATM   10  N2  UNL     1       8.402   6.887  13.284  1.00  0.00     0.115 N 
HETATM   11  C6  UNL     1       7.033   7.194  13.668  1.00  0.00     0.302 C 
HETATM   12  C7  UNL     1       7.244   8.345  14.633  1.00  0.00     0.264 C 
HETATM   13  N3  UNL     1       8.189   9.142  13.845  1.00  0.00    -0.047 N 
HETATM   14  C8  UNL     1       9.163   8.109  13.447  1.00  0.00     0.502 C 
ATOM     15  H32 UNL     1       7.780   9.678  13.080  1.00  0.00     0.279 HD
ATOM     16  H31 UNL     1       8.581   9.954  14.321  1.00  0.00     0.279 HD
ENDBRANCH   9  10
ENDBRANCH   1   9
TORSDOF 5
ENDMDL
