MODEL 1
REMARK VINA RESULT: -4.239769852      0.000      0.000
REMARK  5 active torsions:
REMARK  status: ('A' for Active; 'I' for Inactive)
REMARK    1  A    between atoms: C2_2  and  C3_3 
REMARK    2  A    between atoms: C3_3  and  N1_4 
REMARK    3  A    between atoms: N1_4  and  C4_7 
REMARK    4  A    between atoms: C4_7  and  C5_8 
REMARK    5  A    between atoms: C6_9  and  C7_10 
ROOT
HETATM    1  C4  UNL     1      10.522   7.379  12.579  1.00  0.00     0.325 C 
ENDROOT
BRANCH   1   2
HETATM    2  N1  UNL     1      10.238   6.555  11.458  1.00  0.00    -0.065 N 
ATOM      3  H12 UNL     1      10.322   7.087  10.592  1.00  0.00     0.278 HD
ATOM      4  H11 UNL     1       9.244   6.327  11.423  1.00  0.00     0.278 HD
BRANCH   2   5
HETATM    5  C3  UNL     1      11.024   5.374  11.398  1.00  0.00     0.233 C 
BRANCH   5   6
HETATM    6  C2  UNL     1      12.095   5.385  12.501  1.00  0.00     0.023 C 
HETATM    7  C1  UNL     1      13.460   5.129  11.919  1.00  0.00     0.007 C 
ENDBRANCH   5   6
ENDBRANCH   2   5
ENDBRANCH   1   2
BRANCH   1   8
HETATM    8  C5  UNL     1       9.263   7.758  13.247  1.00  0.00    -0.077 C 
HETATM    9  C6  UNL     1       8.217   8.114  13.777  1.00  0.00    -0.081 C 
BRANCH   9  10
HETATM   10  C7  UNL     1       6.979   8.585  14.390  1.00  0.00     0.190 C 
HETATM   11  C8  UNL     1       7.148   8.989  15.807  1.00  0.00     0.165 C 
HETATM   12  N2  UNL     1       7.472  10.313  15.320  1.00  0.00    -0.145 NA
HETATM   13  N3  UNL     1       6.731  10.011  14.144  1.00  0.00    -0.130 NA
ENDBRANCH   9  10
ENDBRANCH   1   8
TORSDOF 5
ENDMDL
MODEL 2
REMARK VINA RESULT: -3.765710408      1.764      5.815
REMARK  5 active torsions:
REMARK  status: ('A' for Active; 'I' for Inactive)
REMARK    1  A    between atoms: C2_2  and  C3_3 
REMARK    2  A    between atoms: C3_3  and  N1_4 
REMARK    3  A    between atoms: N1_4  and  C4_7 
REMARK    4  A    between atoms: C4_7  and  C5_8 
REMARK    5  A    between atoms: C6_9  and  C7_10 
ROOT
HETATM    1  C4  UNL     1       7.415   6.421  14.855  1.00  0.00     0.325 C 
ENDROOT
BRANCH   1   2
HETATM    2  N1  UNL     1       6.416   7.427  14.779  1.00  0.00    -0.065 N 
ATOM      3  H12 UNL     1       5.491   7.008  14.693  1.00  0.00     0.278 HD
ATOM      4  H11 UNL     1       6.467   7.916  13.884  1.00  0.00     0.278 HD
BRANCH   2   5
HETATM    5  C3  UNL     1       6.448   8.353  15.857  1.00  0.00     0.233 C 
BRANCH   5   6
HETATM    6  C2  UNL     1       6.411   9.795  15.327  1.00  0.00     0.023 C 
HETATM    7  C1  UNL     1       7.665  10.110  14.555  1.00  0.00     0.007 C 
ENDBRANCH   5   6
ENDBRANCH   2   5
ENDBRANCH   1   2
BRANCH   1   8
HETATM    8  C5  UNL     1       8.469   6.694  13.862  1.00  0.00    -0.077 C 
HETATM    9  C6  UNL     1       9.344   6.874  13.023  1.00  0.00    -0.081 C 
BRANCH   9  10
HETATM   10  C7  UNL     1      10.390   7.038  12.018  1.00  0.00     0.190 C 
HETATM   11  C8  UNL     1      11.717   6.560  12.475  1.00  0.00     0.165 C 
HETATM   12  N2  UNL     1      11.352   5.258  11.958  1.00  0.00    -0.145 NA
HETATM   13  N3  UNL     1      10.451   5.915  11.074  1.00  0.00    -0.130 NA
ENDBRANCH   9  10
ENDBRANCH   1   8
TORSDOF 5
ENDMDL
MODEL 3
REMARK VINA RESULT: -3.674717738      1.002      1.180
REMARK  5 active torsions:
REMARK  status: ('A' for Active; 'I' for Inactive)
REMARK    1  A    between atoms: C2_2  and  C3_3 
REMARK    2  A    between atoms: C3_3  and  N1_4 
REMARK    3  A    between atoms: N1_4  and  C4_7 
REMARK    4  A    between atoms: C4_7  and  C5_8 
REMARK    5  A    between atoms: C6_9  and  C7_10 
ROOT
HETATM    1  C4  UNL     1       9.280   5.738  13.466  1.00  0.00     0.325 C 
ENDROOT
BRANCH   1   2
HETATM    2  N1  UNL     1       9.760   5.925  12.142  1.00  0.00    -0.065 N 
ATOM      3  H12 UNL     1       8.983   6.017  11.489  1.00  0.00     0.278 HD
ATOM      4  H11 UNL     1      10.181   5.066  11.788  1.00  0.00     0.278 HD
BRANCH   2   5
HETATM    5  C3  UNL     1      10.661   7.016  12.006  1.00  0.00     0.233 C 
BRANCH   5   6
HETATM    6  C2  UNL     1      11.989   6.707  12.714  1.00  0.00     0.023 C 
HETATM    7  C1  UNL     1      12.654   5.506  12.096  1.00  0.00     0.007 C 
ENDBRANCH   5   6
ENDBRANCH   2   5
ENDBRANCH   1   2
BRANCH   1   8
HETATM    8  C5  UNL     1       8.369   6.841  13.822  1.00  0.00    -0.077 C 
HETATM    9  C6  UNL     1       7.583   7.745  14.082  1.00  0.00    -0.081 C 
BRANCH   9  10
HETATM   10  C7  UNL     1       6.623   8.812  14.348  1.00  0.00     0.190 C 
HETATM   11  C8  UNL     1       6.712   9.344  15.730  1.00  0.00     0.165 C 
HETATM   12  N2  UNL     1       7.697  10.282  15.233  1.00  0.00    -0.145 NA
HETATM   13  N3  UNL     1       7.117  10.133  13.942  1.00  0.00    -0.130 NA
ENDBRANCH   9  10
ENDBRANCH   1   8
TORSDOF 5
ENDMDL
MODEL 4
REMARK VINA RESULT: -3.544074816      1.866      5.149
REMARK  5 active torsions:
REMARK  status: ('A' for Active; 'I' for Inactive)
REMARK    1  A    between atoms: C2_2  and  C3_3 
REMARK    2  A    between atoms: C3_3  and  N1_4 
REMARK    3  A    between atoms: N1_4  and  C4_7 
REMARK    4  A    between atoms: C4_7  and  C5_8 
REMARK    5  A    between atoms: C6_9  and  C7_10 
ROOT
HETATM    1  C4  UNL     1       8.005   8.678  14.184  1.00  0.00     0.325 C 
ENDROOT
BRANCH   1   2
HETATM    2  N1  UNL     1       7.280   7.617  14.787  1.00  0.00    -0.065 N 
ATOM      3  H12 UNL     1       6.768   7.951  15.603  1.00  0.00     0.278 HD
ATOM      4  H11 UNL     1       7.916   6.960  15.241  1.00  0.00     0.278 HD
BRANCH   2   5
HETATM    5  C3  UNL     1       6.410   6.934  13.895  1.00  0.00     0.233 C 
BRANCH   5   6
HETATM    6  C2  UNL     1       6.824   5.460  13.765  1.00  0.00     0.023 C 
HETATM    7  C1  UNL     1       7.217   5.142  12.346  1.00  0.00     0.007 C 
ENDBRANCH   5   6
ENDBRANCH   2   5
ENDBRANCH   1   2
BRANCH   1   8
HETATM    8  C5  UNL     1       9.105   8.127  13.371  1.00  0.00    -0.077 C 
HETATM    9  C6  UNL     1       9.987   7.641  12.673  1.00  0.00    -0.081 C 
BRANCH   9  10
HETATM   10  C7  UNL     1      11.005   7.026  11.826  1.00  0.00     0.190 C 
HETATM   11  C8  UNL     1      12.039   6.294  12.597  1.00  0.00     0.165 C 
HETATM   12  N2  UNL     1      11.184   5.129  12.505  1.00  0.00    -0.145 NA
HETATM   13  N3  UNL     1      10.610   5.701  11.336  1.00  0.00    -0.130 NA
ENDBRANCH   9  10
ENDBRANCH   1   8
TORSDOF 5
ENDMDL
MODEL 5
REMARK VINA RESULT: -3.477850534      1.872      1.955
REMARK  5 active torsions:
REMARK  status: ('A' for Active; 'I' for Inactive)
REMARK    1  A    between atoms: C2_2  and  C3_3 
REMARK    2  A    between atoms: C3_3  and  N1_4 
REMARK    3  A    between atoms: N1_4  and  C4_7 
REMARK    4  A    between atoms: C4_7  and  C5_8 
REMARK    5  A    between atoms: C6_9  and  C7_10 
ROOT
HETATM    1  C4  UNL     1      10.366   7.681  12.673  1.00  0.00     0.325 C 
ENDROOT
BRANCH   1   2
HETATM    2  N1  UNL     1      10.565   6.967  11.462  1.00  0.00    -0.065 N 
ATOM      3  H12 UNL     1      11.302   7.402  10.906  1.00  0.00     0.278 HD
ATOM      4  H11 UNL     1       9.774   7.100  10.832  1.00  0.00     0.278 HD
BRANCH   2   5
HETATM    5  C3  UNL     1      10.830   5.583  11.646  1.00  0.00     0.233 C 
BRANCH   5   6
HETATM    6  C2  UNL     1      11.991   5.386  12.633  1.00  0.00     0.023 C 
HETATM    7  C1  UNL     1      13.279   5.131  11.894  1.00  0.00     0.007 C 
ENDBRANCH   5   6
ENDBRANCH   2   5
ENDBRANCH   1   2
BRANCH   1   8
HETATM    8  C5  UNL     1       8.998   7.442  13.169  1.00  0.00    -0.077 C 
HETATM    9  C6  UNL     1       7.876   7.256  13.625  1.00  0.00    -0.081 C 
BRANCH   9  10
HETATM   10  C7  UNL     1       6.559   7.038  14.215  1.00  0.00     0.190 C 
HETATM   11  C8  UNL     1       6.410   5.696  14.828  1.00  0.00     0.165 C 
HETATM   12  N2  UNL     1       6.922   6.274  16.054  1.00  0.00    -0.145 NA
HETATM   13  N3  UNL     1       6.465   7.539  15.592  1.00  0.00    -0.130 NA
ENDBRANCH   9  10
ENDBRANCH   1   8
TORSDOF 5
ENDMDL
