MODEL 1
REMARK VINA RESULT: -4.639000868      0.000      0.000
REMARK  5 active torsions:
REMARK  status: ('A' for Active; 'I' for Inactive)
REMARK    1  A    between atoms: N1_1  and  C1_5 
REMARK    2  A    between atoms: C1_5  and  C2_6 
REMARK    3  A    between atoms: C2_6  and  N2_7 
REMARK    4  A    between atoms: N2_7  and  N3_9 
REMARK    5  A    between atoms: N3_9  and  C3_11 
ROOT
HETATM    1  N3  UNL     1       9.861   7.806  12.644  1.00  0.00    -0.290 N 
ATOM      2  H3  UNL     1      10.683   8.405  12.715  1.00  0.00     0.188 HD
ENDROOT
BRANCH   1   3
HETATM    3  N2  UNL     1       9.782   6.822  11.673  1.00  0.00    -0.333 N 
ATOM      4  H2  UNL     1       8.959   6.773  11.073  1.00  0.00     0.180 HD
BRANCH   3   5
HETATM    5  C2  UNL     1      10.838   5.872  11.497  1.00  0.00     0.166 C 
BRANCH   5   6
HETATM    6  C1  UNL     1      11.753   5.891  12.689  1.00  0.00     0.250 C 
BRANCH   6   7
HETATM    7  N1  UNL     1      13.131   5.835  12.292  1.00  0.00    -0.078 N 
ATOM      8  H13 UNL     1      13.225   5.661  11.291  1.00  0.00     0.274 HD
ATOM      9  H12 UNL     1      13.569   6.756  12.332  1.00  0.00     0.274 HD
ATOM     10  H11 UNL     1      13.648   5.150  12.841  1.00  0.00     0.274 HD
ENDBRANCH   6   7
ENDBRANCH   5   6
ENDBRANCH   3   5
ENDBRANCH   1   3
BRANCH   1  11
HETATM   11  C3  UNL     1       8.874   7.948  13.453  1.00  0.00     0.119 A 
HETATM   12  C4  UNL     1       8.272   6.853  14.009  1.00  0.00     0.050 A 
HETATM   13  C5  UNL     1       7.197   6.952  14.892  1.00  0.00     0.005 A 
HETATM   14  C6  UNL     1       6.765   8.231  15.182  1.00  0.00     0.017 A 
HETATM   15  C7  UNL     1       7.357   9.334  14.633  1.00  0.00     0.089 A 
HETATM   16  N4  UNL     1       8.388   9.155  13.789  1.00  0.00    -0.351 N 
ATOM     17  H4  UNL     1       8.827   9.980  13.382  1.00  0.00     0.166 HD
ENDBRANCH   1  11
TORSDOF 5
ENDMDL
MODEL 2
REMARK VINA RESULT: -4.440418540      0.879      1.117
REMARK  5 active torsions:
REMARK  status: ('A' for Active; 'I' for Inactive)
REMARK    1  A    between atoms: N1_1  and  C1_5 
REMARK    2  A    between atoms: C1_5  and  C2_6 
REMARK    3  A    between atoms: C2_6  and  N2_7 
REMARK    4  A    between atoms: N2_7  and  N3_9 
REMARK    5  A    between atoms: N3_9  and  C3_11 
ROOT
HETATM    1  N3  UNL     1       9.020   7.210  13.106  1.00  0.00    -0.290 N 
ATOM      2  H3  UNL     1       8.836   6.222  12.934  1.00  0.00     0.188 HD
ENDROOT
BRANCH   1   3
HETATM    3  N2  UNL     1      10.108   7.840  12.525  1.00  0.00    -0.333 N 
ATOM      4  H2  UNL     1      10.037   8.822  12.260  1.00  0.00     0.180 HD
BRANCH   3   5
HETATM    5  C2  UNL     1      11.332   7.135  12.291  1.00  0.00     0.166 C 
BRANCH   5   6
HETATM    6  C1  UNL     1      11.203   5.711  12.754  1.00  0.00     0.250 C 
BRANCH   6   7
HETATM    7  N1  UNL     1      12.435   5.229  13.309  1.00  0.00    -0.078 N 
ATOM      8  H13 UNL     1      13.231   5.785  12.994  1.00  0.00     0.274 HD
ATOM      9  H12 UNL     1      12.496   5.421  14.309  1.00  0.00     0.274 HD
ATOM     10  H11 UNL     1      12.570   4.238  13.109  1.00  0.00     0.274 HD
ENDBRANCH   6   7
ENDBRANCH   5   6
ENDBRANCH   3   5
ENDBRANCH   1   3
BRANCH   1  11
HETATM   11  C3  UNL     1       8.246   7.899  13.865  1.00  0.00     0.119 A 
HETATM   12  C4  UNL     1       7.344   7.276  14.683  1.00  0.00     0.050 A 
HETATM   13  C5  UNL     1       6.482   7.976  15.525  1.00  0.00     0.005 A 
HETATM   14  C6  UNL     1       6.587   9.353  15.492  1.00  0.00     0.017 A 
HETATM   15  C7  UNL     1       7.483   9.989  14.680  1.00  0.00     0.089 A 
HETATM   16  N4  UNL     1       8.280   9.241  13.896  1.00  0.00    -0.351 N 
ATOM     17  H4  UNL     1       8.948   9.720  13.292  1.00  0.00     0.166 HD
ENDBRANCH   1  11
TORSDOF 5
ENDMDL
MODEL 3
REMARK VINA RESULT: -4.400015954      1.077      1.145
REMARK  5 active torsions:
REMARK  status: ('A' for Active; 'I' for Inactive)
REMARK    1  A    between atoms: N1_1  and  C1_5 
REMARK    2  A    between atoms: C1_5  and  C2_6 
REMARK    3  A    between atoms: C2_6  and  N2_7 
REMARK    4  A    between atoms: N2_7  and  N3_9 
REMARK    5  A    between atoms: N3_9  and  C3_11 
ROOT
HETATM    1  N3  UNL     1      10.356   7.195  11.957  1.00  0.00    -0.290 N 
ATOM      2  H3  UNL     1      11.090   7.903  11.973  1.00  0.00     0.188 HD
ENDROOT
BRANCH   1   3
HETATM    3  N2  UNL     1      10.486   6.058  11.178  1.00  0.00    -0.333 N 
ATOM      4  H2  UNL     1       9.810   5.879  10.435  1.00  0.00     0.180 HD
BRANCH   3   5
HETATM    5  C2  UNL     1      11.553   5.129  11.398  1.00  0.00     0.166 C 
BRANCH   5   6
HETATM    6  C1  UNL     1      12.534   5.694  12.386  1.00  0.00     0.250 C 
BRANCH   6   7
HETATM    7  N1  UNL     1      13.887   5.459  11.972  1.00  0.00    -0.078 N 
ATOM      8  H13 UNL     1      14.139   6.038  11.170  1.00  0.00     0.274 HD
ATOM      9  H12 UNL     1      14.555   5.829  12.648  1.00  0.00     0.274 HD
ATOM     10  H11 UNL     1      14.052   4.470  11.786  1.00  0.00     0.274 HD
ENDBRANCH   6   7
ENDBRANCH   5   6
ENDBRANCH   3   5
ENDBRANCH   1   3
BRANCH   1  11
HETATM   11  C3  UNL     1       9.291   7.339  12.659  1.00  0.00     0.119 A 
HETATM   12  C4  UNL     1       8.331   6.365  12.667  1.00  0.00     0.050 A 
HETATM   13  C5  UNL     1       7.156   6.472  13.410  1.00  0.00     0.005 A 
HETATM   14  C6  UNL     1       7.008   7.628  14.151  1.00  0.00     0.017 A 
HETATM   15  C7  UNL     1       7.960   8.610  14.152  1.00  0.00     0.089 A 
HETATM   16  N4  UNL     1       9.065   8.431  13.407  1.00  0.00    -0.351 N 
ATOM     17  H4  UNL     1       9.772   9.166  13.411  1.00  0.00     0.166 HD
ENDBRANCH   1  11
TORSDOF 5
ENDMDL
MODEL 4
REMARK VINA RESULT: -4.289123422      1.197      1.765
REMARK  5 active torsions:
REMARK  status: ('A' for Active; 'I' for Inactive)
REMARK    1  A    between atoms: N1_1  and  C1_5 
REMARK    2  A    between atoms: C1_5  and  C2_6 
REMARK    3  A    between atoms: C2_6  and  N2_7 
REMARK    4  A    between atoms: N2_7  and  N3_9 
REMARK    5  A    between atoms: N3_9  and  C3_11 
ROOT
HETATM    1  N3  UNL     1       9.954   7.916  12.581  1.00  0.00    -0.290 N 
ATOM      2  H3  UNL     1      10.085   8.899  12.344  1.00  0.00     0.188 HD
ENDROOT
BRANCH   1   3
HETATM    3  N2  UNL     1      10.788   6.943  12.057  1.00  0.00    -0.333 N 
ATOM      4  H2  UNL     1      10.445   6.334  11.313  1.00  0.00     0.180 HD
BRANCH   3   5
HETATM    5  C2  UNL     1      12.125   6.776  12.540  1.00  0.00     0.166 C 
BRANCH   5   6
HETATM    6  C1  UNL     1      12.588   5.367  12.301  1.00  0.00     0.250 C 
BRANCH   6   7
HETATM    7  N1  UNL     1      13.984   5.323  11.972  1.00  0.00    -0.078 N 
ATOM      8  H13 UNL     1      14.322   6.233  11.658  1.00  0.00     0.274 HD
ATOM      9  H12 UNL     1      14.562   5.220  12.806  1.00  0.00     0.274 HD
ATOM     10  H11 UNL     1      14.181   4.594  11.287  1.00  0.00     0.274 HD
ENDBRANCH   6   7
ENDBRANCH   5   6
ENDBRANCH   3   5
ENDBRANCH   1   3
BRANCH   1  11
HETATM   11  C3  UNL     1       9.010   7.552  13.372  1.00  0.00     0.119 A 
HETATM   12  C4  UNL     1       8.168   8.481  13.919  1.00  0.00     0.050 A 
HETATM   13  C5  UNL     1       7.129   8.139  14.784  1.00  0.00     0.005 A 
HETATM   14  C6  UNL     1       6.989   6.793  15.063  1.00  0.00     0.017 A 
HETATM   15  C7  UNL     1       7.823   5.854  14.523  1.00  0.00     0.089 A 
HETATM   16  N4  UNL     1       8.802   6.265  13.698  1.00  0.00    -0.351 N 
ATOM     17  H4  UNL     1       9.421   5.561  13.298  1.00  0.00     0.166 HD
ENDBRANCH   1  11
TORSDOF 5
ENDMDL
MODEL 5
REMARK VINA RESULT: -4.244363293      1.403      5.118
REMARK  5 active torsions:
REMARK  status: ('A' for Active; 'I' for Inactive)
REMARK    1  A    between atoms: N1_1  and  C1_5 
REMARK    2  A    between atoms: C1_5  and  C2_6 
REMARK    3  A    between atoms: C2_6  and  N2_7 
REMARK    4  A    between atoms: N2_7  and  N3_9 
REMARK    5  A    between atoms: N3_9  and  C3_11 
ROOT
HETATM    1  N3  UNL     1       9.775   8.132  13.005  1.00  0.00    -0.290 N 
ATOM      2  H3  UNL     1      10.204   9.035  13.208  1.00  0.00     0.188 HD
ENDROOT
BRANCH   1   3
HETATM    3  N2  UNL     1       8.435   7.909  13.272  1.00  0.00    -0.333 N 
ATOM      4  H2  UNL     1       7.840   7.506  12.549  1.00  0.00     0.180 HD
BRANCH   3   5
HETATM    5  C2  UNL     1       7.870   8.235  14.547  1.00  0.00     0.166 C 
BRANCH   5   6
HETATM    6  C1  UNL     1       7.567   9.706  14.615  1.00  0.00     0.250 C 
BRANCH   6   7
HETATM    7  N1  UNL     1       6.713  10.012  15.726  1.00  0.00    -0.078 N 
ATOM      8  H13 UNL     1       5.752   9.716  15.552  1.00  0.00     0.274 HD
ATOM      9  H12 UNL     1       6.918   9.418  16.530  1.00  0.00     0.274 HD
ATOM     10  H11 UNL     1       6.761  11.001  15.970  1.00  0.00     0.274 HD
ENDBRANCH   6   7
ENDBRANCH   5   6
ENDBRANCH   3   5
ENDBRANCH   1   3
BRANCH   1  11
HETATM   11  C3  UNL     1      10.466   7.177  12.498  1.00  0.00     0.119 A 
HETATM   12  C4  UNL     1       9.878   6.264  11.665  1.00  0.00     0.050 A 
HETATM   13  C5  UNL     1      10.582   5.208  11.089  1.00  0.00     0.005 A 
HETATM   14  C6  UNL     1      11.925   5.129  11.404  1.00  0.00     0.017 A 
HETATM   15  C7  UNL     1      12.525   6.033  12.235  1.00  0.00     0.089 A 
HETATM   16  N4  UNL     1      11.776   7.024  12.751  1.00  0.00    -0.351 N 
ATOM     17  H4  UNL     1      12.228   7.697  13.370  1.00  0.00     0.166 HD
ENDBRANCH   1  11
TORSDOF 5
ENDMDL
