MODEL 1
REMARK VINA RESULT: -3.792918526      0.000      0.000
REMARK  3 active torsions:
REMARK  status: ('A' for Active; 'I' for Inactive)
REMARK    1  A    between atoms: C2_2  and  N1_4 
REMARK    2  A    between atoms: N1_4  and  C4_6 
REMARK    3  A    between atoms: C4_6  and  C5_7 
ROOT
HETATM    1  C5  UNL     1       9.488   7.324  13.410  1.00  0.00     0.249 C 
HETATM    2  C6  UNL     1       8.525   6.172  13.079  1.00  0.00     0.270 C 
HETATM    3  N2  UNL     1       7.180   6.610  12.867  1.00  0.00    -0.071 N 
ATOM      4  H21 UNL     1       6.574   5.822  12.640  1.00  0.00     0.277 HD
ATOM      5  H22 UNL     1       7.105   7.138  11.997  1.00  0.00     0.277 HD
HETATM    6  C7  UNL     1       6.645   7.367  13.973  1.00  0.00     0.260 C 
HETATM    7  C8  UNL     1       7.707   8.306  14.532  1.00  0.00     0.260 C 
HETATM    8  N3  UNL     1       8.647   8.512  13.416  1.00  0.00    -0.063 N 
ATOM      9  H31 UNL     1       8.193   8.702  12.523  1.00  0.00     0.278 HD
ATOM     10  H32 UNL     1       9.168   9.387  13.470  1.00  0.00     0.278 HD
ENDROOT
BRANCH   1  11
HETATM   11  C4  UNL     1      10.605   7.391  12.434  1.00  0.00     0.090 C 
BRANCH  11  12
HETATM   12  N1  UNL     1      11.780   6.683  12.682  1.00  0.00    -0.396 N 
ATOM     13  H1  UNL     1      12.471   7.086  13.315  1.00  0.00     0.159 HD
BRANCH  12  14
HETATM   14  C2  UNL     1      12.048   5.440  12.097  1.00  0.00     0.072 C 
HETATM   15  C1  UNL     1      11.372   5.129  10.792  1.00  0.00     0.031 C 
HETATM   16  C3  UNL     1      13.523   5.134  11.911  1.00  0.00     0.031 C 
ENDBRANCH  12  14
ENDBRANCH  11  12
ENDBRANCH   1  11
TORSDOF 3
ENDMDL
MODEL 2
REMARK VINA RESULT: -3.788456169      1.253      5.081
REMARK  3 active torsions:
REMARK  status: ('A' for Active; 'I' for Inactive)
REMARK    1  A    between atoms: C2_2  and  N1_4 
REMARK    2  A    between atoms: N1_4  and  C4_6 
REMARK    3  A    between atoms: C4_6  and  C5_7 
ROOT
HETATM    1  C5  UNL     1      10.410   6.944  12.578  1.00  0.00     0.249 C 
HETATM    2  C6  UNL     1      10.143   6.399  11.164  1.00  0.00     0.270 C 
HETATM    3  N2  UNL     1      10.756   5.130  10.929  1.00  0.00    -0.071 N 
ATOM      4  H21 UNL     1      10.549   4.796   9.987  1.00  0.00     0.277 HD
ATOM      5  H22 UNL     1      10.296   4.399  11.472  1.00  0.00     0.277 HD
HETATM    6  C7  UNL     1      12.179   5.129  11.171  1.00  0.00     0.260 C 
HETATM    7  C8  UNL     1      12.502   5.948  12.415  1.00  0.00     0.260 C 
HETATM    8  N3  UNL     1      11.256   5.938  13.202  1.00  0.00    -0.063 N 
ATOM      9  H31 UNL     1      10.820   5.018  13.274  1.00  0.00     0.278 HD
ATOM     10  H32 UNL     1      11.397   6.079  14.202  1.00  0.00     0.278 HD
ENDROOT
BRANCH   1  11
HETATM   11  C4  UNL     1       9.141   7.192  13.309  1.00  0.00     0.090 C 
BRANCH  11  12
HETATM   12  N1  UNL     1       8.688   8.499  13.477  1.00  0.00    -0.396 N 
ATOM     13  H1  UNL     1       9.237   9.264  13.083  1.00  0.00     0.159 HD
BRANCH  12  14
HETATM   14  C2  UNL     1       7.508   8.804  14.166  1.00  0.00     0.072 C 
HETATM   15  C1  UNL     1       6.965   7.764  15.104  1.00  0.00     0.031 C 
HETATM   16  C3  UNL     1       7.546  10.112  14.935  1.00  0.00     0.031 C 
ENDBRANCH  12  14
ENDBRANCH  11  12
ENDBRANCH   1  11
TORSDOF 3
ENDMDL
MODEL 3
REMARK VINA RESULT: -3.784336819      1.496      2.087
REMARK  3 active torsions:
REMARK  status: ('A' for Active; 'I' for Inactive)
REMARK    1  A    between atoms: C2_2  and  N1_4 
REMARK    2  A    between atoms: N1_4  and  C4_6 
REMARK    3  A    between atoms: C4_6  and  C5_7 
ROOT
HETATM    1  C5  UNL     1       8.611   8.109  14.062  1.00  0.00     0.249 C 
HETATM    2  C6  UNL     1       7.716   7.190  14.912  1.00  0.00     0.270 C 
HETATM    3  N2  UNL     1       6.410   7.729  15.130  1.00  0.00    -0.071 N 
ATOM      4  H21 UNL     1       5.843   7.090  15.687  1.00  0.00     0.277 HD
ATOM      5  H22 UNL     1       5.868   7.726  14.266  1.00  0.00     0.277 HD
HETATM    6  C7  UNL     1       6.426   9.046  15.720  1.00  0.00     0.260 C 
HETATM    7  C8  UNL     1       7.538   9.887  15.103  1.00  0.00     0.260 C 
HETATM    8  N3  UNL     1       7.782   9.272  13.785  1.00  0.00    -0.063 N 
ATOM      9  H31 UNL     1       6.931   9.059  13.265  1.00  0.00     0.278 HD
ATOM     10  H32 UNL     1       8.181   9.911  13.098  1.00  0.00     0.278 HD
ENDROOT
BRANCH   1  11
HETATM   11  C4  UNL     1       9.089   7.415  12.839  1.00  0.00     0.090 C 
BRANCH  11  12
HETATM   12  N1  UNL     1      10.332   7.743  12.302  1.00  0.00    -0.396 N 
ATOM     13  H1  UNL     1      10.618   8.723  12.290  1.00  0.00     0.159 HD
BRANCH  12  14
HETATM   14  C2  UNL     1      11.205   6.781  11.779  1.00  0.00     0.072 C 
HETATM   15  C1  UNL     1      12.328   6.313  12.659  1.00  0.00     0.031 C 
HETATM   16  C3  UNL     1      10.523   5.537  11.239  1.00  0.00     0.031 C 
ENDBRANCH  12  14
ENDBRANCH  11  12
ENDBRANCH   1  11
TORSDOF 3
ENDMDL
MODEL 4
REMARK VINA RESULT: -3.537141792      1.424      2.188
REMARK  3 active torsions:
REMARK  status: ('A' for Active; 'I' for Inactive)
REMARK    1  A    between atoms: C2_2  and  N1_4 
REMARK    2  A    between atoms: N1_4  and  C4_6 
REMARK    3  A    between atoms: C4_6  and  C5_7 
ROOT
HETATM    1  C5  UNL     1       8.905   6.261  11.769  1.00  0.00     0.249 C 
HETATM    2  C6  UNL     1       8.947   7.246  12.949  1.00  0.00     0.270 C 
HETATM    3  N2  UNL     1       8.233   6.776  14.096  1.00  0.00    -0.071 N 
ATOM      4  H21 UNL     1       8.292   7.449  14.860  1.00  0.00     0.277 HD
ATOM      5  H22 UNL     1       8.719   5.989  14.526  1.00  0.00     0.277 HD
HETATM    6  C7  UNL     1       6.859   6.438  13.814  1.00  0.00     0.260 C 
HETATM    7  C8  UNL     1       6.755   5.729  12.469  1.00  0.00     0.260 C 
HETATM    8  N3  UNL     1       8.094   5.152  12.248  1.00  0.00    -0.063 N 
ATOM      9  H31 UNL     1       8.480   4.679  13.065  1.00  0.00     0.278 HD
ATOM     10  H32 UNL     1       8.097   4.340  11.631  1.00  0.00     0.278 HD
ENDROOT
BRANCH   1  11
HETATM   11  C4  UNL     1      10.273   5.860  11.352  1.00  0.00     0.090 C 
BRANCH  11  12
HETATM   12  N1  UNL     1      11.091   5.169  12.245  1.00  0.00    -0.396 N 
ATOM     13  H1  UNL     1      10.762   4.281  12.624  1.00  0.00     0.159 HD
BRANCH  12  14
HETATM   14  C2  UNL     1      12.345   5.648  12.642  1.00  0.00     0.072 C 
HETATM   15  C1  UNL     1      13.548   5.129  11.909  1.00  0.00     0.031 C 
HETATM   16  C3  UNL     1      12.465   7.161  12.667  1.00  0.00     0.031 C 
ENDBRANCH  12  14
ENDBRANCH  11  12
ENDBRANCH   1  11
TORSDOF 3
ENDMDL
MODEL 5
REMARK VINA RESULT: -3.534851486      1.457      5.034
REMARK  3 active torsions:
REMARK  status: ('A' for Active; 'I' for Inactive)
REMARK    1  A    between atoms: C2_2  and  N1_4 
REMARK    2  A    between atoms: N1_4  and  C4_6 
REMARK    3  A    between atoms: C4_6  and  C5_7 
ROOT
HETATM    1  C5  UNL     1       8.975   6.706  12.528  1.00  0.00     0.249 C 
HETATM    2  C6  UNL     1       9.525   5.271  12.588  1.00  0.00     0.270 C 
HETATM    3  N2  UNL     1      10.870   5.207  13.069  1.00  0.00    -0.071 N 
ATOM      4  H21 UNL     1      11.197   4.241  13.106  1.00  0.00     0.277 HD
ATOM      5  H22 UNL     1      10.910   5.436  14.063  1.00  0.00     0.277 HD
HETATM    6  C7  UNL     1      11.786   6.030  12.316  1.00  0.00     0.260 C 
HETATM    7  C8  UNL     1      11.132   7.361  11.964  1.00  0.00     0.260 C 
HETATM    8  N3  UNL     1      10.080   7.539  12.981  1.00  0.00    -0.063 N 
ATOM      9  H31 UNL     1      10.386   7.338  13.932  1.00  0.00     0.278 HD
ATOM     10  H32 UNL     1       9.824   8.512  13.144  1.00  0.00     0.278 HD
ENDROOT
BRANCH   1  11
HETATM   11  C4  UNL     1       7.747   6.848  13.350  1.00  0.00     0.090 C 
BRANCH  11  12
HETATM   12  N1  UNL     1       7.805   7.530  14.564  1.00  0.00    -0.396 N 
ATOM     13  H1  UNL     1       8.491   7.236  15.260  1.00  0.00     0.159 HD
BRANCH  12  14
HETATM   14  C2  UNL     1       6.960   8.605  14.866  1.00  0.00     0.072 C 
HETATM   15  C1  UNL     1       6.410   8.683  16.261  1.00  0.00     0.031 C 
HETATM   16  C3  UNL     1       7.536   9.972  14.543  1.00  0.00     0.031 C 
ENDBRANCH  12  14
ENDBRANCH  11  12
ENDBRANCH   1  11
TORSDOF 3
ENDMDL
