MODEL 1
REMARK VINA RESULT: -9.268722969      0.000      0.000
REMARK  3 active torsions:
REMARK  status: ('A' for Active; 'I' for Inactive)
REMARK    1  A    between atoms: N1_1  and  N2_4 
REMARK    2  A    between atoms: N3_12  and  C5_13 
REMARK    3  A    between atoms: N4_20  and  C11_21 
ROOT
HETATM    1  N2  UNL     1       3.377   6.437  26.506  1.00  0.00    -0.174 N 
HETATM    2  C1  UNL     1       4.412   6.938  27.179  1.00  0.00     0.287 A 
HETATM    3  O1  UNL     1       4.386   7.061  28.427  1.00  0.00    -0.265 OA
HETATM    4  C2  UNL     1       5.553   7.340  26.496  1.00  0.00     0.122 A 
HETATM    5  C3  UNL     1       6.727   7.900  26.927  1.00  0.00     0.192 A 
HETATM    6  F1  UNL     1       7.047   8.176  28.212  1.00  0.00    -0.200 F 
HETATM    7  C4  UNL     1       7.476   8.110  25.822  1.00  0.00     0.234 A 
HETATM    8  F2  UNL     1       8.725   8.656  25.800  1.00  0.00    -0.182 F 
HETATM    9  N3  UNL     1       6.819   7.702  24.691  1.00  0.00    -0.278 N 
HETATM   10  C10 UNL     1       5.650   7.231  25.110  1.00  0.00     0.137 A 
HETATM   11  N4  UNL     1       4.537   6.697  24.475  1.00  0.00    -0.278 N 
HETATM   12  C18 UNL     1       3.446   6.320  25.155  1.00  0.00     0.352 A 
HETATM   13  O3  UNL     1       2.445   5.850  24.577  1.00  0.00    -0.244 OA
ENDROOT
BRANCH  11  14
HETATM   14  C11 UNL     1       4.643   6.523  23.061  1.00  0.00     0.096 C 
HETATM   15  C12 UNL     1       3.446   6.724  22.231  1.00  0.00     0.026 C 
HETATM   16  C13 UNL     1       2.926   5.633  21.349  1.00  0.00     0.002 C 
HETATM   17  C14 UNL     1       3.821   5.291  20.199  1.00  0.00     0.000 C 
HETATM   18  C15 UNL     1       4.911   4.323  20.476  1.00  0.00     0.000 C 
HETATM   19  C16 UNL     1       5.835   4.990  21.472  1.00  0.00     0.002 C 
HETATM   20  C17 UNL     1       5.016   5.051  22.797  1.00  0.00     0.026 C 
ENDBRANCH  11  14
BRANCH   9  21
HETATM   21  C5  UNL     1       7.368   7.864  23.406  1.00  0.00     0.231 C 
HETATM   22  C6  UNL     1       7.973   9.305  23.358  1.00  0.00     0.054 C 
HETATM   23  C7  UNL     1       9.278   9.366  22.664  1.00  0.00     0.006 C 
HETATM   24  C8  UNL     1       9.484   8.354  21.585  1.00  0.00     0.026 C 
HETATM   25  C9  UNL     1       9.062   7.016  22.125  1.00  0.00     0.170 C 
HETATM   26  O2  UNL     1       8.610   7.112  23.436  1.00  0.00    -0.366 OA
ENDBRANCH   9  21
BRANCH   1  27
HETATM   27  N1  UNL     1       2.211   6.022  27.134  1.00  0.00    -0.332 N 
ATOM     28  H12 UNL     1       1.361   6.558  26.960  1.00  0.00     0.177 HD
ATOM     29  H11 UNL     1       2.180   5.211  27.752  1.00  0.00     0.177 HD
ENDBRANCH   1  27
TORSDOF 3
ENDMDL
MODEL 2
REMARK VINA RESULT: -7.985408883      1.706      5.046
REMARK  3 active torsions:
REMARK  status: ('A' for Active; 'I' for Inactive)
REMARK    1  A    between atoms: N1_1  and  N2_4 
REMARK    2  A    between atoms: N3_12  and  C5_13 
REMARK    3  A    between atoms: N4_20  and  C11_21 
ROOT
HETATM    1  N2  UNL     1       7.719   7.731  23.355  1.00  0.00    -0.174 N 
HETATM    2  C1  UNL     1       7.702   8.117  24.630  1.00  0.00     0.287 A 
HETATM    3  O1  UNL     1       8.639   8.788  25.124  1.00  0.00    -0.265 OA
HETATM    4  C2  UNL     1       6.630   7.775  25.443  1.00  0.00     0.122 A 
HETATM    5  C3  UNL     1       6.374   8.015  26.768  1.00  0.00     0.192 A 
HETATM    6  F1  UNL     1       7.169   8.709  27.614  1.00  0.00    -0.200 F 
HETATM    7  C4  UNL     1       5.189   7.425  27.039  1.00  0.00     0.234 A 
HETATM    8  F2  UNL     1       4.561   7.420  28.249  1.00  0.00    -0.182 F 
HETATM    9  N3  UNL     1       4.673   6.812  25.928  1.00  0.00    -0.278 N 
HETATM   10  C10 UNL     1       5.555   7.032  24.959  1.00  0.00     0.137 A 
HETATM   11  N4  UNL     1       5.636   6.668  23.622  1.00  0.00    -0.278 N 
HETATM   12  C18 UNL     1       6.683   7.006  22.858  1.00  0.00     0.352 A 
HETATM   13  O3  UNL     1       6.755   6.667  21.659  1.00  0.00    -0.244 OA
ENDROOT
BRANCH  11  14
HETATM   14  C11 UNL     1       4.515   5.958  23.094  1.00  0.00     0.096 C 
HETATM   15  C12 UNL     1       4.752   4.881  22.123  1.00  0.00     0.026 C 
HETATM   16  C13 UNL     1       4.135   4.921  20.759  1.00  0.00     0.002 C 
HETATM   17  C14 UNL     1       2.646   4.771  20.753  1.00  0.00     0.000 C 
HETATM   18  C15 UNL     1       1.857   6.009  20.967  1.00  0.00     0.000 C 
HETATM   19  C16 UNL     1       2.170   6.481  22.370  1.00  0.00     0.002 C 
HETATM   20  C17 UNL     1       3.651   6.963  22.308  1.00  0.00     0.026 C 
ENDBRANCH  11  14
BRANCH   9  21
HETATM   21  C5  UNL     1       3.471   6.081  25.965  1.00  0.00     0.231 C 
HETATM   22  C6  UNL     1       3.367   5.467  27.400  1.00  0.00     0.054 C 
HETATM   23  C7  UNL     1       2.000   5.530  27.961  1.00  0.00     0.006 C 
HETATM   24  C8  UNL     1       0.888   5.479  26.965  1.00  0.00     0.026 C 
HETATM   25  C9  UNL     1       1.216   6.447  25.863  1.00  0.00     0.170 C 
HETATM   26  O2  UNL     1       2.431   7.086  26.087  1.00  0.00    -0.366 OA
ENDBRANCH   9  21
BRANCH   1  27
HETATM   27  N1  UNL     1       8.764   8.041  22.496  1.00  0.00    -0.332 N 
ATOM     28  H12 UNL     1       8.590   7.973  21.493  1.00  0.00     0.177 HD
ATOM     29  H11 UNL     1       9.683   8.329  22.831  1.00  0.00     0.177 HD
ENDBRANCH   1  27
TORSDOF 3
ENDMDL
MODEL 3
REMARK VINA RESULT: -7.276007979      3.754      6.040
REMARK  3 active torsions:
REMARK  status: ('A' for Active; 'I' for Inactive)
REMARK    1  A    between atoms: N1_1  and  N2_4 
REMARK    2  A    between atoms: N3_12  and  C5_13 
REMARK    3  A    between atoms: N4_20  and  C11_21 
ROOT
HETATM    1  N2  UNL     1       7.472   7.644  22.373  1.00  0.00    -0.174 N 
HETATM    2  C1  UNL     1       8.490   6.813  22.156  1.00  0.00     0.287 A 
HETATM    3  O1  UNL     1       9.680   7.181  22.305  1.00  0.00    -0.265 OA
HETATM    4  C2  UNL     1       8.245   5.507  21.755  1.00  0.00     0.122 A 
HETATM    5  C3  UNL     1       9.087   4.472  21.445  1.00  0.00     0.192 A 
HETATM    6  F1  UNL     1      10.439   4.510  21.494  1.00  0.00    -0.200 F 
HETATM    7  C4  UNL     1       8.299   3.433  21.091  1.00  0.00     0.234 A 
HETATM    8  F2  UNL     1       8.734   2.200  20.706  1.00  0.00    -0.182 F 
HETATM    9  N3  UNL     1       6.973   3.768  21.163  1.00  0.00    -0.278 N 
HETATM   10  C10 UNL     1       6.947   5.032  21.571  1.00  0.00     0.137 A 
HETATM   11  N4  UNL     1       5.936   5.950  21.819  1.00  0.00    -0.278 N 
HETATM   12  C18 UNL     1       6.198   7.206  22.202  1.00  0.00     0.352 A 
HETATM   13  O3  UNL     1       5.284   8.030  22.412  1.00  0.00    -0.244 OA
ENDROOT
BRANCH  11  14
HETATM   14  C11 UNL     1       4.599   5.462  21.694  1.00  0.00     0.096 C 
HETATM   15  C12 UNL     1       4.031   5.292  20.349  1.00  0.00     0.026 C 
HETATM   16  C13 UNL     1       2.775   6.001  19.946  1.00  0.00     0.002 C 
HETATM   17  C14 UNL     1       1.547   5.533  20.663  1.00  0.00     0.000 C 
HETATM   18  C15 UNL     1       1.278   6.152  21.984  1.00  0.00     0.000 C 
HETATM   19  C16 UNL     1       2.412   5.733  22.893  1.00  0.00     0.002 C 
HETATM   20  C17 UNL     1       3.660   6.492  22.350  1.00  0.00     0.026 C 
ENDBRANCH  11  14
BRANCH   9  21
HETATM   21  C5  UNL     1       5.952   2.873  20.793  1.00  0.00     0.231 C 
HETATM   22  C6  UNL     1       6.491   2.065  19.567  1.00  0.00     0.054 C 
HETATM   23  C7  UNL     1       6.147   0.627  19.621  1.00  0.00     0.006 C 
HETATM   24  C8  UNL     1       4.874   0.293  20.328  1.00  0.00     0.026 C 
HETATM   25  C9  UNL     1       4.862   1.045  21.629  1.00  0.00     0.170 C 
HETATM   26  O2  UNL     1       6.008   1.816  21.786  1.00  0.00    -0.366 OA
ENDBRANCH   9  21
BRANCH   1  27
HETATM   27  N1  UNL     1       7.656   8.961  22.773  1.00  0.00    -0.332 N 
ATOM     28  H12 UNL     1       8.583   9.368  22.656  1.00  0.00     0.177 HD
ATOM     29  H11 UNL     1       6.904   9.522  23.174  1.00  0.00     0.177 HD
ENDBRANCH   1  27
TORSDOF 3
ENDMDL
MODEL 4
REMARK VINA RESULT: -7.092543770      1.143      1.266
REMARK  3 active torsions:
REMARK  status: ('A' for Active; 'I' for Inactive)
REMARK    1  A    between atoms: N1_1  and  N2_4 
REMARK    2  A    between atoms: N3_12  and  C5_13 
REMARK    3  A    between atoms: N4_20  and  C11_21 
ROOT
HETATM    1  N2  UNL     1       2.154   6.397  25.771  1.00  0.00    -0.174 N 
HETATM    2  C1  UNL     1       2.981   6.845  26.714  1.00  0.00     0.287 A 
HETATM    3  O1  UNL     1       2.585   7.066  27.883  1.00  0.00    -0.265 OA
HETATM    4  C2  UNL     1       4.315   7.080  26.411  1.00  0.00     0.122 A 
HETATM    5  C3  UNL     1       5.355   7.554  27.166  1.00  0.00     0.192 A 
HETATM    6  F1  UNL     1       5.292   7.897  28.473  1.00  0.00    -0.200 F 
HETATM    7  C4  UNL     1       6.429   7.605  26.347  1.00  0.00     0.234 A 
HETATM    8  F2  UNL     1       7.678   8.023  26.697  1.00  0.00    -0.182 F 
HETATM    9  N3  UNL     1       6.112   7.176  25.085  1.00  0.00    -0.278 N 
HETATM   10  C10 UNL     1       4.824   6.855  25.132  1.00  0.00     0.137 A 
HETATM   11  N4  UNL     1       3.907   6.384  24.201  1.00  0.00    -0.278 N 
HETATM   12  C18 UNL     1       2.624   6.170  24.517  1.00  0.00     0.352 A 
HETATM   13  O3  UNL     1       1.803   5.756  23.673  1.00  0.00    -0.244 OA
ENDROOT
BRANCH  11  14
HETATM   14  C11 UNL     1       4.425   6.092  22.902  1.00  0.00     0.096 C 
HETATM   15  C12 UNL     1       3.665   6.529  21.723  1.00  0.00     0.026 C 
HETATM   16  C13 UNL     1       3.200   5.544  20.695  1.00  0.00     0.002 C 
HETATM   17  C14 UNL     1       4.304   4.910  19.907  1.00  0.00     0.000 C 
HETATM   18  C15 UNL     1       4.951   3.722  20.515  1.00  0.00     0.000 C 
HETATM   19  C16 UNL     1       5.634   4.203  21.777  1.00  0.00     0.002 C 
HETATM   20  C17 UNL     1       4.470   4.559  22.750  1.00  0.00     0.026 C 
ENDBRANCH  11  14
BRANCH   9  21
HETATM   21  C5  UNL     1       7.047   7.184  24.034  1.00  0.00     0.231 C 
HETATM   22  C6  UNL     1       6.512   8.196  22.968  1.00  0.00     0.054 C 
HETATM   23  C7  UNL     1       7.576   9.040  22.382  1.00  0.00     0.006 C 
HETATM   24  C8  UNL     1       8.931   8.416  22.312  1.00  0.00     0.026 C 
HETATM   25  C9  UNL     1       9.217   7.792  23.649  1.00  0.00     0.170 C 
HETATM   26  O2  UNL     1       8.160   7.969  24.534  1.00  0.00    -0.366 OA
ENDBRANCH   9  21
BRANCH   1  27
HETATM   27  N1  UNL     1       0.811   6.147  26.015  1.00  0.00    -0.332 N 
ATOM     28  H12 UNL     1       0.184   6.948  26.091  1.00  0.00     0.177 HD
ATOM     29  H11 UNL     1       0.439   5.203  26.118  1.00  0.00     0.177 HD
ENDBRANCH   1  27
TORSDOF 3
ENDMDL
MODEL 5
REMARK VINA RESULT: -7.052674574      2.332      4.837
REMARK  3 active torsions:
REMARK  status: ('A' for Active; 'I' for Inactive)
REMARK    1  A    between atoms: N1_1  and  N2_4 
REMARK    2  A    between atoms: N3_12  and  C5_13 
REMARK    3  A    between atoms: N4_20  and  C11_21 
ROOT
HETATM    1  N2  UNL     1       6.097   7.931  27.532  1.00  0.00    -0.174 N 
HETATM    2  C1  UNL     1       4.838   7.517  27.400  1.00  0.00     0.287 A 
HETATM    3  O1  UNL     1       4.029   7.561  28.357  1.00  0.00    -0.265 OA
HETATM    4  C2  UNL     1       4.396   7.021  26.181  1.00  0.00     0.122 A 
HETATM    5  C3  UNL     1       3.186   6.516  25.783  1.00  0.00     0.192 A 
HETATM    6  F1  UNL     1       2.080   6.410  26.555  1.00  0.00    -0.200 F 
HETATM    7  C4  UNL     1       3.331   6.155  24.489  1.00  0.00     0.234 A 
HETATM    8  F2  UNL     1       2.363   5.604  23.704  1.00  0.00    -0.182 F 
HETATM    9  N3  UNL     1       4.599   6.414  24.040  1.00  0.00    -0.278 N 
HETATM   10  C10 UNL     1       5.241   6.944  25.075  1.00  0.00     0.137 A 
HETATM   11  N4  UNL     1       6.537   7.396  25.283  1.00  0.00    -0.278 N 
HETATM   12  C18 UNL     1       6.941   7.867  26.470  1.00  0.00     0.352 A 
HETATM   13  O3  UNL     1       8.111   8.262  26.653  1.00  0.00    -0.244 OA
ENDROOT
BRANCH  11  14
HETATM   14  C11 UNL     1       7.399   7.380  24.143  1.00  0.00     0.096 C 
HETATM   15  C12 UNL     1       8.834   7.633  24.338  1.00  0.00     0.026 C 
HETATM   16  C13 UNL     1       9.523   8.758  23.630  1.00  0.00     0.002 C 
HETATM   17  C14 UNL     1       9.625   8.580  22.147  1.00  0.00     0.000 C 
HETATM   18  C15 UNL     1       8.453   9.013  21.348  1.00  0.00     0.000 C 
HETATM   19  C16 UNL     1       7.306   8.110  21.745  1.00  0.00     0.002 C 
HETATM   20  C17 UNL     1       6.960   8.523  23.207  1.00  0.00     0.026 C 
ENDBRANCH  11  14
BRANCH   9  21
HETATM   21  C5  UNL     1       5.016   6.079  22.738  1.00  0.00     0.231 C 
HETATM   22  C6  UNL     1       4.948   4.520  22.635  1.00  0.00     0.054 C 
HETATM   23  C7  UNL     1       4.410   4.045  21.342  1.00  0.00     0.006 C 
HETATM   24  C8  UNL     1       4.668   4.934  20.169  1.00  0.00     0.026 C 
HETATM   25  C9  UNL     1       4.322   6.339  20.575  1.00  0.00     0.170 C 
HETATM   26  O2  UNL     1       3.881   6.398  21.892  1.00  0.00    -0.366 OA
ENDBRANCH   9  21
BRANCH   1  27
HETATM   27  N1  UNL     1       6.595   8.434  28.726  1.00  0.00    -0.332 N 
ATOM     28  H12 UNL     1       6.380   7.925  29.583  1.00  0.00     0.177 HD
ATOM     29  H11 UNL     1       7.161   9.282  28.770  1.00  0.00     0.177 HD
ENDBRANCH   1  27
TORSDOF 3
ENDMDL
