MODEL 1
REMARK VINA RESULT: -8.431604647      0.000      0.000
REMARK  4 active torsions:
REMARK  status: ('A' for Active; 'I' for Inactive)
REMARK    1  A    between atoms: N1_7  and  C5_8 
REMARK    2  A    between atoms: C7_10  and  N2_11 
REMARK       I    between atoms: N2_11  and  C8_13 
REMARK    3  A    between atoms: C8_13  and  O4_15 
REMARK    4  A    between atoms: O4_15  and  C9_16 
ROOT
HETATM    1  C5  UNL     1       5.501   5.738  21.659  1.00  0.00     0.121 A 
HETATM    2  C6  UNL     1       4.265   6.248  21.945  1.00  0.00     0.097 A 
HETATM    3  C7  UNL     1       3.076   5.646  21.518  1.00  0.00     0.113 A 
HETATM    4  N3  UNL     1       3.229   4.519  20.800  1.00  0.00    -0.338 N 
ATOM      5  H3  UNL     1       2.396   4.039  20.462  1.00  0.00     0.168 HD
HETATM    6  C12 UNL     1       4.448   3.994  20.504  1.00  0.00     0.183 A 
HETATM    7  N4  UNL     1       5.561   4.602  20.932  1.00  0.00    -0.338 N 
ATOM      8  H4  UNL     1       6.471   4.200  20.704  1.00  0.00     0.168 HD
ENDROOT
BRANCH   1   9
HETATM    9  N1  UNL     1       6.703   6.385  22.118  1.00  0.00    -0.211 N 
HETATM   10  C4  UNL     1       8.008   5.838  21.985  1.00  0.00     0.374 C 
HETATM   11  O1  UNL     1       8.818   6.595  22.820  1.00  0.00    -0.285 OA
HETATM   12  O2  UNL     1       8.417   4.871  21.276  1.00  0.00    -0.238 OA
HETATM   13  C2  UNL     1       8.282   7.903  22.839  1.00  0.00     0.151 C 
HETATM   14  C1  UNL     1       8.637   8.642  24.107  1.00  0.00     0.055 C 
HETATM   15  C3  UNL     1       8.753   8.687  21.636  1.00  0.00     0.055 C 
HETATM   16  C13 UNL     1       6.793   7.652  22.776  1.00  0.00     0.364 C 
HETATM   17  F1  UNL     1       6.263   7.499  24.048  1.00  0.00    -0.178 F 
HETATM   18  F2  UNL     1       6.125   8.666  22.116  1.00  0.00    -0.178 F 
ENDBRANCH   1   9
BRANCH   3  19
HETATM   19  N2  UNL     1       1.995   6.202  21.835  1.00  0.00    -0.288 N 
HETATM   20  C8  UNL     1       0.721   6.147  21.307  1.00  0.00     0.366 C 
HETATM   21  O3  UNL     1      -0.118   7.004  21.769  1.00  0.00    -0.238 OA
ATOM     22  H2  UNL     1       2.075   6.818  22.644  1.00  0.00     0.172 HD
BRANCH  20  23
HETATM   23  O4  UNL     1       0.236   5.281  20.341  1.00  0.00    -0.297 OA
BRANCH  23  24
HETATM   24  C9  UNL     1      -0.068   5.747  19.063  1.00  0.00     0.153 C 
HETATM   25  C10 UNL     1      -1.400   6.457  18.973  1.00  0.00     0.119 C 
HETATM   26  S1  UNL     1      -2.643   5.160  19.388  1.00  0.00    -0.095 SA
HETATM   27  S2  UNL     1      -1.470   3.534  18.573  1.00  0.00    -0.095 SA
HETATM   28  C11 UNL     1      -0.069   4.618  18.056  1.00  0.00     0.119 C 
ENDBRANCH  23  24
ENDBRANCH  20  23
ENDBRANCH   3  19
TORSDOF 4
ENDMDL
MODEL 2
REMARK VINA RESULT: -7.385031577      4.262      6.982
REMARK  4 active torsions:
REMARK  status: ('A' for Active; 'I' for Inactive)
REMARK    1  A    between atoms: N1_7  and  C5_8 
REMARK    2  A    between atoms: C7_10  and  N2_11 
REMARK       I    between atoms: N2_11  and  C8_13 
REMARK    3  A    between atoms: C8_13  and  O4_15 
REMARK    4  A    between atoms: O4_15  and  C9_16 
ROOT
HETATM    1  C5  UNL     1       7.446   7.564  23.219  1.00  0.00     0.121 A 
HETATM    2  C6  UNL     1       7.268   7.703  24.568  1.00  0.00     0.097 A 
HETATM    3  C7  UNL     1       8.085   8.514  25.364  1.00  0.00     0.113 A 
HETATM    4  N3  UNL     1       9.068   9.156  24.708  1.00  0.00    -0.338 N 
ATOM      5  H3  UNL     1       9.695   9.760  25.240  1.00  0.00     0.168 HD
HETATM    6  C12 UNL     1       9.263   9.033  23.368  1.00  0.00     0.183 A 
HETATM    7  N4  UNL     1       8.459   8.246  22.644  1.00  0.00    -0.338 N 
ATOM      8  H4  UNL     1       8.614   8.161  21.639  1.00  0.00     0.168 HD
ENDROOT
BRANCH   1   9
HETATM    9  N1  UNL     1       6.583   6.721  22.433  1.00  0.00    -0.211 N 
HETATM   10  C4  UNL     1       7.029   5.614  21.663  1.00  0.00     0.374 C 
HETATM   11  O1  UNL     1       5.970   5.287  20.826  1.00  0.00    -0.285 OA
HETATM   12  O2  UNL     1       8.140   5.004  21.682  1.00  0.00    -0.238 OA
HETATM   13  C2  UNL     1       4.782   5.601  21.525  1.00  0.00     0.151 C 
HETATM   14  C1  UNL     1       3.634   5.889  20.588  1.00  0.00     0.055 C 
HETATM   15  C3  UNL     1       4.410   4.483  22.470  1.00  0.00     0.055 C 
HETATM   16  C13 UNL     1       5.165   6.851  22.286  1.00  0.00     0.364 C 
HETATM   17  F1  UNL     1       4.928   7.985  21.525  1.00  0.00    -0.178 F 
HETATM   18  F2  UNL     1       4.492   6.951  23.488  1.00  0.00    -0.178 F 
ENDBRANCH   1   9
BRANCH   3  19
HETATM   19  N2  UNL     1       7.834   8.565  26.593  1.00  0.00    -0.288 N 
HETATM   20  C8  UNL     1       6.708   8.266  27.335  1.00  0.00     0.366 C 
HETATM   21  O3  UNL     1       6.738   8.621  28.571  1.00  0.00    -0.238 OA
ATOM     22  H2  UNL     1       8.618   8.894  27.156  1.00  0.00     0.172 HD
BRANCH  20  23
HETATM   23  O4  UNL     1       5.553   7.631  26.912  1.00  0.00    -0.297 OA
BRANCH  23  24
HETATM   24  C9  UNL     1       5.177   6.408  27.466  1.00  0.00     0.153 C 
HETATM   25  C10 UNL     1       4.251   5.599  26.587  1.00  0.00     0.119 C 
HETATM   26  S1  UNL     1       2.727   6.626  26.452  1.00  0.00    -0.095 SA
HETATM   27  S2  UNL     1       2.943   7.509  28.417  1.00  0.00    -0.095 SA
HETATM   28  C11 UNL     1       4.502   6.600  28.807  1.00  0.00     0.119 C 
ENDBRANCH  23  24
ENDBRANCH  20  23
ENDBRANCH   3  19
TORSDOF 4
ENDMDL
MODEL 3
REMARK VINA RESULT: -7.381966031      5.184      6.347
REMARK  4 active torsions:
REMARK  status: ('A' for Active; 'I' for Inactive)
REMARK    1  A    between atoms: N1_7  and  C5_8 
REMARK    2  A    between atoms: C7_10  and  N2_11 
REMARK       I    between atoms: N2_11  and  C8_13 
REMARK    3  A    between atoms: C8_13  and  O4_15 
REMARK    4  A    between atoms: O4_15  and  C9_16 
ROOT
HETATM    1  C5  UNL     1       5.938   7.190  24.581  1.00  0.00     0.121 A 
HETATM    2  C6  UNL     1       5.869   7.319  25.941  1.00  0.00     0.097 A 
HETATM    3  C7  UNL     1       4.758   6.915  26.689  1.00  0.00     0.113 A 
HETATM    4  N3  UNL     1       3.749   6.384  25.976  1.00  0.00    -0.338 N 
ATOM      5  H3  UNL     1       2.913   6.072  26.470  1.00  0.00     0.168 HD
HETATM    6  C12 UNL     1       3.795   6.246  24.624  1.00  0.00     0.183 A 
HETATM    7  N4  UNL     1       4.878   6.647  23.946  1.00  0.00    -0.338 N 
ATOM      8  H4  UNL     1       4.902   6.539  22.932  1.00  0.00     0.168 HD
ENDROOT
BRANCH   1   9
HETATM    9  N1  UNL     1       7.100   7.617  23.846  1.00  0.00    -0.211 N 
HETATM   10  C4  UNL     1       8.307   8.066  24.445  1.00  0.00     0.374 C 
HETATM   11  O1  UNL     1       9.029   8.673  23.426  1.00  0.00    -0.285 OA
HETATM   12  O2  UNL     1       8.707   7.968  25.644  1.00  0.00    -0.238 OA
HETATM   13  C2  UNL     1       8.702   7.994  22.230  1.00  0.00     0.151 C 
HETATM   14  C1  UNL     1       8.890   8.869  21.013  1.00  0.00     0.055 C 
HETATM   15  C3  UNL     1       9.525   6.735  22.092  1.00  0.00     0.055 C 
HETATM   16  C13 UNL     1       7.238   7.668  22.423  1.00  0.00     0.364 C 
HETATM   17  F1  UNL     1       6.437   8.704  21.965  1.00  0.00    -0.178 F 
HETATM   18  F2  UNL     1       6.882   6.493  21.789  1.00  0.00    -0.178 F 
ENDBRANCH   1   9
BRANCH   3  19
HETATM   19  N2  UNL     1       4.801   7.083  27.933  1.00  0.00    -0.288 N 
HETATM   20  C8  UNL     1       3.908   6.805  28.949  1.00  0.00     0.366 C 
HETATM   21  O3  UNL     1       4.201   7.290  30.103  1.00  0.00    -0.238 OA
ATOM     22  H2  UNL     1       5.668   7.511  28.257  1.00  0.00     0.172 HD
BRANCH  20  23
HETATM   23  O4  UNL     1       2.739   6.067  28.878  1.00  0.00    -0.297 OA
BRANCH  23  24
HETATM   24  C9  UNL     1       1.516   6.649  29.208  1.00  0.00     0.153 C 
HETATM   25  C10 UNL     1       0.630   5.767  30.058  1.00  0.00     0.119 C 
HETATM   26  S1  UNL     1       0.268   4.309  28.989  1.00  0.00    -0.095 SA
HETATM   27  S2  UNL     1       0.360   5.429  27.139  1.00  0.00    -0.095 SA
HETATM   28  C11 UNL     1       0.742   7.034  27.967  1.00  0.00     0.119 C 
ENDBRANCH  23  24
ENDBRANCH  20  23
ENDBRANCH   3  19
TORSDOF 4
ENDMDL
MODEL 4
REMARK VINA RESULT: -7.376370681      5.146      6.892
REMARK  4 active torsions:
REMARK  status: ('A' for Active; 'I' for Inactive)
REMARK    1  A    between atoms: N1_7  and  C5_8 
REMARK    2  A    between atoms: C7_10  and  N2_11 
REMARK       I    between atoms: N2_11  and  C8_13 
REMARK    3  A    between atoms: C8_13  and  O4_15 
REMARK    4  A    between atoms: O4_15  and  C9_16 
ROOT
HETATM    1  C5  UNL     1       5.990   7.365  24.837  1.00  0.00     0.121 A 
HETATM    2  C6  UNL     1       5.480   7.015  26.057  1.00  0.00     0.097 A 
HETATM    3  C7  UNL     1       6.112   7.329  27.264  1.00  0.00     0.113 A 
HETATM    4  N3  UNL     1       7.269   8.006  27.147  1.00  0.00    -0.338 N 
ATOM      5  H3  UNL     1       7.773   8.261  27.996  1.00  0.00     0.168 HD
HETATM    6  C12 UNL     1       7.794   8.364  25.945  1.00  0.00     0.183 A 
HETATM    7  N4  UNL     1       7.157   8.043  24.813  1.00  0.00    -0.338 N 
ATOM      8  H4  UNL     1       7.559   8.317  23.917  1.00  0.00     0.168 HD
ENDROOT
BRANCH   1   9
HETATM    9  N1  UNL     1       5.309   7.025  23.614  1.00  0.00    -0.211 N 
HETATM   10  C4  UNL     1       5.562   7.639  22.358  1.00  0.00     0.374 C 
HETATM   11  O1  UNL     1       4.503   7.271  21.540  1.00  0.00    -0.285 OA
HETATM   12  O2  UNL     1       6.526   8.376  21.992  1.00  0.00    -0.238 OA
HETATM   13  C2  UNL     1       4.090   5.984  21.955  1.00  0.00     0.151 C 
HETATM   14  C1  UNL     1       2.642   5.719  21.620  1.00  0.00     0.055 C 
HETATM   15  C3  UNL     1       4.966   4.920  21.337  1.00  0.00     0.055 C 
HETATM   16  C13 UNL     1       4.281   6.042  23.454  1.00  0.00     0.364 C 
HETATM   17  F1  UNL     1       3.142   6.526  24.079  1.00  0.00    -0.178 F 
HETATM   18  F2  UNL     1       4.609   4.808  23.981  1.00  0.00    -0.178 F 
ENDBRANCH   1   9
BRANCH   3  19
HETATM   19  N2  UNL     1       5.556   6.956  28.327  1.00  0.00    -0.288 N 
HETATM   20  C8  UNL     1       4.264   7.067  28.800  1.00  0.00     0.366 C 
HETATM   21  O3  UNL     1       4.084   6.736  30.029  1.00  0.00    -0.238 OA
ATOM     22  H2  UNL     1       6.186   6.475  28.969  1.00  0.00     0.172 HD
BRANCH  20  23
HETATM   23  O4  UNL     1       3.138   7.489  28.113  1.00  0.00    -0.297 OA
BRANCH  23  24
HETATM   24  C9  UNL     1       2.318   6.565  27.467  1.00  0.00     0.153 C 
HETATM   25  C10 UNL     1       1.251   7.196  26.602  1.00  0.00     0.119 C 
HETATM   26  S1  UNL     1       0.191   8.131  27.786  1.00  0.00    -0.095 SA
HETATM   27  S2  UNL     1       0.525   6.763  29.429  1.00  0.00    -0.095 SA
HETATM   28  C11 UNL     1       1.636   5.652  28.461  1.00  0.00     0.119 C 
ENDBRANCH  23  24
ENDBRANCH  20  23
ENDBRANCH   3  19
TORSDOF 4
ENDMDL
MODEL 5
REMARK VINA RESULT: -7.344961292      4.858      5.804
REMARK  4 active torsions:
REMARK  status: ('A' for Active; 'I' for Inactive)
REMARK    1  A    between atoms: N1_7  and  C5_8 
REMARK    2  A    between atoms: C7_10  and  N2_11 
REMARK       I    between atoms: N2_11  and  C8_13 
REMARK    3  A    between atoms: C8_13  and  O4_15 
REMARK    4  A    between atoms: O4_15  and  C9_16 
ROOT
HETATM    1  C5  UNL     1       6.034   7.370  25.179  1.00  0.00     0.121 A 
HETATM    2  C6  UNL     1       4.833   6.943  24.684  1.00  0.00     0.097 A 
HETATM    3  C7  UNL     1       3.743   6.624  25.501  1.00  0.00     0.113 A 
HETATM    4  N3  UNL     1       3.955   6.767  26.822  1.00  0.00    -0.338 N 
ATOM      5  H3  UNL     1       3.194   6.548  27.465  1.00  0.00     0.168 HD
HETATM    6  C12 UNL     1       5.141   7.190  27.336  1.00  0.00     0.183 A 
HETATM    7  N4  UNL     1       6.159   7.484  26.518  1.00  0.00    -0.338 N 
ATOM      8  H4  UNL     1       7.044   7.801  26.914  1.00  0.00     0.168 HD
ENDROOT
BRANCH   1   9
HETATM    9  N1  UNL     1       7.133   7.690  24.305  1.00  0.00    -0.211 N 
HETATM   10  C4  UNL     1       8.422   8.089  24.752  1.00  0.00     0.374 C 
HETATM   11  O1  UNL     1       9.063   8.605  23.634  1.00  0.00    -0.285 OA
HETATM   12  O2  UNL     1       8.941   8.020  25.906  1.00  0.00    -0.238 OA
HETATM   13  C2  UNL     1       8.572   7.895  22.514  1.00  0.00     0.151 C 
HETATM   14  C1  UNL     1       8.678   8.702  21.242  1.00  0.00     0.055 C 
HETATM   15  C3  UNL     1       9.303   6.582  22.356  1.00  0.00     0.055 C 
HETATM   16  C13 UNL     1       7.121   7.670  22.875  1.00  0.00     0.364 C 
HETATM   17  F1  UNL     1       6.336   8.731  22.451  1.00  0.00    -0.178 F 
HETATM   18  F2  UNL     1       6.633   6.492  22.342  1.00  0.00    -0.178 F 
ENDBRANCH   1   9
BRANCH   3  19
HETATM   19  N2  UNL     1       2.687   6.238  24.940  1.00  0.00    -0.288 N 
HETATM   20  C8  UNL     1       1.385   6.103  25.381  1.00  0.00     0.366 C 
HETATM   21  O3  UNL     1       0.583   5.490  24.585  1.00  0.00    -0.238 OA
ATOM     22  H2  UNL     1       2.818   5.971  23.965  1.00  0.00     0.172 HD
BRANCH  20  23
HETATM   23  O4  UNL     1       0.839   6.546  26.573  1.00  0.00    -0.297 OA
BRANCH  23  24
HETATM   24  C9  UNL     1       0.050   5.697  27.348  1.00  0.00     0.153 C 
HETATM   25  C10 UNL     1      -0.990   6.415  28.175  1.00  0.00     0.119 C 
HETATM   26  S1  UNL     1      -0.014   7.461  29.338  1.00  0.00    -0.095 SA
HETATM   27  S2  UNL     1       1.656   6.089  29.438  1.00  0.00    -0.095 SA
HETATM   28  C11 UNL     1       0.900   4.864  28.282  1.00  0.00     0.119 C 
ENDBRANCH  23  24
ENDBRANCH  20  23
ENDBRANCH   3  19
TORSDOF 4
ENDMDL
