MODEL 1
REMARK VINA RESULT: -8.881674131      0.000      0.000
REMARK  4 active torsions:
REMARK  status: ('A' for Active; 'I' for Inactive)
REMARK    1  A    between atoms: N1_1  and  C1_5 
REMARK    2  A    between atoms: C5_9  and  O1_10 
REMARK    3  A    between atoms: O1_10  and  C6_11 
REMARK       I    between atoms: C6_11  and  N2_13 
REMARK    4  A    between atoms: C8_17  and  N4_18 
ROOT
HETATM    1  C6  UNL     1       7.642   7.287  21.827  1.00  0.00     0.382 C 
HETATM    2  O2  UNL     1       8.674   6.574  21.796  1.00  0.00    -0.237 OA
HETATM    3  N2  UNL     1       6.387   6.668  21.658  1.00  0.00    -0.121 N 
HETATM    4  C7  UNL     1       6.382   5.258  21.460  1.00  0.00     0.693 A 
HETATM    5  N3  UNL     1       7.474   4.479  21.322  1.00  0.00    -0.169 N 
ATOM      6  H3  UNL     1       8.436   4.819  21.344  1.00  0.00     0.186 HD
HETATM    7  C8  UNL     1       7.120   3.196  21.151  1.00  0.00     0.204 A 
HETATM    8  C9  UNL     1       5.743   3.145  21.181  1.00  0.00     0.165 A 
HETATM    9  N5  UNL     1       5.326   4.384  21.366  1.00  0.00    -0.178 N 
HETATM   10  C10 UNL     1       3.938   4.872  21.472  1.00  0.00     0.179 C 
HETATM   11  C11 UNL     1       3.634   5.877  20.414  1.00  0.00     0.034 C 
HETATM   12  C12 UNL     1       4.446   7.110  20.392  1.00  0.00     0.029 C 
HETATM   13  C13 UNL     1       5.162   7.453  21.686  1.00  0.00     0.119 C 
HETATM   14  C14 UNL     1       4.362   6.955  22.862  1.00  0.00     0.107 C 
HETATM   15  C15 UNL     1       3.859   5.576  22.804  1.00  0.00     0.266 C 
HETATM   16  F1  UNL     1       2.503   5.589  23.157  1.00  0.00    -0.204 F 
HETATM   17  F2  UNL     1       4.461   4.724  23.736  1.00  0.00    -0.204 F 
ENDROOT
BRANCH   1  18
HETATM   18  O1  UNL     1       7.821   8.634  22.026  1.00  0.00    -0.298 OA
BRANCH  18  19
HETATM   19  C5  UNL     1       8.001   9.246  23.285  1.00  0.00     0.135 C 
HETATM   20  C4  UNL     1       9.488   9.533  23.534  1.00  0.00     0.033 C 
HETATM   21  C3  UNL     1       9.473  10.285  24.871  1.00  0.00     0.004 C 
HETATM   22  C2  UNL     1       9.267   9.228  25.929  1.00  0.00     0.033 C 
HETATM   23  C1  UNL     1       8.323   8.152  25.536  1.00  0.00     0.186 C 
HETATM   24  C16 UNL     1       7.424   8.440  24.390  1.00  0.00     0.065 C 
BRANCH  23  25
HETATM   25  N1  UNL     1       7.497   7.835  26.693  1.00  0.00    -0.075 N 
ATOM     26  H13 UNL     1       7.980   7.248  27.373  1.00  0.00     0.274 HD
ATOM     27  H12 UNL     1       7.337   8.641  27.297  1.00  0.00     0.274 HD
ATOM     28  H11 UNL     1       6.630   7.416  26.355  1.00  0.00     0.274 HD
ENDBRANCH  23  25
ENDBRANCH  18  19
ENDBRANCH   1  18
BRANCH   7  29
HETATM   29  N4  UNL     1       7.976   2.072  20.970  1.00  0.00    -0.096 N 
HETATM   30  O3  UNL     1       7.463   0.921  21.022  1.00  0.00    -0.530 OA
HETATM   31  O4  UNL     1       9.312   2.236  20.747  1.00  0.00    -0.530 OA
ENDBRANCH   7  29
TORSDOF 4
ENDMDL
MODEL 2
REMARK VINA RESULT: -8.373097983      1.445      1.882
REMARK  4 active torsions:
REMARK  status: ('A' for Active; 'I' for Inactive)
REMARK    1  A    between atoms: N1_1  and  C1_5 
REMARK    2  A    between atoms: C5_9  and  O1_10 
REMARK    3  A    between atoms: O1_10  and  C6_11 
REMARK       I    between atoms: C6_11  and  N2_13 
REMARK    4  A    between atoms: C8_17  and  N4_18 
ROOT
HETATM    1  C6  UNL     1       7.549   6.396  21.615  1.00  0.00     0.382 C 
HETATM    2  O2  UNL     1       8.368   5.458  21.472  1.00  0.00    -0.237 OA
HETATM    3  N2  UNL     1       6.170   6.104  21.568  1.00  0.00    -0.121 N 
HETATM    4  C7  UNL     1       5.805   4.744  21.357  1.00  0.00     0.693 A 
HETATM    5  N3  UNL     1       6.656   3.731  21.101  1.00  0.00    -0.169 N 
ATOM      6  H3  UNL     1       7.669   3.828  21.029  1.00  0.00     0.186 HD
HETATM    7  C8  UNL     1       5.986   2.577  20.953  1.00  0.00     0.204 A 
HETATM    8  C9  UNL     1       4.647   2.858  21.122  1.00  0.00     0.165 A 
HETATM    9  N5  UNL     1       4.564   4.154  21.361  1.00  0.00    -0.178 N 
HETATM   10  C10 UNL     1       3.352   4.957  21.613  1.00  0.00     0.179 C 
HETATM   11  C11 UNL     1       3.202   6.042  20.601  1.00  0.00     0.034 C 
HETATM   12  C12 UNL     1       4.282   7.043  20.510  1.00  0.00     0.029 C 
HETATM   13  C13 UNL     1       5.181   7.159  21.729  1.00  0.00     0.119 C 
HETATM   14  C14 UNL     1       4.401   6.828  22.974  1.00  0.00     0.107 C 
HETATM   15  C15 UNL     1       3.575   5.613  22.953  1.00  0.00     0.266 C 
HETATM   16  F1  UNL     1       2.303   5.939  23.442  1.00  0.00    -0.204 F 
HETATM   17  F2  UNL     1       4.038   4.609  23.810  1.00  0.00    -0.204 F 
ENDROOT
BRANCH   1  18
HETATM   18  O1  UNL     1       8.067   7.654  21.810  1.00  0.00    -0.298 OA
BRANCH  18  19
HETATM   19  C5  UNL     1       8.825   8.048  22.933  1.00  0.00     0.135 C 
HETATM   20  C4  UNL     1       7.903   8.570  24.045  1.00  0.00     0.033 C 
HETATM   21  C3  UNL     1       8.877   8.837  25.199  1.00  0.00     0.004 C 
HETATM   22  C2  UNL     1       9.570  10.133  24.854  1.00  0.00     0.033 C 
HETATM   23  C1  UNL     1       9.884  10.287  23.411  1.00  0.00     0.186 C 
HETATM   24  C16 UNL     1       9.862   9.052  22.588  1.00  0.00     0.065 C 
BRANCH  23  25
HETATM   25  N1  UNL     1      11.207  10.884  23.300  1.00  0.00    -0.075 N 
ATOM     26  H13 UNL     1      11.174  11.879  23.077  1.00  0.00     0.274 HD
ATOM     27  H12 UNL     1      11.682  10.961  24.199  1.00  0.00     0.274 HD
ATOM     28  H11 UNL     1      11.740  10.344  22.618  1.00  0.00     0.274 HD
ENDBRANCH  23  25
ENDBRANCH  18  19
ENDBRANCH   1  18
BRANCH   7  29
HETATM   29  N4  UNL     1       6.522   1.287  20.674  1.00  0.00    -0.096 N 
HETATM   30  O3  UNL     1       7.617   0.971  21.214  1.00  0.00    -0.530 OA
HETATM   31  O4  UNL     1       5.869   0.420  19.848  1.00  0.00    -0.530 OA
ENDBRANCH   7  29
TORSDOF 4
ENDMDL
MODEL 3
REMARK VINA RESULT: -7.793768112      3.951      5.969
REMARK  4 active torsions:
REMARK  status: ('A' for Active; 'I' for Inactive)
REMARK    1  A    between atoms: N1_1  and  C1_5 
REMARK    2  A    between atoms: C5_9  and  O1_10 
REMARK    3  A    between atoms: O1_10  and  C6_11 
REMARK       I    between atoms: C6_11  and  N2_13 
REMARK    4  A    between atoms: C8_17  and  N4_18 
ROOT
HETATM    1  C6  UNL     1       4.829   6.594  25.556  1.00  0.00     0.382 C 
HETATM    2  O2  UNL     1       5.713   7.155  26.247  1.00  0.00    -0.237 OA
HETATM    3  N2  UNL     1       4.951   6.619  24.152  1.00  0.00    -0.121 N 
HETATM    4  C7  UNL     1       6.085   7.290  23.613  1.00  0.00     0.693 A 
HETATM    5  N3  UNL     1       6.996   7.987  24.320  1.00  0.00    -0.169 N 
ATOM      6  H3  UNL     1       6.974   8.111  25.332  1.00  0.00     0.186 HD
HETATM    7  C8  UNL     1       7.937   8.494  23.508  1.00  0.00     0.204 A 
HETATM    8  C9  UNL     1       7.618   8.108  22.224  1.00  0.00     0.165 A 
HETATM    9  N5  UNL     1       6.512   7.393  22.311  1.00  0.00    -0.178 N 
HETATM   10  C10 UNL     1       5.757   6.746  21.221  1.00  0.00     0.179 C 
HETATM   11  C11 UNL     1       4.358   7.257  21.153  1.00  0.00     0.034 C 
HETATM   12  C12 UNL     1       3.505   7.066  22.342  1.00  0.00     0.029 C 
HETATM   13  C13 UNL     1       3.950   5.982  23.308  1.00  0.00     0.119 C 
HETATM   14  C14 UNL     1       4.659   4.886  22.557  1.00  0.00     0.107 C 
HETATM   15  C15 UNL     1       5.690   5.285  21.590  1.00  0.00     0.266 C 
HETATM   16  F1  UNL     1       5.459   4.592  20.393  1.00  0.00    -0.204 F 
HETATM   17  F2  UNL     1       6.984   4.914  21.969  1.00  0.00    -0.204 F 
ENDROOT
BRANCH   1  18
HETATM   18  O1  UNL     1       3.797   5.991  26.234  1.00  0.00    -0.298 OA
BRANCH  18  19
HETATM   19  C5  UNL     1       2.695   6.672  26.794  1.00  0.00     0.135 C 
HETATM   20  C4  UNL     1       2.944   6.964  28.280  1.00  0.00     0.033 C 
HETATM   21  C3  UNL     1       1.714   7.790  28.677  1.00  0.00     0.004 C 
HETATM   22  C2  UNL     1       0.589   6.795  28.829  1.00  0.00     0.033 C 
HETATM   23  C1  UNL     1       0.604   5.704  27.822  1.00  0.00     0.186 C 
HETATM   24  C16 UNL     1       1.422   5.933  26.604  1.00  0.00     0.065 C 
BRANCH  23  25
HETATM   25  N1  UNL     1      -0.770   5.457  27.407  1.00  0.00    -0.075 N 
ATOM     26  H13 UNL     1      -1.248   6.304  27.101  1.00  0.00     0.274 HD
ATOM     27  H12 UNL     1      -0.830   4.941  26.529  1.00  0.00     0.274 HD
ATOM     28  H11 UNL     1      -1.250   4.986  28.174  1.00  0.00     0.274 HD
ENDBRANCH  23  25
ENDBRANCH  18  19
ENDBRANCH   1  18
BRANCH   7  29
HETATM   29  N4  UNL     1       9.065   9.285  23.868  1.00  0.00    -0.096 N 
HETATM   30  O3  UNL     1       9.013   9.937  24.946  1.00  0.00    -0.530 OA
HETATM   31  O4  UNL     1      10.170   9.336  23.069  1.00  0.00    -0.530 OA
ENDBRANCH   7  29
TORSDOF 4
ENDMDL
MODEL 4
REMARK VINA RESULT: -6.920482343      3.572      5.389
REMARK  4 active torsions:
REMARK  status: ('A' for Active; 'I' for Inactive)
REMARK    1  A    between atoms: N1_1  and  C1_5 
REMARK    2  A    between atoms: C5_9  and  O1_10 
REMARK    3  A    between atoms: O1_10  and  C6_11 
REMARK       I    between atoms: C6_11  and  N2_13 
REMARK    4  A    between atoms: C8_17  and  N4_18 
ROOT
HETATM    1  C6  UNL     1       4.673   6.276  25.258  1.00  0.00     0.382 C 
HETATM    2  O2  UNL     1       5.515   6.927  25.923  1.00  0.00    -0.237 OA
HETATM    3  N2  UNL     1       4.790   6.257  23.853  1.00  0.00    -0.121 N 
HETATM    4  C7  UNL     1       5.871   6.988  23.284  1.00  0.00     0.693 A 
HETATM    5  N3  UNL     1       6.730   7.776  23.960  1.00  0.00    -0.169 N 
ATOM      6  H3  UNL     1       6.701   7.937  24.967  1.00  0.00     0.186 HD
HETATM    7  C8  UNL     1       7.630   8.320  23.125  1.00  0.00     0.204 A 
HETATM    8  C9  UNL     1       7.337   7.863  21.857  1.00  0.00     0.165 A 
HETATM    9  N5  UNL     1       6.287   7.072  21.977  1.00  0.00    -0.178 N 
HETATM   10  C10 UNL     1       5.580   6.331  20.915  1.00  0.00     0.179 C 
HETATM   11  C11 UNL     1       4.147   6.734  20.835  1.00  0.00     0.034 C 
HETATM   12  C12 UNL     1       3.312   6.526  22.034  1.00  0.00     0.029 C 
HETATM   13  C13 UNL     1       3.838   5.516  23.039  1.00  0.00     0.119 C 
HETATM   14  C14 UNL     1       4.624   4.447  22.327  1.00  0.00     0.107 C 
HETATM   15  C15 UNL     1       5.621   4.883  21.340  1.00  0.00     0.266 C 
HETATM   16  F1  UNL     1       5.439   4.131  20.171  1.00  0.00    -0.204 F 
HETATM   17  F2  UNL     1       6.940   4.624  21.727  1.00  0.00    -0.204 F 
ENDROOT
BRANCH   1  18
HETATM   18  O1  UNL     1       3.690   5.626  25.962  1.00  0.00    -0.298 OA
BRANCH  18  19
HETATM   19  C5  UNL     1       3.201   6.029  27.223  1.00  0.00     0.135 C 
HETATM   20  C4  UNL     1       2.257   7.230  27.074  1.00  0.00     0.033 C 
HETATM   21  C3  UNL     1       1.749   7.447  28.504  1.00  0.00     0.004 C 
HETATM   22  C2  UNL     1       2.876   8.135  29.236  1.00  0.00     0.033 C 
HETATM   23  C1  UNL     1       4.228   7.643  28.868  1.00  0.00     0.186 C 
HETATM   24  C16 UNL     1       4.294   6.329  28.181  1.00  0.00     0.065 C 
BRANCH  23  25
HETATM   25  N1  UNL     1       5.023   7.561  30.085  1.00  0.00    -0.075 N 
ATOM     26  H13 UNL     1       4.452   7.432  30.921  1.00  0.00     0.274 HD
ATOM     27  H12 UNL     1       5.557   6.694  30.150  1.00  0.00     0.274 HD
ATOM     28  H11 UNL     1       5.612   8.392  30.133  1.00  0.00     0.274 HD
ENDBRANCH  23  25
ENDBRANCH  18  19
ENDBRANCH   1  18
BRANCH   7  29
HETATM   29  N4  UNL     1       8.697   9.205  23.449  1.00  0.00    -0.096 N 
HETATM   30  O3  UNL     1       9.641   9.323  22.622  1.00  0.00    -0.530 OA
HETATM   31  O4  UNL     1       8.697   9.905  24.620  1.00  0.00    -0.530 OA
ENDBRANCH   7  29
TORSDOF 4
ENDMDL
MODEL 5
REMARK VINA RESULT: -6.792249244      1.946      2.513
REMARK  4 active torsions:
REMARK  status: ('A' for Active; 'I' for Inactive)
REMARK    1  A    between atoms: N1_1  and  C1_5 
REMARK    2  A    between atoms: C5_9  and  O1_10 
REMARK    3  A    between atoms: O1_10  and  C6_11 
REMARK       I    between atoms: C6_11  and  N2_13 
REMARK    4  A    between atoms: C8_17  and  N4_18 
ROOT
HETATM    1  C6  UNL     1       8.316   6.704  22.704  1.00  0.00     0.382 C 
HETATM    2  O2  UNL     1       9.082   5.788  22.321  1.00  0.00    -0.237 OA
HETATM    3  N2  UNL     1       6.932   6.575  22.463  1.00  0.00    -0.121 N 
HETATM    4  C7  UNL     1       6.501   5.395  21.792  1.00  0.00     0.693 A 
HETATM    5  N3  UNL     1       7.305   4.442  21.281  1.00  0.00    -0.169 N 
ATOM      6  H3  UNL     1       8.324   4.461  21.318  1.00  0.00     0.186 HD
HETATM    7  C8  UNL     1       6.578   3.465  20.715  1.00  0.00     0.204 A 
HETATM    8  C9  UNL     1       5.250   3.804  20.869  1.00  0.00     0.165 A 
HETATM    9  N5  UNL     1       5.229   4.956  21.512  1.00  0.00    -0.178 N 
HETATM   10  C10 UNL     1       4.054   5.747  21.925  1.00  0.00     0.179 C 
HETATM   11  C11 UNL     1       4.078   7.108  21.317  1.00  0.00     0.034 C 
HETATM   12  C12 UNL     1       5.226   7.979  21.637  1.00  0.00     0.029 C 
HETATM   13  C13 UNL     1       6.004   7.612  22.888  1.00  0.00     0.119 C 
HETATM   14  C14 UNL     1       5.084   6.975  23.896  1.00  0.00     0.107 C 
HETATM   15  C15 UNL     1       4.186   5.915  23.418  1.00  0.00     0.266 C 
HETATM   16  F1  UNL     1       2.895   6.186  23.894  1.00  0.00    -0.204 F 
HETATM   17  F2  UNL     1       4.494   4.650  23.931  1.00  0.00    -0.204 F 
ENDROOT
BRANCH   1  18
HETATM   18  O1  UNL     1       8.894   7.778  23.336  1.00  0.00    -0.298 OA
BRANCH  18  19
HETATM   19  C5  UNL     1       9.117   9.039  22.743  1.00  0.00     0.135 C 
HETATM   20  C4  UNL     1       9.238   8.900  21.218  1.00  0.00     0.033 C 
HETATM   21  C3  UNL     1       9.359  10.355  20.751  1.00  0.00     0.004 C 
HETATM   22  C2  UNL     1      10.781  10.762  21.054  1.00  0.00     0.033 C 
HETATM   23  C1  UNL     1      11.306  10.223  22.333  1.00  0.00     0.186 C 
HETATM   24  C16 UNL     1      10.304   9.726  23.309  1.00  0.00     0.065 C 
BRANCH  23  25
HETATM   25  N1  UNL     1      12.086  11.271  22.977  1.00  0.00    -0.075 N 
ATOM     26  H13 UNL     1      12.626  11.825  22.312  1.00  0.00     0.274 HD
ATOM     27  H12 UNL     1      11.506  12.026  23.344  1.00  0.00     0.274 HD
ATOM     28  H11 UNL     1      12.667  10.837  23.693  1.00  0.00     0.274 HD
ENDBRANCH  23  25
ENDBRANCH  18  19
ENDBRANCH   1  18
BRANCH   7  29
HETATM   29  N4  UNL     1       7.052   2.288  20.069  1.00  0.00    -0.096 N 
HETATM   30  O3  UNL     1       8.192   1.855  20.389  1.00  0.00    -0.530 OA
HETATM   31  O4  UNL     1       6.295   1.649  19.132  1.00  0.00    -0.530 OA
ENDBRANCH   7  29
TORSDOF 4
ENDMDL
