MODEL 1
REMARK VINA RESULT: -8.052921991      0.000      0.000
REMARK  5 active torsions:
REMARK  status: ('A' for Active; 'I' for Inactive)
REMARK    1  A    between atoms: C2_2  and  O1_5 
REMARK    2  A    between atoms: O1_5  and  C5_6 
REMARK       I    between atoms: C5_6  and  N1_8 
REMARK    3  A    between atoms: N2_11  and  C8_12 
REMARK    4  A    between atoms: C9_15  and  S1_16 
REMARK    5  A    between atoms: S1_16  and  C10_17 
ROOT
HETATM    1  C8  UNL     1       6.162   5.403  21.617  1.00  0.00     0.684 A 
HETATM    2  N3  UNL     1       6.793   6.550  22.003  1.00  0.00    -0.170 N 
ATOM      3  H3  UNL     1       6.240   7.374  22.238  1.00  0.00     0.186 HD
HETATM    4  C9  UNL     1       8.140   6.609  22.077  1.00  0.00     0.167 A 
HETATM    5  N4  UNL     1       8.820   5.480  21.752  1.00  0.00    -0.313 N 
ATOM      6  H4  UNL     1       9.839   5.490  21.797  1.00  0.00     0.170 HD
HETATM    7  C12 UNL     1       8.203   4.355  21.373  1.00  0.00     0.204 A 
HETATM    8  C13 UNL     1       8.916   3.154  21.029  1.00  0.00     0.137 C 
HETATM    9  N5  UNL     1       9.469   2.186  20.746  1.00  0.00    -0.188 NA
HETATM   10  N6  UNL     1       6.864   4.308  21.304  1.00  0.00    -0.166 N 
ATOM     11  H6  UNL     1       6.389   3.452  21.018  1.00  0.00     0.186 HD
ENDROOT
BRANCH   4  12
HETATM   12  S1  UNL     1       8.920   7.965  22.531  1.00  0.00    -0.017 SA
BRANCH  12  13
HETATM   13  C10 UNL     1       8.578   8.649  24.189  1.00  0.00     0.295 C 
HETATM   14  C11 UNL     1       9.192  10.052  24.237  1.00  0.00     0.103 C 
HETATM   15  F1  UNL     1       9.233   7.902  25.146  1.00  0.00    -0.194 F 
HETATM   16  F2  UNL     1       7.220   8.710  24.429  1.00  0.00    -0.194 F 
ENDBRANCH  12  13
ENDBRANCH   4  12
BRANCH   1  17
HETATM   17  N2  UNL     1       4.746   5.344  21.544  1.00  0.00    -0.214 N 
HETATM   18  C7  UNL     1       4.032   4.889  22.715  1.00  0.00     0.161 C 
HETATM   19  C6  UNL     1       2.876   5.884  22.898  1.00  0.00     0.148 C 
HETATM   20  N1  UNL     1       2.026   5.826  21.743  1.00  0.00    -0.325 N 
HETATM   21  C5  UNL     1       0.673   6.212  21.838  1.00  0.00     0.363 C 
HETATM   22  C15 UNL     1       2.534   5.377  20.480  1.00  0.00     0.148 C 
HETATM   23  O2  UNL     1       0.142   6.616  22.906  1.00  0.00    -0.238 OA
HETATM   24  C14 UNL     1       4.002   5.715  20.364  1.00  0.00     0.161 C 
BRANCH  21  25
HETATM   25  O1  UNL     1      -0.168   6.168  20.739  1.00  0.00    -0.294 OA
BRANCH  25  26
HETATM   26  C2  UNL     1      -1.144   5.206  20.595  1.00  0.00     0.061 C 
HETATM   27  C1  UNL     1      -1.109   4.645  19.200  1.00  0.00     0.046 C 
HETATM   28  C3  UNL     1      -1.124   4.075  21.575  1.00  0.00     0.046 C 
HETATM   29  C4  UNL     1      -2.492   5.919  20.747  1.00  0.00     0.046 C 
ENDBRANCH  25  26
ENDBRANCH  21  25
ENDBRANCH   1  17
TORSDOF 5
ENDMDL
MODEL 2
REMARK VINA RESULT: -7.346061989      2.588      3.579
REMARK  5 active torsions:
REMARK  status: ('A' for Active; 'I' for Inactive)
REMARK    1  A    between atoms: C2_2  and  O1_5 
REMARK    2  A    between atoms: O1_5  and  C5_6 
REMARK       I    between atoms: C5_6  and  N1_8 
REMARK    3  A    between atoms: N2_11  and  C8_12 
REMARK    4  A    between atoms: C9_15  and  S1_16 
REMARK    5  A    between atoms: S1_16  and  C10_17 
ROOT
HETATM    1  C8  UNL     1       4.383   6.517  23.267  1.00  0.00     0.684 A 
HETATM    2  N3  UNL     1       5.512   7.058  22.724  1.00  0.00    -0.170 N 
ATOM      3  H3  UNL     1       5.604   7.118  21.709  1.00  0.00     0.186 HD
HETATM    4  C9  UNL     1       6.508   7.518  23.509  1.00  0.00     0.167 A 
HETATM    5  N4  UNL     1       6.327   7.411  24.852  1.00  0.00    -0.313 N 
ATOM      6  H4  UNL     1       7.061   7.749  25.475  1.00  0.00     0.170 HD
HETATM    7  C12 UNL     1       5.221   6.880  25.386  1.00  0.00     0.204 A 
HETATM    8  C13 UNL     1       5.020   6.765  26.805  1.00  0.00     0.137 C 
HETATM    9  N5  UNL     1       4.844   6.662  27.937  1.00  0.00    -0.188 NA
HETATM   10  N6  UNL     1       4.237   6.428  24.593  1.00  0.00    -0.166 N 
ATOM     11  H6  UNL     1       3.392   6.024  24.996  1.00  0.00     0.186 HD
ENDROOT
BRANCH   4  12
HETATM   12  S1  UNL     1       7.868   8.167  22.889  1.00  0.00    -0.017 SA
BRANCH  12  13
HETATM   13  C10 UNL     1       8.929   9.168  23.986  1.00  0.00     0.295 C 
HETATM   14  C11 UNL     1      10.157   9.587  23.171  1.00  0.00     0.103 C 
HETATM   15  F1  UNL     1       9.395   8.388  25.024  1.00  0.00    -0.194 F 
HETATM   16  F2  UNL     1       8.255  10.282  24.446  1.00  0.00    -0.194 F 
ENDBRANCH  12  13
ENDBRANCH   4  12
BRANCH   1  17
HETATM   17  N2  UNL     1       3.335   6.038  22.437  1.00  0.00    -0.214 N 
HETATM   18  C7  UNL     1       2.044   5.820  23.047  1.00  0.00     0.161 C 
HETATM   19  C6  UNL     1       1.027   6.449  22.082  1.00  0.00     0.148 C 
HETATM   20  N1  UNL     1       1.103   5.770  20.819  1.00  0.00    -0.325 N 
HETATM   21  C5  UNL     1      -0.006   5.767  19.948  1.00  0.00     0.363 C 
HETATM   22  C15 UNL     1       2.300   5.087  20.425  1.00  0.00     0.148 C 
HETATM   23  O2  UNL     1      -1.096   6.337  20.214  1.00  0.00    -0.238 OA
HETATM   24  C14 UNL     1       3.506   5.767  21.030  1.00  0.00     0.161 C 
BRANCH  21  25
HETATM   25  O1  UNL     1       0.042   5.121  18.724  1.00  0.00    -0.294 OA
BRANCH  25  26
HETATM   26  C2  UNL     1      -0.999   4.351  18.255  1.00  0.00     0.061 C 
HETATM   27  C1  UNL     1      -1.544   3.494  19.363  1.00  0.00     0.046 C 
HETATM   28  C3  UNL     1      -2.132   5.078  17.601  1.00  0.00     0.046 C 
HETATM   29  C4  UNL     1      -0.407   3.396  17.212  1.00  0.00     0.046 C 
ENDBRANCH  25  26
ENDBRANCH  21  25
ENDBRANCH   1  17
TORSDOF 5
ENDMDL
MODEL 3
REMARK VINA RESULT: -7.269276332      2.511      3.384
REMARK  5 active torsions:
REMARK  status: ('A' for Active; 'I' for Inactive)
REMARK    1  A    between atoms: C2_2  and  O1_5 
REMARK    2  A    between atoms: O1_5  and  C5_6 
REMARK       I    between atoms: C5_6  and  N1_8 
REMARK    3  A    between atoms: N2_11  and  C8_12 
REMARK    4  A    between atoms: C9_15  and  S1_16 
REMARK    5  A    between atoms: S1_16  and  C10_17 
ROOT
HETATM    1  C8  UNL     1       5.641   7.051  23.231  1.00  0.00     0.684 A 
HETATM    2  N3  UNL     1       6.658   7.573  22.485  1.00  0.00    -0.170 N 
ATOM      3  H3  UNL     1       6.630   7.492  21.469  1.00  0.00     0.186 HD
HETATM    4  C9  UNL     1       7.701   8.195  23.074  1.00  0.00     0.167 A 
HETATM    5  N4  UNL     1       7.682   8.271  24.430  1.00  0.00    -0.313 N 
ATOM      6  H4  UNL     1       8.455   8.735  24.907  1.00  0.00     0.170 HD
HETATM    7  C12 UNL     1       6.685   7.760  25.163  1.00  0.00     0.204 A 
HETATM    8  C13 UNL     1       6.655   7.838  26.598  1.00  0.00     0.137 C 
HETATM    9  N5  UNL     1       6.617   7.887  27.747  1.00  0.00    -0.188 NA
HETATM   10  N6  UNL     1       5.653   7.145  24.565  1.00  0.00    -0.166 N 
ATOM     11  H6  UNL     1       4.891   6.755  25.119  1.00  0.00     0.186 HD
ENDROOT
BRANCH   4  12
HETATM   12  S1  UNL     1       8.931   8.825  22.210  1.00  0.00    -0.017 SA
BRANCH  12  13
HETATM   13  C10 UNL     1      10.067   9.987  23.040  1.00  0.00     0.295 C 
HETATM   14  C11 UNL     1      10.601  10.943  21.968  1.00  0.00     0.103 C 
HETATM   15  F1  UNL     1      11.159   9.301  23.532  1.00  0.00    -0.194 F 
HETATM   16  F2  UNL     1       9.416  10.693  24.032  1.00  0.00    -0.194 F 
ENDBRANCH  12  13
ENDBRANCH   4  12
BRANCH   1  17
HETATM   17  N2  UNL     1       4.544   6.401  22.607  1.00  0.00    -0.214 N 
HETATM   18  C7  UNL     1       3.592   5.728  23.460  1.00  0.00     0.161 C 
HETATM   19  C6  UNL     1       2.209   6.151  22.941  1.00  0.00     0.148 C 
HETATM   20  N1  UNL     1       2.066   5.705  21.584  1.00  0.00    -0.325 N 
HETATM   21  C5  UNL     1       0.783   5.491  21.040  1.00  0.00     0.363 C 
HETATM   22  C15 UNL     1       3.218   5.470  20.764  1.00  0.00     0.148 C 
HETATM   23  O2  UNL     1      -0.282   5.669  21.687  1.00  0.00    -0.238 OA
HETATM   24  C14 UNL     1       4.344   6.388  21.178  1.00  0.00     0.161 C 
BRANCH  21  25
HETATM   25  O1  UNL     1       0.617   5.063  19.733  1.00  0.00    -0.294 OA
BRANCH  25  26
HETATM   26  C2  UNL     1      -0.566   5.227  19.047  1.00  0.00     0.061 C 
HETATM   27  C1  UNL     1      -1.516   4.113  19.390  1.00  0.00     0.046 C 
HETATM   28  C3  UNL     1      -1.269   6.537  19.222  1.00  0.00     0.046 C 
HETATM   29  C4  UNL     1      -0.237   5.080  17.558  1.00  0.00     0.046 C 
ENDBRANCH  25  26
ENDBRANCH  21  25
ENDBRANCH   1  17
TORSDOF 5
ENDMDL
MODEL 4
REMARK VINA RESULT: -7.209009230      2.826      4.071
REMARK  5 active torsions:
REMARK  status: ('A' for Active; 'I' for Inactive)
REMARK    1  A    between atoms: C2_2  and  O1_5 
REMARK    2  A    between atoms: O1_5  and  C5_6 
REMARK       I    between atoms: C5_6  and  N1_8 
REMARK    3  A    between atoms: N2_11  and  C8_12 
REMARK    4  A    between atoms: C9_15  and  S1_16 
REMARK    5  A    between atoms: S1_16  and  C10_17 
ROOT
HETATM    1  C8  UNL     1       3.745   6.350  23.584  1.00  0.00     0.684 A 
HETATM    2  N3  UNL     1       4.951   6.828  23.159  1.00  0.00    -0.170 N 
ATOM      3  H3  UNL     1       5.138   6.904  22.159  1.00  0.00     0.186 HD
HETATM    4  C9  UNL     1       5.899   7.203  24.043  1.00  0.00     0.167 A 
HETATM    5  N4  UNL     1       5.591   7.079  25.360  1.00  0.00    -0.313 N 
ATOM      6  H4  UNL     1       6.285   7.353  26.056  1.00  0.00     0.170 HD
HETATM    7  C12 UNL     1       4.409   6.610  25.779  1.00  0.00     0.204 A 
HETATM    8  C13 UNL     1       4.073   6.477  27.170  1.00  0.00     0.137 C 
HETATM    9  N5  UNL     1       3.789   6.360  28.279  1.00  0.00    -0.188 NA
HETATM   10  N6  UNL     1       3.474   6.242  24.889  1.00  0.00    -0.166 N 
ATOM     11  H6  UNL     1       2.572   5.886  25.204  1.00  0.00     0.186 HD
ENDROOT
BRANCH   4  12
HETATM   12  S1  UNL     1       7.348   7.774  23.565  1.00  0.00    -0.017 SA
BRANCH  12  13
HETATM   13  C10 UNL     1       8.014   7.214  21.961  1.00  0.00     0.295 C 
HETATM   14  C11 UNL     1       9.399   6.615  22.228  1.00  0.00     0.103 C 
HETATM   15  F1  UNL     1       8.211   8.300  21.133  1.00  0.00    -0.194 F 
HETATM   16  F2  UNL     1       7.187   6.273  21.382  1.00  0.00    -0.194 F 
ENDBRANCH  12  13
ENDBRANCH   4  12
BRANCH   1  17
HETATM   17  N2  UNL     1       2.749   5.961  22.651  1.00  0.00    -0.214 N 
HETATM   18  C7  UNL     1       1.397   5.812  23.138  1.00  0.00     0.161 C 
HETATM   19  C6  UNL     1       0.512   6.528  22.106  1.00  0.00     0.148 C 
HETATM   20  N1  UNL     1       0.659   5.877  20.835  1.00  0.00    -0.325 N 
HETATM   21  C5  UNL     1      -0.365   5.966  19.870  1.00  0.00     0.363 C 
HETATM   22  C15 UNL     1       1.842   5.128  20.528  1.00  0.00     0.148 C 
HETATM   23  O2  UNL     1      -1.437   6.599  20.055  1.00  0.00    -0.238 OA
HETATM   24  C14 UNL     1       3.029   5.713  21.257  1.00  0.00     0.161 C 
BRANCH  21  25
HETATM   25  O1  UNL     1      -0.247   5.349  18.636  1.00  0.00    -0.294 OA
BRANCH  25  26
HETATM   26  C2  UNL     1      -1.081   4.327  18.240  1.00  0.00     0.061 C 
HETATM   27  C1  UNL     1      -0.380   3.451  17.239  1.00  0.00     0.046 C 
HETATM   28  C3  UNL     1      -1.653   3.466  19.323  1.00  0.00     0.046 C 
HETATM   29  C4  UNL     1      -2.258   4.978  17.505  1.00  0.00     0.046 C 
ENDBRANCH  25  26
ENDBRANCH  21  25
ENDBRANCH   1  17
TORSDOF 5
ENDMDL
MODEL 5
REMARK VINA RESULT: -7.104014209      5.019      9.061
REMARK  5 active torsions:
REMARK  status: ('A' for Active; 'I' for Inactive)
REMARK    1  A    between atoms: C2_2  and  O1_5 
REMARK    2  A    between atoms: O1_5  and  C5_6 
REMARK       I    between atoms: C5_6  and  N1_8 
REMARK    3  A    between atoms: N2_11  and  C8_12 
REMARK    4  A    between atoms: C9_15  and  S1_16 
REMARK    5  A    between atoms: S1_16  and  C10_17 
ROOT
HETATM    1  C8  UNL     1       1.659   5.444  21.268  1.00  0.00     0.684 A 
HETATM    2  N3  UNL     1       1.382   5.448  19.931  1.00  0.00    -0.170 N 
ATOM      3  H3  UNL     1       2.111   5.710  19.267  1.00  0.00     0.186 HD
HETATM    4  C9  UNL     1       0.157   5.111  19.476  1.00  0.00     0.167 A 
HETATM    5  N4  UNL     1      -0.771   4.773  20.409  1.00  0.00    -0.313 N 
ATOM      6  H4  UNL     1      -1.707   4.512  20.098  1.00  0.00     0.170 HD
HETATM    7  C12 UNL     1      -0.501   4.768  21.719  1.00  0.00     0.204 A 
HETATM    8  C13 UNL     1      -1.476   4.410  22.713  1.00  0.00     0.137 C 
HETATM    9  N5  UNL     1      -2.245   4.130  23.522  1.00  0.00    -0.188 NA
HETATM   10  N6  UNL     1       0.721   5.105  22.159  1.00  0.00    -0.166 N 
ATOM     11  H6  UNL     1       0.931   5.102  23.157  1.00  0.00     0.186 HD
ENDROOT
BRANCH   4  12
HETATM   12  S1  UNL     1      -0.203   5.109  17.887  1.00  0.00    -0.017 SA
BRANCH  12  13
HETATM   13  C10 UNL     1      -0.306   3.505  17.023  1.00  0.00     0.295 C 
HETATM   14  C11 UNL     1      -1.757   3.023  17.133  1.00  0.00     0.103 C 
HETATM   15  F1  UNL     1       0.468   2.571  17.680  1.00  0.00    -0.194 F 
HETATM   16  F2  UNL     1       0.059   3.631  15.697  1.00  0.00    -0.194 F 
ENDBRANCH  12  13
ENDBRANCH   4  12
BRANCH   1  17
HETATM   17  N2  UNL     1       2.949   5.796  21.743  1.00  0.00    -0.214 N 
HETATM   18  C7  UNL     1       4.054   5.696  20.817  1.00  0.00     0.161 C 
HETATM   19  C6  UNL     1       4.848   6.999  20.989  1.00  0.00     0.148 C 
HETATM   20  N1  UNL     1       5.333   7.074  22.338  1.00  0.00    -0.325 N 
HETATM   21  C5  UNL     1       6.472   7.849  22.641  1.00  0.00     0.363 C 
HETATM   22  C15 UNL     1       4.671   6.367  23.395  1.00  0.00     0.148 C 
HETATM   23  O2  UNL     1       7.116   8.499  21.776  1.00  0.00    -0.238 OA
HETATM   24  C14 UNL     1       3.197   6.245  23.092  1.00  0.00     0.161 C 
BRANCH  21  25
HETATM   25  O1  UNL     1       6.959   7.939  23.934  1.00  0.00    -0.294 OA
BRANCH  25  26
HETATM   26  C2  UNL     1       8.243   8.354  24.212  1.00  0.00     0.061 C 
HETATM   27  C1  UNL     1       9.232   7.470  23.505  1.00  0.00     0.046 C 
HETATM   28  C3  UNL     1       8.567   9.784  23.911  1.00  0.00     0.046 C 
HETATM   29  C4  UNL     1       8.459   8.142  25.714  1.00  0.00     0.046 C 
ENDBRANCH  25  26
ENDBRANCH  21  25
ENDBRANCH   1  17
TORSDOF 5
ENDMDL
