MODEL 1
REMARK VINA RESULT: -8.467325692      0.000      0.000
REMARK  5 active torsions:
REMARK  status: ('A' for Active; 'I' for Inactive)
REMARK    1  A    between atoms: N1_4  and  C4_5 
REMARK    2  A    between atoms: N3_14  and  C11_15 
REMARK    3  A    between atoms: C11_15  and  C12_16 
REMARK    4  A    between atoms: C13_17  and  C14_18 
REMARK    5  A    between atoms: C23_30  and  O1_31 
ROOT
HETATM    1  C12 UNL     1      10.024   7.538   1.724  1.00  0.00     0.025 A 
HETATM    2  C13 UNL     1       8.832   8.255   1.550  1.00  0.00     0.004 A 
HETATM    3  C20 UNL     1       8.697   9.021   2.671  1.00  0.00     0.105 A 
HETATM    4  N4  UNL     1       9.709   8.831   3.515  1.00  0.00    -0.347 N 
HETATM    5  C21 UNL     1      10.532   7.919   2.939  1.00  0.00     0.084 A 
HETATM    6  S1  UNL     1      12.010   7.540   3.898  1.00  0.00    -0.109 SA
HETATM    7  C22 UNL     1      11.602   7.564   5.655  1.00  0.00     0.114 C 
HETATM    8  C23 UNL     1      10.230   8.211   5.789  1.00  0.00     0.146 C 
HETATM    9  C24 UNL     1      10.089   9.348   4.816  1.00  0.00     0.161 C 
ENDROOT
BRANCH   1  10
HETATM   10  C11 UNL     1      10.595   6.646   0.737  1.00  0.00     0.101 C 
BRANCH  10  11
HETATM   11  N3  UNL     1      11.669   6.995  -0.064  1.00  0.00    -0.382 N 
HETATM   12  C2  UNL     1      12.960   6.457   0.214  1.00  0.00     0.097 C 
HETATM   13  C1  UNL     1      14.110   7.109  -0.470  1.00  0.00     0.034 C 
HETATM   14  C3  UNL     1      12.921   5.005  -0.320  1.00  0.00     0.149 C 
HETATM   15  N1  UNL     1      12.291   4.924  -1.617  1.00  0.00    -0.364 N 
HETATM   16  C9  UNL     1      11.155   5.745  -1.994  1.00  0.00     0.144 C 
HETATM   17  C10 UNL     1      11.404   7.142  -1.474  1.00  0.00     0.142 C 
BRANCH  15  18
HETATM   18  C4  UNL     1      12.784   3.994  -2.575  1.00  0.00     0.102 A 
HETATM   19  C5  UNL     1      14.035   3.403  -2.484  1.00  0.00     0.048 A 
HETATM   20  C6  UNL     1      14.424   2.527  -3.470  1.00  0.00     0.005 A 
HETATM   21  C7  UNL     1      13.576   2.254  -4.516  1.00  0.00     0.017 A 
HETATM   22  C8  UNL     1      12.327   2.852  -4.595  1.00  0.00     0.089 A 
HETATM   23  N2  UNL     1      11.978   3.696  -3.626  1.00  0.00    -0.352 N 
ATOM     24  H2  UNL     1      11.062   4.141  -3.677  1.00  0.00     0.166 HD
ENDBRANCH  15  18
ENDBRANCH  10  11
ENDBRANCH   1  10
BRANCH   2  25
HETATM   25  C14 UNL     1       7.865   8.238   0.450  1.00  0.00    -0.024 A 
HETATM   26  C15 UNL     1       6.702   8.996   0.553  1.00  0.00     0.015 A 
HETATM   27  C16 UNL     1       5.771   8.984  -0.447  1.00  0.00     0.043 A 
HETATM   28  C17 UNL     1       5.937   8.229  -1.595  1.00  0.00     0.116 A 
HETATM   29  F1  UNL     1       4.992   8.253  -2.548  1.00  0.00    -0.206 F 
HETATM   30  C18 UNL     1       7.098   7.490  -1.667  1.00  0.00     0.043 A 
HETATM   31  C19 UNL     1       8.049   7.484  -0.676  1.00  0.00     0.015 A 
ENDBRANCH   2  25
BRANCH   8  32
HETATM   32  O1  UNL     1      10.121   8.720   7.081  1.00  0.00    -0.393 OA
ATOM     33  H1  UNL     1      10.593   9.543   7.113  1.00  0.00     0.210 HD
ENDBRANCH   8  32
TORSDOF 5
ENDMDL
MODEL 2
REMARK VINA RESULT: -8.414894142      2.907      6.691
REMARK  5 active torsions:
REMARK  status: ('A' for Active; 'I' for Inactive)
REMARK    1  A    between atoms: N1_4  and  C4_5 
REMARK    2  A    between atoms: N3_14  and  C11_15 
REMARK    3  A    between atoms: C11_15  and  C12_16 
REMARK    4  A    between atoms: C13_17  and  C14_18 
REMARK    5  A    between atoms: C23_30  and  O1_31 
ROOT
HETATM    1  C12 UNL     1      11.374   7.135  -0.473  1.00  0.00     0.025 A 
HETATM    2  C13 UNL     1      10.339   6.602  -1.255  1.00  0.00     0.004 A 
HETATM    3  C20 UNL     1      10.788   5.384  -1.679  1.00  0.00     0.105 A 
HETATM    4  N4  UNL     1      12.011   5.130  -1.220  1.00  0.00    -0.347 N 
HETATM    5  C21 UNL     1      12.380   6.203  -0.476  1.00  0.00     0.084 A 
HETATM    6  S1  UNL     1      14.005   6.055   0.290  1.00  0.00    -0.109 SA
HETATM    7  C22 UNL     1      15.111   5.174  -0.829  1.00  0.00     0.114 C 
HETATM    8  C23 UNL     1      14.249   4.552  -1.918  1.00  0.00     0.146 C 
HETATM    9  C24 UNL     1      12.960   4.039  -1.337  1.00  0.00     0.161 C 
ENDROOT
BRANCH   1  10
HETATM   10  C11 UNL     1      11.298   8.393   0.238  1.00  0.00     0.101 C 
BRANCH  10  11
HETATM   11  N3  UNL     1      10.593   8.550   1.419  1.00  0.00    -0.382 N 
HETATM   12  C2  UNL     1      10.150   7.400   2.136  1.00  0.00     0.097 C 
HETATM   13  C1  UNL     1       9.141   7.633   3.204  1.00  0.00     0.034 C 
HETATM   14  C3  UNL     1      11.409   6.859   2.857  1.00  0.00     0.149 C 
HETATM   15  N1  UNL     1      12.182   7.919   3.459  1.00  0.00    -0.364 N 
HETATM   16  C9  UNL     1      12.343   9.224   2.846  1.00  0.00     0.144 C 
HETATM   17  C10 UNL     1      11.003   9.635   2.278  1.00  0.00     0.142 C 
BRANCH  15  18
HETATM   18  C4  UNL     1      12.835   7.687   4.702  1.00  0.00     0.102 A 
HETATM   19  C5  UNL     1      12.196   7.131   5.801  1.00  0.00     0.048 A 
HETATM   20  C6  UNL     1      12.912   6.960   6.963  1.00  0.00     0.005 A 
HETATM   21  C7  UNL     1      14.232   7.337   7.015  1.00  0.00     0.017 A 
HETATM   22  C8  UNL     1      14.859   7.891   5.908  1.00  0.00     0.089 A 
HETATM   23  N2  UNL     1      14.140   8.045   4.798  1.00  0.00    -0.352 N 
ATOM     24  H2  UNL     1      14.593   8.452   3.980  1.00  0.00     0.166 HD
ENDBRANCH  15  18
ENDBRANCH  10  11
ENDBRANCH   1  10
BRANCH   2  25
HETATM   25  C14 UNL     1       9.033   7.162  -1.613  1.00  0.00    -0.024 A 
HETATM   26  C15 UNL     1       8.758   7.450  -2.947  1.00  0.00     0.015 A 
HETATM   27  C16 UNL     1       7.557   7.993  -3.309  1.00  0.00     0.043 A 
HETATM   28  C17 UNL     1       6.571   8.278  -2.381  1.00  0.00     0.116 A 
HETATM   29  F1  UNL     1       5.409   8.811  -2.790  1.00  0.00    -0.206 F 
HETATM   30  C18 UNL     1       6.874   7.981  -1.069  1.00  0.00     0.043 A 
HETATM   31  C19 UNL     1       8.073   7.436  -0.679  1.00  0.00     0.015 A 
ENDBRANCH   2  25
BRANCH   8  32
HETATM   32  O1  UNL     1      14.949   3.475  -2.457  1.00  0.00    -0.393 OA
ATOM     33  H1  UNL     1      15.055   3.631  -3.388  1.00  0.00     0.210 HD
ENDBRANCH   8  32
TORSDOF 5
ENDMDL
MODEL 3
REMARK VINA RESULT: -8.056787985      3.352      5.437
REMARK  5 active torsions:
REMARK  status: ('A' for Active; 'I' for Inactive)
REMARK    1  A    between atoms: N1_4  and  C4_5 
REMARK    2  A    between atoms: N3_14  and  C11_15 
REMARK    3  A    between atoms: C11_15  and  C12_16 
REMARK    4  A    between atoms: C13_17  and  C14_18 
REMARK    5  A    between atoms: C23_30  and  O1_31 
ROOT
HETATM    1  C12 UNL     1      11.167   7.684   2.734  1.00  0.00     0.025 A 
HETATM    2  C13 UNL     1      11.634   8.293   3.907  1.00  0.00     0.004 A 
HETATM    3  C20 UNL     1      10.552   8.929   4.446  1.00  0.00     0.105 A 
HETATM    4  N4  UNL     1       9.465   8.758   3.698  1.00  0.00    -0.347 N 
HETATM    5  C21 UNL     1       9.834   7.991   2.641  1.00  0.00     0.084 A 
HETATM    6  S1  UNL     1       8.492   7.590   1.507  1.00  0.00    -0.109 SA
HETATM    7  C22 UNL     1       7.372   8.999   1.391  1.00  0.00     0.114 C 
HETATM    8  C23 UNL     1       7.727   9.953   2.523  1.00  0.00     0.146 C 
HETATM    9  C24 UNL     1       8.080   9.182   3.765  1.00  0.00     0.161 C 
ENDROOT
BRANCH   1  10
HETATM   10  C11 UNL     1      11.970   6.839   1.875  1.00  0.00     0.101 C 
BRANCH  10  11
HETATM   11  N3  UNL     1      12.487   7.267   0.665  1.00  0.00    -0.382 N 
HETATM   12  C2  UNL     1      13.824   6.923   0.307  1.00  0.00     0.097 C 
HETATM   13  C1  UNL     1      14.415   7.670  -0.837  1.00  0.00     0.034 C 
HETATM   14  C3  UNL     1      13.757   5.444  -0.145  1.00  0.00     0.149 C 
HETATM   15  N1  UNL     1      12.618   5.192  -0.997  1.00  0.00    -0.364 N 
HETATM   16  C9  UNL     1      11.330   5.829  -0.799  1.00  0.00     0.144 C 
HETATM   17  C10 UNL     1      11.581   7.280  -0.458  1.00  0.00     0.142 C 
BRANCH  15  18
HETATM   18  C4  UNL     1      12.743   4.269  -2.073  1.00  0.00     0.102 A 
HETATM   19  C5  UNL     1      13.886   3.516  -2.297  1.00  0.00     0.048 A 
HETATM   20  C6  UNL     1      13.912   2.661  -3.374  1.00  0.00     0.005 A 
HETATM   21  C7  UNL     1      12.818   2.568  -4.200  1.00  0.00     0.017 A 
HETATM   22  C8  UNL     1      11.680   3.326  -3.965  1.00  0.00     0.089 A 
HETATM   23  N2  UNL     1      11.685   4.145  -2.915  1.00  0.00    -0.352 N 
ATOM     24  H2  UNL     1      10.853   4.707  -2.734  1.00  0.00     0.166 HD
ENDBRANCH  15  18
ENDBRANCH  10  11
ENDBRANCH   1  10
BRANCH   2  25
HETATM   25  C14 UNL     1      12.974   8.316   4.498  1.00  0.00    -0.024 A 
HETATM   26  C15 UNL     1      13.252   7.495   5.587  1.00  0.00     0.015 A 
HETATM   27  C16 UNL     1      14.487   7.509   6.173  1.00  0.00     0.043 A 
HETATM   28  C17 UNL     1      15.505   8.328   5.718  1.00  0.00     0.116 A 
HETATM   29  F1  UNL     1      16.701   8.304   6.329  1.00  0.00    -0.206 F 
HETATM   30  C18 UNL     1      15.198   9.128   4.638  1.00  0.00     0.043 A 
HETATM   31  C19 UNL     1      13.966   9.133   4.032  1.00  0.00     0.015 A 
ENDBRANCH   2  25
BRANCH   8  32
HETATM   32  O1  UNL     1       6.607  10.736   2.792  1.00  0.00    -0.393 OA
ATOM     33  H1  UNL     1       6.826  11.325   3.504  1.00  0.00     0.210 HD
ENDBRANCH   8  32
TORSDOF 5
ENDMDL
MODEL 4
REMARK VINA RESULT: -7.975039654      3.241      7.350
REMARK  5 active torsions:
REMARK  status: ('A' for Active; 'I' for Inactive)
REMARK    1  A    between atoms: N1_4  and  C4_5 
REMARK    2  A    between atoms: N3_14  and  C11_15 
REMARK    3  A    between atoms: C11_15  and  C12_16 
REMARK    4  A    between atoms: C13_17  and  C14_18 
REMARK    5  A    between atoms: C23_30  and  O1_31 
ROOT
HETATM    1  C12 UNL     1      11.446   6.842  -0.702  1.00  0.00     0.025 A 
HETATM    2  C13 UNL     1      10.459   6.416  -1.604  1.00  0.00     0.004 A 
HETATM    3  C20 UNL     1      10.911   5.231  -2.109  1.00  0.00     0.105 A 
HETATM    4  N4  UNL     1      12.091   4.899  -1.590  1.00  0.00    -0.347 N 
HETATM    5  C21 UNL     1      12.428   5.886  -0.722  1.00  0.00     0.084 A 
HETATM    6  S1  UNL     1      13.987   5.618   0.141  1.00  0.00    -0.109 SA
HETATM    7  C22 UNL     1      15.153   4.813  -0.975  1.00  0.00     0.114 C 
HETATM    8  C23 UNL     1      14.360   4.322  -2.178  1.00  0.00     0.146 C 
HETATM    9  C24 UNL     1      13.020   3.796  -1.743  1.00  0.00     0.161 C 
ENDROOT
BRANCH   1  10
HETATM   10  C11 UNL     1      11.346   8.030   0.119  1.00  0.00     0.101 C 
BRANCH  10  11
HETATM   11  N3  UNL     1      10.805   8.022   1.393  1.00  0.00    -0.382 N 
HETATM   12  C2  UNL     1      11.612   7.625   2.501  1.00  0.00     0.097 C 
HETATM   13  C1  UNL     1      10.894   7.335   3.772  1.00  0.00     0.034 C 
HETATM   14  C3  UNL     1      12.522   8.841   2.799  1.00  0.00     0.149 C 
HETATM   15  N1  UNL     1      11.790  10.086   2.757  1.00  0.00    -0.364 N 
HETATM   16  C9  UNL     1      10.722  10.341   1.809  1.00  0.00     0.144 C 
HETATM   17  C10 UNL     1       9.883   9.086   1.712  1.00  0.00     0.142 C 
BRANCH  15  18
HETATM   18  C4  UNL     1      12.128  11.125   3.669  1.00  0.00     0.102 A 
HETATM   19  C5  UNL     1      12.918  10.921   4.791  1.00  0.00     0.048 A 
HETATM   20  C6  UNL     1      13.176  11.989   5.619  1.00  0.00     0.005 A 
HETATM   21  C7  UNL     1      12.654  13.224   5.324  1.00  0.00     0.017 A 
HETATM   22  C8  UNL     1      11.866  13.415   4.198  1.00  0.00     0.089 A 
HETATM   23  N2  UNL     1      11.633  12.363   3.416  1.00  0.00    -0.352 N 
ATOM     24  H2  UNL     1      11.054  12.493   2.586  1.00  0.00     0.166 HD
ENDBRANCH  15  18
ENDBRANCH  10  11
ENDBRANCH   1  10
BRANCH   2  25
HETATM   25  C14 UNL     1       9.197   7.046  -1.998  1.00  0.00    -0.024 A 
HETATM   26  C15 UNL     1       9.017   7.438  -3.322  1.00  0.00     0.015 A 
HETATM   27  C16 UNL     1       7.859   8.047  -3.716  1.00  0.00     0.043 A 
HETATM   28  C17 UNL     1       6.825   8.300  -2.832  1.00  0.00     0.116 A 
HETATM   29  F1  UNL     1       5.707   8.902  -3.271  1.00  0.00    -0.206 F 
HETATM   30  C18 UNL     1       7.034   7.900  -1.530  1.00  0.00     0.043 A 
HETATM   31  C19 UNL     1       8.189   7.287  -1.108  1.00  0.00     0.015 A 
ENDBRANCH   2  25
BRANCH   8  32
HETATM   32  O1  UNL     1      15.073   3.280  -2.766  1.00  0.00    -0.393 OA
ATOM     33  H1  UNL     1      14.449   2.686  -3.164  1.00  0.00     0.210 HD
ENDBRANCH   8  32
TORSDOF 5
ENDMDL
MODEL 5
REMARK VINA RESULT: -7.907223142      4.499      7.343
REMARK  5 active torsions:
REMARK  status: ('A' for Active; 'I' for Inactive)
REMARK    1  A    between atoms: N1_4  and  C4_5 
REMARK    2  A    between atoms: N3_14  and  C11_15 
REMARK    3  A    between atoms: C11_15  and  C12_16 
REMARK    4  A    between atoms: C13_17  and  C14_18 
REMARK    5  A    between atoms: C23_30  and  O1_31 
ROOT
HETATM    1  C12 UNL     1      11.672   7.488   4.308  1.00  0.00     0.025 A 
HETATM    2  C13 UNL     1      11.232   7.239   3.000  1.00  0.00     0.004 A 
HETATM    3  C20 UNL     1       9.875   7.118   3.086  1.00  0.00     0.105 A 
HETATM    4  N4  UNL     1       9.451   7.271   4.338  1.00  0.00    -0.347 N 
HETATM    5  C21 UNL     1      10.551   7.501   5.098  1.00  0.00     0.084 A 
HETATM    6  S1  UNL     1      10.204   7.787   6.843  1.00  0.00    -0.109 SA
HETATM    7  C22 UNL     1       8.824   6.744   7.353  1.00  0.00     0.114 C 
HETATM    8  C23 UNL     1       8.180   6.197   6.087  1.00  0.00     0.146 C 
HETATM    9  C24 UNL     1       8.166   7.247   5.011  1.00  0.00     0.161 C 
ENDROOT
BRANCH   1  10
HETATM   10  C11 UNL     1      13.048   7.753   4.673  1.00  0.00     0.101 C 
BRANCH  10  11
HETATM   11  N3  UNL     1      13.461   8.944   5.243  1.00  0.00    -0.382 N 
HETATM   12  C2  UNL     1      14.344   8.922   6.363  1.00  0.00     0.097 C 
HETATM   13  C1  UNL     1      14.491  10.198   7.115  1.00  0.00     0.034 C 
HETATM   14  C3  UNL     1      15.742   8.618   5.774  1.00  0.00     0.149 C 
HETATM   15  N1  UNL     1      16.000   9.382   4.575  1.00  0.00    -0.364 N 
HETATM   16  C9  UNL     1      14.974   9.677   3.593  1.00  0.00     0.144 C 
HETATM   17  C10 UNL     1      13.712  10.042   4.340  1.00  0.00     0.142 C 
BRANCH  15  18
HETATM   18  C4  UNL     1      17.316   9.862   4.323  1.00  0.00     0.102 A 
HETATM   19  C5  UNL     1      18.430   9.036   4.291  1.00  0.00     0.048 A 
HETATM   20  C6  UNL     1      19.662   9.601   4.052  1.00  0.00     0.005 A 
HETATM   21  C7  UNL     1      19.767  10.955   3.852  1.00  0.00     0.017 A 
HETATM   22  C8  UNL     1      18.644  11.770   3.886  1.00  0.00     0.089 A 
HETATM   23  N2  UNL     1      17.466  11.196   4.120  1.00  0.00    -0.352 N 
ATOM     24  H2  UNL     1      16.635  11.787   4.148  1.00  0.00     0.166 HD
ENDBRANCH  15  18
ENDBRANCH  10  11
ENDBRANCH   1  10
BRANCH   2  25
HETATM   25  C14 UNL     1      11.989   7.103   1.753  1.00  0.00    -0.024 A 
HETATM   26  C15 UNL     1      11.318   7.193   0.536  1.00  0.00     0.015 A 
HETATM   27  C16 UNL     1      11.993   7.049  -0.643  1.00  0.00     0.043 A 
HETATM   28  C17 UNL     1      13.355   6.810  -0.685  1.00  0.00     0.116 A 
HETATM   29  F1  UNL     1      13.970   6.676  -1.871  1.00  0.00    -0.206 F 
HETATM   30  C18 UNL     1      13.990   6.726   0.536  1.00  0.00     0.043 A 
HETATM   31  C19 UNL     1      13.335   6.867   1.735  1.00  0.00     0.015 A 
ENDBRANCH   2  25
BRANCH   8  32
HETATM   32  O1  UNL     1       6.863   5.856   6.388  1.00  0.00    -0.393 OA
ATOM     33  H1  UNL     1       6.435   5.602   5.579  1.00  0.00     0.210 HD
ENDBRANCH   8  32
TORSDOF 5
ENDMDL
