MODEL 1
REMARK VINA RESULT: -8.511653180      0.000      0.000
REMARK  5 active torsions:
REMARK  status: ('A' for Active; 'I' for Inactive)
REMARK    1  A    between atoms: C3_4  and  N2_5 
REMARK       I    between atoms: N2_5  and  C4_7 
REMARK    2  A    between atoms: C4_7  and  C5_9 
REMARK    3  A    between atoms: C5_9  and  N3_10 
REMARK    4  A    between atoms: N4_13  and  C8_14 
REMARK    5  A    between atoms: C8_14  and  C9_15 
ROOT
HETATM    1  N1  UNL     1       9.628   5.833   5.974  1.00  0.00    -0.191 NA
HETATM    2  C1  UNL     1      10.657   6.375   5.823  1.00  0.00     0.103 C 
HETATM    3  C2  UNL     1      11.941   7.060   5.617  1.00  0.00     0.085 A 
HETATM    4  C3  UNL     1      12.187   7.659   4.411  1.00  0.00     0.098 A 
HETATM    5  S1  UNL     1      13.745   8.312   4.611  1.00  0.00    -0.075 SA
HETATM    6  C17 UNL     1      14.047   7.811   6.213  1.00  0.00    -0.007 A 
HETATM    7  C18 UNL     1      12.899   7.138   6.545  1.00  0.00    -0.021 A 
HETATM    8  C19 UNL     1      12.732   6.510   7.917  1.00  0.00     0.041 C 
HETATM    9  C20 UNL     1      12.887   7.527   9.008  1.00  0.00     0.005 C 
HETATM   10  C21 UNL     1      14.350   7.822   9.294  1.00  0.00     0.001 C 
HETATM   11  C22 UNL     1      14.919   8.775   8.294  1.00  0.00     0.005 C 
HETATM   12  C23 UNL     1      15.303   8.077   7.011  1.00  0.00     0.047 C 
ENDROOT
BRANCH   4  13
HETATM   13  N2  UNL     1      11.366   7.737   3.234  1.00  0.00    -0.319 N 
HETATM   14  C4  UNL     1      11.446   8.888   2.410  1.00  0.00     0.251 C 
HETATM   15  O1  UNL     1      12.216   9.832   2.700  1.00  0.00    -0.271 OA
ATOM     16  H2  UNL     1      10.733   6.974   2.994  1.00  0.00     0.169 HD
BRANCH  14  17
HETATM   17  C5  UNL     1      10.612   8.971   1.198  1.00  0.00     0.375 C 
BRANCH  17  18
HETATM   18  N3  UNL     1      11.013   8.127   0.122  1.00  0.00     0.100 N 
HETATM   19  C6  UNL     1       9.993   7.228  -0.369  1.00  0.00     0.303 C 
HETATM   20  C7  UNL     1      10.490   6.520  -1.568  1.00  0.00     0.303 C 
HETATM   21  N4  UNL     1      11.839   6.069  -1.610  1.00  0.00     0.096 N 
HETATM   22  C15 UNL     1      12.771   6.712  -0.749  1.00  0.00     0.303 C 
HETATM   23  C16 UNL     1      12.129   7.283   0.483  1.00  0.00     0.303 C 
BRANCH  21  24
HETATM   24  C8  UNL     1      11.827   4.644  -1.507  1.00  0.00     0.314 C 
BRANCH  24  25
HETATM   25  C9  UNL     1      12.430   3.877  -2.589  1.00  0.00     0.009 A 
HETATM   26  C10 UNL     1      11.818   3.508  -3.749  1.00  0.00     0.012 A 
HETATM   27  C11 UNL     1      12.461   2.741  -4.685  1.00  0.00     0.001 A 
HETATM   28  C12 UNL     1      13.758   2.333  -4.448  1.00  0.00     0.003 A 
HETATM   29  C13 UNL     1      14.428   2.676  -3.294  1.00  0.00     0.043 A 
HETATM   30  C14 UNL     1      13.744   3.443  -2.390  1.00  0.00     0.124 A 
HETATM   31  F1  UNL     1      14.415   3.780  -1.245  1.00  0.00    -0.205 F 
ENDBRANCH  24  25
ENDBRANCH  21  24
ENDBRANCH  17  18
ENDBRANCH  14  17
ENDBRANCH   4  13
TORSDOF 5
ENDMDL
MODEL 2
REMARK VINA RESULT: -8.367711707      6.110     11.005
REMARK  5 active torsions:
REMARK  status: ('A' for Active; 'I' for Inactive)
REMARK    1  A    between atoms: C3_4  and  N2_5 
REMARK       I    between atoms: N2_5  and  C4_7 
REMARK    2  A    between atoms: C4_7  and  C5_9 
REMARK    3  A    between atoms: C5_9  and  N3_10 
REMARK    4  A    between atoms: N4_13  and  C8_14 
REMARK    5  A    between atoms: C8_14  and  C9_15 
ROOT
HETATM    1  N1  UNL     1       2.459   7.420  -2.536  1.00  0.00    -0.191 NA
HETATM    2  C1  UNL     1       3.219   8.130  -3.077  1.00  0.00     0.103 C 
HETATM    3  C2  UNL     1       4.185   9.016  -3.742  1.00  0.00     0.085 A 
HETATM    4  C3  UNL     1       5.409   9.218  -3.162  1.00  0.00     0.098 A 
HETATM    5  S1  UNL     1       6.182  10.280  -4.243  1.00  0.00    -0.075 SA
HETATM    6  C17 UNL     1       4.940  10.442  -5.401  1.00  0.00    -0.007 A 
HETATM    7  C18 UNL     1       3.944   9.647  -4.895  1.00  0.00    -0.021 A 
HETATM    8  C19 UNL     1       2.621   9.493  -5.626  1.00  0.00     0.041 C 
HETATM    9  C20 UNL     1       2.822   8.984  -7.021  1.00  0.00     0.005 C 
HETATM   10  C21 UNL     1       3.243  10.096  -7.968  1.00  0.00     0.001 C 
HETATM   11  C22 UNL     1       4.702  10.393  -7.843  1.00  0.00     0.005 C 
HETATM   12  C23 UNL     1       4.993  11.282  -6.656  1.00  0.00     0.047 C 
ENDROOT
BRANCH   4  13
HETATM   13  N2  UNL     1       5.948   8.692  -1.938  1.00  0.00    -0.319 N 
HETATM   14  C4  UNL     1       7.056   7.810  -1.995  1.00  0.00     0.251 C 
HETATM   15  O1  UNL     1       7.561   7.483  -3.093  1.00  0.00    -0.271 OA
ATOM     16  H2  UNL     1       5.539   8.950  -1.040  1.00  0.00     0.169 HD
BRANCH  14  17
HETATM   17  C5  UNL     1       7.619   7.273  -0.744  1.00  0.00     0.375 C 
BRANCH  17  18
HETATM   18  N3  UNL     1       8.990   7.580  -0.508  1.00  0.00     0.100 N 
HETATM   19  C6  UNL     1       9.925   6.531  -0.845  1.00  0.00     0.303 C 
HETATM   20  C7  UNL     1      11.308   7.028  -0.691  1.00  0.00     0.303 C 
HETATM   21  N4  UNL     1      11.635   7.869   0.411  1.00  0.00     0.096 N 
HETATM   22  C15 UNL     1      10.569   8.580   1.029  1.00  0.00     0.303 C 
HETATM   23  C16 UNL     1       9.244   7.889   0.882  1.00  0.00     0.303 C 
BRANCH  21  24
HETATM   24  C8  UNL     1      12.441   7.112   1.315  1.00  0.00     0.314 C 
BRANCH  24  25
HETATM   25  C9  UNL     1      12.972   7.794   2.488  1.00  0.00     0.009 A 
HETATM   26  C10 UNL     1      14.062   8.609   2.517  1.00  0.00     0.012 A 
HETATM   27  C11 UNL     1      14.511   9.164   3.688  1.00  0.00     0.001 A 
HETATM   28  C12 UNL     1      13.843   8.890   4.864  1.00  0.00     0.003 A 
HETATM   29  C13 UNL     1      12.734   8.073   4.896  1.00  0.00     0.043 A 
HETATM   30  C14 UNL     1      12.324   7.543   3.701  1.00  0.00     0.124 A 
HETATM   31  F1  UNL     1      11.223   6.732   3.740  1.00  0.00    -0.205 F 
ENDBRANCH  24  25
ENDBRANCH  21  24
ENDBRANCH  17  18
ENDBRANCH  14  17
ENDBRANCH   4  13
TORSDOF 5
ENDMDL
MODEL 3
REMARK VINA RESULT: -8.210290237      3.563      5.518
REMARK  5 active torsions:
REMARK  status: ('A' for Active; 'I' for Inactive)
REMARK    1  A    between atoms: C3_4  and  N2_5 
REMARK       I    between atoms: N2_5  and  C4_7 
REMARK    2  A    between atoms: C4_7  and  C5_9 
REMARK    3  A    between atoms: C5_9  and  N3_10 
REMARK    4  A    between atoms: N4_13  and  C8_14 
REMARK    5  A    between atoms: C8_14  and  C9_15 
ROOT
HETATM    1  N1  UNL     1       8.297   7.511   0.374  1.00  0.00    -0.191 NA
HETATM    2  C1  UNL     1       8.362   8.458   1.062  1.00  0.00     0.103 C 
HETATM    3  C2  UNL     1       8.462   9.646   1.921  1.00  0.00     0.085 A 
HETATM    4  C3  UNL     1       9.698  10.174   2.183  1.00  0.00     0.098 A 
HETATM    5  S1  UNL     1       9.350  11.502   3.187  1.00  0.00    -0.075 SA
HETATM    6  C17 UNL     1       7.652  11.357   3.252  1.00  0.00    -0.007 A 
HETATM    7  C18 UNL     1       7.409  10.256   2.472  1.00  0.00    -0.021 A 
HETATM    8  C19 UNL     1       5.992   9.756   2.248  1.00  0.00     0.041 C 
HETATM    9  C20 UNL     1       5.122  10.822   1.655  1.00  0.00     0.005 C 
HETATM   10  C21 UNL     1       4.636  11.801   2.712  1.00  0.00     0.001 C 
HETATM   11  C22 UNL     1       5.686  12.810   3.044  1.00  0.00     0.005 C 
HETATM   12  C23 UNL     1       6.707  12.259   4.011  1.00  0.00     0.047 C 
ENDROOT
BRANCH   4  13
HETATM   13  N2  UNL     1      10.998   9.741   1.746  1.00  0.00    -0.319 N 
HETATM   14  C4  UNL     1      11.709   8.796   2.526  1.00  0.00     0.251 C 
HETATM   15  O1  UNL     1      11.222   8.342   3.587  1.00  0.00    -0.271 OA
ATOM     16  H2  UNL     1      11.403  10.111   0.886  1.00  0.00     0.169 HD
BRANCH  14  17
HETATM   17  C5  UNL     1      13.039   8.343   2.081  1.00  0.00     0.375 C 
BRANCH  17  18
HETATM   18  N3  UNL     1      13.061   7.636   0.844  1.00  0.00     0.100 N 
HETATM   19  C6  UNL     1      11.826   6.976   0.489  1.00  0.00     0.303 C 
HETATM   20  C7  UNL     1      11.939   6.407  -0.871  1.00  0.00     0.303 C 
HETATM   21  N4  UNL     1      13.155   5.786  -1.275  1.00  0.00     0.096 N 
HETATM   22  C15 UNL     1      14.339   6.149  -0.574  1.00  0.00     0.303 C 
HETATM   23  C16 UNL     1      14.068   6.599   0.833  1.00  0.00     0.303 C 
BRANCH  21  24
HETATM   24  C8  UNL     1      12.924   4.379  -1.352  1.00  0.00     0.314 C 
BRANCH  24  25
HETATM   25  C9  UNL     1      12.697   3.797  -2.668  1.00  0.00     0.009 A 
HETATM   26  C10 UNL     1      11.521   3.799  -3.355  1.00  0.00     0.012 A 
HETATM   27  C11 UNL     1      11.400   3.176  -4.570  1.00  0.00     0.001 A 
HETATM   28  C12 UNL     1      12.494   2.533  -5.111  1.00  0.00     0.003 A 
HETATM   29  C13 UNL     1      13.710   2.498  -4.463  1.00  0.00     0.043 A 
HETATM   30  C14 UNL     1      13.781   3.134  -3.252  1.00  0.00     0.124 A 
HETATM   31  F1  UNL     1      14.990   3.096  -2.613  1.00  0.00    -0.205 F 
ENDBRANCH  24  25
ENDBRANCH  21  24
ENDBRANCH  17  18
ENDBRANCH  14  17
ENDBRANCH   4  13
TORSDOF 5
ENDMDL
MODEL 4
REMARK VINA RESULT: -8.207258245      4.768      8.620
REMARK  5 active torsions:
REMARK  status: ('A' for Active; 'I' for Inactive)
REMARK    1  A    between atoms: C3_4  and  N2_5 
REMARK       I    between atoms: N2_5  and  C4_7 
REMARK    2  A    between atoms: C4_7  and  C5_9 
REMARK    3  A    between atoms: C5_9  and  N3_10 
REMARK    4  A    between atoms: N4_13  and  C8_14 
REMARK    5  A    between atoms: C8_14  and  C9_15 
ROOT
HETATM    1  N1  UNL     1       8.319   7.446  -0.033  1.00  0.00    -0.191 NA
HETATM    2  C1  UNL     1       9.460   7.316   0.204  1.00  0.00     0.103 C 
HETATM    3  C2  UNL     1      10.887   7.160   0.520  1.00  0.00     0.085 A 
HETATM    4  C3  UNL     1      11.372   7.694   1.683  1.00  0.00     0.098 A 
HETATM    5  S1  UNL     1      13.023   7.286   1.641  1.00  0.00    -0.075 SA
HETATM    6  C17 UNL     1      13.060   6.452   0.154  1.00  0.00    -0.007 A 
HETATM    7  C18 UNL     1      11.757   6.520  -0.268  1.00  0.00    -0.021 A 
HETATM    8  C19 UNL     1      11.328   5.889  -1.581  1.00  0.00     0.041 C 
HETATM    9  C20 UNL     1      11.645   4.425  -1.615  1.00  0.00     0.005 C 
HETATM   10  C21 UNL     1      13.108   4.177  -1.946  1.00  0.00     0.001 C 
HETATM   11  C22 UNL     1      13.977   4.360  -0.744  1.00  0.00     0.005 C 
HETATM   12  C23 UNL     1      14.274   5.819  -0.485  1.00  0.00     0.047 C 
ENDROOT
BRANCH   4  13
HETATM   13  N2  UNL     1      10.693   8.433   2.713  1.00  0.00    -0.319 N 
HETATM   14  C4  UNL     1      10.496   9.827   2.546  1.00  0.00     0.251 C 
HETATM   15  O1  UNL     1      10.908  10.416   1.521  1.00  0.00    -0.271 OA
ATOM     16  H2  UNL     1      10.359   7.961   3.553  1.00  0.00     0.169 HD
BRANCH  14  17
HETATM   17  C5  UNL     1       9.795  10.589   3.595  1.00  0.00     0.375 C 
BRANCH  17  18
HETATM   18  N3  UNL     1       8.376  10.637   3.471  1.00  0.00     0.100 N 
HETATM   19  C6  UNL     1       7.789   9.571   2.691  1.00  0.00     0.303 C 
HETATM   20  C7  UNL     1       6.315   9.656   2.763  1.00  0.00     0.303 C 
HETATM   21  N4  UNL     1       5.681  10.930   2.717  1.00  0.00     0.096 N 
HETATM   22  C15 UNL     1       6.460  12.062   3.086  1.00  0.00     0.303 C 
HETATM   23  C16 UNL     1       7.929  11.861   2.847  1.00  0.00     0.303 C 
BRANCH  21  24
HETATM   24  C8  UNL     1       5.030  11.049   1.452  1.00  0.00     0.314 C 
BRANCH  24  25
HETATM   25  C9  UNL     1       3.964  10.105   1.142  1.00  0.00     0.009 A 
HETATM   26  C10 UNL     1       3.011   9.658   2.007  1.00  0.00     0.012 A 
HETATM   27  C11 UNL     1       2.080   8.727   1.627  1.00  0.00     0.001 A 
HETATM   28  C12 UNL     1       2.106   8.232   0.340  1.00  0.00     0.003 A 
HETATM   29  C13 UNL     1       3.045   8.647  -0.579  1.00  0.00     0.043 A 
HETATM   30  C14 UNL     1       3.954   9.578  -0.153  1.00  0.00     0.124 A 
HETATM   31  F1  UNL     1       4.884   9.986  -1.070  1.00  0.00    -0.205 F 
ENDBRANCH  24  25
ENDBRANCH  21  24
ENDBRANCH  17  18
ENDBRANCH  14  17
ENDBRANCH   4  13
TORSDOF 5
ENDMDL
MODEL 5
REMARK VINA RESULT: -8.136522795      3.004      8.219
REMARK  5 active torsions:
REMARK  status: ('A' for Active; 'I' for Inactive)
REMARK    1  A    between atoms: C3_4  and  N2_5 
REMARK       I    between atoms: N2_5  and  C4_7 
REMARK    2  A    between atoms: C4_7  and  C5_9 
REMARK    3  A    between atoms: C5_9  and  N3_10 
REMARK    4  A    between atoms: N4_13  and  C8_14 
REMARK    5  A    between atoms: C8_14  and  C9_15 
ROOT
HETATM    1  N1  UNL     1       8.215   7.487  -0.294  1.00  0.00    -0.191 NA
HETATM    2  C1  UNL     1       9.343   7.410   0.017  1.00  0.00     0.103 C 
HETATM    3  C2  UNL     1      10.752   7.322   0.424  1.00  0.00     0.085 A 
HETATM    4  C3  UNL     1      11.146   7.925   1.588  1.00  0.00     0.098 A 
HETATM    5  S1  UNL     1      12.809   7.579   1.664  1.00  0.00    -0.075 SA
HETATM    6  C17 UNL     1      12.967   6.681   0.222  1.00  0.00    -0.007 A 
HETATM    7  C18 UNL     1      11.691   6.682  -0.280  1.00  0.00    -0.021 A 
HETATM    8  C19 UNL     1      11.365   5.978  -1.586  1.00  0.00     0.041 C 
HETATM    9  C20 UNL     1      11.735   4.526  -1.533  1.00  0.00     0.005 C 
HETATM   10  C21 UNL     1      13.223   4.319  -1.763  1.00  0.00     0.001 C 
HETATM   11  C22 UNL     1      14.010   4.588  -0.522  1.00  0.00     0.005 C 
HETATM   12  C23 UNL     1      14.239   6.067  -0.313  1.00  0.00     0.047 C 
ENDROOT
BRANCH   4  13
HETATM   13  N2  UNL     1      10.380   8.683   2.540  1.00  0.00    -0.319 N 
HETATM   14  C4  UNL     1      10.514  10.094   2.567  1.00  0.00     0.251 C 
HETATM   15  O1  UNL     1      11.291  10.681   1.780  1.00  0.00    -0.271 OA
ATOM     16  H2  UNL     1       9.749   8.211   3.188  1.00  0.00     0.169 HD
BRANCH  14  17
HETATM   17  C5  UNL     1       9.727  10.877   3.536  1.00  0.00     0.375 C 
BRANCH  17  18
HETATM   18  N3  UNL     1       9.851  10.470   4.896  1.00  0.00     0.100 N 
HETATM   19  C6  UNL     1      11.060   9.747   5.216  1.00  0.00     0.303 C 
HETATM   20  C7  UNL     1      11.130   9.513   6.674  1.00  0.00     0.303 C 
HETATM   21  N4  UNL     1       9.948   9.164   7.388  1.00  0.00     0.096 N 
HETATM   22  C15 UNL     1       8.701   9.517   6.800  1.00  0.00     0.303 C 
HETATM   23  C16 UNL     1       8.767   9.604   5.302  1.00  0.00     0.303 C 
BRANCH  21  24
HETATM   24  C8  UNL     1      10.055   7.791   7.765  1.00  0.00     0.314 C 
BRANCH  24  25
HETATM   25  C9  UNL     1       9.225   6.824   7.058  1.00  0.00     0.009 A 
HETATM   26  C10 UNL     1       7.952   6.469   7.384  1.00  0.00     0.012 A 
HETATM   27  C11 UNL     1       7.274   5.507   6.681  1.00  0.00     0.001 A 
HETATM   28  C12 UNL     1       7.895   4.885   5.618  1.00  0.00     0.003 A 
HETATM   29  C13 UNL     1       9.182   5.203   5.240  1.00  0.00     0.043 A 
HETATM   30  C14 UNL     1       9.817   6.170   5.974  1.00  0.00     0.124 A 
HETATM   31  F1  UNL     1      11.095   6.481   5.595  1.00  0.00    -0.205 F 
ENDBRANCH  24  25
ENDBRANCH  21  24
ENDBRANCH  17  18
ENDBRANCH  14  17
ENDBRANCH   4  13
TORSDOF 5
ENDMDL
