MODEL 1
REMARK VINA RESULT: -8.365943783      0.000      0.000
REMARK  5 active torsions:
REMARK  status: ('A' for Active; 'I' for Inactive)
REMARK       I    between atoms: C1_2  and  N1_3 
REMARK    1  A    between atoms: C1_2  and  C11_18 
REMARK    2  A    between atoms: N2_8  and  C5_9 
REMARK    3  A    between atoms: C14_21  and  C15_22 
REMARK    4  A    between atoms: C15_22  and  S1_23 
REMARK    5  A    between atoms: S1_23  and  C16_24 
ROOT
HETATM    1  C11 UNL     1      10.609   7.166   1.030  1.00  0.00     0.101 A 
HETATM    2  C12 UNL     1      10.465   6.932  -0.298  1.00  0.00     0.036 A 
HETATM    3  C13 UNL     1      11.575   6.643  -1.085  1.00  0.00     0.012 A 
HETATM    4  C14 UNL     1      12.818   6.598  -0.501  1.00  0.00    -0.033 A 
HETATM    5  C20 UNL     1      12.928   6.847   0.872  1.00  0.00     0.096 A 
HETATM    6  N6  UNL     1      11.819   7.117   1.568  1.00  0.00    -0.361 N 
ATOM      7  H6  UNL     1      11.909   7.296   2.568  1.00  0.00     0.165 HD
ENDROOT
BRANCH   1   8
HETATM    8  C1  UNL     1       9.450   7.475   1.877  1.00  0.00     0.273 C 
HETATM    9  O1  UNL     1       9.020   8.654   1.981  1.00  0.00    -0.266 OA
HETATM   10  N1  UNL     1       8.762   6.464   2.614  1.00  0.00    -0.307 N 
HETATM   11  C2  UNL     1       9.075   6.244   3.851  1.00  0.00     0.124 A 
ATOM     12  H1  UNL     1       8.026   5.916   2.168  1.00  0.00     0.170 HD
HETATM   13  C3  UNL     1       8.459   5.291   4.623  1.00  0.00     0.069 A 
HETATM   14  N3  UNL     1      10.004   6.850   4.608  1.00  0.00    -0.279 N 
HETATM   15  C4  UNL     1       9.083   5.383   5.860  1.00  0.00     0.120 A 
HETATM   16  N2  UNL     1      10.022   6.343   5.824  1.00  0.00    -0.266 N 
ATOM     17  H3  UNL     1      10.613   7.601   4.286  1.00  0.00     0.189 HD
BRANCH  16  18
HETATM   18  C5  UNL     1      10.890   6.748   6.903  1.00  0.00     0.056 A 
HETATM   19  C6  UNL     1      10.415   7.467   7.968  1.00  0.00     0.033 A 
HETATM   20  C7  UNL     1      11.283   7.843   8.999  1.00  0.00     0.026 A 
HETATM   21  C8  UNL     1      12.617   7.496   8.955  1.00  0.00     0.034 A 
HETATM   22 CL1  UNL     1      13.723   7.954  10.233  1.00  0.00    -0.084 Cl
HETATM   23  C9  UNL     1      13.113   6.771   7.887  1.00  0.00     0.026 A 
HETATM   24  C10 UNL     1      12.231   6.418   6.892  1.00  0.00     0.033 A 
ENDBRANCH  16  18
ENDBRANCH   1   8
BRANCH   4  25
HETATM   25  C15 UNL     1      14.073   6.280  -1.197  1.00  0.00     0.122 C 
BRANCH  25  26
HETATM   26  S1  UNL     1      14.339   4.511  -1.250  1.00  0.00    -0.089 SA
BRANCH  26  27
HETATM   27  C16 UNL     1      13.614   3.694  -2.653  1.00  0.00     0.144 A 
HETATM   28  N4  UNL     1      14.412   2.891  -3.419  1.00  0.00    -0.347 N 
HETATM   29  C17 UNL     1      13.884   2.281  -4.474  1.00  0.00     0.091 A 
ATOM     30  H4  UNL     1      15.397   2.762  -3.186  1.00  0.00     0.167 HD
HETATM   31  C18 UNL     1      12.551   2.420  -4.839  1.00  0.00     0.034 A 
HETATM   32  C19 UNL     1      11.766   3.224  -4.066  1.00  0.00     0.091 A 
HETATM   33  N5  UNL     1      12.339   3.819  -3.015  1.00  0.00    -0.347 N 
ATOM     34  H5  UNL     1      11.749   4.420  -2.440  1.00  0.00     0.167 HD
ENDBRANCH  26  27
ENDBRANCH  25  26
ENDBRANCH   4  25
TORSDOF 5
ENDMDL
MODEL 2
REMARK VINA RESULT: -8.254511040      2.102      3.141
REMARK  5 active torsions:
REMARK  status: ('A' for Active; 'I' for Inactive)
REMARK       I    between atoms: C1_2  and  N1_3 
REMARK    1  A    between atoms: C1_2  and  C11_18 
REMARK    2  A    between atoms: N2_8  and  C5_9 
REMARK    3  A    between atoms: C14_21  and  C15_22 
REMARK    4  A    between atoms: C15_22  and  S1_23 
REMARK    5  A    between atoms: S1_23  and  C16_24 
ROOT
HETATM    1  C11 UNL     1      11.947   6.082  -0.981  1.00  0.00     0.101 A 
HETATM    2  C12 UNL     1      13.275   6.025  -0.713  1.00  0.00     0.036 A 
HETATM    3  C13 UNL     1      14.055   5.000  -1.240  1.00  0.00     0.012 A 
HETATM    4  C14 UNL     1      13.463   4.047  -2.034  1.00  0.00    -0.033 A 
HETATM    5  C20 UNL     1      12.088   4.139  -2.287  1.00  0.00     0.096 A 
HETATM    6  N6  UNL     1      11.401   5.150  -1.749  1.00  0.00    -0.361 N 
ATOM      7  H6  UNL     1      10.401   5.209  -1.940  1.00  0.00     0.165 HD
ENDROOT
BRANCH   1   8
HETATM    8  C1  UNL     1      11.107   7.155  -0.432  1.00  0.00     0.273 C 
HETATM    9  O1  UNL     1      11.388   8.365  -0.638  1.00  0.00    -0.266 OA
HETATM   10  N1  UNL     1       9.946   6.879   0.351  1.00  0.00    -0.307 N 
HETATM   11  C2  UNL     1      10.031   6.859   1.643  1.00  0.00     0.124 A 
ATOM     12  H1  UNL     1       9.052   6.698  -0.105  1.00  0.00     0.170 HD
HETATM   13  C3  UNL     1       8.959   6.603   2.462  1.00  0.00     0.069 A 
HETATM   14  N3  UNL     1      11.103   7.069   2.423  1.00  0.00    -0.279 N 
HETATM   15  C4  UNL     1       9.474   6.676   3.749  1.00  0.00     0.120 A 
HETATM   16  N2  UNL     1      10.786   6.962   3.696  1.00  0.00    -0.266 N 
ATOM     17  H3  UNL     1      12.038   7.281   2.076  1.00  0.00     0.189 HD
BRANCH  16  18
HETATM   18  C5  UNL     1      11.683   7.123   4.814  1.00  0.00     0.056 A 
HETATM   19  C6  UNL     1      12.874   7.787   4.684  1.00  0.00     0.033 A 
HETATM   20  C7  UNL     1      13.721   7.926   5.789  1.00  0.00     0.026 A 
HETATM   21  C8  UNL     1      13.368   7.400   7.014  1.00  0.00     0.034 A 
HETATM   22 CL1  UNL     1      14.411   7.561   8.412  1.00  0.00    -0.084 Cl
HETATM   23  C9  UNL     1      12.170   6.726   7.164  1.00  0.00     0.026 A 
HETATM   24  C10 UNL     1      11.363   6.609   6.056  1.00  0.00     0.033 A 
ENDBRANCH  16  18
ENDBRANCH   1   8
BRANCH   4  25
HETATM   25  C15 UNL     1      14.160   2.926  -2.680  1.00  0.00     0.122 C 
BRANCH  25  26
HETATM   26  S1  UNL     1      13.185   2.263  -4.025  1.00  0.00    -0.089 SA
BRANCH  26  27
HETATM   27  C16 UNL     1      13.260   3.206  -5.531  1.00  0.00     0.144 A 
HETATM   28  N4  UNL     1      12.084   3.571  -6.127  1.00  0.00    -0.347 N 
HETATM   29  C17 UNL     1      12.127   4.269  -7.256  1.00  0.00     0.091 A 
ATOM     30  H4  UNL     1      11.190   3.310  -5.713  1.00  0.00     0.167 HD
HETATM   31  C18 UNL     1      13.317   4.651  -7.864  1.00  0.00     0.034 A 
HETATM   32  C19 UNL     1      14.482   4.281  -7.259  1.00  0.00     0.091 A 
HETATM   33  N5  UNL     1      14.391   3.578  -6.125  1.00  0.00    -0.347 N 
ATOM     34  H5  UNL     1      15.265   3.303  -5.676  1.00  0.00     0.167 HD
ENDBRANCH  26  27
ENDBRANCH  25  26
ENDBRANCH   4  25
TORSDOF 5
ENDMDL
MODEL 3
REMARK VINA RESULT: -8.160270744      2.839      3.628
REMARK  5 active torsions:
REMARK  status: ('A' for Active; 'I' for Inactive)
REMARK       I    between atoms: C1_2  and  N1_3 
REMARK    1  A    between atoms: C1_2  and  C11_18 
REMARK    2  A    between atoms: N2_8  and  C5_9 
REMARK    3  A    between atoms: C14_21  and  C15_22 
REMARK    4  A    between atoms: C15_22  and  S1_23 
REMARK    5  A    between atoms: S1_23  and  C16_24 
ROOT
HETATM    1  C11 UNL     1      11.975   6.097  -0.619  1.00  0.00     0.101 A 
HETATM    2  C12 UNL     1      11.335   5.168  -1.372  1.00  0.00     0.036 A 
HETATM    3  C13 UNL     1      12.061   4.192  -2.050  1.00  0.00     0.012 A 
HETATM    4  C14 UNL     1      13.431   4.182  -1.947  1.00  0.00    -0.033 A 
HETATM    5  C20 UNL     1      14.055   5.159  -1.161  1.00  0.00     0.096 A 
HETATM    6  N6  UNL     1      13.297   6.065  -0.537  1.00  0.00    -0.361 N 
ATOM      7  H6  UNL     1      13.761   6.772   0.033  1.00  0.00     0.165 HD
ENDROOT
BRANCH   1   8
HETATM    8  C1  UNL     1      11.227   7.135   0.101  1.00  0.00     0.273 C 
HETATM    9  O1  UNL     1      11.156   8.310  -0.348  1.00  0.00    -0.266 OA
HETATM   10  N1  UNL     1      10.552   6.866   1.330  1.00  0.00    -0.307 N 
HETATM   11  C2  UNL     1      11.145   7.105   2.456  1.00  0.00     0.124 A 
ATOM     12  H1  UNL     1       9.606   6.485   1.321  1.00  0.00     0.170 HD
HETATM   13  C3  UNL     1      10.561   6.872   3.676  1.00  0.00     0.069 A 
HETATM   14  N3  UNL     1      12.374   7.599   2.675  1.00  0.00    -0.279 N 
HETATM   15  C4  UNL     1      11.519   7.258   4.604  1.00  0.00     0.120 A 
HETATM   16  N2  UNL     1      12.616   7.698   3.966  1.00  0.00    -0.266 N 
ATOM     17  H3  UNL     1      13.032   7.862   1.942  1.00  0.00     0.189 HD
BRANCH  16  18
HETATM   18  C5  UNL     1      13.832   8.187   4.570  1.00  0.00     0.056 A 
HETATM   19  C6  UNL     1      14.572   9.179   3.981  1.00  0.00     0.033 A 
HETATM   20  C7  UNL     1      15.746   9.630   4.595  1.00  0.00     0.026 A 
HETATM   21  C8  UNL     1      16.168   9.086   5.789  1.00  0.00     0.034 A 
HETATM   22 CL1  UNL     1      17.634   9.635   6.575  1.00  0.00    -0.084 Cl
HETATM   23  C9  UNL     1      15.434   8.084   6.396  1.00  0.00     0.026 A 
HETATM   24  C10 UNL     1      14.285   7.665   5.766  1.00  0.00     0.033 A 
ENDBRANCH  16  18
ENDBRANCH   1   8
BRANCH   4  25
HETATM   25  C15 UNL     1      14.324   3.202  -2.580  1.00  0.00     0.122 C 
BRANCH  25  26
HETATM   26  S1  UNL     1      13.470   2.308  -3.873  1.00  0.00    -0.089 SA
BRANCH  26  27
HETATM   27  C16 UNL     1      13.312   3.195  -5.407  1.00  0.00     0.144 A 
HETATM   28  N4  UNL     1      12.055   3.448  -5.884  1.00  0.00    -0.347 N 
HETATM   29  C17 UNL     1      11.925   4.103  -7.032  1.00  0.00     0.091 A 
ATOM     30  H4  UNL     1      11.232   3.139  -5.367  1.00  0.00     0.167 HD
HETATM   31  C18 UNL     1      13.011   4.548  -7.776  1.00  0.00     0.034 A 
HETATM   32  C19 UNL     1      14.258   4.288  -7.289  1.00  0.00     0.091 A 
HETATM   33  N5  UNL     1      14.342   3.626  -6.131  1.00  0.00    -0.347 N 
ATOM     34  H5  UNL     1      15.277   3.434  -5.771  1.00  0.00     0.167 HD
ENDBRANCH  26  27
ENDBRANCH  25  26
ENDBRANCH   4  25
TORSDOF 5
ENDMDL
MODEL 4
REMARK VINA RESULT: -8.120204633      6.078      9.538
REMARK  5 active torsions:
REMARK  status: ('A' for Active; 'I' for Inactive)
REMARK       I    between atoms: C1_2  and  N1_3 
REMARK    1  A    between atoms: C1_2  and  C11_18 
REMARK    2  A    between atoms: N2_8  and  C5_9 
REMARK    3  A    between atoms: C14_21  and  C15_22 
REMARK    4  A    between atoms: C15_22  and  S1_23 
REMARK    5  A    between atoms: S1_23  and  C16_24 
ROOT
HETATM    1  C11 UNL     1      14.160   8.565   4.607  1.00  0.00     0.101 A 
HETATM    2  C12 UNL     1      14.692   9.537   3.824  1.00  0.00     0.036 A 
HETATM    3  C13 UNL     1      15.978  10.009   4.068  1.00  0.00     0.012 A 
HETATM    4  C14 UNL     1      16.702   9.481   5.110  1.00  0.00    -0.033 A 
HETATM    5  C20 UNL     1      16.118   8.480   5.897  1.00  0.00     0.096 A 
HETATM    6  N6  UNL     1      14.879   8.073   5.606  1.00  0.00    -0.361 N 
ATOM      7  H6  UNL     1      14.463   7.344   6.184  1.00  0.00     0.165 HD
ENDROOT
BRANCH   1   8
HETATM    8  C1  UNL     1      12.804   8.055   4.368  1.00  0.00     0.273 C 
HETATM    9  O1  UNL     1      12.356   7.076   5.022  1.00  0.00    -0.266 OA
HETATM   10  N1  UNL     1      11.939   8.638   3.393  1.00  0.00    -0.307 N 
HETATM   11  C2  UNL     1      11.883   8.138   2.200  1.00  0.00     0.124 A 
ATOM     12  H1  UNL     1      11.366   9.447   3.636  1.00  0.00     0.170 HD
HETATM   13  C3  UNL     1      11.076   8.643   1.212  1.00  0.00     0.069 A 
HETATM   14  N3  UNL     1      12.550   7.090   1.692  1.00  0.00    -0.279 N 
HETATM   15  C4  UNL     1      11.316   7.830   0.112  1.00  0.00     0.120 A 
HETATM   16  N2  UNL     1      12.221   6.889   0.433  1.00  0.00    -0.266 N 
ATOM     17  H3  UNL     1      13.222   6.525   2.210  1.00  0.00     0.189 HD
BRANCH  16  18
HETATM   18  C5  UNL     1      12.737   5.855  -0.430  1.00  0.00     0.056 A 
HETATM   19  C6  UNL     1      14.074   5.555  -0.463  1.00  0.00     0.033 A 
HETATM   20  C7  UNL     1      14.542   4.545  -1.310  1.00  0.00     0.026 A 
HETATM   21  C8  UNL     1      13.670   3.845  -2.116  1.00  0.00     0.034 A 
HETATM   22 CL1  UNL     1      14.232   2.577  -3.185  1.00  0.00    -0.084 Cl
HETATM   23  C9  UNL     1      12.318   4.134  -2.096  1.00  0.00     0.026 A 
HETATM   24  C10 UNL     1      11.893   5.133  -1.250  1.00  0.00     0.033 A 
ENDBRANCH  16  18
ENDBRANCH   1   8
BRANCH   4  25
HETATM   25  C15 UNL     1      18.075   9.859   5.469  1.00  0.00     0.122 C 
BRANCH  25  26
HETATM   26  S1  UNL     1      18.884  10.684   4.103  1.00  0.00    -0.089 SA
BRANCH  26  27
HETATM   27  C16 UNL     1      18.632  12.444   4.046  1.00  0.00     0.144 A 
HETATM   28  N4  UNL     1      18.892  13.099   2.874  1.00  0.00    -0.347 N 
HETATM   29  C17 UNL     1      18.715  14.414   2.822  1.00  0.00     0.091 A 
ATOM     30  H4  UNL     1      19.217  12.587   2.054  1.00  0.00     0.167 HD
HETATM   31  C18 UNL     1      18.275  15.162   3.907  1.00  0.00     0.034 A 
HETATM   32  C19 UNL     1      18.020  14.496   5.070  1.00  0.00     0.091 A 
HETATM   33  N5  UNL     1      18.213  13.172   5.078  1.00  0.00    -0.347 N 
ATOM     34  H5  UNL     1      18.021  12.679   5.950  1.00  0.00     0.167 HD
ENDBRANCH  26  27
ENDBRANCH  25  26
ENDBRANCH   4  25
TORSDOF 5
ENDMDL
MODEL 5
REMARK VINA RESULT: -7.988701320      5.719      9.902
REMARK  5 active torsions:
REMARK  status: ('A' for Active; 'I' for Inactive)
REMARK       I    between atoms: C1_2  and  N1_3 
REMARK    1  A    between atoms: C1_2  and  C11_18 
REMARK    2  A    between atoms: N2_8  and  C5_9 
REMARK    3  A    between atoms: C14_21  and  C15_22 
REMARK    4  A    between atoms: C15_22  and  S1_23 
REMARK    5  A    between atoms: S1_23  and  C16_24 
ROOT
HETATM    1  C11 UNL     1      14.099   8.561   4.613  1.00  0.00     0.101 A 
HETATM    2  C12 UNL     1      14.658   9.483   3.791  1.00  0.00     0.036 A 
HETATM    3  C13 UNL     1      15.958   9.927   4.014  1.00  0.00     0.012 A 
HETATM    4  C14 UNL     1      16.667   9.420   5.076  1.00  0.00    -0.033 A 
HETATM    5  C20 UNL     1      16.056   8.470   5.904  1.00  0.00     0.096 A 
HETATM    6  N6  UNL     1      14.804   8.089   5.631  1.00  0.00    -0.361 N 
ATOM      7  H6  UNL     1      14.368   7.396   6.239  1.00  0.00     0.165 HD
ENDROOT
BRANCH   1   8
HETATM    8  C1  UNL     1      12.728   8.083   4.396  1.00  0.00     0.273 C 
HETATM    9  O1  UNL     1      12.268   7.113   5.056  1.00  0.00    -0.266 OA
HETATM   10  N1  UNL     1      11.859   8.687   3.437  1.00  0.00    -0.307 N 
HETATM   11  C2  UNL     1      11.772   8.191   2.245  1.00  0.00     0.124 A 
ATOM     12  H1  UNL     1      11.310   9.509   3.691  1.00  0.00     0.170 HD
HETATM   13  C3  UNL     1      10.960   8.716   1.271  1.00  0.00     0.069 A 
HETATM   14  N3  UNL     1      12.406   7.129   1.723  1.00  0.00    -0.279 N 
HETATM   15  C4  UNL     1      11.163   7.900   0.166  1.00  0.00     0.120 A 
HETATM   16  N2  UNL     1      12.051   6.938   0.470  1.00  0.00    -0.266 N 
ATOM     17  H3  UNL     1      13.074   6.547   2.229  1.00  0.00     0.189 HD
BRANCH  16  18
HETATM   18  C5  UNL     1      12.529   5.895  -0.403  1.00  0.00     0.056 A 
HETATM   19  C6  UNL     1      11.670   5.172  -1.189  1.00  0.00     0.033 A 
HETATM   20  C7  UNL     1      12.167   4.167  -2.026  1.00  0.00     0.026 A 
HETATM   21  C8  UNL     1      13.518   3.893  -2.068  1.00  0.00     0.034 A 
HETATM   22 CL1  UNL     1      14.164   2.640  -3.106  1.00  0.00    -0.084 Cl
HETATM   23  C9  UNL     1      14.399   4.611  -1.281  1.00  0.00     0.026 A 
HETATM   24  C10 UNL     1      13.875   5.593  -0.471  1.00  0.00     0.033 A 
ENDBRANCH  16  18
ENDBRANCH   1   8
BRANCH   4  25
HETATM   25  C15 UNL     1      18.053   9.771   5.418  1.00  0.00     0.122 C 
BRANCH  25  26
HETATM   26  S1  UNL     1      18.922   8.354   6.081  1.00  0.00    -0.089 SA
BRANCH  26  27
HETATM   27  C16 UNL     1      19.414   8.516   7.782  1.00  0.00     0.144 A 
HETATM   28  N4  UNL     1      20.045   9.666   8.168  1.00  0.00    -0.347 N 
HETATM   29  C17 UNL     1      20.424   9.795   9.435  1.00  0.00     0.091 A 
ATOM     30  H4  UNL     1      20.222  10.412   7.496  1.00  0.00     0.167 HD
HETATM   31  C18 UNL     1      20.209   8.812  10.393  1.00  0.00     0.034 A 
HETATM   32  C19 UNL     1      19.579   7.670   9.993  1.00  0.00     0.091 A 
HETATM   33  N5  UNL     1      19.215   7.582   8.709  1.00  0.00    -0.347 N 
ATOM     34  H5  UNL     1      18.745   6.726   8.416  1.00  0.00     0.167 HD
ENDBRANCH  26  27
ENDBRANCH  25  26
ENDBRANCH   4  25
TORSDOF 5
ENDMDL
