MODEL 1
REMARK VINA RESULT: -8.344525408      0.000      0.000
REMARK  6 active torsions:
REMARK  status: ('A' for Active; 'I' for Inactive)
REMARK    1  A    between atoms: C2_2  and  C4_4 
REMARK       I    between atoms: C4_4  and  N1_6 
REMARK    2  A    between atoms: N1_6  and  C5_8 
REMARK    3  A    between atoms: C5_8  and  C6_9 
REMARK    4  A    between atoms: C9_17  and  N4_18 
REMARK    5  A    between atoms: C12_21  and  C13_22 
REMARK    6  A    between atoms: C16_27  and  C17_28 
ROOT
HETATM    1  N4  UNL     1      11.817   7.027   1.847  1.00  0.00    -0.366 N 
HETATM    2  C10 UNL     1      11.544   6.981   3.271  1.00  0.00     0.125 C 
HETATM    3  C11 UNL     1      12.111   8.202   3.900  1.00  0.00     0.030 C 
HETATM    4  C12 UNL     1      13.394   8.725   3.393  1.00  0.00     0.040 C 
HETATM    5  C21 UNL     1      13.883   8.235   2.077  1.00  0.00     0.030 C 
HETATM    6  C22 UNL     1      13.253   7.006   1.553  1.00  0.00     0.125 C 
ENDROOT
BRANCH   1   7
HETATM    7  C9  UNL     1      10.850   7.078   0.825  1.00  0.00     0.128 A 
HETATM    8  C6  UNL     1      11.052   6.413  -0.355  1.00  0.00     0.072 A 
HETATM    9  N2  UNL     1      10.102   6.459  -1.341  1.00  0.00    -0.345 N 
HETATM   10  C7  UNL     1       8.975   7.158  -1.145  1.00  0.00     0.119 A 
ATOM     11  H2  UNL     1      10.252   5.964  -2.219  1.00  0.00     0.167 HD
HETATM   12 CL1  UNL     1       7.777   7.199  -2.431  1.00  0.00    -0.063 Cl
HETATM   13  C8  UNL     1       8.748   7.837   0.033  1.00  0.00     0.132 A 
HETATM   14  N3  UNL     1       9.688   7.781   0.986  1.00  0.00    -0.348 N 
ATOM     15  H3  UNL     1       9.532   8.280   1.862  1.00  0.00     0.167 HD
BRANCH   8  16
HETATM   16  C5  UNL     1      12.296   5.655  -0.583  1.00  0.00     0.183 C 
BRANCH  16  17
HETATM   17  N1  UNL     1      12.075   4.746  -1.705  1.00  0.00    -0.351 N 
HETATM   18  C4  UNL     1      13.141   4.168  -2.428  1.00  0.00     0.246 C 
HETATM   19  O1  UNL     1      14.332   4.416  -2.129  1.00  0.00    -0.268 OA
ATOM     20  H1  UNL     1      11.117   4.521  -1.975  1.00  0.00     0.163 HD
BRANCH  18  21
HETATM   21  C2  UNL     1      12.830   3.272  -3.533  1.00  0.00    -0.004 C 
HETATM   22  C1  UNL     1      13.685   2.347  -3.873  1.00  0.00     0.024 C 
HETATM   23  C3  UNL     1      11.530   3.409  -4.282  1.00  0.00     0.053 C 
ENDBRANCH  18  21
ENDBRANCH  16  17
ENDBRANCH   8  16
ENDBRANCH   1   7
BRANCH   4  24
HETATM   24  C13 UNL     1      14.494   8.667   4.425  1.00  0.00     0.029 A 
HETATM   25  C14 UNL     1      14.376   7.924   5.576  1.00  0.00     0.113 A 
HETATM   26  N5  UNL     1      15.369   7.871   6.498  1.00  0.00    -0.371 N 
HETATM   27  C15 UNL     1      16.502   8.560   6.292  1.00  0.00     0.113 A 
ATOM     28  H5  UNL     1      15.256   7.312   7.343  1.00  0.00     0.164 HD
HETATM   29  C16 UNL     1      16.664   9.319   5.150  1.00  0.00     0.032 A 
HETATM   30  N6  UNL     1      15.648   9.335   4.269  1.00  0.00    -0.360 N 
ATOM     31  H6  UNL     1      15.762   9.895   3.424  1.00  0.00     0.165 HD
BRANCH  29  32
HETATM   32  C17 UNL     1      17.937  10.070   4.947  1.00  0.00    -0.007 C 
HETATM   33  C18 UNL     1      18.591  10.385   6.272  1.00  0.00     0.021 C 
HETATM   34  C19 UNL     1      18.927   9.260   4.144  1.00  0.00     0.021 C 
HETATM   35  C20 UNL     1      17.671  11.417   4.272  1.00  0.00     0.021 C 
ENDBRANCH  29  32
ENDBRANCH   4  24
TORSDOF 6
ENDMDL
MODEL 2
REMARK VINA RESULT: -8.006670405      1.407      2.094
REMARK  6 active torsions:
REMARK  status: ('A' for Active; 'I' for Inactive)
REMARK    1  A    between atoms: C2_2  and  C4_4 
REMARK       I    between atoms: C4_4  and  N1_6 
REMARK    2  A    between atoms: N1_6  and  C5_8 
REMARK    3  A    between atoms: C5_8  and  C6_9 
REMARK    4  A    between atoms: C9_17  and  N4_18 
REMARK    5  A    between atoms: C12_21  and  C13_22 
REMARK    6  A    between atoms: C16_27  and  C17_28 
ROOT
HETATM    1  N4  UNL     1      11.077   8.759   3.027  1.00  0.00    -0.366 N 
HETATM    2  C10 UNL     1      12.170   9.706   2.917  1.00  0.00     0.125 C 
HETATM    3  C11 UNL     1      13.449   8.975   3.113  1.00  0.00     0.030 C 
HETATM    4  C12 UNL     1      13.492   7.883   4.104  1.00  0.00     0.040 C 
HETATM    5  C21 UNL     1      12.202   7.333   4.602  1.00  0.00     0.030 C 
HETATM    6  C22 UNL     1      10.997   8.151   4.358  1.00  0.00     0.125 C 
ENDROOT
BRANCH   1   7
HETATM    7  C9  UNL     1      10.165   8.434   2.006  1.00  0.00     0.128 A 
HETATM    8  C6  UNL     1      10.543   7.624   0.968  1.00  0.00     0.072 A 
HETATM    9  N2  UNL     1       9.646   7.304  -0.016  1.00  0.00    -0.345 N 
HETATM   10  C7  UNL     1       8.398   7.787   0.039  1.00  0.00     0.119 A 
ATOM     11  H2  UNL     1       9.928   6.700  -0.788  1.00  0.00     0.167 HD
HETATM   12 CL1  UNL     1       7.272   7.360  -1.242  1.00  0.00    -0.063 Cl
HETATM   13  C8  UNL     1       7.991   8.605   1.072  1.00  0.00     0.132 A 
HETATM   14  N3  UNL     1       8.882   8.908   2.026  1.00  0.00    -0.348 N 
ATOM     15  H3  UNL     1       8.593   9.514   2.795  1.00  0.00     0.167 HD
BRANCH   8  16
HETATM   16  C5  UNL     1      11.920   7.101   0.892  1.00  0.00     0.183 C 
BRANCH  16  17
HETATM   17  N1  UNL     1      11.991   6.171  -0.233  1.00  0.00    -0.351 N 
HETATM   18  C4  UNL     1      13.118   5.353  -0.465  1.00  0.00     0.246 C 
HETATM   19  O1  UNL     1      14.113   5.396   0.296  1.00  0.00    -0.268 OA
ATOM     20  H1  UNL     1      11.198   6.110  -0.872  1.00  0.00     0.163 HD
BRANCH  18  21
HETATM   21  C2  UNL     1      13.105   4.455  -1.610  1.00  0.00    -0.004 C 
HETATM   22  C1  UNL     1      14.209   3.863  -1.978  1.00  0.00     0.024 C 
HETATM   23  C3  UNL     1      11.828   4.206  -2.369  1.00  0.00     0.053 C 
ENDBRANCH  18  21
ENDBRANCH  16  17
ENDBRANCH   8  16
ENDBRANCH   1   7
BRANCH   4  24
HETATM   24  C13 UNL     1      14.423   8.178   5.254  1.00  0.00     0.029 A 
HETATM   25  C14 UNL     1      14.033   8.034   6.565  1.00  0.00     0.113 A 
HETATM   26  N5  UNL     1      14.875   8.296   7.595  1.00  0.00    -0.371 N 
HETATM   27  C15 UNL     1      16.126   8.708   7.340  1.00  0.00     0.113 A 
ATOM     28  H5  UNL     1      14.559   8.180   8.558  1.00  0.00     0.164 HD
HETATM   29  C16 UNL     1      16.561   8.866   6.039  1.00  0.00     0.032 A 
HETATM   30  N6  UNL     1      15.685   8.592   5.056  1.00  0.00    -0.360 N 
ATOM     31  H6  UNL     1      16.001   8.708   4.094  1.00  0.00     0.165 HD
BRANCH  29  32
HETATM   32  C17 UNL     1      17.959   9.322   5.787  1.00  0.00    -0.007 C 
HETATM   33  C18 UNL     1      18.044  10.105   4.499  1.00  0.00     0.021 C 
HETATM   34  C19 UNL     1      18.444  10.231   6.893  1.00  0.00     0.021 C 
HETATM   35  C20 UNL     1      18.900   8.127   5.623  1.00  0.00     0.021 C 
ENDBRANCH  29  32
ENDBRANCH   4  24
TORSDOF 6
ENDMDL
MODEL 3
REMARK VINA RESULT: -7.934867962      3.580      8.614
REMARK  6 active torsions:
REMARK  status: ('A' for Active; 'I' for Inactive)
REMARK    1  A    between atoms: C2_2  and  C4_4 
REMARK       I    between atoms: C4_4  and  N1_6 
REMARK    2  A    between atoms: N1_6  and  C5_8 
REMARK    3  A    between atoms: C5_8  and  C6_9 
REMARK    4  A    between atoms: C9_17  and  N4_18 
REMARK    5  A    between atoms: C12_21  and  C13_22 
REMARK    6  A    between atoms: C16_27  and  C17_28 
ROOT
HETATM    1  N4  UNL     1      11.167   7.899   1.974  1.00  0.00    -0.366 N 
HETATM    2  C10 UNL     1      10.765   9.144   1.347  1.00  0.00     0.125 C 
HETATM    3  C11 UNL     1       9.284   9.245   1.405  1.00  0.00     0.030 C 
HETATM    4  C12 UNL     1       8.487   8.016   1.223  1.00  0.00     0.040 C 
HETATM    5  C21 UNL     1       9.178   6.705   1.343  1.00  0.00     0.030 C 
HETATM    6  C22 UNL     1      10.653   6.725   1.263  1.00  0.00     0.125 C 
ENDROOT
BRANCH   1   7
HETATM    7  C9  UNL     1      11.965   7.778   3.127  1.00  0.00     0.128 A 
HETATM    8  C6  UNL     1      13.331   7.812   3.032  1.00  0.00     0.072 A 
HETATM    9  N2  UNL     1      14.101   7.704   4.160  1.00  0.00    -0.345 N 
HETATM   10  C7  UNL     1      13.512   7.564   5.356  1.00  0.00     0.119 A 
ATOM     11  H2  UNL     1      15.118   7.729   4.090  1.00  0.00     0.167 HD
HETATM   12 CL1  UNL     1      14.528   7.426   6.783  1.00  0.00    -0.063 Cl
HETATM   13  C8  UNL     1      12.139   7.527   5.479  1.00  0.00     0.132 A 
HETATM   14  N3  UNL     1      11.402   7.634   4.364  1.00  0.00    -0.348 N 
ATOM     15  H3  UNL     1      10.385   7.606   4.442  1.00  0.00     0.167 HD
BRANCH   8  16
HETATM   16  C5  UNL     1      13.987   7.949   1.718  1.00  0.00     0.183 C 
BRANCH  16  17
HETATM   17  N1  UNL     1      14.057   6.625   1.105  1.00  0.00    -0.351 N 
HETATM   18  C4  UNL     1      14.005   6.439  -0.294  1.00  0.00     0.246 C 
HETATM   19  O1  UNL     1      13.896   7.416  -1.071  1.00  0.00    -0.268 OA
ATOM     20  H1  UNL     1      14.147   5.808   1.708  1.00  0.00     0.163 HD
BRANCH  18  21
HETATM   21  C2  UNL     1      14.081   5.084  -0.821  1.00  0.00    -0.004 C 
HETATM   22  C1  UNL     1      15.232   4.607  -1.210  1.00  0.00     0.024 C 
HETATM   23  C3  UNL     1      12.841   4.234  -0.918  1.00  0.00     0.053 C 
ENDBRANCH  18  21
ENDBRANCH  16  17
ENDBRANCH   8  16
ENDBRANCH   1   7
BRANCH   4  24
HETATM   24  C13 UNL     1       7.631   8.056  -0.018  1.00  0.00     0.029 A 
HETATM   25  C14 UNL     1       8.024   7.463  -1.195  1.00  0.00     0.113 A 
HETATM   26  N5  UNL     1       7.250   7.497  -2.308  1.00  0.00    -0.371 N 
HETATM   27  C15 UNL     1       6.064   8.126  -2.271  1.00  0.00     0.113 A 
ATOM     28  H5  UNL     1       7.565   7.048  -3.167  1.00  0.00     0.164 HD
HETATM   29  C16 UNL     1       5.629   8.734  -1.110  1.00  0.00     0.032 A 
HETATM   30  N6  UNL     1       6.437   8.670  -0.038  1.00  0.00    -0.360 N 
ATOM     31  H6  UNL     1       6.121   9.119   0.822  1.00  0.00     0.165 HD
BRANCH  29  32
HETATM   32  C17 UNL     1       4.305   9.422  -1.100  1.00  0.00    -0.007 C 
HETATM   33  C18 UNL     1       3.231   8.510  -0.558  1.00  0.00     0.021 C 
HETATM   34  C19 UNL     1       4.335  10.648  -0.218  1.00  0.00     0.021 C 
HETATM   35  C20 UNL     1       3.874   9.793  -2.520  1.00  0.00     0.021 C 
ENDBRANCH  29  32
ENDBRANCH   4  24
TORSDOF 6
ENDMDL
MODEL 4
REMARK VINA RESULT: -7.764888172      3.862      9.180
REMARK  6 active torsions:
REMARK  status: ('A' for Active; 'I' for Inactive)
REMARK    1  A    between atoms: C2_2  and  C4_4 
REMARK       I    between atoms: C4_4  and  N1_6 
REMARK    2  A    between atoms: N1_6  and  C5_8 
REMARK    3  A    between atoms: C5_8  and  C6_9 
REMARK    4  A    between atoms: C9_17  and  N4_18 
REMARK    5  A    between atoms: C12_21  and  C13_22 
REMARK    6  A    between atoms: C16_27  and  C17_28 
ROOT
HETATM    1  N4  UNL     1      14.329   9.376   4.374  1.00  0.00    -0.366 N 
HETATM    2  C10 UNL     1      12.967   9.726   4.729  1.00  0.00     0.125 C 
HETATM    3  C11 UNL     1      12.139   8.493   4.697  1.00  0.00     0.030 C 
HETATM    4  C12 UNL     1      12.411   7.488   3.651  1.00  0.00     0.040 C 
HETATM    5  C21 UNL     1      13.698   7.576   2.910  1.00  0.00     0.030 C 
HETATM    6  C22 UNL     1      14.432   8.853   3.007  1.00  0.00     0.125 C 
ENDROOT
BRANCH   1   7
HETATM    7  C9  UNL     1      15.457   9.511   5.204  1.00  0.00     0.128 A 
HETATM    8  C6  UNL     1      15.744   8.560   6.147  1.00  0.00     0.072 A 
HETATM    9  N2  UNL     1      16.849   8.694   6.944  1.00  0.00    -0.345 N 
HETATM   10  C7  UNL     1      17.648   9.760   6.799  1.00  0.00     0.119 A 
ATOM     11  H2  UNL     1      17.063   7.985   7.646  1.00  0.00     0.167 HD
HETATM   12 CL1  UNL     1      19.058   9.903   7.840  1.00  0.00    -0.063 Cl
HETATM   13  C8  UNL     1      17.382  10.732   5.858  1.00  0.00     0.132 A 
HETATM   14  N3  UNL     1      16.296  10.584   5.087  1.00  0.00    -0.348 N 
ATOM     15  H3  UNL     1      16.088  11.298   4.388  1.00  0.00     0.167 HD
BRANCH   8  16
HETATM   16  C5  UNL     1      14.860   7.392   6.324  1.00  0.00     0.183 C 
BRANCH  16  17
HETATM   17  N1  UNL     1      14.099   7.581   7.556  1.00  0.00    -0.351 N 
HETATM   18  C4  UNL     1      13.038   6.725   7.925  1.00  0.00     0.246 C 
HETATM   19  O1  UNL     1      12.707   5.758   7.199  1.00  0.00    -0.268 OA
ATOM     20  H1  UNL     1      14.343   8.358   8.171  1.00  0.00     0.163 HD
BRANCH  18  21
HETATM   21  C2  UNL     1      12.332   6.986   9.171  1.00  0.00    -0.004 C 
HETATM   22  C1  UNL     1      12.864   6.617  10.304  1.00  0.00     0.024 C 
HETATM   23  C3  UNL     1      10.994   7.679   9.157  1.00  0.00     0.053 C 
ENDBRANCH  18  21
ENDBRANCH  16  17
ENDBRANCH   8  16
ENDBRANCH   1   7
BRANCH   4  24
HETATM   24  C13 UNL     1      11.257   7.315   2.695  1.00  0.00     0.029 A 
HETATM   25  C14 UNL     1       9.948   7.424   3.103  1.00  0.00     0.113 A 
HETATM   26  N5  UNL     1       8.914   7.272   2.240  1.00  0.00    -0.371 N 
HETATM   27  C15 UNL     1       9.163   7.006   0.948  1.00  0.00     0.113 A 
ATOM     28  H5  UNL     1       7.953   7.360   2.570  1.00  0.00     0.164 HD
HETATM   29  C16 UNL     1      10.462   6.888   0.494  1.00  0.00     0.032 A 
HETATM   30  N6  UNL     1      11.449   7.048   1.393  1.00  0.00    -0.360 N 
ATOM     31  H6  UNL     1      12.409   6.960   1.063  1.00  0.00     0.165 HD
BRANCH  29  32
HETATM   32  C17 UNL     1      10.706   6.595  -0.948  1.00  0.00    -0.007 C 
HETATM   33  C18 UNL     1      11.804   7.475  -1.496  1.00  0.00     0.021 C 
HETATM   34  C19 UNL     1      11.144   5.163  -1.147  1.00  0.00     0.021 C 
HETATM   35  C20 UNL     1       9.461   6.897  -1.783  1.00  0.00     0.021 C 
ENDBRANCH  29  32
ENDBRANCH   4  24
TORSDOF 6
ENDMDL
MODEL 5
REMARK VINA RESULT: -7.743384536      3.628      8.504
REMARK  6 active torsions:
REMARK  status: ('A' for Active; 'I' for Inactive)
REMARK    1  A    between atoms: C2_2  and  C4_4 
REMARK       I    between atoms: C4_4  and  N1_6 
REMARK    2  A    between atoms: N1_6  and  C5_8 
REMARK    3  A    between atoms: C5_8  and  C6_9 
REMARK    4  A    between atoms: C9_17  and  N4_18 
REMARK    5  A    between atoms: C12_21  and  C13_22 
REMARK    6  A    between atoms: C16_27  and  C17_28 
ROOT
HETATM    1  N4  UNL     1       9.988   7.836   3.298  1.00  0.00    -0.366 N 
HETATM    2  C10 UNL     1       9.135   6.729   2.910  1.00  0.00     0.125 C 
HETATM    3  C11 UNL     1       9.017   6.721   1.428  1.00  0.00     0.030 C 
HETATM    4  C12 UNL     1       8.946   8.013   0.720  1.00  0.00     0.040 C 
HETATM    5  C21 UNL     1       9.341   9.243   1.458  1.00  0.00     0.030 C 
HETATM    6  C22 UNL     1       9.417   9.136   2.929  1.00  0.00     0.125 C 
ENDROOT
BRANCH   1   7
HETATM    7  C9  UNL     1      11.224   7.729   3.962  1.00  0.00     0.128 A 
HETATM    8  C6  UNL     1      12.398   7.828   3.264  1.00  0.00     0.072 A 
HETATM    9  N2  UNL     1      13.597   7.732   3.919  1.00  0.00    -0.345 N 
HETATM   10  C7  UNL     1      13.616   7.542   5.245  1.00  0.00     0.119 A 
ATOM     11  H2  UNL     1      14.471   7.806   3.399  1.00  0.00     0.167 HD
HETATM   12 CL1  UNL     1      15.172   7.421   6.056  1.00  0.00    -0.063 Cl
HETATM   13  C8  UNL     1      12.449   7.438   5.972  1.00  0.00     0.132 A 
HETATM   14  N3  UNL     1      11.285   7.533   5.314  1.00  0.00    -0.348 N 
ATOM     15  H3  UNL     1      10.414   7.457   5.841  1.00  0.00     0.167 HD
BRANCH   8  16
HETATM   16  C5  UNL     1      12.385   8.022   1.802  1.00  0.00     0.183 C 
BRANCH  16  17
HETATM   17  N1  UNL     1      12.549   6.715   1.169  1.00  0.00    -0.351 N 
HETATM   18  C4  UNL     1      12.357   6.520  -0.217  1.00  0.00     0.246 C 
HETATM   19  O1  UNL     1      12.035   7.474  -0.964  1.00  0.00    -0.268 OA
ATOM     20  H1  UNL     1      12.812   5.918   1.748  1.00  0.00     0.163 HD
BRANCH  18  21
HETATM   21  C2  UNL     1      12.541   5.184  -0.765  1.00  0.00    -0.004 C 
HETATM   22  C1  UNL     1      11.528   4.564  -1.307  1.00  0.00     0.024 C 
HETATM   23  C3  UNL     1      13.891   4.518  -0.711  1.00  0.00     0.053 C 
ENDBRANCH  18  21
ENDBRANCH  16  17
ENDBRANCH   8  16
ENDBRANCH   1   7
BRANCH   4  24
HETATM   24  C13 UNL     1       7.628   8.218   0.013  1.00  0.00     0.029 A 
HETATM   25  C14 UNL     1       7.384   7.702  -1.238  1.00  0.00     0.113 A 
HETATM   26  N5  UNL     1       6.197   7.885  -1.868  1.00  0.00    -0.371 N 
HETATM   27  C15 UNL     1       5.227   8.588  -1.263  1.00  0.00     0.113 A 
ATOM     28  H5  UNL     1       6.042   7.490  -2.795  1.00  0.00     0.164 HD
HETATM   29  C16 UNL     1       5.429   9.124  -0.006  1.00  0.00     0.032 A 
HETATM   30  N6  UNL     1       6.624   8.912   0.572  1.00  0.00    -0.360 N 
ATOM     31  H6  UNL     1       6.779   9.307   1.499  1.00  0.00     0.165 HD
BRANCH  29  32
HETATM   32  C17 UNL     1       4.330   9.898   0.641  1.00  0.00    -0.007 C 
HETATM   33  C18 UNL     1       4.342  11.336   0.180  1.00  0.00     0.021 C 
HETATM   34  C19 UNL     1       2.978   9.328   0.285  1.00  0.00     0.021 C 
HETATM   35  C20 UNL     1       4.514   9.936   2.160  1.00  0.00     0.021 C 
ENDBRANCH  29  32
ENDBRANCH   4  24
TORSDOF 6
ENDMDL
