MODEL 1
REMARK VINA RESULT: -8.265641299      0.000      0.000
REMARK  6 active torsions:
REMARK  status: ('A' for Active; 'I' for Inactive)
REMARK    1  A    between atoms: C4_5  and  C5_6 
REMARK    2  A    between atoms: C7_10  and  N2_11 
REMARK    3  A    between atoms: N2_11  and  C8_13 
REMARK    4  A    between atoms: C8_13  and  C9_14 
REMARK    5  A    between atoms: N3_17  and  C12_18 
REMARK    6  A    between atoms: C12_18  and  C13_19 
ROOT
HETATM    1  C5  UNL     1      -7.641   7.915   3.454  1.00  0.00     0.117 A 
HETATM    2  N1  UNL     1      -7.436   8.469   2.255  1.00  0.00    -0.336 N 
ATOM      3  H1  UNL     1      -8.043   8.402   1.438  1.00  0.00     0.168 HD
HETATM    4  C6  UNL     1      -6.257   9.140   2.342  1.00  0.00     0.122 A 
HETATM    5  C7  UNL     1      -5.520   9.899   1.454  1.00  0.00     0.133 A 
HETATM    6  N5  UNL     1      -4.356  10.449   1.850  1.00  0.00    -0.337 N 
ATOM      7  H5  UNL     1      -3.827  11.007   1.179  1.00  0.00     0.168 HD
HETATM    8  C18 UNL     1      -3.865  10.296   3.083  1.00  0.00     0.183 A 
HETATM    9  N6  UNL     1      -4.564   9.565   3.958  1.00  0.00    -0.337 N 
ATOM     10  H6  UNL     1      -4.206   9.436   4.904  1.00  0.00     0.168 HD
HETATM   11  C19 UNL     1      -5.734   8.995   3.609  1.00  0.00     0.139 A 
HETATM   12  N7  UNL     1      -6.630   8.220   4.279  1.00  0.00    -0.326 N 
ATOM     13  H7  UNL     1      -6.546   7.920   5.251  1.00  0.00     0.169 HD
ENDROOT
BRANCH   5  14
HETATM   14  N2  UNL     1      -5.904  10.099   0.264  1.00  0.00    -0.374 N 
ATOM     15  H2  UNL     1      -6.500  10.911   0.103  1.00  0.00     0.161 HD
BRANCH  14  16
HETATM   16  C8  UNL     1      -5.584   9.298  -0.876  1.00  0.00     0.126 C 
BRANCH  16  17
HETATM   17  C9  UNL     1      -5.901  10.030  -2.186  1.00  0.00     0.007 C 
HETATM   18  C10 UNL     1      -6.173   9.030  -3.249  1.00  0.00     0.036 C 
HETATM   19  C11 UNL     1      -7.276   9.359  -4.190  1.00  0.00     0.273 C 
HETATM   20  N3  UNL     1      -8.383  10.072  -3.649  1.00  0.00     0.094 N 
HETATM   21  C16 UNL     1      -8.298  10.383  -2.255  1.00  0.00     0.273 C 
HETATM   22  C17 UNL     1      -6.987  11.043  -1.979  1.00  0.00     0.036 C 
BRANCH  20  23
HETATM   23  C12 UNL     1      -8.768  11.244  -4.368  1.00  0.00     0.337 C 
BRANCH  23  24
HETATM   24  C13 UNL     1     -10.205  11.547  -4.058  1.00  0.00     0.079 A 
HETATM   25  N4  UNL     1     -11.288  10.843  -4.348  1.00  0.00    -0.362 N 
HETATM   26  C14 UNL     1     -12.452  11.272  -3.994  1.00  0.00     0.096 A 
ATOM     27  H4  UNL     1     -11.203   9.960  -4.853  1.00  0.00     0.165 HD
HETATM   28  C15 UNL     1     -12.519  12.464  -3.318  1.00  0.00     0.068 A 
HETATM   29  S1  UNL     1     -10.858  12.894  -3.238  1.00  0.00    -0.086 SA
ENDBRANCH  23  24
ENDBRANCH  20  23
ENDBRANCH  16  17
ENDBRANCH  14  16
ENDBRANCH   5  14
BRANCH   1  30
HETATM   30  C4  UNL     1      -8.809   7.093   3.806  1.00  0.00     0.008 A 
HETATM   31  C3  UNL     1      -9.964   7.169   3.059  1.00  0.00     0.018 A 
HETATM   32  C2  UNL     1     -11.087   6.427   3.338  1.00  0.00     0.043 A 
HETATM   33  C1  UNL     1     -11.044   5.571   4.415  1.00  0.00     0.116 A 
HETATM   34  F1  UNL     1     -12.119   4.815   4.739  1.00  0.00    -0.206 F 
HETATM   35  C21 UNL     1      -9.883   5.488   5.173  1.00  0.00     0.043 A 
HETATM   36  C20 UNL     1      -8.779   6.236   4.876  1.00  0.00     0.018 A 
ENDBRANCH   1  30
TORSDOF 6
ENDMDL
MODEL 2
REMARK VINA RESULT: -8.188354954      2.166      2.760
REMARK  6 active torsions:
REMARK  status: ('A' for Active; 'I' for Inactive)
REMARK    1  A    between atoms: C4_5  and  C5_6 
REMARK    2  A    between atoms: C7_10  and  N2_11 
REMARK    3  A    between atoms: N2_11  and  C8_13 
REMARK    4  A    between atoms: C8_13  and  C9_14 
REMARK    5  A    between atoms: N3_17  and  C12_18 
REMARK    6  A    between atoms: C12_18  and  C13_19 
ROOT
HETATM    1  C5  UNL     1      -7.329   8.102   3.679  1.00  0.00     0.117 A 
HETATM    2  N1  UNL     1      -6.957   8.736   2.563  1.00  0.00    -0.336 N 
ATOM      3  H1  UNL     1      -7.469   8.775   1.682  1.00  0.00     0.168 HD
HETATM    4  C6  UNL     1      -5.759   9.317   2.835  1.00  0.00     0.122 A 
HETATM    5  C7  UNL     1      -4.883  10.094   2.102  1.00  0.00     0.133 A 
HETATM    6  N5  UNL     1      -3.742  10.531   2.669  1.00  0.00    -0.337 N 
ATOM      7  H5  UNL     1      -3.108  11.104   2.111  1.00  0.00     0.168 HD
HETATM    8  C18 UNL     1      -3.405  10.247   3.930  1.00  0.00     0.183 A 
HETATM    9  N6  UNL     1      -4.240   9.496   4.657  1.00  0.00    -0.337 N 
ATOM     10  H6  UNL     1      -4.000   9.269   5.622  1.00  0.00     0.168 HD
HETATM   11  C19 UNL     1      -5.393   9.036   4.134  1.00  0.00     0.139 A 
HETATM   12  N7  UNL     1      -6.403   8.271   4.633  1.00  0.00    -0.326 N 
ATOM     13  H7  UNL     1      -6.448   7.890   5.578  1.00  0.00     0.169 HD
ENDROOT
BRANCH   5  14
HETATM   14  N2  UNL     1      -5.117  10.414   0.899  1.00  0.00    -0.374 N 
ATOM     15  H2  UNL     1      -5.805  11.149   0.744  1.00  0.00     0.161 HD
BRANCH  14  16
HETATM   16  C8  UNL     1      -4.508   9.844  -0.262  1.00  0.00     0.126 C 
BRANCH  16  17
HETATM   17  C9  UNL     1      -5.529   9.079  -1.114  1.00  0.00     0.007 C 
HETATM   18  C10 UNL     1      -6.793   9.854  -1.173  1.00  0.00     0.036 C 
HETATM   19  C11 UNL     1      -7.493   9.866  -2.484  1.00  0.00     0.273 C 
HETATM   20  N3  UNL     1      -6.671   9.846  -3.646  1.00  0.00     0.094 N 
HETATM   21  C16 UNL     1      -5.261   9.822  -3.405  1.00  0.00     0.273 C 
HETATM   22  C17 UNL     1      -4.946   8.720  -2.448  1.00  0.00     0.036 C 
BRANCH  20  23
HETATM   23  C12 UNL     1      -6.998   8.847  -4.612  1.00  0.00     0.337 C 
BRANCH  23  24
HETATM   24  C13 UNL     1      -7.307   9.524  -5.916  1.00  0.00     0.079 A 
HETATM   25  N4  UNL     1      -6.895   9.214  -7.136  1.00  0.00    -0.362 N 
HETATM   26  C14 UNL     1      -7.272   9.924  -8.145  1.00  0.00     0.096 A 
ATOM     27  H4  UNL     1      -6.278   8.413  -7.279  1.00  0.00     0.165 HD
HETATM   28  C15 UNL     1      -8.101  10.991  -7.906  1.00  0.00     0.068 A 
HETATM   29  S1  UNL     1      -8.284  10.894  -6.201  1.00  0.00    -0.086 SA
ENDBRANCH  23  24
ENDBRANCH  20  23
ENDBRANCH  16  17
ENDBRANCH  14  16
ENDBRANCH   5  14
BRANCH   1  30
HETATM   30  C4  UNL     1      -8.575   7.335   3.828  1.00  0.00     0.008 A 
HETATM   31  C3  UNL     1      -8.675   6.347   4.783  1.00  0.00     0.018 A 
HETATM   32  C2  UNL     1      -9.810   5.597   4.970  1.00  0.00     0.043 A 
HETATM   33  C1  UNL     1     -10.894   5.853   4.161  1.00  0.00     0.116 A 
HETATM   34  F1  UNL     1     -12.041   5.147   4.299  1.00  0.00    -0.206 F 
HETATM   35  C21 UNL     1     -10.802   6.847   3.195  1.00  0.00     0.043 A 
HETATM   36  C20 UNL     1      -9.662   7.581   3.028  1.00  0.00     0.018 A 
ENDBRANCH   1  30
TORSDOF 6
ENDMDL
MODEL 3
REMARK VINA RESULT: -8.180691396      0.957      1.661
REMARK  6 active torsions:
REMARK  status: ('A' for Active; 'I' for Inactive)
REMARK    1  A    between atoms: C4_5  and  C5_6 
REMARK    2  A    between atoms: C7_10  and  N2_11 
REMARK    3  A    between atoms: N2_11  and  C8_13 
REMARK    4  A    between atoms: C8_13  and  C9_14 
REMARK    5  A    between atoms: N3_17  and  C12_18 
REMARK    6  A    between atoms: C12_18  and  C13_19 
ROOT
HETATM    1  C5  UNL     1      -7.695   7.964   3.571  1.00  0.00     0.117 A 
HETATM    2  N1  UNL     1      -7.553   8.704   2.467  1.00  0.00    -0.336 N 
ATOM      3  H1  UNL     1      -8.215   8.785   1.695  1.00  0.00     0.168 HD
HETATM    4  C6  UNL     1      -6.351   9.328   2.579  1.00  0.00     0.122 A 
HETATM    5  C7  UNL     1      -5.652  10.208   1.776  1.00  0.00     0.133 A 
HETATM    6  N5  UNL     1      -4.447  10.662   2.174  1.00  0.00    -0.337 N 
ATOM      7  H5  UNL     1      -3.946  11.312   1.567  1.00  0.00     0.168 HD
HETATM    8  C18 UNL     1      -3.880  10.299   3.328  1.00  0.00     0.183 A 
HETATM    9  N6  UNL     1      -4.542   9.447   4.119  1.00  0.00    -0.337 N 
ATOM     10  H6  UNL     1      -4.126   9.158   5.004  1.00  0.00     0.168 HD
HETATM   11  C19 UNL     1      -5.749   8.966   3.765  1.00  0.00     0.139 A 
HETATM   12  N7  UNL     1      -6.623   8.109   4.361  1.00  0.00    -0.326 N 
ATOM     13  H7  UNL     1      -6.484   7.652   5.263  1.00  0.00     0.169 HD
ENDROOT
BRANCH   5  14
HETATM   14  N2  UNL     1      -6.107  10.609   0.665  1.00  0.00    -0.374 N 
ATOM     15  H2  UNL     1      -6.496  11.551   0.640  1.00  0.00     0.161 HD
BRANCH  14  16
HETATM   16  C8  UNL     1      -6.130   9.870  -0.559  1.00  0.00     0.126 C 
BRANCH  16  17
HETATM   17  C9  UNL     1      -7.530   9.859  -1.184  1.00  0.00     0.007 C 
HETATM   18  C10 UNL     1      -8.383  10.854  -0.486  1.00  0.00     0.036 C 
HETATM   19  C11 UNL     1      -9.306  11.641  -1.345  1.00  0.00     0.273 C 
HETATM   20  N3  UNL     1      -8.842  11.962  -2.653  1.00  0.00     0.094 N 
HETATM   21  C16 UNL     1      -7.533  11.487  -2.979  1.00  0.00     0.273 C 
HETATM   22  C17 UNL     1      -7.450  10.028  -2.671  1.00  0.00     0.036 C 
BRANCH  20  23
HETATM   23  C12 UNL     1      -9.737  11.637  -3.717  1.00  0.00     0.337 C 
BRANCH  23  24
HETATM   24  C13 UNL     1     -11.078  12.242  -3.418  1.00  0.00     0.079 A 
HETATM   25  N4  UNL     1     -12.234  11.637  -3.186  1.00  0.00    -0.362 N 
HETATM   26  C14 UNL     1     -13.291  12.337  -2.945  1.00  0.00     0.096 A 
ATOM     27  H4  UNL     1     -12.288  10.618  -3.199  1.00  0.00     0.165 HD
HETATM   28  C15 UNL     1     -13.171  13.703  -2.938  1.00  0.00     0.068 A 
HETATM   29  S1  UNL     1     -11.500  13.891  -3.289  1.00  0.00    -0.086 SA
ENDBRANCH  23  24
ENDBRANCH  20  23
ENDBRANCH  16  17
ENDBRANCH  14  16
ENDBRANCH   5  14
BRANCH   1  30
HETATM   30  C4  UNL     1      -8.863   7.118   3.865  1.00  0.00     0.008 A 
HETATM   31  C3  UNL     1      -8.831   6.230   4.917  1.00  0.00     0.018 A 
HETATM   32  C2  UNL     1      -9.888   5.415   5.241  1.00  0.00     0.043 A 
HETATM   33  C1  UNL     1     -11.027   5.498   4.473  1.00  0.00     0.116 A 
HETATM   34  F1  UNL     1     -12.102   4.720   4.744  1.00  0.00    -0.206 F 
HETATM   35  C21 UNL     1     -11.068   6.391   3.411  1.00  0.00     0.043 A 
HETATM   36  C20 UNL     1     -10.004   7.193   3.107  1.00  0.00     0.018 A 
ENDBRANCH   1  30
TORSDOF 6
ENDMDL
MODEL 4
REMARK VINA RESULT: -8.080771191      1.202      1.704
REMARK  6 active torsions:
REMARK  status: ('A' for Active; 'I' for Inactive)
REMARK    1  A    between atoms: C4_5  and  C5_6 
REMARK    2  A    between atoms: C7_10  and  N2_11 
REMARK    3  A    between atoms: N2_11  and  C8_13 
REMARK    4  A    between atoms: C8_13  and  C9_14 
REMARK    5  A    between atoms: N3_17  and  C12_18 
REMARK    6  A    between atoms: C12_18  and  C13_19 
ROOT
HETATM    1  C5  UNL     1      -7.730   8.000   3.479  1.00  0.00     0.117 A 
HETATM    2  N1  UNL     1      -7.643   8.752   2.378  1.00  0.00    -0.336 N 
ATOM      3  H1  UNL     1      -8.338   8.834   1.636  1.00  0.00     0.168 HD
HETATM    4  C6  UNL     1      -6.443   9.386   2.444  1.00  0.00     0.122 A 
HETATM    5  C7  UNL     1      -5.787  10.281   1.622  1.00  0.00     0.133 A 
HETATM    6  N5  UNL     1      -4.570  10.743   1.972  1.00  0.00    -0.337 N 
ATOM      7  H5  UNL     1      -4.102  11.403   1.350  1.00  0.00     0.168 HD
HETATM    8  C18 UNL     1      -3.951  10.373   3.096  1.00  0.00     0.183 A 
HETATM    9  N6  UNL     1      -4.570   9.507   3.906  1.00  0.00    -0.337 N 
ATOM     10  H6  UNL     1      -4.114   9.213   4.769  1.00  0.00     0.168 HD
HETATM   11  C19 UNL     1      -5.787   9.018   3.600  1.00  0.00     0.139 A 
HETATM   12  N7  UNL     1      -6.627   8.147   4.224  1.00  0.00    -0.326 N 
ATOM     13  H7  UNL     1      -6.444   7.682   5.114  1.00  0.00     0.169 HD
ENDROOT
BRANCH   5  14
HETATM   14  N2  UNL     1      -6.293  10.689   0.535  1.00  0.00    -0.374 N 
ATOM     15  H2  UNL     1      -6.656  11.641   0.525  1.00  0.00     0.161 HD
BRANCH  14  16
HETATM   16  C8  UNL     1      -6.407   9.943  -0.679  1.00  0.00     0.126 C 
BRANCH  16  17
HETATM   17  C9  UNL     1      -7.833   9.998  -1.242  1.00  0.00     0.007 C 
HETATM   18  C10 UNL     1      -8.593  11.061  -0.538  1.00  0.00     0.036 C 
HETATM   19  C11 UNL     1      -9.508  11.878  -1.380  1.00  0.00     0.273 C 
HETATM   20  N3  UNL     1      -9.086  12.134  -2.715  1.00  0.00     0.094 N 
HETATM   21  C16 UNL     1      -7.823  11.573  -3.084  1.00  0.00     0.273 C 
HETATM   22  C17 UNL     1      -7.810  10.121  -2.736  1.00  0.00     0.036 C 
BRANCH  20  23
HETATM   23  C12 UNL     1     -10.046  11.833  -3.729  1.00  0.00     0.337 C 
BRANCH  23  24
HETATM   24  C13 UNL     1     -11.317  12.568  -3.419  1.00  0.00     0.079 A 
HETATM   25  N4  UNL     1     -11.507  13.865  -3.229  1.00  0.00    -0.362 N 
HETATM   26  C14 UNL     1     -12.689  14.314  -2.969  1.00  0.00     0.096 A 
ATOM     27  H4  UNL     1     -10.719  14.511  -3.289  1.00  0.00     0.165 HD
HETATM   28  C15 UNL     1     -13.719  13.410  -2.900  1.00  0.00     0.068 A 
HETATM   29  S1  UNL     1     -12.891  11.939  -3.221  1.00  0.00    -0.086 SA
ENDBRANCH  23  24
ENDBRANCH  20  23
ENDBRANCH  16  17
ENDBRANCH  14  16
ENDBRANCH   5  14
BRANCH   1  30
HETATM   30  C4  UNL     1      -8.877   7.140   3.815  1.00  0.00     0.008 A 
HETATM   31  C3  UNL     1     -10.047   7.226   3.094  1.00  0.00     0.018 A 
HETATM   32  C2  UNL     1     -11.149   6.452   3.360  1.00  0.00     0.043 A 
HETATM   33  C1  UNL     1     -11.071   5.550   4.397  1.00  0.00     0.116 A 
HETATM   34  F1  UNL     1     -12.125   4.759   4.706  1.00  0.00    -0.206 F 
HETATM   35  C21 UNL     1      -9.895   5.456   5.129  1.00  0.00     0.043 A 
HETATM   36  C20 UNL     1      -8.810   6.237   4.846  1.00  0.00     0.018 A 
ENDBRANCH   1  30
TORSDOF 6
ENDMDL
MODEL 5
REMARK VINA RESULT: -8.071920216      1.768      2.597
REMARK  6 active torsions:
REMARK  status: ('A' for Active; 'I' for Inactive)
REMARK    1  A    between atoms: C4_5  and  C5_6 
REMARK    2  A    between atoms: C7_10  and  N2_11 
REMARK    3  A    between atoms: N2_11  and  C8_13 
REMARK    4  A    between atoms: C8_13  and  C9_14 
REMARK    5  A    between atoms: N3_17  and  C12_18 
REMARK    6  A    between atoms: C12_18  and  C13_19 
ROOT
HETATM    1  C5  UNL     1      -7.699   7.922   3.705  1.00  0.00     0.117 A 
HETATM    2  N1  UNL     1      -7.511   8.674   2.616  1.00  0.00    -0.336 N 
ATOM      3  H1  UNL     1      -8.144   8.771   1.823  1.00  0.00     0.168 HD
HETATM    4  C6  UNL     1      -6.307   9.283   2.778  1.00  0.00     0.122 A 
HETATM    5  C7  UNL     1      -5.571  10.165   2.012  1.00  0.00     0.133 A 
HETATM    6  N5  UNL     1      -4.376  10.602   2.457  1.00  0.00    -0.337 N 
ATOM      7  H5  UNL     1      -3.848  11.253   1.877  1.00  0.00     0.168 HD
HETATM    8  C18 UNL     1      -3.854  10.218   3.625  1.00  0.00     0.183 A 
HETATM    9  N6  UNL     1      -4.552   9.363   4.382  1.00  0.00    -0.337 N 
ATOM     10  H6  UNL     1      -4.171   9.058   5.277  1.00  0.00     0.168 HD
HETATM   11  C19 UNL     1      -5.751   8.900   3.980  1.00  0.00     0.139 A 
HETATM   12  N7  UNL     1      -6.654   8.045   4.534  1.00  0.00    -0.326 N 
ATOM     13  H7  UNL     1      -6.552   7.575   5.434  1.00  0.00     0.169 HD
ENDROOT
BRANCH   5  14
HETATM   14  N2  UNL     1      -5.982  10.585   0.890  1.00  0.00    -0.374 N 
ATOM     15  H2  UNL     1      -5.452  10.298   0.069  1.00  0.00     0.161 HD
BRANCH  14  16
HETATM   16  C8  UNL     1      -7.119  11.424   0.665  1.00  0.00     0.126 C 
BRANCH  16  17
HETATM   17  C9  UNL     1      -8.074  10.811  -0.367  1.00  0.00     0.007 C 
HETATM   18  C10 UNL     1      -8.739  11.902  -1.123  1.00  0.00     0.036 C 
HETATM   19  C11 UNL     1      -8.924  11.670  -2.580  1.00  0.00     0.273 C 
HETATM   20  N3  UNL     1      -7.906  10.927  -3.241  1.00  0.00     0.094 N 
HETATM   21  C16 UNL     1      -6.819  10.496  -2.416  1.00  0.00     0.273 C 
HETATM   22  C17 UNL     1      -7.363   9.798  -1.214  1.00  0.00     0.036 C 
BRANCH  20  23
HETATM   23  C12 UNL     1      -8.362   9.826  -4.027  1.00  0.00     0.337 C 
BRANCH  23  24
HETATM   24  C13 UNL     1      -8.322  10.221  -5.475  1.00  0.00     0.079 A 
HETATM   25  N4  UNL     1      -9.126  11.037  -6.141  1.00  0.00    -0.362 N 
HETATM   26  C14 UNL     1      -8.928  11.254  -7.397  1.00  0.00     0.096 A 
ATOM     27  H4  UNL     1      -9.901  11.494  -5.660  1.00  0.00     0.165 HD
HETATM   28  C15 UNL     1      -7.874  10.619  -8.002  1.00  0.00     0.068 A 
HETATM   29  S1  UNL     1      -7.223   9.728  -6.684  1.00  0.00    -0.086 SA
ENDBRANCH  23  24
ENDBRANCH  20  23
ENDBRANCH  16  17
ENDBRANCH  14  16
ENDBRANCH   5  14
BRANCH   1  30
HETATM   30  C4  UNL     1      -8.886   7.085   3.947  1.00  0.00     0.008 A 
HETATM   31  C3  UNL     1      -8.891   6.166   4.973  1.00  0.00     0.018 A 
HETATM   32  C2  UNL     1      -9.967   5.358   5.248  1.00  0.00     0.043 A 
HETATM   33  C1  UNL     1     -11.086   5.480   4.457  1.00  0.00     0.116 A 
HETATM   34  F1  UNL     1     -12.178   4.710   4.680  1.00  0.00    -0.206 F 
HETATM   35  C21 UNL     1     -11.089   6.404   3.421  1.00  0.00     0.043 A 
HETATM   36  C20 UNL     1     -10.007   7.198   3.166  1.00  0.00     0.018 A 
ENDBRANCH   1  30
TORSDOF 6
ENDMDL
