MODEL 1
REMARK VINA RESULT: -7.702017532      0.000      0.000
REMARK  5 active torsions:
REMARK  status: ('A' for Active; 'I' for Inactive)
REMARK    1  A    between atoms: C2_2  and  C4_4 
REMARK    2  A    between atoms: C4_4  and  C5_5 
REMARK    3  A    between atoms: C6_6  and  C7_7 
REMARK    4  A    between atoms: C8_8  and  C9_9 
REMARK    5  A    between atoms: C20_23  and  O4_24 
ROOT
HETATM    1  C9  UNL     1      10.655 -12.206 -17.469  1.00  0.00     0.072 C 
HETATM    2  C10 UNL     1       9.832 -11.052 -17.145  1.00  0.00     0.099 C 
HETATM    3  C11 UNL     1       8.312 -11.183 -17.185  1.00  0.00     0.194 C 
HETATM    4  O1  UNL     1       7.712 -10.185 -16.864  1.00  0.00    -0.292 OA
HETATM    5  C12 UNL     1       7.643 -12.389 -17.569  1.00  0.00     0.285 C 
HETATM    6  C13 UNL     1       7.728 -12.549 -19.053  1.00  0.00     0.094 C 
HETATM    7  O2  UNL     1       6.373 -12.782 -17.235  1.00  0.00    -0.187 OA
HETATM    8  O3  UNL     1       6.416 -14.142 -17.336  1.00  0.00    -0.195 OA
HETATM    9  C14 UNL     1       7.154 -14.744 -16.307  1.00  0.00     0.226 C 
HETATM   10  C15 UNL     1       6.345 -15.598 -15.403  1.00  0.00     0.085 C 
HETATM   11  C16 UNL     1       8.451 -15.442 -16.778  1.00  0.00     0.078 C 
HETATM   12  C17 UNL     1       9.651 -15.123 -15.904  1.00  0.00     0.042 C 
HETATM   13  C18 UNL     1      10.896 -14.604 -16.537  1.00  0.00    -0.054 C 
HETATM   14  C19 UNL     1      11.174 -15.123 -17.906  1.00  0.00     0.046 C 
HETATM   15  C20 UNL     1      11.209 -13.120 -16.409  1.00  0.00     0.053 C 
HETATM   16  O5  UNL     1       7.698 -13.606 -15.637  1.00  0.00    -0.195 OA
HETATM   17  O6  UNL     1       8.299 -13.205 -16.747  1.00  0.00    -0.187 OA
ENDROOT
BRANCH   1  18
HETATM   18  C8  UNL     1      11.814 -11.704 -18.308  1.00  0.00    -0.015 C 
HETATM   19  C7  UNL     1      11.758 -10.702 -19.116  1.00  0.00    -0.004 C 
BRANCH  19  20
HETATM   20  C6  UNL     1      12.956 -10.307 -19.886  1.00  0.00    -0.004 C 
HETATM   21  C5  UNL     1      13.706 -11.183 -20.516  1.00  0.00    -0.026 C 
BRANCH  21  22
HETATM   22  C4  UNL     1      14.893 -10.737 -21.272  1.00  0.00     0.031 C 
BRANCH  22  23
HETATM   23  C2  UNL     1      16.135 -11.495 -20.808  1.00  0.00    -0.019 C 
HETATM   24  C1  UNL     1      15.670 -12.662 -19.960  1.00  0.00     0.010 C 
HETATM   25  C3  UNL     1      16.968 -10.573 -19.947  1.00  0.00     0.010 C 
ENDBRANCH  22  23
ENDBRANCH  21  22
ENDBRANCH  19  20
ENDBRANCH   1  18
BRANCH  15  26
HETATM   26  O4  UNL     1      11.136 -12.647 -15.114  1.00  0.00    -0.364 OA
ATOM     27  H4  UNL     1      10.953 -13.300 -14.448  1.00  0.00     0.217 HD
ENDBRANCH  15  26
TORSDOF 5
ENDMDL
MODEL 2
REMARK VINA RESULT: -7.528816012      3.289      7.075
REMARK  5 active torsions:
REMARK  status: ('A' for Active; 'I' for Inactive)
REMARK    1  A    between atoms: C2_2  and  C4_4 
REMARK    2  A    between atoms: C4_4  and  C5_5 
REMARK    3  A    between atoms: C6_6  and  C7_7 
REMARK    4  A    between atoms: C8_8  and  C9_9 
REMARK    5  A    between atoms: C20_23  and  O4_24 
ROOT
HETATM    1  C9  UNL     1      10.002 -13.367 -18.229  1.00  0.00     0.072 C 
HETATM    2  C10 UNL     1       9.920 -13.434 -19.679  1.00  0.00     0.099 C 
HETATM    3  C11 UNL     1      11.164 -13.134 -20.512  1.00  0.00     0.194 C 
HETATM    4  O1  UNL     1      11.011 -13.251 -21.705  1.00  0.00    -0.292 OA
HETATM    5  C12 UNL     1      12.415 -12.748 -19.934  1.00  0.00     0.285 C 
HETATM    6  C13 UNL     1      12.333 -11.324 -19.487  1.00  0.00     0.094 C 
HETATM    7  O2  UNL     1      13.665 -12.883 -20.481  1.00  0.00    -0.187 OA
HETATM    8  O3  UNL     1      14.493 -12.916 -19.397  1.00  0.00    -0.195 OA
HETATM    9  C14 UNL     1      14.396 -14.110 -18.669  1.00  0.00     0.226 C 
HETATM   10  C15 UNL     1      15.633 -14.929 -18.683  1.00  0.00     0.085 C 
HETATM   11  C16 UNL     1      13.811 -13.944 -17.247  1.00  0.00     0.078 C 
HETATM   12  C17 UNL     1      12.760 -14.985 -16.909  1.00  0.00     0.042 C 
HETATM   13  C18 UNL     1      11.424 -14.540 -16.419  1.00  0.00    -0.054 C 
HETATM   14  C19 UNL     1      11.434 -13.296 -15.599  1.00  0.00     0.046 C 
HETATM   15  C20 UNL     1      10.247 -14.588 -17.382  1.00  0.00     0.053 C 
HETATM   16  O5  UNL     1      13.306 -14.761 -19.325  1.00  0.00    -0.195 OA
HETATM   17  O6  UNL     1      12.501 -13.744 -19.056  1.00  0.00    -0.187 OA
ENDROOT
BRANCH   1  18
HETATM   18  C8  UNL     1       8.727 -12.707 -17.742  1.00  0.00    -0.015 C 
HETATM   19  C7  UNL     1       8.654 -11.512 -17.264  1.00  0.00    -0.004 C 
BRANCH  19  20
HETATM   20  C6  UNL     1       7.352 -10.975 -16.816  1.00  0.00    -0.004 C 
HETATM   21  C5  UNL     1       7.206  -9.732 -16.417  1.00  0.00    -0.026 C 
BRANCH  21  22
HETATM   22  C4  UNL     1       5.883  -9.243 -15.978  1.00  0.00     0.031 C 
BRANCH  22  23
HETATM   23  C2  UNL     1       5.441  -9.970 -14.710  1.00  0.00    -0.019 C 
HETATM   24  C1  UNL     1       4.448 -11.040 -15.117  1.00  0.00     0.010 C 
HETATM   25  C3  UNL     1       4.742  -8.980 -13.806  1.00  0.00     0.010 C 
ENDBRANCH  22  23
ENDBRANCH  21  22
ENDBRANCH  19  20
ENDBRANCH   1  18
BRANCH  15  26
HETATM   26  O4  UNL     1      10.105 -15.801 -18.026  1.00  0.00    -0.364 OA
ATOM     27  H4  UNL     1      10.002 -16.556 -17.460  1.00  0.00     0.217 HD
ENDBRANCH  15  26
TORSDOF 5
ENDMDL
MODEL 3
REMARK VINA RESULT: -7.100893317      3.197      7.167
REMARK  5 active torsions:
REMARK  status: ('A' for Active; 'I' for Inactive)
REMARK    1  A    between atoms: C2_2  and  C4_4 
REMARK    2  A    between atoms: C4_4  and  C5_5 
REMARK    3  A    between atoms: C6_6  and  C7_7 
REMARK    4  A    between atoms: C8_8  and  C9_9 
REMARK    5  A    between atoms: C20_23  and  O4_24 
ROOT
HETATM    1  C9  UNL     1      10.020 -13.221 -18.259  1.00  0.00     0.072 C 
HETATM    2  C10 UNL     1       9.966 -13.302 -19.709  1.00  0.00     0.099 C 
HETATM    3  C11 UNL     1      11.241 -13.079 -20.518  1.00  0.00     0.194 C 
HETATM    4  O1  UNL     1      11.108 -13.203 -21.713  1.00  0.00    -0.292 OA
HETATM    5  C12 UNL     1      12.498 -12.749 -19.918  1.00  0.00     0.285 C 
HETATM    6  C13 UNL     1      12.481 -11.317 -19.490  1.00  0.00     0.094 C 
HETATM    7  O2  UNL     1      13.751 -12.957 -20.435  1.00  0.00    -0.187 OA
HETATM    8  O3  UNL     1      14.552 -13.018 -19.332  1.00  0.00    -0.195 OA
HETATM    9  C14 UNL     1      14.377 -14.196 -18.592  1.00  0.00     0.226 C 
HETATM   10  C15 UNL     1      15.570 -15.077 -18.569  1.00  0.00     0.085 C 
HETATM   11  C16 UNL     1      13.772 -13.981 -17.185  1.00  0.00     0.078 C 
HETATM   12  C17 UNL     1      12.661 -14.961 -16.858  1.00  0.00     0.042 C 
HETATM   13  C18 UNL     1      11.340 -14.442 -16.403  1.00  0.00    -0.054 C 
HETATM   14  C19 UNL     1      11.396 -13.189 -15.599  1.00  0.00     0.046 C 
HETATM   15  C20 UNL     1      10.183 -14.441 -17.392  1.00  0.00     0.053 C 
HETATM   16  O5  UNL     1      13.270 -14.798 -19.264  1.00  0.00    -0.195 OA
HETATM   17  O6  UNL     1      12.513 -13.738 -19.026  1.00  0.00    -0.187 OA
ENDROOT
BRANCH   1  18
HETATM   18  C8  UNL     1       8.771 -12.489 -17.808  1.00  0.00    -0.015 C 
HETATM   19  C7  UNL     1       8.758 -11.320 -17.267  1.00  0.00    -0.004 C 
BRANCH  19  20
HETATM   20  C6  UNL     1       7.475 -10.706 -16.864  1.00  0.00    -0.004 C 
HETATM   21  C5  UNL     1       6.601 -11.338 -16.113  1.00  0.00    -0.026 C 
BRANCH  21  22
HETATM   22  C4  UNL     1       5.333 -10.681 -15.737  1.00  0.00     0.031 C 
BRANCH  22  23
HETATM   23  C2  UNL     1       4.199 -11.703 -15.687  1.00  0.00    -0.019 C 
HETATM   24  C1  UNL     1       3.687 -11.751 -14.262  1.00  0.00     0.010 C 
HETATM   25  C3  UNL     1       4.759 -13.061 -16.047  1.00  0.00     0.010 C 
ENDBRANCH  22  23
ENDBRANCH  21  22
ENDBRANCH  19  20
ENDBRANCH   1  18
BRANCH  15  26
HETATM   26  O4  UNL     1       9.992 -15.653 -18.024  1.00  0.00    -0.364 OA
ATOM     27  H4  UNL     1      10.550 -16.363 -17.728  1.00  0.00     0.217 HD
ENDBRANCH  15  26
TORSDOF 5
ENDMDL
MODEL 4
REMARK VINA RESULT: -6.957740437      1.563      2.018
REMARK  5 active torsions:
REMARK  status: ('A' for Active; 'I' for Inactive)
REMARK    1  A    between atoms: C2_2  and  C4_4 
REMARK    2  A    between atoms: C4_4  and  C5_5 
REMARK    3  A    between atoms: C6_6  and  C7_7 
REMARK    4  A    between atoms: C8_8  and  C9_9 
REMARK    5  A    between atoms: C20_23  and  O4_24 
ROOT
HETATM    1  C9  UNL     1      10.996 -12.593 -18.007  1.00  0.00     0.072 C 
HETATM    2  C10 UNL     1       9.709 -11.918 -17.991  1.00  0.00     0.099 C 
HETATM    3  C11 UNL     1       8.432 -12.745 -17.871  1.00  0.00     0.194 C 
HETATM    4  O1  UNL     1       7.414 -12.097 -17.827  1.00  0.00    -0.292 OA
HETATM    5  C12 UNL     1       8.432 -14.176 -17.813  1.00  0.00     0.285 C 
HETATM    6  C13 UNL     1       8.698 -14.725 -19.177  1.00  0.00     0.094 C 
HETATM    7  O2  UNL     1       7.468 -14.990 -17.277  1.00  0.00    -0.187 OA
HETATM    8  O3  UNL     1       8.146 -16.130 -16.957  1.00  0.00    -0.195 OA
HETATM    9  C14 UNL     1       8.996 -15.971 -15.853  1.00  0.00     0.226 C 
HETATM   10  C15 UNL     1       8.608 -16.779 -14.671  1.00  0.00     0.085 C 
HETATM   11  C16 UNL     1      10.501 -16.093 -16.186  1.00  0.00     0.078 C 
HETATM   12  C17 UNL     1      11.342 -15.002 -15.549  1.00  0.00     0.042 C 
HETATM   13  C18 UNL     1      12.250 -14.186 -16.405  1.00  0.00    -0.054 C 
HETATM   14  C19 UNL     1      12.844 -14.909 -17.565  1.00  0.00     0.046 C 
HETATM   15  C20 UNL     1      11.827 -12.770 -16.763  1.00  0.00     0.053 C 
HETATM   16  O5  UNL     1       8.894 -14.567 -15.610  1.00  0.00    -0.195 OA
HETATM   17  O6  UNL     1       9.325 -14.296 -16.833  1.00  0.00    -0.187 OA
ENDROOT
BRANCH   1  18
HETATM   18  C8  UNL     1      11.851 -11.896 -19.047  1.00  0.00    -0.015 C 
HETATM   19  C7  UNL     1      12.241 -12.426 -20.155  1.00  0.00    -0.004 C 
BRANCH  19  20
HETATM   20  C6  UNL     1      13.078 -11.647 -21.092  1.00  0.00    -0.004 C 
HETATM   21  C5  UNL     1      14.104 -10.933 -20.688  1.00  0.00    -0.026 C 
BRANCH  21  22
HETATM   22  C4  UNL     1      14.909 -10.172 -21.665  1.00  0.00     0.031 C 
BRANCH  22  23
HETATM   23  C2  UNL     1      15.481  -8.912 -21.017  1.00  0.00    -0.019 C 
HETATM   24  C1  UNL     1      15.957  -9.287 -19.629  1.00  0.00     0.010 C 
HETATM   25  C3  UNL     1      14.372  -7.892 -20.889  1.00  0.00     0.010 C 
ENDBRANCH  22  23
ENDBRANCH  21  22
ENDBRANCH  19  20
ENDBRANCH   1  18
BRANCH  15  26
HETATM   26  O4  UNL     1      11.441 -12.013 -15.675  1.00  0.00    -0.364 OA
ATOM     27  H4  UNL     1      12.126 -11.491 -15.275  1.00  0.00     0.217 HD
ENDBRANCH  15  26
TORSDOF 5
ENDMDL
MODEL 5
REMARK VINA RESULT: -6.944334171      1.118      1.287
REMARK  5 active torsions:
REMARK  status: ('A' for Active; 'I' for Inactive)
REMARK    1  A    between atoms: C2_2  and  C4_4 
REMARK    2  A    between atoms: C4_4  and  C5_5 
REMARK    3  A    between atoms: C6_6  and  C7_7 
REMARK    4  A    between atoms: C8_8  and  C9_9 
REMARK    5  A    between atoms: C20_23  and  O4_24 
ROOT
HETATM    1  C9  UNL     1      10.942 -12.795 -17.688  1.00  0.00     0.072 C 
HETATM    2  C10 UNL     1       9.758 -11.959 -17.790  1.00  0.00     0.099 C 
HETATM    3  C11 UNL     1       8.386 -12.619 -17.912  1.00  0.00     0.194 C 
HETATM    4  O1  UNL     1       7.458 -11.847 -17.953  1.00  0.00    -0.292 OA
HETATM    5  C12 UNL     1       8.206 -14.038 -17.973  1.00  0.00     0.285 C 
HETATM    6  C13 UNL     1       8.598 -14.528 -19.330  1.00  0.00     0.094 C 
HETATM    7  O2  UNL     1       7.084 -14.752 -17.642  1.00  0.00    -0.187 OA
HETATM    8  O3  UNL     1       7.566 -15.989 -17.329  1.00  0.00    -0.195 OA
HETATM    9  C14 UNL     1       8.260 -16.015 -16.111  1.00  0.00     0.226 C 
HETATM   10  C15 UNL     1       7.611 -16.840 -15.062  1.00  0.00     0.085 C 
HETATM   11  C16 UNL     1       9.773 -16.310 -16.246  1.00  0.00     0.078 C 
HETATM   12  C17 UNL     1      10.638 -15.383 -15.413  1.00  0.00     0.042 C 
HETATM   13  C18 UNL     1      11.751 -14.639 -16.068  1.00  0.00    -0.054 C 
HETATM   14  C19 UNL     1      12.415 -15.356 -17.193  1.00  0.00     0.046 C 
HETATM   15  C20 UNL     1      11.558 -13.159 -16.362  1.00  0.00     0.053 C 
HETATM   16  O5  UNL     1       8.294 -14.629 -15.768  1.00  0.00    -0.195 OA
HETATM   17  O6  UNL     1       8.927 -14.337 -16.895  1.00  0.00    -0.187 OA
ENDROOT
BRANCH   1  18
HETATM   18  C8  UNL     1      12.017 -12.150 -18.542  1.00  0.00    -0.015 C 
HETATM   19  C7  UNL     1      11.909 -11.001 -19.116  1.00  0.00    -0.004 C 
BRANCH  19  20
HETATM   20  C6  UNL     1      13.026 -10.475 -19.929  1.00  0.00    -0.004 C 
HETATM   21  C5  UNL     1      13.854 -11.263 -20.577  1.00  0.00    -0.026 C 
BRANCH  21  22
HETATM   22  C4  UNL     1      14.954 -10.687 -21.377  1.00  0.00     0.031 C 
BRANCH  22  23
HETATM   23  C2  UNL     1      16.301 -11.221 -20.891  1.00  0.00    -0.019 C 
HETATM   24  C1  UNL     1      16.044 -12.534 -20.179  1.00  0.00     0.010 C 
HETATM   25  C3  UNL     1      16.878 -10.238 -19.898  1.00  0.00     0.010 C 
ENDBRANCH  22  23
ENDBRANCH  21  22
ENDBRANCH  19  20
ENDBRANCH   1  18
BRANCH  15  26
HETATM   26  O4  UNL     1      11.112 -12.430 -15.277  1.00  0.00    -0.364 OA
ATOM     27  H4  UNL     1      10.822 -12.941 -14.531  1.00  0.00     0.217 HD
ENDBRANCH  15  26
TORSDOF 5
ENDMDL
