MODEL 1
REMARK VINA RESULT: -7.317082995      0.000      0.000
REMARK  6 active torsions:
REMARK  status: ('A' for Active; 'I' for Inactive)
REMARK    1  A    between atoms: C2_2  and  O1_3 
REMARK    2  A    between atoms: O1_3  and  C3_4 
REMARK    3  A    between atoms: C3_4  and  C4_6 
REMARK    4  A    between atoms: C4_6  and  S1_7 
REMARK    5  A    between atoms: S1_7  and  C5_8 
REMARK    6  A    between atoms: C19_25  and  O3_26 
ROOT
HETATM    1  C5  UNL     1      14.650 -14.014 -18.942  1.00  0.00     0.091 A 
HETATM    2  N1  UNL     1      15.892 -14.022 -18.426  1.00  0.00    -0.359 N 
ATOM      3  H1  UNL     1      16.206 -14.837 -17.900  1.00  0.00     0.166 HD
HETATM    4  C6  UNL     1      16.729 -12.984 -18.585  1.00  0.00     0.099 A 
HETATM    5  C7  UNL     1      16.363 -11.833 -19.294  1.00  0.00    -0.006 A 
HETATM    6  C8  UNL     1      15.104 -11.777 -19.838  1.00  0.00    -0.016 A 
HETATM    7  C9  UNL     1      14.267 -12.890 -19.646  1.00  0.00     0.085 A 
HETATM    8  C10 UNL     1      12.959 -12.922 -20.220  1.00  0.00     0.103 C 
HETATM    9  N2  UNL     1      11.894 -12.979 -20.691  1.00  0.00    -0.191 NA
HETATM   10  C11 UNL     1      14.624 -10.598 -20.593  1.00  0.00    -0.011 C 
HETATM   11  C12 UNL     1      14.380 -10.932 -22.054  1.00  0.00     0.021 C 
HETATM   12  C13 UNL     1      13.368 -10.067 -19.943  1.00  0.00     0.014 C 
HETATM   13  C14 UNL     1      13.447  -8.598 -19.578  1.00  0.00     0.001 C 
HETATM   14  C15 UNL     1      13.992  -7.722 -20.653  1.00  0.00     0.000 C 
HETATM   15  C16 UNL     1      15.270  -8.271 -21.264  1.00  0.00     0.006 C 
HETATM   16  C17 UNL     1      15.645  -9.495 -20.465  1.00  0.00     0.001 C 
HETATM   17  C18 UNL     1      17.021 -10.003 -20.725  1.00  0.00     0.042 C 
HETATM   18  C19 UNL     1      17.387 -10.767 -19.433  1.00  0.00     0.153 C 
ENDROOT
BRANCH   1  19
HETATM   19  S1  UNL     1      13.534 -15.393 -18.733  1.00  0.00    -0.101 SA
BRANCH  19  20
HETATM   20  C4  UNL     1      12.794 -15.457 -17.105  1.00  0.00     0.191 C 
BRANCH  20  21
HETATM   21  C3  UNL     1      13.208 -14.254 -16.340  1.00  0.00     0.268 C 
HETATM   22  O2  UNL     1      14.318 -14.302 -15.723  1.00  0.00    -0.264 OA
BRANCH  21  23
HETATM   23  O1  UNL     1      12.490 -13.088 -16.244  1.00  0.00    -0.321 OA
BRANCH  23  24
HETATM   24  C2  UNL     1      11.241 -12.826 -16.816  1.00  0.00     0.174 C 
HETATM   25  C1  UNL     1      11.072 -11.417 -17.299  1.00  0.00     0.034 C 
ENDBRANCH  23  24
ENDBRANCH  21  23
ENDBRANCH  20  21
ENDBRANCH  19  20
ENDBRANCH   1  19
BRANCH  18  26
HETATM   26  O3  UNL     1      18.660 -11.294 -19.648  1.00  0.00    -0.391 OA
ATOM     27  H3  UNL     1      18.968 -11.123 -20.531  1.00  0.00     0.210 HD
ENDBRANCH  18  26
TORSDOF 6
ENDMDL
MODEL 2
REMARK VINA RESULT: -7.236064153      0.862      1.797
REMARK  6 active torsions:
REMARK  status: ('A' for Active; 'I' for Inactive)
REMARK    1  A    between atoms: C2_2  and  O1_3 
REMARK    2  A    between atoms: O1_3  and  C3_4 
REMARK    3  A    between atoms: C3_4  and  C4_6 
REMARK    4  A    between atoms: C4_6  and  S1_7 
REMARK    5  A    between atoms: S1_7  and  C5_8 
REMARK    6  A    between atoms: C19_25  and  O3_26 
ROOT
HETATM    1  C5  UNL     1      14.545 -13.987 -18.981  1.00  0.00     0.091 A 
HETATM    2  N1  UNL     1      15.777 -14.025 -18.445  1.00  0.00    -0.359 N 
ATOM      3  H1  UNL     1      16.061 -14.846 -17.910  1.00  0.00     0.166 HD
HETATM    4  C6  UNL     1      16.645 -13.012 -18.595  1.00  0.00     0.099 A 
HETATM    5  C7  UNL     1      16.321 -11.855 -19.316  1.00  0.00    -0.006 A 
HETATM    6  C8  UNL     1      15.074 -11.768 -19.880  1.00  0.00    -0.016 A 
HETATM    7  C9  UNL     1      14.203 -12.856 -19.696  1.00  0.00     0.085 A 
HETATM    8  C10 UNL     1      12.904 -12.856 -20.291  1.00  0.00     0.103 C 
HETATM    9  N2  UNL     1      11.846 -12.887 -20.778  1.00  0.00    -0.191 NA
HETATM   10  C11 UNL     1      14.638 -10.580 -20.649  1.00  0.00    -0.011 C 
HETATM   11  C12 UNL     1      14.408 -10.916 -22.112  1.00  0.00     0.021 C 
HETATM   12  C13 UNL     1      13.386 -10.011 -20.021  1.00  0.00     0.014 C 
HETATM   13  C14 UNL     1      13.500  -8.543 -19.662  1.00  0.00     0.001 C 
HETATM   14  C15 UNL     1      14.085  -7.688 -20.733  1.00  0.00     0.000 C 
HETATM   15  C16 UNL     1      15.357  -8.275 -21.320  1.00  0.00     0.006 C 
HETATM   16  C17 UNL     1      15.686  -9.505 -20.510  1.00  0.00     0.001 C 
HETATM   17  C18 UNL     1      17.052 -10.051 -20.745  1.00  0.00     0.042 C 
HETATM   18  C19 UNL     1      17.376 -10.818 -19.443  1.00  0.00     0.153 C 
ENDROOT
BRANCH   1  19
HETATM   19  S1  UNL     1      13.388 -15.334 -18.783  1.00  0.00    -0.101 SA
BRANCH  19  20
HETATM   20  C4  UNL     1      12.305 -15.127 -17.373  1.00  0.00     0.191 C 
BRANCH  20  21
HETATM   21  C3  UNL     1      12.975 -14.259 -16.373  1.00  0.00     0.268 C 
HETATM   22  O2  UNL     1      12.419 -13.152 -16.089  1.00  0.00    -0.264 OA
BRANCH  21  23
HETATM   23  O1  UNL     1      14.149 -14.554 -15.725  1.00  0.00    -0.321 OA
BRANCH  23  24
HETATM   24  C2  UNL     1      14.466 -15.750 -15.075  1.00  0.00     0.174 C 
HETATM   25  C1  UNL     1      15.354 -16.662 -15.868  1.00  0.00     0.034 C 
ENDBRANCH  23  24
ENDBRANCH  21  23
ENDBRANCH  20  21
ENDBRANCH  19  20
ENDBRANCH   1  19
BRANCH  18  26
HETATM   26  O3  UNL     1      18.637 -11.380 -19.636  1.00  0.00    -0.391 OA
ATOM     27  H3  UNL     1      18.756 -12.170 -19.121  1.00  0.00     0.210 HD
ENDBRANCH  18  26
TORSDOF 6
ENDMDL
MODEL 3
REMARK VINA RESULT: -6.940635894      1.647      2.620
REMARK  6 active torsions:
REMARK  status: ('A' for Active; 'I' for Inactive)
REMARK    1  A    between atoms: C2_2  and  O1_3 
REMARK    2  A    between atoms: O1_3  and  C3_4 
REMARK    3  A    between atoms: C3_4  and  C4_6 
REMARK    4  A    between atoms: C4_6  and  S1_7 
REMARK    5  A    between atoms: S1_7  and  C5_8 
REMARK    6  A    between atoms: C19_25  and  O3_26 
ROOT
HETATM    1  C5  UNL     1      14.888 -14.030 -18.860  1.00  0.00     0.091 A 
HETATM    2  N1  UNL     1      16.134 -13.955 -18.361  1.00  0.00    -0.359 N 
ATOM      3  H1  UNL     1      16.506 -14.745 -17.833  1.00  0.00     0.166 HD
HETATM    4  C6  UNL     1      16.903 -12.869 -18.539  1.00  0.00     0.099 A 
HETATM    5  C7  UNL     1      16.456 -11.750 -19.252  1.00  0.00    -0.006 A 
HETATM    6  C8  UNL     1      15.189 -11.777 -19.779  1.00  0.00    -0.016 A 
HETATM    7  C9  UNL     1      14.425 -12.938 -19.567  1.00  0.00     0.085 A 
HETATM    8  C10 UNL     1      13.114 -13.056 -20.123  1.00  0.00     0.103 C 
HETATM    9  N2  UNL     1      12.050 -13.184 -20.578  1.00  0.00    -0.191 NA
HETATM   10  C11 UNL     1      14.627 -10.636 -20.537  1.00  0.00    -0.011 C 
HETATM   11  C12 UNL     1      14.384 -10.998 -21.992  1.00  0.00     0.021 C 
HETATM   12  C13 UNL     1      13.348 -10.179 -19.873  1.00  0.00     0.014 C 
HETATM   13  C14 UNL     1      13.340  -8.705 -19.521  1.00  0.00     0.001 C 
HETATM   14  C15 UNL     1      13.815  -7.806 -20.611  1.00  0.00     0.000 C 
HETATM   15  C16 UNL     1      15.116  -8.280 -21.235  1.00  0.00     0.006 C 
HETATM   16  C17 UNL     1      15.577  -9.472 -20.432  1.00  0.00     0.001 C 
HETATM   17  C18 UNL     1      16.980  -9.894 -20.706  1.00  0.00     0.042 C 
HETATM   18  C19 UNL     1      17.409 -10.623 -19.413  1.00  0.00     0.153 C 
ENDROOT
BRANCH   1  19
HETATM   19  S1  UNL     1      13.863 -15.474 -18.624  1.00  0.00    -0.101 SA
BRANCH  19  20
HETATM   20  C4  UNL     1      13.768 -15.997 -16.915  1.00  0.00     0.191 C 
BRANCH  20  21
HETATM   21  C3  UNL     1      15.039 -16.668 -16.545  1.00  0.00     0.268 C 
HETATM   22  O2  UNL     1      16.018 -15.930 -16.210  1.00  0.00    -0.264 OA
BRANCH  21  23
HETATM   23  O1  UNL     1      15.246 -18.025 -16.533  1.00  0.00    -0.321 OA
BRANCH  23  24
HETATM   24  C2  UNL     1      14.518 -18.975 -15.810  1.00  0.00     0.174 C 
HETATM   25  C1  UNL     1      14.434 -18.693 -14.340  1.00  0.00     0.034 C 
ENDBRANCH  23  24
ENDBRANCH  21  23
ENDBRANCH  20  21
ENDBRANCH  19  20
ENDBRANCH   1  19
BRANCH  18  26
HETATM   26  O3  UNL     1      18.709 -11.071 -19.643  1.00  0.00    -0.391 OA
ATOM     27  H3  UNL     1      19.356 -10.505 -19.236  1.00  0.00     0.210 HD
ENDBRANCH  18  26
TORSDOF 6
ENDMDL
MODEL 4
REMARK VINA RESULT: -6.852063682      2.032      5.798
REMARK  6 active torsions:
REMARK  status: ('A' for Active; 'I' for Inactive)
REMARK    1  A    between atoms: C2_2  and  O1_3 
REMARK    2  A    between atoms: O1_3  and  C3_4 
REMARK    3  A    between atoms: C3_4  and  C4_6 
REMARK    4  A    between atoms: C4_6  and  S1_7 
REMARK    5  A    between atoms: S1_7  and  C5_8 
REMARK    6  A    between atoms: C19_25  and  O3_26 
ROOT
HETATM    1  C5  UNL     1      14.284 -13.759 -18.191  1.00  0.00     0.091 A 
HETATM    2  N1  UNL     1      14.189 -14.320 -16.973  1.00  0.00    -0.359 N 
ATOM      3  H1  UNL     1      15.012 -14.767 -16.567  1.00  0.00     0.166 HD
HETATM    4  C6  UNL     1      13.042 -14.308 -16.276  1.00  0.00     0.099 A 
HETATM    5  C7  UNL     1      11.876 -13.713 -16.773  1.00  0.00    -0.006 A 
HETATM    6  C8  UNL     1      11.921 -13.128 -18.013  1.00  0.00    -0.016 A 
HETATM    7  C9  UNL     1      13.146 -13.166 -18.701  1.00  0.00     0.085 A 
HETATM    8  C10 UNL     1      13.281 -12.540 -19.979  1.00  0.00     0.103 C 
HETATM    9  N2  UNL     1      13.421 -12.024 -21.014  1.00  0.00    -0.191 NA
HETATM   10  C11 UNL     1      10.735 -12.486 -18.625  1.00  0.00    -0.011 C 
HETATM   11  C12 UNL     1      10.933 -10.989 -18.786  1.00  0.00     0.021 C 
HETATM   12  C13 UNL     1      10.446 -13.139 -19.957  1.00  0.00     0.014 C 
HETATM   13  C14 UNL     1       9.029 -13.663 -20.081  1.00  0.00     0.001 C 
HETATM   14  C15 UNL     1       7.976 -12.711 -19.629  1.00  0.00     0.000 C 
HETATM   15  C16 UNL     1       8.285 -12.096 -18.275  1.00  0.00     0.006 C 
HETATM   16  C17 UNL     1       9.533 -12.772 -17.763  1.00  0.00     0.001 C 
HETATM   17  C18 UNL     1       9.827 -12.515 -16.325  1.00  0.00     0.042 C 
HETATM   18  C19 UNL     1      10.678 -13.730 -15.895  1.00  0.00     0.153 C 
ENDROOT
BRANCH   1  19
HETATM   19  S1  UNL     1      15.809 -13.774 -19.121  1.00  0.00    -0.101 SA
BRANCH  19  20
HETATM   20  C4  UNL     1      16.847 -12.354 -18.790  1.00  0.00     0.191 C 
BRANCH  20  21
HETATM   21  C3  UNL     1      16.782 -11.429 -19.949  1.00  0.00     0.268 C 
HETATM   22  O2  UNL     1      16.807 -11.940 -21.112  1.00  0.00    -0.264 OA
BRANCH  21  23
HETATM   23  O1  UNL     1      16.695 -10.061 -19.869  1.00  0.00    -0.321 OA
BRANCH  23  24
HETATM   24  C2  UNL     1      15.526  -9.295 -19.898  1.00  0.00     0.174 C 
HETATM   25  C1  UNL     1      15.169  -8.774 -21.257  1.00  0.00     0.034 C 
ENDBRANCH  23  24
ENDBRANCH  21  23
ENDBRANCH  20  21
ENDBRANCH  19  20
ENDBRANCH   1  19
BRANCH  18  26
HETATM   26  O3  UNL     1      11.010 -13.510 -14.559  1.00  0.00    -0.391 OA
ATOM     27  H3  UNL     1      10.238 -13.381 -14.019  1.00  0.00     0.210 HD
ENDBRANCH  18  26
TORSDOF 6
ENDMDL
MODEL 5
REMARK VINA RESULT: -6.690696284      3.306      6.910
REMARK  6 active torsions:
REMARK  status: ('A' for Active; 'I' for Inactive)
REMARK    1  A    between atoms: C2_2  and  O1_3 
REMARK    2  A    between atoms: O1_3  and  C3_4 
REMARK    3  A    between atoms: C3_4  and  C4_6 
REMARK    4  A    between atoms: C4_6  and  S1_7 
REMARK    5  A    between atoms: S1_7  and  C5_8 
REMARK    6  A    between atoms: C19_25  and  O3_26 
ROOT
HETATM    1  C5  UNL     1      12.193 -13.253 -19.268  1.00  0.00     0.091 A 
HETATM    2  N1  UNL     1      11.694 -13.570 -20.476  1.00  0.00    -0.359 N 
ATOM      3  H1  UNL     1      12.337 -13.812 -21.231  1.00  0.00     0.166 HD
HETATM    4  C6  UNL     1      10.373 -13.577 -20.716  1.00  0.00     0.099 A 
HETATM    5  C7  UNL     1       9.436 -13.254 -19.726  1.00  0.00    -0.006 A 
HETATM    6  C8  UNL     1       9.896 -12.922 -18.477  1.00  0.00    -0.016 A 
HETATM    7  C9  UNL     1      11.287 -12.932 -18.277  1.00  0.00     0.085 A 
HETATM    8  C10 UNL     1      11.838 -12.639 -16.991  1.00  0.00     0.103 C 
HETATM    9  N2  UNL     1      12.311 -12.419 -15.950  1.00  0.00    -0.191 NA
HETATM   10  C11 UNL     1       8.981 -12.555 -17.373  1.00  0.00    -0.011 C 
HETATM   11  C12 UNL     1       9.025 -13.576 -16.249  1.00  0.00     0.021 C 
HETATM   12  C13 UNL     1       9.339 -11.177 -16.865  1.00  0.00     0.014 C 
HETATM   13  C14 UNL     1       8.174 -10.207 -16.867  1.00  0.00     0.001 C 
HETATM   14  C15 UNL     1       6.912 -10.756 -16.297  1.00  0.00     0.000 C 
HETATM   15  C16 UNL     1       6.567 -12.128 -16.851  1.00  0.00     0.006 C 
HETATM   16  C17 UNL     1       7.583 -12.433 -17.924  1.00  0.00     0.001 C 
HETATM   17  C18 UNL     1       7.240 -13.602 -18.784  1.00  0.00     0.042 C 
HETATM   18  C19 UNL     1       8.001 -13.332 -20.101  1.00  0.00     0.153 C 
ENDROOT
BRANCH   1  19
HETATM   19  S1  UNL     1      13.950 -13.243 -18.947  1.00  0.00    -0.101 SA
BRANCH  19  20
HETATM   20  C4  UNL     1      14.897 -12.449 -20.242  1.00  0.00     0.191 C 
BRANCH  20  21
HETATM   21  C3  UNL     1      14.240 -11.167 -20.602  1.00  0.00     0.268 C 
HETATM   22  O2  UNL     1      13.523 -11.148 -21.651  1.00  0.00    -0.264 OA
BRANCH  21  23
HETATM   23  O1  UNL     1      14.343  -9.996 -19.893  1.00  0.00    -0.321 OA
BRANCH  23  24
HETATM   24  C2  UNL     1      15.099  -8.872 -20.241  1.00  0.00     0.174 C 
HETATM   25  C1  UNL     1      14.281  -7.698 -20.685  1.00  0.00     0.034 C 
ENDBRANCH  23  24
ENDBRANCH  21  23
ENDBRANCH  20  21
ENDBRANCH  19  20
ENDBRANCH   1  19
BRANCH  18  26
HETATM   26  O3  UNL     1       7.737 -14.426 -20.924  1.00  0.00    -0.391 OA
ATOM     27  H3  UNL     1       7.669 -14.173 -21.837  1.00  0.00     0.210 HD
ENDBRANCH  18  26
TORSDOF 6
ENDMDL
