MODEL 1
REMARK VINA RESULT: -7.503916173      0.000      0.000
REMARK  6 active torsions:
REMARK  status: ('A' for Active; 'I' for Inactive)
REMARK    1  A    between atoms: S1_2  and  C2_3 
REMARK    2  A    between atoms: C3_6  and  S2_7 
REMARK    3  A    between atoms: S2_7  and  C4_8 
REMARK    4  A    between atoms: C4_8  and  C5_9 
REMARK       I    between atoms: C5_9  and  N2_11 
REMARK    5  A    between atoms: N3_13  and  C6_15 
REMARK    6  A    between atoms: C9_18  and  C10_19 
ROOT
HETATM    1  C2  UNL     1      13.546 -10.990 -20.469  1.00  0.00     0.091 A 
HETATM    2  N1  UNL     1      13.002 -12.173 -20.199  1.00  0.00    -0.344 N 
ATOM      3  H1  UNL     1      13.386 -13.009 -20.639  1.00  0.00     0.167 HD
HETATM    4  C3  UNL     1      11.956 -12.297 -19.357  1.00  0.00     0.078 A 
HETATM    5  C9  UNL     1      11.400 -11.157 -18.741  1.00  0.00    -0.009 A 
HETATM    6  C14 UNL     1      11.928  -9.917 -18.990  1.00  0.00    -0.029 A 
HETATM    7  C15 UNL     1      11.424  -8.707 -18.368  1.00  0.00     0.050 C 
HETATM    8  C16 UNL     1      13.016  -9.868 -19.870  1.00  0.00     0.084 A 
HETATM    9  C17 UNL     1      13.603  -8.563 -20.125  1.00  0.00     0.103 C 
HETATM   10  N4  UNL     1      14.073  -7.503 -20.353  1.00  0.00    -0.191 NA
ENDROOT
BRANCH   1  11
HETATM   11  S1  UNL     1      14.975 -10.794 -21.522  1.00  0.00    -0.115 SA
HETATM   12  C1  UNL     1      16.336 -11.862 -20.966  1.00  0.00     0.097 C 
ENDBRANCH   1  11
BRANCH   5  13
HETATM   13  C10 UNL     1      10.266 -11.405 -17.897  1.00  0.00    -0.021 C 
HETATM   14  C11 UNL     1       9.341 -10.327 -17.466  1.00  0.00     0.019 C 
HETATM   15  C12 UNL     1      10.611 -12.161 -16.591  1.00  0.00     0.019 C 
HETATM   16  C13 UNL     1       9.316 -12.324 -18.724  1.00  0.00     0.019 C 
ENDBRANCH   5  13
BRANCH   4  17
HETATM   17  S2  UNL     1      11.421 -13.934 -18.968  1.00  0.00    -0.102 SA
BRANCH  17  18
HETATM   18  C4  UNL     1      12.502 -14.686 -17.756  1.00  0.00     0.185 C 
BRANCH  18  19
HETATM   19  C5  UNL     1      13.950 -14.715 -18.178  1.00  0.00     0.245 C 
HETATM   20  O1  UNL     1      14.202 -14.901 -19.425  1.00  0.00    -0.271 OA
HETATM   21  N2  UNL     1      14.935 -14.546 -17.220  1.00  0.00    -0.273 N 
HETATM   22  N3  UNL     1      15.210 -15.236 -16.280  1.00  0.00    -0.330 N 
ATOM     23  H2  UNL     1      15.512 -13.712 -17.331  1.00  0.00     0.189 HD
ATOM     24  H3  UNL     1      15.992 -14.862 -15.743  1.00  0.00     0.180 HD
BRANCH  22  25
HETATM   25  C6  UNL     1      14.728 -16.412 -15.746  1.00  0.00     0.091 C 
HETATM   26  C7  UNL     1      15.122 -17.713 -16.470  1.00  0.00     0.033 C 
HETATM   27  C8  UNL     1      15.224 -16.596 -14.305  1.00  0.00     0.033 C 
ENDBRANCH  22  25
ENDBRANCH  18  19
ENDBRANCH  17  18
ENDBRANCH   4  17
TORSDOF 6
ENDMDL
MODEL 2
REMARK VINA RESULT: -7.447830356      1.603      2.257
REMARK  6 active torsions:
REMARK  status: ('A' for Active; 'I' for Inactive)
REMARK    1  A    between atoms: S1_2  and  C2_3 
REMARK    2  A    between atoms: C3_6  and  S2_7 
REMARK    3  A    between atoms: S2_7  and  C4_8 
REMARK    4  A    between atoms: C4_8  and  C5_9 
REMARK       I    between atoms: C5_9  and  N2_11 
REMARK    5  A    between atoms: N3_13  and  C6_15 
REMARK    6  A    between atoms: C9_18  and  C10_19 
ROOT
HETATM    1  C2  UNL     1      14.924 -10.959 -20.162  1.00  0.00     0.091 A 
HETATM    2  N1  UNL     1      14.925 -12.279 -20.001  1.00  0.00    -0.344 N 
ATOM      3  H1  UNL     1      15.764 -12.807 -20.242  1.00  0.00     0.167 HD
HETATM    4  C3  UNL     1      13.849 -12.938 -19.527  1.00  0.00     0.078 A 
HETATM    5  C9  UNL     1      12.674 -12.233 -19.194  1.00  0.00    -0.009 A 
HETATM    6  C14 UNL     1      12.625 -10.872 -19.343  1.00  0.00    -0.029 A 
HETATM    7  C15 UNL     1      11.460 -10.082 -18.992  1.00  0.00     0.050 C 
HETATM    8  C16 UNL     1      13.784 -10.257 -19.836  1.00  0.00     0.084 A 
HETATM    9  C17 UNL     1      13.757  -8.811 -19.976  1.00  0.00     0.103 C 
HETATM   10  N4  UNL     1      13.735  -7.637 -20.112  1.00  0.00    -0.191 NA
ENDROOT
BRANCH   1  11
HETATM   11  S1  UNL     1      16.352 -10.044 -20.720  1.00  0.00    -0.115 SA
HETATM   12  C1  UNL     1      17.823 -10.497 -19.755  1.00  0.00     0.097 C 
ENDBRANCH   1  11
BRANCH   5  13
HETATM   13  C10 UNL     1      11.580 -13.042 -18.737  1.00  0.00    -0.021 C 
HETATM   14  C11 UNL     1      11.759 -14.446 -18.289  1.00  0.00     0.019 C 
HETATM   15  C12 UNL     1      10.391 -13.103 -19.726  1.00  0.00     0.019 C 
HETATM   16  C13 UNL     1      11.062 -12.358 -17.435  1.00  0.00     0.019 C 
ENDBRANCH   5  13
BRANCH   4  17
HETATM   17  S2  UNL     1      14.030 -14.667 -19.222  1.00  0.00    -0.102 SA
BRANCH  17  18
HETATM   18  C4  UNL     1      15.702 -15.053 -18.712  1.00  0.00     0.185 C 
BRANCH  18  19
HETATM   19  C5  UNL     1      16.150 -14.286 -17.493  1.00  0.00     0.245 C 
HETATM   20  O1  UNL     1      17.304 -13.723 -17.535  1.00  0.00    -0.271 OA
HETATM   21  N2  UNL     1      15.313 -14.223 -16.392  1.00  0.00    -0.273 N 
HETATM   22  N3  UNL     1      14.924 -15.104 -15.678  1.00  0.00    -0.330 N 
ATOM     23  H2  UNL     1      14.978 -13.289 -16.152  1.00  0.00     0.189 HD
ATOM     24  H3  UNL     1      14.313 -14.758 -14.938  1.00  0.00     0.180 HD
BRANCH  22  25
HETATM   25  C6  UNL     1      15.099 -16.470 -15.613  1.00  0.00     0.091 C 
HETATM   26  C7  UNL     1      15.127 -17.096 -14.207  1.00  0.00     0.033 C 
HETATM   27  C8  UNL     1      13.965 -17.198 -16.348  1.00  0.00     0.033 C 
ENDBRANCH  22  25
ENDBRANCH  18  19
ENDBRANCH  17  18
ENDBRANCH   4  17
TORSDOF 6
ENDMDL
MODEL 3
REMARK VINA RESULT: -7.384118438      2.926      5.862
REMARK  6 active torsions:
REMARK  status: ('A' for Active; 'I' for Inactive)
REMARK    1  A    between atoms: S1_2  and  C2_3 
REMARK    2  A    between atoms: C3_6  and  S2_7 
REMARK    3  A    between atoms: S2_7  and  C4_8 
REMARK    4  A    between atoms: C4_8  and  C5_9 
REMARK       I    between atoms: C5_9  and  N2_11 
REMARK    5  A    between atoms: N3_13  and  C6_15 
REMARK    6  A    between atoms: C9_18  and  C10_19 
ROOT
HETATM    1  C2  UNL     1      14.425 -15.352 -17.712  1.00  0.00     0.091 A 
HETATM    2  N1  UNL     1      13.110 -15.300 -17.904  1.00  0.00    -0.344 N 
ATOM      3  H1  UNL     1      12.519 -16.017 -17.483  1.00  0.00     0.167 HD
HETATM    4  C3  UNL     1      12.537 -14.326 -18.639  1.00  0.00     0.078 A 
HETATM    5  C9  UNL     1      13.332 -13.327 -19.238  1.00  0.00    -0.009 A 
HETATM    6  C14 UNL     1      14.692 -13.339 -19.069  1.00  0.00    -0.029 A 
HETATM    7  C15 UNL     1      15.565 -12.327 -19.632  1.00  0.00     0.050 C 
HETATM    8  C16 UNL     1      15.213 -14.380 -18.288  1.00  0.00     0.084 A 
HETATM    9  C17 UNL     1      16.651 -14.392 -18.078  1.00  0.00     0.103 C 
HETATM   10  N4  UNL     1      17.822 -14.421 -17.919  1.00  0.00    -0.191 NA
ENDROOT
BRANCH   1  11
HETATM   11  S1  UNL     1      15.212 -16.585 -16.688  1.00  0.00    -0.115 SA
HETATM   12  C1  UNL     1      14.811 -16.318 -14.936  1.00  0.00     0.097 C 
ENDBRANCH   1  11
BRANCH   5  13
HETATM   13  C10 UNL     1      12.618 -12.365 -20.029  1.00  0.00    -0.021 C 
HETATM   14  C11 UNL     1      13.290 -11.502 -21.033  1.00  0.00     0.019 C 
HETATM   15  C12 UNL     1      11.755 -11.387 -19.197  1.00  0.00     0.019 C 
HETATM   16  C13 UNL     1      11.646 -13.192 -20.924  1.00  0.00     0.019 C 
ENDBRANCH   5  13
BRANCH   4  17
HETATM   17  S2  UNL     1      10.773 -14.286 -18.694  1.00  0.00    -0.102 SA
BRANCH  17  18
HETATM   18  C4  UNL     1      10.074 -14.811 -17.132  1.00  0.00     0.185 C 
BRANCH  18  19
HETATM   19  C5  UNL     1      10.370 -13.866 -15.994  1.00  0.00     0.245 C 
HETATM   20  O1  UNL     1      10.684 -14.380 -14.859  1.00  0.00    -0.271 OA
HETATM   21  N2  UNL     1      10.291 -12.501 -16.214  1.00  0.00    -0.273 N 
HETATM   22  N3  UNL     1       9.342 -11.830 -16.507  1.00  0.00    -0.330 N 
ATOM     23  H2  UNL     1      11.169 -11.991 -16.112  1.00  0.00     0.189 HD
ATOM     24  H3  UNL     1       9.582 -10.843 -16.603  1.00  0.00     0.180 HD
BRANCH  22  25
HETATM   25  C6  UNL     1       8.004 -12.065 -16.745  1.00  0.00     0.091 C 
HETATM   26  C7  UNL     1       7.018 -10.977 -16.283  1.00  0.00     0.033 C 
HETATM   27  C8  UNL     1       7.742 -12.223 -18.249  1.00  0.00     0.033 C 
ENDBRANCH  22  25
ENDBRANCH  18  19
ENDBRANCH  17  18
ENDBRANCH   4  17
TORSDOF 6
ENDMDL
MODEL 4
REMARK VINA RESULT: -7.350383273      1.696      2.304
REMARK  6 active torsions:
REMARK  status: ('A' for Active; 'I' for Inactive)
REMARK    1  A    between atoms: S1_2  and  C2_3 
REMARK    2  A    between atoms: C3_6  and  S2_7 
REMARK    3  A    between atoms: S2_7  and  C4_8 
REMARK    4  A    between atoms: C4_8  and  C5_9 
REMARK       I    between atoms: C5_9  and  N2_11 
REMARK    5  A    between atoms: N3_13  and  C6_15 
REMARK    6  A    between atoms: C9_18  and  C10_19 
ROOT
HETATM    1  C2  UNL     1      14.736 -12.189 -19.990  1.00  0.00     0.091 A 
HETATM    2  N1  UNL     1      14.455 -13.338 -19.383  1.00  0.00    -0.344 N 
ATOM      3  H1  UNL     1      15.120 -14.109 -19.448  1.00  0.00     0.167 HD
HETATM    4  C3  UNL     1      13.316 -13.512 -18.683  1.00  0.00     0.078 A 
HETATM    5  C9  UNL     1      12.376 -12.465 -18.584  1.00  0.00    -0.009 A 
HETATM    6  C14 UNL     1      12.622 -11.263 -19.194  1.00  0.00    -0.029 A 
HETATM    7  C15 UNL     1      11.712 -10.136 -19.108  1.00  0.00     0.050 C 
HETATM    8  C16 UNL     1      13.828 -11.157 -19.898  1.00  0.00     0.084 A 
HETATM    9  C17 UNL     1      14.115  -9.879 -20.529  1.00  0.00     0.103 C 
HETATM   10  N4  UNL     1      14.346  -8.850 -21.063  1.00  0.00    -0.191 NA
ENDROOT
BRANCH   1  11
HETATM   11  S1  UNL     1      16.264 -11.899 -20.867  1.00  0.00    -0.115 SA
HETATM   12  C1  UNL     1      17.505 -11.155 -19.768  1.00  0.00     0.097 C 
ENDBRANCH   1  11
BRANCH   5  13
HETATM   13  C10 UNL     1      11.184 -12.777 -17.847  1.00  0.00    -0.021 C 
HETATM   14  C11 UNL     1      10.726 -14.172 -17.626  1.00  0.00     0.019 C 
HETATM   15  C12 UNL     1       9.924 -12.034 -18.352  1.00  0.00     0.019 C 
HETATM   16  C13 UNL     1      11.450 -12.296 -16.389  1.00  0.00     0.019 C 
ENDBRANCH   5  13
BRANCH   4  17
HETATM   17  S2  UNL     1      13.132 -15.031 -17.803  1.00  0.00    -0.102 SA
BRANCH  17  18
HETATM   18  C4  UNL     1      14.092 -15.013 -16.292  1.00  0.00     0.185 C 
BRANCH  18  19
HETATM   19  C5  UNL     1      15.313 -15.898 -16.346  1.00  0.00     0.245 C 
HETATM   20  O1  UNL     1      15.664 -16.359 -17.494  1.00  0.00    -0.271 OA
HETATM   21  N2  UNL     1      15.995 -16.178 -15.175  1.00  0.00    -0.273 N 
HETATM   22  N3  UNL     1      15.625 -16.771 -14.201  1.00  0.00    -0.330 N 
ATOM     23  H2  UNL     1      16.953 -15.829 -15.134  1.00  0.00     0.189 HD
ATOM     24  H3  UNL     1      16.350 -16.826 -13.485  1.00  0.00     0.180 HD
BRANCH  22  25
HETATM   25  C6  UNL     1      14.460 -17.396 -13.810  1.00  0.00     0.091 C 
HETATM   26  C7  UNL     1      14.612 -18.708 -13.018  1.00  0.00     0.033 C 
HETATM   27  C8  UNL     1      13.631 -16.478 -12.900  1.00  0.00     0.033 C 
ENDBRANCH  22  25
ENDBRANCH  18  19
ENDBRANCH  17  18
ENDBRANCH   4  17
TORSDOF 6
ENDMDL
MODEL 5
REMARK VINA RESULT: -7.337828775      2.085      3.378
REMARK  6 active torsions:
REMARK  status: ('A' for Active; 'I' for Inactive)
REMARK    1  A    between atoms: S1_2  and  C2_3 
REMARK    2  A    between atoms: C3_6  and  S2_7 
REMARK    3  A    between atoms: S2_7  and  C4_8 
REMARK    4  A    between atoms: C4_8  and  C5_9 
REMARK       I    between atoms: C5_9  and  N2_11 
REMARK    5  A    between atoms: N3_13  and  C6_15 
REMARK    6  A    between atoms: C9_18  and  C10_19 
ROOT
HETATM    1  C2  UNL     1      13.097  -9.913 -19.803  1.00  0.00     0.091 A 
HETATM    2  N1  UNL     1      13.149 -11.217 -20.057  1.00  0.00    -0.344 N 
ATOM      3  H1  UNL     1      13.904 -11.579 -20.640  1.00  0.00     0.167 HD
HETATM    4  C3  UNL     1      12.232 -12.074 -19.566  1.00  0.00     0.078 A 
HETATM    5  C9  UNL     1      11.173 -11.598 -18.764  1.00  0.00    -0.009 A 
HETATM    6  C14 UNL     1      11.078 -10.262 -18.475  1.00  0.00    -0.029 A 
HETATM    7  C15 UNL     1      10.033  -9.710 -17.634  1.00  0.00     0.050 C 
HETATM    8  C16 UNL     1      12.071  -9.436 -19.018  1.00  0.00     0.084 A 
HETATM    9  C17 UNL     1      11.998  -8.019 -18.699  1.00  0.00     0.103 C 
HETATM   10  N4  UNL     1      11.935  -6.863 -18.462  1.00  0.00    -0.191 NA
ENDROOT
BRANCH   1  11
HETATM   11  S1  UNL     1      14.333  -8.759 -20.378  1.00  0.00    -0.115 SA
HETATM   12  C1  UNL     1      14.977  -9.261 -22.000  1.00  0.00     0.097 C 
ENDBRANCH   1  11
BRANCH   5  13
HETATM   13  C10 UNL     1      10.235 -12.595 -18.330  1.00  0.00    -0.021 C 
HETATM   14  C11 UNL     1      10.283 -13.998 -18.811  1.00  0.00     0.019 C 
HETATM   15  C12 UNL     1       8.755 -12.179 -18.504  1.00  0.00     0.019 C 
HETATM   16  C13 UNL     1      10.487 -12.775 -16.802  1.00  0.00     0.019 C 
ENDBRANCH   5  13
BRANCH   4  17
HETATM   17  S2  UNL     1      12.497 -13.795 -19.854  1.00  0.00    -0.102 SA
BRANCH  17  18
HETATM   18  C4  UNL     1      14.235 -14.203 -19.724  1.00  0.00     0.185 C 
BRANCH  18  19
HETATM   19  C5  UNL     1      14.814 -13.933 -18.358  1.00  0.00     0.245 C 
HETATM   20  O1  UNL     1      14.004 -13.913 -17.361  1.00  0.00    -0.271 OA
HETATM   21  N2  UNL     1      16.176 -13.718 -18.234  1.00  0.00    -0.273 N 
HETATM   22  N3  UNL     1      16.852 -12.834 -18.680  1.00  0.00    -0.330 N 
ATOM     23  H2  UNL     1      16.679 -14.414 -17.682  1.00  0.00     0.189 HD
ATOM     24  H3  UNL     1      17.834 -12.932 -18.423  1.00  0.00     0.180 HD
BRANCH  22  25
HETATM   25  C6  UNL     1      16.627 -11.717 -19.457  1.00  0.00     0.091 C 
HETATM   26  C7  UNL     1      17.584 -10.528 -19.251  1.00  0.00     0.033 C 
HETATM   27  C8  UNL     1      16.740 -12.062 -20.948  1.00  0.00     0.033 C 
ENDBRANCH  22  25
ENDBRANCH  18  19
ENDBRANCH  17  18
ENDBRANCH   4  17
TORSDOF 6
ENDMDL
