MODEL 1
REMARK VINA RESULT: -8.175116016      0.000      0.000
REMARK  4 active torsions:
REMARK  status: ('A' for Active; 'I' for Inactive)
REMARK    1  A    between atoms: C4_7  and  C5_8 
REMARK    2  A    between atoms: C15_18  and  S1_19 
REMARK    3  A    between atoms: S1_19  and  C16_20 
REMARK    4  A    between atoms: N6_27  and  C17_28 
ROOT
HETATM    1  N1  UNL     1      17.065 -11.932 -21.279  1.00  0.00    -0.190 NA
HETATM    2  C1  UNL     1      16.006 -11.695 -20.872  1.00  0.00     0.119 C 
HETATM    3  C2  UNL     1      14.685 -11.375 -20.369  1.00  0.00     0.131 A 
HETATM    4  N2  UNL     1      14.137 -10.152 -20.320  1.00  0.00    -0.356 N 
ATOM      5  H2  UNL     1      14.583  -9.289 -20.633  1.00  0.00     0.166 HD
HETATM    6  C3  UNL     1      12.908 -10.249 -19.794  1.00  0.00     0.098 A 
HETATM    7  C4  UNL     1      12.624 -11.590 -19.479  1.00  0.00    -0.014 A 
HETATM    8  C15 UNL     1      13.748 -12.276 -19.846  1.00  0.00     0.054 A 
ENDROOT
BRANCH   8   9
HETATM    9  S1  UNL     1      14.010 -14.019 -19.710  1.00  0.00    -0.048 SA
BRANCH   9  10
HETATM   10  C16 UNL     1      15.122 -14.404 -18.345  1.00  0.00     0.183 A 
HETATM   11  N3  UNL     1      16.299 -13.861 -18.068  1.00  0.00    -0.263 N 
HETATM   12  N4  UNL     1      16.786 -14.428 -16.983  1.00  0.00    -0.226 N 
ATOM     13  H3  UNL     1      16.754 -13.124 -18.607  1.00  0.00     0.190 HD
HETATM   14  N5  UNL     1      15.896 -15.323 -16.599  1.00  0.00    -0.224 N 
ATOM     15  H4  UNL     1      17.676 -14.217 -16.529  1.00  0.00     0.210 HD
HETATM   16  N6  UNL     1      14.864 -15.324 -17.423  1.00  0.00    -0.249 N 
ATOM     17  H5  UNL     1      15.992 -15.926 -15.783  1.00  0.00     0.210 HD
BRANCH  16  18
HETATM   18  C17 UNL     1      13.686 -16.194 -17.301  1.00  0.00     0.112 A 
HETATM   19  C18 UNL     1      12.866 -16.116 -16.063  1.00  0.00     0.029 A 
HETATM   20  C19 UNL     1      13.745 -17.313 -16.338  1.00  0.00     0.029 A 
ENDBRANCH  16  18
ENDBRANCH   9  10
ENDBRANCH   8   9
BRANCH   7  21
HETATM   21  C5  UNL     1      11.370 -12.068 -18.905  1.00  0.00    -0.009 C 
HETATM   22  C6  UNL     1      11.711 -12.774 -17.586  1.00  0.00     0.019 C 
HETATM   23  C7  UNL     1      10.515 -13.338 -16.899  1.00  0.00    -0.013 C 
HETATM   24  C8  UNL     1       9.869 -14.309 -17.851  1.00  0.00     0.009 C 
HETATM   25  C12 UNL     1       9.624 -12.203 -16.489  1.00  0.00     0.009 C 
HETATM   26  C9  UNL     1       9.375 -13.532 -19.019  1.00  0.00    -0.013 C 
HETATM   27  C10 UNL     1       8.466 -12.380 -18.610  1.00  0.00     0.009 C 
HETATM   28  C14 UNL     1      10.516 -12.899 -19.802  1.00  0.00     0.019 C 
HETATM   29  C11 UNL     1       9.278 -11.431 -17.750  1.00  0.00    -0.013 C 
HETATM   30  C13 UNL     1      10.474 -10.893 -18.462  1.00  0.00     0.019 C 
ENDBRANCH   7  21
TORSDOF 4
ENDMDL
MODEL 2
REMARK VINA RESULT: -8.174855088      2.486      5.335
REMARK  4 active torsions:
REMARK  status: ('A' for Active; 'I' for Inactive)
REMARK    1  A    between atoms: C4_7  and  C5_8 
REMARK    2  A    between atoms: C15_18  and  S1_19 
REMARK    3  A    between atoms: S1_19  and  C16_20 
REMARK    4  A    between atoms: N6_27  and  C17_28 
ROOT
HETATM    1  N1  UNL     1       8.303 -12.989 -17.663  1.00  0.00    -0.190 NA
HETATM    2  C1  UNL     1       9.195 -12.340 -18.018  1.00  0.00     0.119 C 
HETATM    3  C2  UNL     1      10.300 -11.508 -18.449  1.00  0.00     0.131 A 
HETATM    4  N2  UNL     1      10.440 -10.196 -18.203  1.00  0.00    -0.356 N 
ATOM      5  H2  UNL     1       9.783  -9.618 -17.679  1.00  0.00     0.166 HD
HETATM    6  C3  UNL     1      11.583  -9.771 -18.757  1.00  0.00     0.098 A 
HETATM    7  C4  UNL     1      12.233 -10.842 -19.400  1.00  0.00    -0.014 A 
HETATM    8  C15 UNL     1      11.414 -11.916 -19.194  1.00  0.00     0.054 A 
ENDROOT
BRANCH   8   9
HETATM    9  S1  UNL     1      11.687 -13.571 -19.753  1.00  0.00    -0.048 SA
BRANCH   9  10
HETATM   10  C16 UNL     1      11.629 -14.738 -18.381  1.00  0.00     0.183 A 
HETATM   11  N3  UNL     1      10.590 -15.430 -17.935  1.00  0.00    -0.263 N 
HETATM   12  N4  UNL     1      10.975 -16.167 -16.913  1.00  0.00    -0.226 N 
ATOM     13  H3  UNL     1       9.646 -15.396 -18.321  1.00  0.00     0.190 HD
HETATM   14  N5  UNL     1      12.258 -15.920 -16.738  1.00  0.00    -0.224 N 
ATOM     15  H4  UNL     1      10.395 -16.804 -16.366  1.00  0.00     0.210 HD
HETATM   16  N6  UNL     1      12.682 -15.043 -17.631  1.00  0.00    -0.249 N 
ATOM     17  H5  UNL     1      12.840 -16.344 -16.017  1.00  0.00     0.210 HD
BRANCH  16  18
HETATM   18  C17 UNL     1      14.057 -14.536 -17.731  1.00  0.00     0.112 A 
HETATM   19  C18 UNL     1      14.937 -15.067 -18.806  1.00  0.00     0.029 A 
HETATM   20  C19 UNL     1      15.162 -15.444 -17.361  1.00  0.00     0.029 A 
ENDBRANCH  16  18
ENDBRANCH   9  10
ENDBRANCH   8   9
BRANCH   7  21
HETATM   21  C5  UNL     1      13.513 -10.748 -20.096  1.00  0.00    -0.009 C 
HETATM   22  C6  UNL     1      13.964  -9.283 -20.026  1.00  0.00     0.019 C 
HETATM   23  C7  UNL     1      15.257  -9.036 -20.724  1.00  0.00    -0.013 C 
HETATM   24  C8  UNL     1      15.076  -9.452 -22.160  1.00  0.00     0.009 C 
HETATM   25  C12 UNL     1      16.337  -9.788 -20.004  1.00  0.00     0.009 C 
HETATM   26  C9  UNL     1      14.845 -10.921 -22.177  1.00  0.00    -0.013 C 
HETATM   27  C10 UNL     1      15.940 -11.692 -21.451  1.00  0.00     0.009 C 
HETATM   28  C14 UNL     1      13.545 -11.298 -21.482  1.00  0.00     0.019 C 
HETATM   29  C11 UNL     1      15.932 -11.252 -19.999  1.00  0.00    -0.013 C 
HETATM   30  C13 UNL     1      14.621 -11.501 -19.332  1.00  0.00     0.019 C 
ENDBRANCH   7  21
TORSDOF 4
ENDMDL
MODEL 3
REMARK VINA RESULT: -8.114568726      0.250      1.464
REMARK  4 active torsions:
REMARK  status: ('A' for Active; 'I' for Inactive)
REMARK    1  A    between atoms: C4_7  and  C5_8 
REMARK    2  A    between atoms: C15_18  and  S1_19 
REMARK    3  A    between atoms: S1_19  and  C16_20 
REMARK    4  A    between atoms: N6_27  and  C17_28 
ROOT
HETATM    1  N1  UNL     1      16.856 -11.926 -21.299  1.00  0.00    -0.190 NA
HETATM    2  C1  UNL     1      15.808 -11.697 -20.859  1.00  0.00     0.119 C 
HETATM    3  C2  UNL     1      14.501 -11.387 -20.316  1.00  0.00     0.131 A 
HETATM    4  N2  UNL     1      13.946 -10.168 -20.249  1.00  0.00    -0.356 N 
ATOM      5  H2  UNL     1      14.376  -9.302 -20.574  1.00  0.00     0.166 HD
HETATM    6  C3  UNL     1      12.735 -10.274 -19.686  1.00  0.00     0.098 A 
HETATM    7  C4  UNL     1      12.470 -11.618 -19.364  1.00  0.00    -0.014 A 
HETATM    8  C15 UNL     1      13.587 -12.295 -19.766  1.00  0.00     0.054 A 
ENDROOT
BRANCH   8   9
HETATM    9  S1  UNL     1      13.865 -14.036 -19.640  1.00  0.00    -0.048 SA
BRANCH   9  10
HETATM   10  C16 UNL     1      15.038 -14.414 -18.324  1.00  0.00     0.183 A 
HETATM   11  N3  UNL     1      16.212 -13.847 -18.085  1.00  0.00    -0.263 N 
HETATM   12  N4  UNL     1      16.753 -14.417 -17.027  1.00  0.00    -0.226 N 
ATOM     13  H3  UNL     1      16.629 -13.093 -18.631  1.00  0.00     0.190 HD
HETATM   14  N5  UNL     1      15.899 -15.337 -16.622  1.00  0.00    -0.224 N 
ATOM     15  H4  UNL     1      17.655 -14.191 -16.605  1.00  0.00     0.210 HD
HETATM   16  N6  UNL     1      14.836 -15.352 -17.406  1.00  0.00    -0.249 N 
ATOM     17  H5  UNL     1      16.040 -15.949 -15.819  1.00  0.00     0.210 HD
BRANCH  16  18
HETATM   18  C17 UNL     1      13.684 -16.250 -17.251  1.00  0.00     0.112 A 
HETATM   19  C18 UNL     1      12.916 -16.214 -15.978  1.00  0.00     0.029 A 
HETATM   20  C19 UNL     1      13.809 -17.385 -16.315  1.00  0.00     0.029 A 
ENDBRANCH  16  18
ENDBRANCH   9  10
ENDBRANCH   8   9
BRANCH   7  21
HETATM   21  C5  UNL     1      11.238 -12.105 -18.753  1.00  0.00    -0.009 C 
HETATM   22  C6  UNL     1      10.588 -13.078 -19.747  1.00  0.00     0.019 C 
HETATM   23  C7  UNL     1       9.297 -13.638 -19.258  1.00  0.00    -0.013 C 
HETATM   24  C8  UNL     1       8.376 -12.475 -18.998  1.00  0.00     0.009 C 
HETATM   25  C12 UNL     1       9.572 -14.479 -18.048  1.00  0.00     0.009 C 
HETATM   26  C9  UNL     1       8.957 -11.683 -17.882  1.00  0.00    -0.013 C 
HETATM   27  C10 UNL     1       9.236 -12.530 -16.648  1.00  0.00     0.009 C 
HETATM   28  C14 UNL     1      10.292 -11.060 -18.265  1.00  0.00     0.019 C 
HETATM   29  C11 UNL     1      10.257 -13.584 -17.030  1.00  0.00    -0.013 C 
HETATM   30  C13 UNL     1      11.534 -12.992 -17.526  1.00  0.00     0.019 C 
ENDBRANCH   7  21
TORSDOF 4
ENDMDL
MODEL 4
REMARK VINA RESULT: -8.113893329      0.473      1.479
REMARK  4 active torsions:
REMARK  status: ('A' for Active; 'I' for Inactive)
REMARK    1  A    between atoms: C4_7  and  C5_8 
REMARK    2  A    between atoms: C15_18  and  S1_19 
REMARK    3  A    between atoms: S1_19  and  C16_20 
REMARK    4  A    between atoms: N6_27  and  C17_28 
ROOT
HETATM    1  N1  UNL     1      16.810 -11.706 -20.968  1.00  0.00    -0.190 NA
HETATM    2  C1  UNL     1      15.722 -11.583 -20.590  1.00  0.00     0.119 C 
HETATM    3  C2  UNL     1      14.362 -11.404 -20.122  1.00  0.00     0.131 A 
HETATM    4  N2  UNL     1      13.706 -10.237 -20.037  1.00  0.00    -0.356 N 
ATOM      5  H2  UNL     1      14.084  -9.325 -20.292  1.00  0.00     0.166 HD
HETATM    6  C3  UNL     1      12.475 -10.466 -19.562  1.00  0.00     0.098 A 
HETATM    7  C4  UNL     1      12.300 -11.842 -19.320  1.00  0.00    -0.014 A 
HETATM    8  C15 UNL     1      13.491 -12.408 -19.677  1.00  0.00     0.054 A 
ENDROOT
BRANCH   8   9
HETATM    9  S1  UNL     1      13.902 -14.126 -19.613  1.00  0.00    -0.048 SA
BRANCH   9  10
HETATM   10  C16 UNL     1      15.050 -14.470 -18.267  1.00  0.00     0.183 A 
HETATM   11  N3  UNL     1      16.201 -13.870 -17.997  1.00  0.00    -0.263 N 
HETATM   12  N4  UNL     1      16.731 -14.424 -16.925  1.00  0.00    -0.226 N 
ATOM     13  H3  UNL     1      16.610 -13.103 -18.532  1.00  0.00     0.190 HD
HETATM   14  N5  UNL     1      15.893 -15.369 -16.542  1.00  0.00    -0.224 N 
ATOM     15  H4  UNL     1      17.613 -14.173 -16.479  1.00  0.00     0.210 HD
HETATM   16  N6  UNL     1      14.852 -15.414 -17.354  1.00  0.00    -0.249 N 
ATOM     17  H5  UNL     1      16.030 -15.977 -15.736  1.00  0.00     0.210 HD
BRANCH  16  18
HETATM   18  C17 UNL     1      13.723 -16.346 -17.229  1.00  0.00     0.112 A 
HETATM   19  C18 UNL     1      12.919 -16.330 -15.978  1.00  0.00     0.029 A 
HETATM   20  C19 UNL     1      13.854 -17.475 -16.287  1.00  0.00     0.029 A 
ENDBRANCH  16  18
ENDBRANCH   9  10
ENDBRANCH   8   9
BRANCH   7  21
HETATM   21  C5  UNL     1      11.075 -12.454 -18.817  1.00  0.00    -0.009 C 
HETATM   22  C6  UNL     1      10.116 -11.316 -18.442  1.00  0.00     0.019 C 
HETATM   23  C7  UNL     1       8.822 -11.802 -17.885  1.00  0.00    -0.013 C 
HETATM   24  C8  UNL     1       9.142 -12.629 -16.668  1.00  0.00     0.009 C 
HETATM   25  C12 UNL     1       8.096 -12.555 -18.959  1.00  0.00     0.009 C 
HETATM   26  C9  UNL     1       9.897 -13.826 -17.124  1.00  0.00    -0.013 C 
HETATM   27  C10 UNL     1       9.164 -14.599 -18.212  1.00  0.00     0.009 C 
HETATM   28  C14 UNL     1      11.246 -13.452 -17.721  1.00  0.00     0.019 C 
HETATM   29  C11 UNL     1       9.011 -13.681 -19.410  1.00  0.00    -0.013 C 
HETATM   30  C13 UNL     1      10.323 -13.203 -19.936  1.00  0.00     0.019 C 
ENDBRANCH   7  21
TORSDOF 4
ENDMDL
MODEL 5
REMARK VINA RESULT: -8.071484184      2.049      5.159
REMARK  4 active torsions:
REMARK  status: ('A' for Active; 'I' for Inactive)
REMARK    1  A    between atoms: C4_7  and  C5_8 
REMARK    2  A    between atoms: C15_18  and  S1_19 
REMARK    3  A    between atoms: S1_19  and  C16_20 
REMARK    4  A    between atoms: N6_27  and  C17_28 
ROOT
HETATM    1  N1  UNL     1       9.314 -14.603 -17.807  1.00  0.00    -0.190 NA
HETATM    2  C1  UNL     1       9.954 -13.695 -18.135  1.00  0.00     0.119 C 
HETATM    3  C2  UNL     1      10.740 -12.544 -18.534  1.00  0.00     0.131 A 
HETATM    4  N2  UNL     1      10.442 -11.262 -18.277  1.00  0.00    -0.356 N 
ATOM      5  H2  UNL     1       9.622 -10.934 -17.767  1.00  0.00     0.166 HD
HETATM    6  C3  UNL     1      11.398 -10.482 -18.801  1.00  0.00     0.098 A 
HETATM    7  C4  UNL     1      12.374 -11.276 -19.432  1.00  0.00    -0.014 A 
HETATM    8  C15 UNL     1      11.942 -12.560 -19.253  1.00  0.00     0.054 A 
ENDROOT
BRANCH   8   9
HETATM    9  S1  UNL     1      12.749 -14.030 -19.813  1.00  0.00    -0.048 SA
BRANCH   9  10
HETATM   10  C16 UNL     1      13.252 -15.065 -18.426  1.00  0.00     0.183 A 
HETATM   11  N3  UNL     1      12.495 -15.849 -17.671  1.00  0.00    -0.263 N 
HETATM   12  N4  UNL     1      13.255 -16.431 -16.765  1.00  0.00    -0.226 N 
ATOM     13  H3  UNL     1      11.489 -15.981 -17.775  1.00  0.00     0.190 HD
HETATM   14  N5  UNL     1      14.482 -15.995 -16.972  1.00  0.00    -0.224 N 
ATOM     15  H4  UNL     1      12.954 -17.089 -16.045  1.00  0.00     0.210 HD
HETATM   16  N6  UNL     1      14.503 -15.153 -17.990  1.00  0.00    -0.249 N 
ATOM     17  H5  UNL     1      15.298 -16.268 -16.426  1.00  0.00     0.210 HD
BRANCH  16  18
HETATM   18  C17 UNL     1      15.702 -14.473 -18.501  1.00  0.00     0.112 A 
HETATM   19  C18 UNL     1      17.028 -15.114 -18.296  1.00  0.00     0.029 A 
HETATM   20  C19 UNL     1      16.634 -13.878 -17.522  1.00  0.00     0.029 A 
ENDBRANCH  16  18
ENDBRANCH   9  10
ENDBRANCH   8   9
BRANCH   7  21
HETATM   21  C5  UNL     1      13.569 -10.764 -20.094  1.00  0.00    -0.009 C 
HETATM   22  C6  UNL     1      14.779 -11.457 -19.452  1.00  0.00     0.019 C 
HETATM   23  C7  UNL     1      16.080 -11.005 -20.022  1.00  0.00    -0.013 C 
HETATM   24  C8  UNL     1      16.167  -9.517 -19.813  1.00  0.00     0.009 C 
HETATM   25  C12 UNL     1      16.139 -11.423 -21.461  1.00  0.00     0.009 C 
HETATM   26  C9  UNL     1      15.094  -8.885 -20.626  1.00  0.00    -0.013 C 
HETATM   27  C10 UNL     1      15.150  -9.301 -22.090  1.00  0.00     0.009 C 
HETATM   28  C14 UNL     1      13.707  -9.279 -20.137  1.00  0.00     0.019 C 
HETATM   29  C11 UNL     1      14.938 -10.802 -22.154  1.00  0.00    -0.013 C 
HETATM   30  C13 UNL     1      13.633 -11.222 -21.566  1.00  0.00     0.019 C 
ENDBRANCH   7  21
TORSDOF 4
ENDMDL
