MODEL 1
REMARK VINA RESULT: -7.596110373      0.000      0.000
REMARK  6 active torsions:
REMARK  status: ('A' for Active; 'I' for Inactive)
REMARK    1  A    between atoms: C2_2  and  C4_4 
REMARK    2  A    between atoms: C5_6  and  N1_7 
REMARK    3  A    between atoms: N1_7  and  N2_9 
REMARK       I    between atoms: N2_9  and  C7_11 
REMARK    4  A    between atoms: C7_11  and  C8_13 
REMARK    5  A    between atoms: N3_18  and  C12_19 
REMARK    6  A    between atoms: C18_25  and  O3_26 
ROOT
HETATM    1  C4  UNL     1      14.409 -11.212 -20.296  1.00  0.00     0.041 A 
HETATM    2  S1  UNL     1      12.765 -11.327 -19.870  1.00  0.00    -0.052 SA
HETATM    3  C5  UNL     1      12.842 -12.790 -19.011  1.00  0.00     0.168 A 
HETATM    4  N3  UNL     1      14.134 -13.140 -19.083  1.00  0.00    -0.301 N 
HETATM    5  C18 UNL     1      14.943 -12.332 -19.743  1.00  0.00     0.158 A 
ENDROOT
BRANCH   3   6
HETATM    6  N1  UNL     1      11.882 -13.441 -18.413  1.00  0.00    -0.275 N 
ATOM      7  H1  UNL     1      11.749 -14.444 -18.536  1.00  0.00     0.189 HD
BRANCH   6   8
HETATM    8  N2  UNL     1      11.029 -12.660 -17.574  1.00  0.00    -0.259 N 
HETATM    9  C6  UNL     1      11.568 -12.226 -16.306  1.00  0.00     0.181 C 
HETATM   10  C7  UNL     1       9.745 -12.345 -17.983  1.00  0.00     0.273 C 
HETATM   11  O1  UNL     1       9.404 -12.805 -19.146  1.00  0.00    -0.266 OA
BRANCH  10  12
HETATM   12  C8  UNL     1       8.741 -11.579 -17.298  1.00  0.00     0.058 A 
HETATM   13  C9  UNL     1       8.722 -10.162 -17.204  1.00  0.00     0.043 A 
HETATM   14  C10 UNL     1       7.615  -9.812 -16.479  1.00  0.00     0.142 A 
HETATM   15  O2  UNL     1       6.979 -10.883 -16.135  1.00  0.00    -0.334 OA
HETATM   16  C11 UNL     1       7.616 -11.946 -16.603  1.00  0.00     0.158 A 
ENDBRANCH  10  12
ENDBRANCH   6   8
ENDBRANCH   3   6
BRANCH   4  17
HETATM   17  C12 UNL     1      14.665 -14.384 -18.448  1.00  0.00     0.094 C 
HETATM   18  C13 UNL     1      15.090 -14.187 -17.050  1.00  0.00     0.026 C 
HETATM   19  C14 UNL     1      16.058 -15.348 -16.739  1.00  0.00     0.002 C 
HETATM   20  C15 UNL     1      15.274 -16.615 -16.980  1.00  0.00     0.000 C 
HETATM   21  C16 UNL     1      13.835 -16.416 -17.303  1.00  0.00     0.002 C 
HETATM   22  C17 UNL     1      13.618 -15.489 -18.484  1.00  0.00     0.026 C 
ENDBRANCH   4  17
BRANCH   1  23
HETATM   23  C2  UNL     1      15.111 -10.129 -21.096  1.00  0.00     0.022 C 
HETATM   24  C1  UNL     1      14.508  -8.785 -20.773  1.00  0.00     0.015 C 
HETATM   25  C3  UNL     1      14.966 -10.509 -22.544  1.00  0.00     0.015 C 
ENDBRANCH   1  23
BRANCH   5  26
HETATM   26  O3  UNL     1      16.348 -12.588 -19.897  1.00  0.00    -0.345 OA
ATOM     27  H3  UNL     1      16.759 -13.257 -19.362  1.00  0.00     0.219 HD
ENDBRANCH   5  26
TORSDOF 6
ENDMDL
MODEL 2
REMARK VINA RESULT: -7.302449016      1.875      2.354
REMARK  6 active torsions:
REMARK  status: ('A' for Active; 'I' for Inactive)
REMARK    1  A    between atoms: C2_2  and  C4_4 
REMARK    2  A    between atoms: C5_6  and  N1_7 
REMARK    3  A    between atoms: N1_7  and  N2_9 
REMARK       I    between atoms: N2_9  and  C7_11 
REMARK    4  A    between atoms: C7_11  and  C8_13 
REMARK    5  A    between atoms: N3_18  and  C12_19 
REMARK    6  A    between atoms: C18_25  and  O3_26 
ROOT
HETATM    1  C4  UNL     1      15.749 -12.802 -19.308  1.00  0.00     0.041 A 
HETATM    2  S1  UNL     1      14.054 -12.834 -19.459  1.00  0.00    -0.052 SA
HETATM    3  C5  UNL     1      13.725 -13.952 -18.223  1.00  0.00     0.168 A 
HETATM    4  N3  UNL     1      14.935 -14.262 -17.738  1.00  0.00    -0.301 N 
HETATM    5  C18 UNL     1      15.978 -13.673 -18.292  1.00  0.00     0.158 A 
ENDROOT
BRANCH   3   6
HETATM    6  N1  UNL     1      12.572 -14.416 -17.823  1.00  0.00    -0.275 N 
ATOM      7  H1  UNL     1      12.478 -15.340 -17.401  1.00  0.00     0.189 HD
BRANCH   6   8
HETATM    8  N2  UNL     1      11.453 -13.550 -18.014  1.00  0.00    -0.259 N 
HETATM    9  C6  UNL     1      10.683 -13.723 -19.225  1.00  0.00     0.181 C 
HETATM   10  C7  UNL     1      11.140 -12.593 -17.064  1.00  0.00     0.273 C 
HETATM   11  O1  UNL     1      11.922 -12.559 -16.032  1.00  0.00    -0.266 OA
BRANCH  10  12
HETATM   12  C8  UNL     1      10.068 -11.636 -17.065  1.00  0.00     0.058 A 
HETATM   13  C9  UNL     1       8.711 -11.934 -16.769  1.00  0.00     0.043 A 
HETATM   14  C10 UNL     1       8.002 -10.768 -16.873  1.00  0.00     0.142 A 
HETATM   15  O2  UNL     1       8.805  -9.812 -17.202  1.00  0.00    -0.334 OA
HETATM   16  C11 UNL     1      10.036 -10.289 -17.323  1.00  0.00     0.158 A 
ENDBRANCH  10  12
ENDBRANCH   6   8
ENDBRANCH   3   6
BRANCH   4  17
HETATM   17  C12 UNL     1      15.124 -15.226 -16.611  1.00  0.00     0.094 C 
HETATM   18  C13 UNL     1      13.997 -15.237 -15.661  1.00  0.00     0.026 C 
HETATM   19  C14 UNL     1      14.558 -15.837 -14.354  1.00  0.00     0.002 C 
HETATM   20  C15 UNL     1      15.081 -17.205 -14.718  1.00  0.00     0.000 C 
HETATM   21  C16 UNL     1      14.813 -17.632 -16.118  1.00  0.00     0.002 C 
HETATM   22  C17 UNL     1      15.321 -16.638 -17.146  1.00  0.00     0.026 C 
ENDBRANCH   4  17
BRANCH   1  23
HETATM   23  C2  UNL     1      16.760 -12.000 -20.108  1.00  0.00     0.022 C 
HETATM   24  C1  UNL     1      17.168 -10.773 -19.331  1.00  0.00     0.015 C 
HETATM   25  C3  UNL     1      16.101 -11.674 -21.421  1.00  0.00     0.015 C 
ENDBRANCH   1  23
BRANCH   5  26
HETATM   26  O3  UNL     1      17.329 -13.915 -17.869  1.00  0.00    -0.345 OA
ATOM     27  H3  UNL     1      17.745 -13.304 -17.272  1.00  0.00     0.219 HD
ENDBRANCH   5  26
TORSDOF 6
ENDMDL
MODEL 3
REMARK VINA RESULT: -7.119381393      1.477      2.079
REMARK  6 active torsions:
REMARK  status: ('A' for Active; 'I' for Inactive)
REMARK    1  A    between atoms: C2_2  and  C4_4 
REMARK    2  A    between atoms: C5_6  and  N1_7 
REMARK    3  A    between atoms: N1_7  and  N2_9 
REMARK       I    between atoms: N2_9  and  C7_11 
REMARK    4  A    between atoms: C7_11  and  C8_13 
REMARK    5  A    between atoms: N3_18  and  C12_19 
REMARK    6  A    between atoms: C18_25  and  O3_26 
ROOT
HETATM    1  C4  UNL     1      15.388 -13.008 -19.414  1.00  0.00     0.041 A 
HETATM    2  S1  UNL     1      13.715 -12.759 -19.606  1.00  0.00    -0.052 SA
HETATM    3  C5  UNL     1      13.171 -13.931 -18.504  1.00  0.00     0.168 A 
HETATM    4  N3  UNL     1      14.300 -14.474 -18.026  1.00  0.00    -0.301 N 
HETATM    5  C18 UNL     1      15.441 -14.002 -18.491  1.00  0.00     0.158 A 
ENDROOT
BRANCH   3   6
HETATM    6  N1  UNL     1      11.946 -14.248 -18.182  1.00  0.00    -0.275 N 
ATOM      7  H1  UNL     1      11.542 -15.154 -18.417  1.00  0.00     0.189 HD
BRANCH   6   8
HETATM    8  N2  UNL     1      11.209 -13.246 -17.479  1.00  0.00    -0.259 N 
HETATM    9  C6  UNL     1      11.635 -12.936 -16.134  1.00  0.00     0.181 C 
HETATM   10  C7  UNL     1      10.137 -12.614 -18.085  1.00  0.00     0.273 C 
HETATM   11  O1  UNL     1       9.876 -13.000 -19.294  1.00  0.00    -0.266 OA
BRANCH  10  12
HETATM   12  C8  UNL     1       9.277 -11.592 -17.558  1.00  0.00     0.058 A 
HETATM   13  C9  UNL     1       7.940 -11.799 -17.123  1.00  0.00     0.043 A 
HETATM   14  C10 UNL     1       7.456 -10.593 -16.692  1.00  0.00     0.142 A 
HETATM   15  O2  UNL     1       8.375  -9.695 -16.830  1.00  0.00    -0.334 OA
HETATM   16  C11 UNL     1       9.465 -10.250 -17.339  1.00  0.00     0.158 A 
ENDBRANCH  10  12
ENDBRANCH   6   8
ENDBRANCH   3   6
BRANCH   4  17
HETATM   17  C12 UNL     1      14.295 -15.565 -17.005  1.00  0.00     0.094 C 
HETATM   18  C13 UNL     1      15.353 -16.568 -17.221  1.00  0.00     0.026 C 
HETATM   19  C14 UNL     1      14.895 -17.830 -16.459  1.00  0.00     0.002 C 
HETATM   20  C15 UNL     1      14.723 -17.406 -15.022  1.00  0.00     0.000 C 
HETATM   21  C16 UNL     1      15.140 -16.010 -14.720  1.00  0.00     0.002 C 
HETATM   22  C17 UNL     1      14.456 -14.985 -15.606  1.00  0.00     0.026 C 
ENDBRANCH   4  17
BRANCH   1  23
HETATM   23  C2  UNL     1      16.540 -12.296 -20.101  1.00  0.00     0.022 C 
HETATM   24  C1  UNL     1      17.124 -11.258 -19.175  1.00  0.00     0.015 C 
HETATM   25  C3  UNL     1      15.982 -11.709 -21.369  1.00  0.00     0.015 C 
ENDBRANCH   1  23
BRANCH   5  26
HETATM   26  O3  UNL     1      16.722 -14.494 -18.065  1.00  0.00    -0.345 OA
ATOM     27  H3  UNL     1      16.759 -15.193 -17.423  1.00  0.00     0.219 HD
ENDBRANCH   5  26
TORSDOF 6
ENDMDL
MODEL 4
REMARK VINA RESULT: -7.103764672      2.331      5.537
REMARK  6 active torsions:
REMARK  status: ('A' for Active; 'I' for Inactive)
REMARK    1  A    between atoms: C2_2  and  C4_4 
REMARK    2  A    between atoms: C5_6  and  N1_7 
REMARK    3  A    between atoms: N1_7  and  N2_9 
REMARK       I    between atoms: N2_9  and  C7_11 
REMARK    4  A    between atoms: C7_11  and  C8_13 
REMARK    5  A    between atoms: N3_18  and  C12_19 
REMARK    6  A    between atoms: C18_25  and  O3_26 
ROOT
HETATM    1  C4  UNL     1      13.953 -10.445 -20.333  1.00  0.00     0.041 A 
HETATM    2  S1  UNL     1      14.676 -11.943 -20.695  1.00  0.00    -0.052 SA
HETATM    3  C5  UNL     1      13.561 -12.946 -19.898  1.00  0.00     0.168 A 
HETATM    4  N3  UNL     1      12.669 -12.090 -19.380  1.00  0.00    -0.301 N 
HETATM    5  C18 UNL     1      12.866 -10.803 -19.602  1.00  0.00     0.158 A 
ENDROOT
BRANCH   3   6
HETATM    6  N1  UNL     1      13.554 -14.247 -19.799  1.00  0.00    -0.275 N 
ATOM      7  H1  UNL     1      13.006 -14.835 -20.427  1.00  0.00     0.189 HD
BRANCH   6   8
HETATM    8  N2  UNL     1      14.360 -14.796 -18.756  1.00  0.00    -0.259 N 
HETATM    9  C6  UNL     1      15.789 -14.601 -18.855  1.00  0.00     0.181 C 
HETATM   10  C7  UNL     1      13.774 -15.480 -17.705  1.00  0.00     0.273 C 
HETATM   11  O1  UNL     1      12.482 -15.572 -17.755  1.00  0.00    -0.266 OA
BRANCH  10  12
HETATM   12  C8  UNL     1      14.399 -16.100 -16.570  1.00  0.00     0.058 A 
HETATM   13  C9  UNL     1      14.432 -15.551 -15.260  1.00  0.00     0.043 A 
HETATM   14  C10 UNL     1      15.112 -16.432 -14.462  1.00  0.00     0.142 A 
HETATM   15  O2  UNL     1      15.484 -17.445 -15.172  1.00  0.00    -0.334 OA
HETATM   16  C11 UNL     1      15.079 -17.283 -16.423  1.00  0.00     0.158 A 
ENDBRANCH  10  12
ENDBRANCH   6   8
ENDBRANCH   3   6
BRANCH   4  17
HETATM   17  C12 UNL     1      11.487 -12.546 -18.587  1.00  0.00     0.094 C 
HETATM   18  C13 UNL     1      11.442 -11.973 -17.230  1.00  0.00     0.026 C 
HETATM   19  C14 UNL     1      10.528 -12.909 -16.411  1.00  0.00     0.002 C 
HETATM   20  C15 UNL     1       9.200 -12.920 -17.127  1.00  0.00     0.000 C 
HETATM   21  C16 UNL     1       9.095 -11.985 -18.280  1.00  0.00     0.002 C 
HETATM   22  C17 UNL     1      10.193 -12.189 -19.307  1.00  0.00     0.026 C 
ENDBRANCH   4  17
BRANCH   1  23
HETATM   23  C2  UNL     1      14.405  -9.050 -20.729  1.00  0.00     0.022 C 
HETATM   24  C1  UNL     1      15.033  -9.087 -22.099  1.00  0.00     0.015 C 
HETATM   25  C3  UNL     1      15.354  -8.591 -19.656  1.00  0.00     0.015 C 
ENDBRANCH   1  23
BRANCH   5  26
HETATM   26  O3  UNL     1      11.988  -9.781 -19.105  1.00  0.00    -0.345 OA
ATOM     27  H3  UNL     1      11.067  -9.981 -18.980  1.00  0.00     0.219 HD
ENDBRANCH   5  26
TORSDOF 6
ENDMDL
MODEL 5
REMARK VINA RESULT: -6.947510629      2.442      6.555
REMARK  6 active torsions:
REMARK  status: ('A' for Active; 'I' for Inactive)
REMARK    1  A    between atoms: C2_2  and  C4_4 
REMARK    2  A    between atoms: C5_6  and  N1_7 
REMARK    3  A    between atoms: N1_7  and  N2_9 
REMARK       I    between atoms: N2_9  and  C7_11 
REMARK    4  A    between atoms: C7_11  and  C8_13 
REMARK    5  A    between atoms: N3_18  and  C12_19 
REMARK    6  A    between atoms: C18_25  and  O3_26 
ROOT
HETATM    1  C4  UNL     1      13.436 -15.688 -15.887  1.00  0.00     0.041 A 
HETATM    2  S1  UNL     1      14.287 -15.883 -17.348  1.00  0.00    -0.052 SA
HETATM    3  C5  UNL     1      13.361 -14.830 -18.307  1.00  0.00     0.168 A 
HETATM    4  N3  UNL     1      12.426 -14.365 -17.465  1.00  0.00    -0.301 N 
HETATM    5  C18 UNL     1      12.461 -14.803 -16.221  1.00  0.00     0.158 A 
ENDROOT
BRANCH   3   6
HETATM    6  N1  UNL     1      13.505 -14.528 -19.568  1.00  0.00    -0.275 N 
ATOM      7  H1  UNL     1      13.162 -15.135 -20.313  1.00  0.00     0.189 HD
BRANCH   6   8
HETATM    8  N2  UNL     1      14.173 -13.296 -19.841  1.00  0.00    -0.259 N 
HETATM    9  C6  UNL     1      15.548 -13.181 -19.410  1.00  0.00     0.181 C 
HETATM   10  C7  UNL     1      13.511 -12.270 -20.492  1.00  0.00     0.273 C 
HETATM   11  O1  UNL     1      12.281 -12.522 -20.816  1.00  0.00    -0.266 OA
BRANCH  10  12
HETATM   12  C8  UNL     1      13.996 -10.969 -20.857  1.00  0.00     0.058 A 
HETATM   13  C9  UNL     1      13.744  -9.774 -20.131  1.00  0.00     0.043 A 
HETATM   14  C10 UNL     1      14.372  -8.751 -20.791  1.00  0.00     0.142 A 
HETATM   15  O2  UNL     1      14.970  -9.225 -21.834  1.00  0.00    -0.334 OA
HETATM   16  C11 UNL     1      14.769 -10.533 -21.903  1.00  0.00     0.158 A 
ENDBRANCH  10  12
ENDBRANCH   6   8
ENDBRANCH   3   6
BRANCH   4  17
HETATM   17  C12 UNL     1      11.381 -13.385 -17.890  1.00  0.00     0.094 C 
HETATM   18  C13 UNL     1      10.006 -13.876 -17.683  1.00  0.00     0.026 C 
HETATM   19  C14 UNL     1       9.115 -13.031 -18.618  1.00  0.00     0.002 C 
HETATM   20  C15 UNL     1       9.333 -11.595 -18.211  1.00  0.00     0.000 C 
HETATM   21  C16 UNL     1      10.189 -11.401 -17.010  1.00  0.00     0.002 C 
HETATM   22  C17 UNL     1      11.545 -12.071 -17.138  1.00  0.00     0.026 C 
ENDBRANCH   4  17
BRANCH   1  23
HETATM   23  C2  UNL     1      13.697 -16.340 -14.541  1.00  0.00     0.022 C 
HETATM   24  C1  UNL     1      15.154 -16.715 -14.429  1.00  0.00     0.015 C 
HETATM   25  C3  UNL     1      12.774 -17.524 -14.455  1.00  0.00     0.015 C 
ENDBRANCH   1  23
BRANCH   5  26
HETATM   26  O3  UNL     1      11.520 -14.387 -15.219  1.00  0.00    -0.345 OA
ATOM     27  H3  UNL     1      11.051 -15.047 -14.721  1.00  0.00     0.219 HD
ENDBRANCH   5  26
TORSDOF 6
ENDMDL
