MODEL 1
REMARK VINA RESULT: -6.087962825      0.000      0.000
REMARK  3 active torsions:
REMARK  status: ('A' for Active; 'I' for Inactive)
REMARK    1  A    between atoms: C1_4  and  C2_6 
REMARK    2  A    between atoms: N3_7  and  N4_9 
REMARK    3  A    between atoms: N4_9  and  C3_11 
ROOT
HETATM    1  N4  UNL     1     -39.028 -58.526  62.109  1.00  0.00    -0.332 N 
ATOM      2  H4  UNL     1     -39.247 -58.027  62.971  1.00  0.00     0.180 HD
ENDROOT
BRANCH   1   3
HETATM    3  N3  UNL     1     -37.693 -58.655  61.720  1.00  0.00    -0.313 N 
HETATM    4  C2  UNL     1     -36.756 -58.949  62.545  1.00  0.00     0.151 C 
ATOM      5  H3  UNL     1     -37.454 -58.509  60.740  1.00  0.00     0.185 HD
BRANCH   4   6
HETATM    6  C1  UNL     1     -35.380 -59.072  62.089  1.00  0.00     0.126 C 
HETATM    7  N1  UNL     1     -34.695 -58.005  61.882  1.00  0.00    -0.387 N 
ATOM      8  H12 UNL     1     -33.730 -58.091  61.562  1.00  0.00     0.157 HD
ATOM      9  H11 UNL     1     -35.121 -57.092  62.040  1.00  0.00     0.157 HD
HETATM   10  N2  UNL     1     -34.791 -60.336  61.870  1.00  0.00    -0.082 NA
ENDBRANCH   4   6
ENDBRANCH   1   3
BRANCH   1  11
HETATM   11  C3  UNL     1     -40.115 -59.083  61.321  1.00  0.00     0.099 C 
HETATM   12  C4  UNL     1     -39.860 -59.025  59.858  1.00  0.00     0.028 C 
HETATM   13  C5  UNL     1     -39.879 -60.315  59.141  1.00  0.00     0.022 C 
HETATM   14  C6  UNL     1     -40.981 -61.245  59.494  1.00  0.00     0.082 C 
HETATM   15 CL1  UNL     1     -42.208 -61.380  58.191  1.00  0.00    -0.125 Cl
HETATM   16  C7  UNL     1     -41.624 -60.895  60.808  1.00  0.00     0.022 C 
HETATM   17  C8  UNL     1     -40.471 -60.484  61.735  1.00  0.00     0.028 C 
ENDBRANCH   1  11
TORSDOF 3
ENDMDL
MODEL 2
REMARK VINA RESULT: -6.014754930      0.912      1.287
REMARK  3 active torsions:
REMARK  status: ('A' for Active; 'I' for Inactive)
REMARK    1  A    between atoms: C1_4  and  C2_6 
REMARK    2  A    between atoms: N3_7  and  N4_9 
REMARK    3  A    between atoms: N4_9  and  C3_11 
ROOT
HETATM    1  N4  UNL     1     -39.117 -59.746  62.139  1.00  0.00    -0.332 N 
ATOM      2  H4  UNL     1     -39.141 -60.070  63.106  1.00  0.00     0.180 HD
ENDROOT
BRANCH   1   3
HETATM    3  N3  UNL     1     -37.949 -59.156  61.650  1.00  0.00    -0.313 N 
HETATM    4  C2  UNL     1     -36.991 -58.778  62.415  1.00  0.00     0.151 C 
ATOM      5  H3  UNL     1     -37.854 -59.021  60.644  1.00  0.00     0.185 HD
BRANCH   4   6
HETATM    6  C1  UNL     1     -35.794 -58.170  61.855  1.00  0.00     0.126 C 
HETATM    7  N1  UNL     1     -34.698 -58.842  61.848  1.00  0.00    -0.387 N 
ATOM      8  H12 UNL     1     -33.859 -58.415  61.456  1.00  0.00     0.157 HD
ATOM      9  H11 UNL     1     -34.682 -59.787  62.231  1.00  0.00     0.157 HD
HETATM   10  N2  UNL     1     -35.816 -56.862  61.326  1.00  0.00    -0.082 NA
ENDBRANCH   4   6
ENDBRANCH   1   3
BRANCH   1  11
HETATM   11  C3  UNL     1     -40.299 -59.910  61.309  1.00  0.00     0.099 C 
HETATM   12  C4  UNL     1     -40.010 -59.791  59.857  1.00  0.00     0.028 C 
HETATM   13  C5  UNL     1     -40.367 -60.956  59.023  1.00  0.00     0.022 C 
HETATM   14  C6  UNL     1     -41.687 -61.577  59.296  1.00  0.00     0.082 C 
HETATM   15 CL1  UNL     1     -42.879 -61.253  57.994  1.00  0.00    -0.125 Cl
HETATM   16  C7  UNL     1     -42.235 -61.186  60.641  1.00  0.00     0.022 C 
HETATM   17  C8  UNL     1     -41.031 -61.192  61.595  1.00  0.00     0.028 C 
ENDBRANCH   1  11
TORSDOF 3
ENDMDL
MODEL 3
REMARK VINA RESULT: -5.994116818      4.844      6.040
REMARK  3 active torsions:
REMARK  status: ('A' for Active; 'I' for Inactive)
REMARK    1  A    between atoms: C1_4  and  C2_6 
REMARK    2  A    between atoms: N3_7  and  N4_9 
REMARK    3  A    between atoms: N4_9  and  C3_11 
ROOT
HETATM    1  N4  UNL     1     -43.395 -61.066  59.873  1.00  0.00    -0.332 N 
ATOM      2  H4  UNL     1     -44.093 -60.642  59.262  1.00  0.00     0.180 HD
ENDROOT
BRANCH   1   3
HETATM    3  N3  UNL     1     -42.054 -61.053  59.483  1.00  0.00    -0.313 N 
HETATM    4  C2  UNL     1     -41.659 -61.489  58.343  1.00  0.00     0.151 C 
ATOM      5  H3  UNL     1     -41.360 -60.682  60.132  1.00  0.00     0.185 HD
BRANCH   4   6
HETATM    6  C1  UNL     1     -40.249 -61.452  57.985  1.00  0.00     0.126 C 
HETATM    7  N1  UNL     1     -39.548 -60.428  58.319  1.00  0.00    -0.387 N 
ATOM      8  H12 UNL     1     -38.560 -60.403  58.068  1.00  0.00     0.157 HD
ATOM      9  H11 UNL     1     -39.986 -59.660  58.828  1.00  0.00     0.157 HD
HETATM   10  N2  UNL     1     -39.645 -62.515  57.280  1.00  0.00    -0.082 NA
ENDBRANCH   4   6
ENDBRANCH   1   3
BRANCH   1  11
HETATM   11  C3  UNL     1     -43.825 -61.668  61.124  1.00  0.00     0.099 C 
HETATM   12  C4  UNL     1     -45.302 -61.690  61.280  1.00  0.00     0.028 C 
HETATM   13  C5  UNL     1     -45.919 -63.018  61.472  1.00  0.00     0.022 C 
HETATM   14  C6  UNL     1     -45.229 -63.930  62.419  1.00  0.00     0.082 C 
HETATM   15 CL1  UNL     1     -46.137 -64.139  63.953  1.00  0.00    -0.125 Cl
HETATM   16  C7  UNL     1     -43.809 -63.509  62.684  1.00  0.00     0.022 C 
HETATM   17  C8  UNL     1     -43.256 -63.045  61.328  1.00  0.00     0.028 C 
ENDBRANCH   1  11
TORSDOF 3
ENDMDL
MODEL 4
REMARK VINA RESULT: -5.861966820      4.463      5.284
REMARK  3 active torsions:
REMARK  status: ('A' for Active; 'I' for Inactive)
REMARK    1  A    between atoms: C1_4  and  C2_6 
REMARK    2  A    between atoms: N3_7  and  N4_9 
REMARK    3  A    between atoms: N4_9  and  C3_11 
ROOT
HETATM    1  N4  UNL     1     -41.272 -60.520  60.111  1.00  0.00    -0.332 N 
ATOM      2  H4  UNL     1     -40.949 -59.553  60.146  1.00  0.00     0.180 HD
ENDROOT
BRANCH   1   3
HETATM    3  N3  UNL     1     -40.829 -61.346  59.076  1.00  0.00    -0.313 N 
HETATM    4  C2  UNL     1     -39.981 -60.959  58.194  1.00  0.00     0.151 C 
ATOM      5  H3  UNL     1     -41.195 -62.296  59.018  1.00  0.00     0.185 HD
BRANCH   4   6
HETATM    6  C1  UNL     1     -39.551 -61.859  57.135  1.00  0.00     0.126 C 
HETATM    7  N1  UNL     1     -38.472 -61.591  56.490  1.00  0.00    -0.387 N 
ATOM      8  H12 UNL     1     -38.171 -62.223  55.748  1.00  0.00     0.157 HD
ATOM      9  H11 UNL     1     -37.935 -60.758  56.728  1.00  0.00     0.157 HD
HETATM   10  N2  UNL     1     -40.295 -63.012  56.807  1.00  0.00    -0.082 NA
ENDBRANCH   4   6
ENDBRANCH   1   3
BRANCH   1  11
HETATM   11  C3  UNL     1     -42.180 -60.998  61.140  1.00  0.00     0.099 C 
HETATM   12  C4  UNL     1     -43.042 -62.117  60.679  1.00  0.00     0.028 C 
HETATM   13  C5  UNL     1     -42.946 -63.375  61.447  1.00  0.00     0.022 C 
HETATM   14  C6  UNL     1     -42.924 -63.239  62.925  1.00  0.00     0.082 C 
HETATM   15 CL1  UNL     1     -44.452 -63.791  63.687  1.00  0.00    -0.125 Cl
HETATM   16  C7  UNL     1     -42.575 -61.844  63.366  1.00  0.00     0.022 C 
HETATM   17  C8  UNL     1     -41.468 -61.374  62.409  1.00  0.00     0.028 C 
ENDBRANCH   1  11
TORSDOF 3
ENDMDL
MODEL 5
REMARK VINA RESULT: -5.852704155      3.775      5.242
REMARK  3 active torsions:
REMARK  status: ('A' for Active; 'I' for Inactive)
REMARK    1  A    between atoms: C1_4  and  C2_6 
REMARK    2  A    between atoms: N3_7  and  N4_9 
REMARK    3  A    between atoms: N4_9  and  C3_11 
ROOT
HETATM    1  N4  UNL     1     -42.224 -61.658  60.645  1.00  0.00    -0.332 N 
ATOM      2  H4  UNL     1     -42.100 -62.211  59.796  1.00  0.00     0.180 HD
ENDROOT
BRANCH   1   3
HETATM    3  N3  UNL     1     -41.628 -60.397  60.726  1.00  0.00    -0.313 N 
HETATM    4  C2  UNL     1     -40.549 -60.183  61.385  1.00  0.00     0.151 C 
ATOM      5  H3  UNL     1     -42.069 -59.616  60.242  1.00  0.00     0.185 HD
BRANCH   4   6
HETATM    6  C1  UNL     1     -39.967 -58.850  61.439  1.00  0.00     0.126 C 
HETATM    7  N1  UNL     1     -40.258 -58.007  60.514  1.00  0.00    -0.387 N 
ATOM      8  H12 UNL     1     -39.850 -57.073  60.551  1.00  0.00     0.157 HD
ATOM      9  H11 UNL     1     -40.888 -58.280  59.760  1.00  0.00     0.157 HD
HETATM   10  N2  UNL     1     -39.094 -58.473  62.481  1.00  0.00    -0.082 NA
ENDBRANCH   4   6
ENDBRANCH   1   3
BRANCH   1  11
HETATM   11  C3  UNL     1     -43.017 -62.204  61.734  1.00  0.00     0.099 C 
HETATM   12  C4  UNL     1     -44.449 -61.819  61.660  1.00  0.00     0.028 C 
HETATM   13  C5  UNL     1     -45.421 -62.929  61.594  1.00  0.00     0.022 C 
HETATM   14  C6  UNL     1     -45.180 -64.065  62.518  1.00  0.00     0.082 C 
HETATM   15 CL1  UNL     1     -46.371 -64.123  63.860  1.00  0.00    -0.125 Cl
HETATM   16  C7  UNL     1     -43.771 -64.085  63.044  1.00  0.00     0.022 C 
HETATM   17  C8  UNL     1     -42.881 -63.697  61.854  1.00  0.00     0.028 C 
ENDBRANCH   1  11
TORSDOF 3
ENDMDL
