MODEL 1
REMARK VINA RESULT: -5.378274923      0.000      0.000
REMARK  5 active torsions:
REMARK  status: ('A' for Active; 'I' for Inactive)
REMARK    1  A    between atoms: N1_2  and  C2_5 
REMARK    2  A    between atoms: C2_5  and  C3_6 
REMARK    3  A    between atoms: C3_6  and  C4_7 
REMARK    4  A    between atoms: C4_7  and  N2_8 
REMARK    5  A    between atoms: C8_16  and  N3_17 
ROOT
HETATM    1  C3  UNL     1     -46.372 -62.971  62.745  1.00  0.00     0.009 C 
HETATM    2  C5  UNL     1     -45.270 -63.532  63.572  1.00  0.00     0.014 C 
HETATM    3  C6  UNL     1     -43.932 -63.491  62.907  1.00  0.00     0.023 C 
HETATM    4  C7  UNL     1     -43.499 -62.029  62.815  1.00  0.00     0.112 C 
HETATM    5 CL1  UNL     1     -43.043 -61.465  64.441  1.00  0.00    -0.123 Cl
HETATM    6  C8  UNL     1     -44.604 -61.243  62.207  1.00  0.00     0.202 C 
HETATM    7  C9  UNL     1     -45.786 -62.013  61.749  1.00  0.00     0.047 C 
ENDROOT
BRANCH   1   8
HETATM    8  C2  UNL     1     -47.221 -64.039  62.079  1.00  0.00     0.242 C 
BRANCH   8   9
HETATM    9  N1  UNL     1     -48.611 -63.951  62.366  1.00  0.00    -0.078 N 
HETATM   10  C1  UNL     1     -49.057 -65.305  62.711  1.00  0.00     0.267 C 
ATOM     11  H12 UNL     1     -49.152 -63.529  61.612  1.00  0.00     0.276 HD
ATOM     12  H11 UNL     1     -48.830 -63.260  63.084  1.00  0.00     0.276 HD
ENDBRANCH   8   9
ENDBRANCH   1   8
BRANCH   1  13
HETATM   13  C4  UNL     1     -47.397 -62.211  63.604  1.00  0.00     0.240 C 
BRANCH  13  14
HETATM   14  N2  UNL     1     -47.030 -62.086  64.965  1.00  0.00    -0.079 N 
ATOM     15  H23 UNL     1     -47.814 -62.330  65.571  1.00  0.00     0.274 HD
ATOM     16  H22 UNL     1     -46.374 -62.822  65.228  1.00  0.00     0.274 HD
ATOM     17  H21 UNL     1     -46.658 -61.170  65.214  1.00  0.00     0.274 HD
ENDBRANCH  13  14
ENDBRANCH   1  13
BRANCH   6  18
HETATM   18  N3  UNL     1     -44.051 -60.573  61.019  1.00  0.00    -0.074 N 
ATOM     19  H33 UNL     1     -43.843 -59.586  61.176  1.00  0.00     0.274 HD
ATOM     20  H32 UNL     1     -43.101 -60.871  60.797  1.00  0.00     0.274 HD
ATOM     21  H31 UNL     1     -44.710 -60.728  60.256  1.00  0.00     0.274 HD
ENDBRANCH   6  18
TORSDOF 5
ENDMDL
MODEL 2
REMARK VINA RESULT: -5.286206401      1.300      1.300
REMARK  5 active torsions:
REMARK  status: ('A' for Active; 'I' for Inactive)
REMARK    1  A    between atoms: N1_2  and  C2_5 
REMARK    2  A    between atoms: C2_5  and  C3_6 
REMARK    3  A    between atoms: C3_6  and  C4_7 
REMARK    4  A    between atoms: C4_7  and  N2_8 
REMARK    5  A    between atoms: C8_16  and  N3_17 
ROOT
HETATM    1  C3  UNL     1     -46.289 -63.241  62.406  1.00  0.00     0.009 C 
HETATM    2  C5  UNL     1     -45.319 -63.818  63.375  1.00  0.00     0.014 C 
HETATM    3  C6  UNL     1     -44.065 -64.333  62.745  1.00  0.00     0.023 C 
HETATM    4  C7  UNL     1     -43.271 -63.132  62.233  1.00  0.00     0.112 C 
HETATM    5 CL1  UNL     1     -42.574 -62.272  63.628  1.00  0.00    -0.123 Cl
HETATM    6  C8  UNL     1     -44.170 -62.284  61.407  1.00  0.00     0.202 C 
HETATM    7  C9  UNL     1     -45.540 -62.804  61.181  1.00  0.00     0.047 C 
ENDROOT
BRANCH   1   8
HETATM    8  C2  UNL     1     -47.431 -64.184  62.072  1.00  0.00     0.242 C 
BRANCH   8   9
HETATM    9  N1  UNL     1     -48.433 -64.275  63.076  1.00  0.00    -0.078 N 
HETATM   10  C1  UNL     1     -49.145 -65.537  62.849  1.00  0.00     0.267 C 
ATOM     11  H12 UNL     1     -49.051 -63.464  63.103  1.00  0.00     0.276 HD
ATOM     12  H11 UNL     1     -48.063 -64.186  64.023  1.00  0.00     0.276 HD
ENDBRANCH   8   9
ENDBRANCH   1   8
BRANCH   1  13
HETATM   13  C4  UNL     1     -47.018 -62.019  62.991  1.00  0.00     0.240 C 
BRANCH  13  14
HETATM   14  N2  UNL     1     -47.573 -61.157  62.016  1.00  0.00    -0.079 N 
ATOM     15  H23 UNL     1     -47.407 -61.524  61.079  1.00  0.00     0.274 HD
ATOM     16  H22 UNL     1     -48.592 -61.198  62.041  1.00  0.00     0.274 HD
ATOM     17  H21 UNL     1     -47.252 -60.191  62.084  1.00  0.00     0.274 HD
ENDBRANCH  13  14
ENDBRANCH   1  13
BRANCH   6  18
HETATM   18  N3  UNL     1     -43.542 -62.158  60.082  1.00  0.00    -0.074 N 
ATOM     19  H33 UNL     1     -43.284 -61.198  59.851  1.00  0.00     0.274 HD
ATOM     20  H32 UNL     1     -42.604 -62.557  60.043  1.00  0.00     0.274 HD
ATOM     21  H31 UNL     1     -44.184 -62.575  59.408  1.00  0.00     0.274 HD
ENDBRANCH   6  18
TORSDOF 5
ENDMDL
MODEL 3
REMARK VINA RESULT: -5.120388081      2.368      4.218
REMARK  5 active torsions:
REMARK  status: ('A' for Active; 'I' for Inactive)
REMARK    1  A    between atoms: N1_2  and  C2_5 
REMARK    2  A    between atoms: C2_5  and  C3_6 
REMARK    3  A    between atoms: C3_6  and  C4_7 
REMARK    4  A    between atoms: C4_7  and  N2_8 
REMARK    5  A    between atoms: C8_16  and  N3_17 
ROOT
HETATM    1  C3  UNL     1     -45.536 -61.565  62.011  1.00  0.00     0.009 C 
HETATM    2  C5  UNL     1     -46.239 -62.875  62.013  1.00  0.00     0.014 C 
HETATM    3  C6  UNL     1     -45.794 -63.801  63.098  1.00  0.00     0.023 C 
HETATM    4  C7  UNL     1     -46.271 -63.223  64.430  1.00  0.00     0.112 C 
HETATM    5 CL1  UNL     1     -48.034 -63.446  64.550  1.00  0.00    -0.123 Cl
HETATM    6  C8  UNL     1     -45.850 -61.800  64.510  1.00  0.00     0.202 C 
HETATM    7  C9  UNL     1     -45.016 -61.297  63.393  1.00  0.00     0.047 C 
ENDROOT
BRANCH   1   8
HETATM    8  C2  UNL     1     -44.443 -61.475  60.961  1.00  0.00     0.242 C 
BRANCH   8   9
HETATM    9  N1  UNL     1     -43.511 -60.422  61.170  1.00  0.00    -0.078 N 
HETATM   10  C1  UNL     1     -42.173 -61.014  61.054  1.00  0.00     0.267 C 
ATOM     11  H12 UNL     1     -43.656 -59.926  62.049  1.00  0.00     0.276 HD
ATOM     12  H11 UNL     1     -43.654 -59.627  60.548  1.00  0.00     0.276 HD
ENDBRANCH   8   9
ENDBRANCH   1   8
BRANCH   1  13
HETATM   13  C4  UNL     1     -46.480 -60.415  61.616  1.00  0.00     0.240 C 
BRANCH  13  14
HETATM   14  N2  UNL     1     -47.853 -60.716  61.770  1.00  0.00    -0.079 N 
ATOM     15  H23 UNL     1     -48.185 -60.417  62.687  1.00  0.00     0.274 HD
ATOM     16  H22 UNL     1     -48.421 -60.113  61.175  1.00  0.00     0.274 HD
ATOM     17  H21 UNL     1     -48.085 -61.697  61.610  1.00  0.00     0.274 HD
ENDBRANCH  13  14
ENDBRANCH   1  13
BRANCH   6  18
HETATM   18  N3  UNL     1     -45.046 -61.659  65.735  1.00  0.00    -0.074 N 
ATOM     19  H33 UNL     1     -45.242 -62.381  66.428  1.00  0.00     0.274 HD
ATOM     20  H32 UNL     1     -44.060 -61.878  65.594  1.00  0.00     0.274 HD
ATOM     21  H31 UNL     1     -45.202 -60.713  66.085  1.00  0.00     0.274 HD
ENDBRANCH   6  18
TORSDOF 5
ENDMDL
MODEL 4
REMARK VINA RESULT: -5.091717408      1.917      2.889
REMARK  5 active torsions:
REMARK  status: ('A' for Active; 'I' for Inactive)
REMARK    1  A    between atoms: N1_2  and  C2_5 
REMARK    2  A    between atoms: C2_5  and  C3_6 
REMARK    3  A    between atoms: C3_6  and  C4_7 
REMARK    4  A    between atoms: C4_7  and  N2_8 
REMARK    5  A    between atoms: C8_16  and  N3_17 
ROOT
HETATM    1  C3  UNL     1     -46.680 -62.594  63.137  1.00  0.00     0.009 C 
HETATM    2  C5  UNL     1     -47.000 -61.219  62.668  1.00  0.00     0.014 C 
HETATM    3  C6  UNL     1     -46.807 -60.163  63.708  1.00  0.00     0.023 C 
HETATM    4  C7  UNL     1     -45.307 -60.030  63.966  1.00  0.00     0.112 C 
HETATM    5 CL1  UNL     1     -44.558 -59.217  62.569  1.00  0.00    -0.123 Cl
HETATM    6  C8  UNL     1     -44.748 -61.381  64.231  1.00  0.00     0.202 C 
HETATM    7  C9  UNL     1     -45.722 -62.497  64.289  1.00  0.00     0.047 C 
ENDROOT
BRANCH   1   8
HETATM    8  C2  UNL     1     -47.913 -63.409  63.486  1.00  0.00     0.242 C 
BRANCH   8   9
HETATM    9  N1  UNL     1     -48.649 -63.874  62.363  1.00  0.00    -0.078 N 
HETATM   10  C1  UNL     1     -49.000 -65.272  62.637  1.00  0.00     0.267 C 
ATOM     11  H12 UNL     1     -48.156 -63.749  61.479  1.00  0.00     0.276 HD
ATOM     12  H11 UNL     1     -49.457 -63.292  62.143  1.00  0.00     0.276 HD
ENDBRANCH   8   9
ENDBRANCH   1   8
BRANCH   1  13
HETATM   13  C4  UNL     1     -46.022 -63.434  62.028  1.00  0.00     0.240 C 
BRANCH  13  14
HETATM   14  N2  UNL     1     -45.639 -62.687  60.889  1.00  0.00    -0.079 N 
ATOM     15  H23 UNL     1     -45.319 -61.758  61.162  1.00  0.00     0.274 HD
ATOM     16  H22 UNL     1     -44.775 -63.058  60.493  1.00  0.00     0.274 HD
ATOM     17  H21 UNL     1     -46.362 -62.620  60.173  1.00  0.00     0.274 HD
ENDBRANCH  13  14
ENDBRANCH   1  13
BRANCH   6  18
HETATM   18  N3  UNL     1     -44.093 -61.323  65.548  1.00  0.00    -0.074 N 
ATOM     19  H33 UNL     1     -43.633 -60.431  65.728  1.00  0.00     0.274 HD
ATOM     20  H32 UNL     1     -44.755 -61.286  66.323  1.00  0.00     0.274 HD
ATOM     21  H31 UNL     1     -43.459 -62.120  65.600  1.00  0.00     0.274 HD
ENDBRANCH   6  18
TORSDOF 5
ENDMDL
MODEL 5
REMARK VINA RESULT: -5.081923068      2.495      2.902
REMARK  5 active torsions:
REMARK  status: ('A' for Active; 'I' for Inactive)
REMARK    1  A    between atoms: N1_2  and  C2_5 
REMARK    2  A    between atoms: C2_5  and  C3_6 
REMARK    3  A    between atoms: C3_6  and  C4_7 
REMARK    4  A    between atoms: C4_7  and  N2_8 
REMARK    5  A    between atoms: C8_16  and  N3_17 
ROOT
HETATM    1  C3  UNL     1     -46.465 -60.887  62.610  1.00  0.00     0.009 C 
HETATM    2  C5  UNL     1     -46.578 -60.368  64.000  1.00  0.00     0.014 C 
HETATM    3  C6  UNL     1     -45.263 -60.105  64.658  1.00  0.00     0.023 C 
HETATM    4  C7  UNL     1     -44.623 -58.905  63.961  1.00  0.00     0.112 C 
HETATM    5 CL1  UNL     1     -45.500 -57.431  64.442  1.00  0.00    -0.123 Cl
HETATM    6  C8  UNL     1     -44.633 -59.146  62.495  1.00  0.00     0.202 C 
HETATM    7  C9  UNL     1     -45.139 -60.466  62.048  1.00  0.00     0.047 C 
ENDROOT
BRANCH   1   8
HETATM    8  C2  UNL     1     -46.675 -62.388  62.514  1.00  0.00     0.242 C 
BRANCH   8   9
HETATM    9  N1  UNL     1     -48.035 -62.785  62.391  1.00  0.00    -0.078 N 
HETATM   10  C1  UNL     1     -48.109 -64.180  62.839  1.00  0.00     0.267 C 
ATOM     11  H12 UNL     1     -48.412 -62.643  61.455  1.00  0.00     0.276 HD
ATOM     12  H11 UNL     1     -48.680 -62.169  62.885  1.00  0.00     0.276 HD
ENDBRANCH   8   9
ENDBRANCH   1   8
BRANCH   1  13
HETATM   13  C4  UNL     1     -47.576 -60.330  61.703  1.00  0.00     0.240 C 
BRANCH  13  14
HETATM   14  N2  UNL     1     -48.344 -59.301  62.296  1.00  0.00    -0.079 N 
ATOM     15  H23 UNL     1     -48.373 -58.481  61.690  1.00  0.00     0.274 HD
ATOM     16  H22 UNL     1     -49.333 -59.549  62.300  1.00  0.00     0.274 HD
ATOM     17  H21 UNL     1     -48.037 -59.040  63.234  1.00  0.00     0.274 HD
ENDBRANCH  13  14
ENDBRANCH   1  13
BRANCH   6  18
HETATM   18  N3  UNL     1     -43.238 -59.049  62.035  1.00  0.00    -0.074 N 
ATOM     19  H33 UNL     1     -42.639 -58.533  62.679  1.00  0.00     0.274 HD
ATOM     20  H32 UNL     1     -42.740 -59.938  62.078  1.00  0.00     0.274 HD
ATOM     21  H31 UNL     1     -43.262 -58.647  61.098  1.00  0.00     0.274 HD
ENDBRANCH   6  18
TORSDOF 5
ENDMDL
