MODEL 1
REMARK VINA RESULT: -5.396422879      0.000      0.000
REMARK  2 active torsions:
REMARK  status: ('A' for Active; 'I' for Inactive)
REMARK    1  A    between atoms: N1_1  and  N2_4 
REMARK    2  A    between atoms: N2_4  and  C1_6 
ROOT
HETATM    1  C1  UNL     1      14.136  51.980  16.755  1.00  0.00     0.174 C 
HETATM    2  N3  UNL     1      13.287  51.039  16.932  1.00  0.00    -0.338 N 
ATOM      3  H3  UNL     1      13.494  50.048  16.806  1.00  0.00     0.164 HD
HETATM    4  C2  UNL     1      11.989  51.558  17.333  1.00  0.00     0.350 C 
HETATM    5  F1  UNL     1      11.897  51.614  18.704  1.00  0.00    -0.220 F 
HETATM    6  C3  UNL     1      12.052  52.959  16.742  1.00  0.00     0.362 C 
HETATM    7  F2  UNL     1      11.904  52.853  15.381  1.00  0.00    -0.194 F 
HETATM    8  F3  UNL     1      11.186  53.825  17.331  1.00  0.00    -0.194 F 
HETATM    9  C4  UNL     1      13.502  53.296  17.024  1.00  0.00     0.370 C 
HETATM   10  F4  UNL     1      13.665  53.678  18.358  1.00  0.00    -0.190 F 
HETATM   11  F5  UNL     1      13.936  54.278  16.161  1.00  0.00    -0.190 F 
ENDROOT
BRANCH   1  12
HETATM   12  N2  UNL     1      15.483  51.747  16.359  1.00  0.00    -0.291 N 
ATOM     13  H2  UNL     1      16.244  51.897  17.022  1.00  0.00     0.188 HD
BRANCH  12  14
HETATM   14  N1  UNL     1      15.760  51.313  15.058  1.00  0.00    -0.344 N 
ATOM     15  H12 UNL     1      16.651  51.563  14.630  1.00  0.00     0.176 HD
ATOM     16  H11 UNL     1      15.072  50.755  14.554  1.00  0.00     0.176 HD
ENDBRANCH  12  14
ENDBRANCH   1  12
TORSDOF 2
ENDMDL
MODEL 2
REMARK VINA RESULT: -5.288526581      2.063      2.872
REMARK  2 active torsions:
REMARK  status: ('A' for Active; 'I' for Inactive)
REMARK    1  A    between atoms: N1_1  and  N2_4 
REMARK    2  A    between atoms: N2_4  and  C1_6 
ROOT
HETATM    1  C1  UNL     1      13.573  51.736  17.343  1.00  0.00     0.174 C 
HETATM    2  N3  UNL     1      13.374  51.847  18.603  1.00  0.00    -0.338 N 
ATOM      3  H3  UNL     1      12.734  51.258  19.137  1.00  0.00     0.164 HD
HETATM    4  C2  UNL     1      14.173  52.916  19.178  1.00  0.00     0.350 C 
HETATM    5  F1  UNL     1      15.379  52.428  19.625  1.00  0.00    -0.220 F 
HETATM    6  C3  UNL     1      14.372  53.806  17.960  1.00  0.00     0.362 C 
HETATM    7  F2  UNL     1      13.186  54.447  17.704  1.00  0.00    -0.194 F 
HETATM    8  F3  UNL     1      15.442  54.636  18.075  1.00  0.00    -0.194 F 
HETATM    9  C4  UNL     1      14.563  52.747  16.893  1.00  0.00     0.370 C 
HETATM   10  F4  UNL     1      15.865  52.239  16.935  1.00  0.00    -0.190 F 
HETATM   11  F5  UNL     1      14.264  53.266  15.653  1.00  0.00    -0.190 F 
ENDROOT
BRANCH   1  12
HETATM   12  N2  UNL     1      12.916  50.766  16.535  1.00  0.00    -0.291 N 
ATOM     13  H2  UNL     1      13.186  49.784  16.592  1.00  0.00     0.188 HD
BRANCH  12  14
HETATM   14  N1  UNL     1      11.899  51.165  15.660  1.00  0.00    -0.344 N 
ATOM     15  H12 UNL     1      11.649  52.153  15.606  1.00  0.00     0.176 HD
ATOM     16  H11 UNL     1      11.421  50.469  15.089  1.00  0.00     0.176 HD
ENDBRANCH  12  14
ENDBRANCH   1  12
TORSDOF 2
ENDMDL
MODEL 3
REMARK VINA RESULT: -5.150272875      2.026      2.703
REMARK  2 active torsions:
REMARK  status: ('A' for Active; 'I' for Inactive)
REMARK    1  A    between atoms: N1_1  and  N2_4 
REMARK    2  A    between atoms: N2_4  and  C1_6 
ROOT
HETATM    1  C1  UNL     1      13.975  52.659  18.218  1.00  0.00     0.174 C 
HETATM    2  N3  UNL     1      13.768  51.407  18.048  1.00  0.00    -0.338 N 
ATOM      3  H3  UNL     1      13.949  50.694  18.755  1.00  0.00     0.164 HD
HETATM    4  C2  UNL     1      13.243  51.127  16.721  1.00  0.00     0.350 C 
HETATM    5  F1  UNL     1      11.868  51.138  16.737  1.00  0.00    -0.220 F 
HETATM    6  C3  UNL     1      13.780  52.322  15.948  1.00  0.00     0.362 C 
HETATM    7  F2  UNL     1      15.128  52.136  15.762  1.00  0.00    -0.194 F 
HETATM    8  F3  UNL     1      13.089  52.573  14.805  1.00  0.00    -0.194 F 
HETATM    9  C4  UNL     1      13.604  53.408  16.990  1.00  0.00     0.370 C 
HETATM   10  F4  UNL     1      12.272  53.831  17.034  1.00  0.00    -0.190 F 
HETATM   11  F5  UNL     1      14.459  54.456  16.731  1.00  0.00    -0.190 F 
ENDROOT
BRANCH   1  12
HETATM   12  N2  UNL     1      14.487  53.204  19.428  1.00  0.00    -0.291 N 
ATOM     13  H2  UNL     1      14.870  54.150  19.441  1.00  0.00     0.188 HD
BRANCH  12  14
HETATM   14  N1  UNL     1      14.463  52.439  20.600  1.00  0.00    -0.344 N 
ATOM     15  H12 UNL     1      15.327  52.311  21.127  1.00  0.00     0.176 HD
ATOM     16  H11 UNL     1      13.588  52.021  20.913  1.00  0.00     0.176 HD
ENDBRANCH  12  14
ENDBRANCH   1  12
TORSDOF 2
ENDMDL
MODEL 4
REMARK VINA RESULT: -5.108816111      2.091      2.756
REMARK  2 active torsions:
REMARK  status: ('A' for Active; 'I' for Inactive)
REMARK    1  A    between atoms: N1_1  and  N2_4 
REMARK    2  A    between atoms: N2_4  and  C1_6 
ROOT
HETATM    1  C1  UNL     1      13.404  52.213  18.136  1.00  0.00     0.174 C 
HETATM    2  N3  UNL     1      12.280  51.792  17.691  1.00  0.00    -0.338 N 
ATOM      3  H3  UNL     1      11.603  51.268  18.246  1.00  0.00     0.164 HD
HETATM    4  C2  UNL     1      12.088  52.153  16.296  1.00  0.00     0.350 C 
HETATM    5  F1  UNL     1      11.436  53.360  16.197  1.00  0.00    -0.220 F 
HETATM    6  C3  UNL     1      13.533  52.285  15.837  1.00  0.00     0.362 C 
HETATM    7  F2  UNL     1      14.062  51.022  15.732  1.00  0.00    -0.194 F 
HETATM    8  F3  UNL     1      13.671  53.043  14.718  1.00  0.00    -0.194 F 
HETATM    9  C4  UNL     1      14.137  52.936  17.065  1.00  0.00     0.370 C 
HETATM   10  F4  UNL     1      13.850  54.304  17.084  1.00  0.00    -0.190 F 
HETATM   11  F5  UNL     1      15.494  52.704  17.104  1.00  0.00    -0.190 F 
ENDROOT
BRANCH   1  12
HETATM   12  N2  UNL     1      13.841  51.996  19.472  1.00  0.00    -0.291 N 
ATOM     13  H2  UNL     1      13.579  51.142  19.965  1.00  0.00     0.188 HD
BRANCH  12  14
HETATM   14  N1  UNL     1      14.632  52.959  20.109  1.00  0.00    -0.344 N 
ATOM     15  H12 UNL     1      14.762  53.868  19.665  1.00  0.00     0.176 HD
ATOM     16  H11 UNL     1      15.069  52.745  21.005  1.00  0.00     0.176 HD
ENDBRANCH  12  14
ENDBRANCH   1  12
TORSDOF 2
ENDMDL
MODEL 5
REMARK VINA RESULT: -5.013038907      2.422      3.534
REMARK  2 active torsions:
REMARK  status: ('A' for Active; 'I' for Inactive)
REMARK    1  A    between atoms: N1_1  and  N2_4 
REMARK    2  A    between atoms: N2_4  and  C1_6 
ROOT
HETATM    1  C1  UNL     1      12.639  53.103  17.186  1.00  0.00     0.174 C 
HETATM    2  N3  UNL     1      13.409  54.124  17.237  1.00  0.00    -0.338 N 
ATOM      3  H3  UNL     1      13.147  55.056  16.914  1.00  0.00     0.164 HD
HETATM    4  C2  UNL     1      14.702  53.791  17.811  1.00  0.00     0.350 C 
HETATM    5  F1  UNL     1      14.690  53.995  19.172  1.00  0.00    -0.220 F 
HETATM    6  C3  UNL     1      14.778  52.306  17.493  1.00  0.00     0.362 C 
HETATM    7  F2  UNL     1      15.024  52.172  16.149  1.00  0.00    -0.194 F 
HETATM    8  F3  UNL     1      15.649  51.633  18.289  1.00  0.00    -0.194 F 
HETATM    9  C4  UNL     1      13.335  51.912  17.738  1.00  0.00     0.370 C 
HETATM   10  F4  UNL     1      13.093  51.770  19.108  1.00  0.00    -0.190 F 
HETATM   11  F5  UNL     1      13.036  50.758  17.050  1.00  0.00    -0.190 F 
ENDROOT
BRANCH   1  12
HETATM   12  N2  UNL     1      11.315  53.152  16.667  1.00  0.00    -0.291 N 
ATOM     13  H2  UNL     1      10.518  53.201  17.303  1.00  0.00     0.188 HD
BRANCH  12  14
HETATM   14  N1  UNL     1      11.110  53.131  15.283  1.00  0.00    -0.344 N 
ATOM     15  H12 UNL     1      11.697  52.532  14.703  1.00  0.00     0.176 HD
ATOM     16  H11 UNL     1      10.379  53.711  14.871  1.00  0.00     0.176 HD
ENDBRANCH  12  14
ENDBRANCH   1  12
TORSDOF 2
ENDMDL
