MODEL 1
REMARK VINA RESULT: -6.117579162      0.000      0.000
REMARK  1 active torsions:
REMARK  status: ('A' for Active; 'I' for Inactive)
REMARK    1  A    between atoms: C2_5  and  C3_6 
ROOT
HETATM    1  N1  UNL     1      15.822  51.676  16.167  1.00  0.00    -0.081 NA
HETATM    2  C1  UNL     1      14.605  52.302  16.645  1.00  0.00     0.164 A 
HETATM    3  N2  UNL     1      13.716  52.981  16.051  1.00  0.00    -0.359 N 
ATOM      4  H2  UNL     1      13.609  53.273  15.080  1.00  0.00     0.161 HD
HETATM    5  C2  UNL     1      12.929  53.189  17.192  1.00  0.00     0.271 A 
HETATM    6  C4  UNL     1      13.924  52.410  17.942  1.00  0.00     0.326 A 
HETATM    7  F4  UNL     1      13.512  51.202  18.465  1.00  0.00    -0.195 F 
HETATM    8  F5  UNL     1      14.599  53.159  18.892  1.00  0.00    -0.195 F 
ENDROOT
BRANCH   5   9
HETATM    9  C3  UNL     1      11.554  52.583  17.029  1.00  0.00     0.413 C 
HETATM   10  F1  UNL     1      10.942  52.398  18.263  1.00  0.00    -0.169 F 
HETATM   11  F2  UNL     1      11.579  51.449  16.278  1.00  0.00    -0.169 F 
HETATM   12  F3  UNL     1      10.788  53.517  16.352  1.00  0.00    -0.169 F 
ENDBRANCH   5   9
TORSDOF 1
ENDMDL
MODEL 2
REMARK VINA RESULT: -5.950254927      0.114      1.170
REMARK  1 active torsions:
REMARK  status: ('A' for Active; 'I' for Inactive)
REMARK    1  A    between atoms: C2_5  and  C3_6 
ROOT
HETATM    1  N1  UNL     1      15.815  51.667  16.168  1.00  0.00    -0.081 NA
HETATM    2  C1  UNL     1      14.609  52.291  16.678  1.00  0.00     0.164 A 
HETATM    3  N2  UNL     1      13.756  53.051  16.130  1.00  0.00    -0.359 N 
ATOM      4  H2  UNL     1      13.681  53.432  15.187  1.00  0.00     0.161 HD
HETATM    5  C2  UNL     1      12.953  53.186  17.270  1.00  0.00     0.271 A 
HETATM    6  C4  UNL     1      13.903  52.308  17.966  1.00  0.00     0.326 A 
HETATM    7  F4  UNL     1      13.439  51.074  18.371  1.00  0.00    -0.195 F 
HETATM    8  F5  UNL     1      14.583  52.946  18.992  1.00  0.00    -0.195 F 
ENDROOT
BRANCH   5   9
HETATM    9  C3  UNL     1      11.562  52.646  17.028  1.00  0.00     0.413 C 
HETATM   10  F1  UNL     1      11.610  51.412  16.391  1.00  0.00    -0.169 F 
HETATM   11  F2  UNL     1      10.769  53.542  16.380  1.00  0.00    -0.169 F 
HETATM   12  F3  UNL     1      11.004  52.417  18.275  1.00  0.00    -0.169 F 
ENDBRANCH   5   9
TORSDOF 1
ENDMDL
MODEL 3
REMARK VINA RESULT: -5.365390341      2.005      2.574
REMARK  1 active torsions:
REMARK  status: ('A' for Active; 'I' for Inactive)
REMARK    1  A    between atoms: C2_5  and  C3_6 
ROOT
HETATM    1  N1  UNL     1      14.645  52.793  19.954  1.00  0.00    -0.081 NA
HETATM    2  C1  UNL     1      14.205  52.358  18.642  1.00  0.00     0.164 A 
HETATM    3  N2  UNL     1      13.390  51.458  18.281  1.00  0.00    -0.359 N 
ATOM      4  H2  UNL     1      12.821  50.795  18.808  1.00  0.00     0.161 HD
HETATM    5  C2  UNL     1      13.542  51.690  16.908  1.00  0.00     0.271 A 
HETATM    6  C4  UNL     1      14.498  52.750  17.257  1.00  0.00     0.326 A 
HETATM    7  F4  UNL     1      14.141  54.046  16.950  1.00  0.00    -0.195 F 
HETATM    8  F5  UNL     1      15.790  52.477  16.837  1.00  0.00    -0.195 F 
ENDROOT
BRANCH   5   9
HETATM    9  C3  UNL     1      12.236  52.117  16.276  1.00  0.00     0.413 C 
HETATM   10  F1  UNL     1      12.457  52.773  15.072  1.00  0.00    -0.169 F 
HETATM   11  F2  UNL     1      11.462  52.836  17.134  1.00  0.00    -0.169 F 
HETATM   12  F3  UNL     1      11.550  50.955  15.965  1.00  0.00    -0.169 F 
ENDBRANCH   5   9
TORSDOF 1
ENDMDL
MODEL 4
REMARK VINA RESULT: -5.166840804      2.064      3.471
REMARK  1 active torsions:
REMARK  status: ('A' for Active; 'I' for Inactive)
REMARK    1  A    between atoms: C2_5  and  C3_6 
ROOT
HETATM    1  N1  UNL     1      12.809  50.074  16.855  1.00  0.00    -0.081 NA
HETATM    2  C1  UNL     1      12.919  51.503  17.077  1.00  0.00     0.164 A 
HETATM    3  N2  UNL     1      13.162  52.178  18.121  1.00  0.00    -0.359 N 
ATOM      4  H2  UNL     1      13.348  51.907  19.087  1.00  0.00     0.161 HD
HETATM    5  C2  UNL     1      13.088  53.426  17.488  1.00  0.00     0.271 A 
HETATM    6  C4  UNL     1      12.801  52.705  16.240  1.00  0.00     0.326 A 
HETATM    7  F4  UNL     1      13.742  52.786  15.235  1.00  0.00    -0.195 F 
HETATM    8  F5  UNL     1      11.528  52.949  15.751  1.00  0.00    -0.195 F 
ENDROOT
BRANCH   5   9
HETATM    9  C3  UNL     1      14.405  54.164  17.573  1.00  0.00     0.413 C 
HETATM   10  F1  UNL     1      14.374  55.327  16.814  1.00  0.00    -0.169 F 
HETATM   11  F2  UNL     1      15.462  53.363  17.269  1.00  0.00    -0.169 F 
HETATM   12  F3  UNL     1      14.549  54.565  18.891  1.00  0.00    -0.169 F 
ENDBRANCH   5   9
TORSDOF 1
ENDMDL
MODEL 5
REMARK VINA RESULT: -5.159426499      2.344      3.154
REMARK  1 active torsions:
REMARK  status: ('A' for Active; 'I' for Inactive)
REMARK    1  A    between atoms: C2_5  and  C3_6 
ROOT
HETATM    1  N1  UNL     1      13.928  52.320  20.153  1.00  0.00    -0.081 NA
HETATM    2  C1  UNL     1      14.333  52.521  18.775  1.00  0.00     0.164 A 
HETATM    3  N2  UNL     1      15.095  51.854  18.014  1.00  0.00    -0.359 N 
ATOM      4  H2  UNL     1      15.631  50.998  18.157  1.00  0.00     0.161 HD
HETATM    5  C2  UNL     1      14.944  52.701  16.907  1.00  0.00     0.271 A 
HETATM    6  C4  UNL     1      14.049  53.520  17.736  1.00  0.00     0.326 A 
HETATM    7  F4  UNL     1      12.724  53.581  17.359  1.00  0.00    -0.195 F 
HETATM    8  F5  UNL     1      14.552  54.785  17.995  1.00  0.00    -0.195 F 
ENDROOT
BRANCH   5   9
HETATM    9  C3  UNL     1      14.327  51.970  15.737  1.00  0.00     0.413 C 
HETATM   10  F1  UNL     1      13.833  52.864  14.796  1.00  0.00    -0.169 F 
HETATM   11  F2  UNL     1      13.401  51.056  16.134  1.00  0.00    -0.169 F 
HETATM   12  F3  UNL     1      15.355  51.281  15.115  1.00  0.00    -0.169 F 
ENDBRANCH   5   9
TORSDOF 1
ENDMDL
