MODEL 1
REMARK VINA RESULT: -6.269927096      0.000      0.000
REMARK  1 active torsions:
REMARK  status: ('A' for Active; 'I' for Inactive)
REMARK    1  A    between atoms: C2_5  and  C3_7 
ROOT
HETATM    1  F1  UNL     1      11.440  53.394  17.016  1.00  0.00    -0.225 F 
HETATM    2  C1  UNL     1      11.890  52.118  17.195  1.00  0.00     0.345 C 
HETATM    3  N1  UNL     1      12.291  51.392  16.031  1.00  0.00    -0.102 NA
HETATM    4  N2  UNL     1      13.352  50.854  16.782  1.00  0.00    -0.088 NA
HETATM    5  C2  UNL     1      13.264  51.947  17.750  1.00  0.00     0.331 C 
HETATM    6  F2  UNL     1      13.254  51.525  19.061  1.00  0.00    -0.208 F 
ENDROOT
BRANCH   5   7
HETATM    7  C3  UNL     1      14.252  53.025  17.479  1.00  0.00     0.444 C 
HETATM    8  F3  UNL     1      13.809  53.990  16.602  1.00  0.00    -0.166 F 
HETATM    9  F4  UNL     1      14.572  53.613  18.710  1.00  0.00    -0.166 F 
HETATM   10  F5  UNL     1      15.429  52.514  16.987  1.00  0.00    -0.166 F 
ENDBRANCH   5   7
TORSDOF 1
ENDMDL
MODEL 2
REMARK VINA RESULT: -6.196225807      1.138      2.066
REMARK  1 active torsions:
REMARK  status: ('A' for Active; 'I' for Inactive)
REMARK    1  A    between atoms: C2_5  and  C3_7 
ROOT
HETATM    1  F1  UNL     1      13.855  52.573  14.808  1.00  0.00    -0.225 F 
HETATM    2  C1  UNL     1      13.065  52.074  15.804  1.00  0.00     0.345 C 
HETATM    3  N1  UNL     1      13.508  50.887  16.464  1.00  0.00    -0.102 NA
HETATM    4  N2  UNL     1      13.043  51.435  17.673  1.00  0.00    -0.088 NA
HETATM    5  C2  UNL     1      13.084  52.786  17.115  1.00  0.00     0.331 C 
HETATM    6  F2  UNL     1      11.934  53.511  17.338  1.00  0.00    -0.208 F 
ENDROOT
BRANCH   5   7
HETATM    7  C3  UNL     1      14.327  53.514  17.482  1.00  0.00     0.444 C 
HETATM    8  F3  UNL     1      15.487  52.901  17.062  1.00  0.00    -0.166 F 
HETATM    9  F4  UNL     1      14.238  54.796  16.923  1.00  0.00    -0.166 F 
HETATM   10  F5  UNL     1      14.416  53.700  18.841  1.00  0.00    -0.166 F 
ENDBRANCH   5   7
TORSDOF 1
ENDMDL
MODEL 3
REMARK VINA RESULT: -5.894540864      0.608      1.452
REMARK  1 active torsions:
REMARK  status: ('A' for Active; 'I' for Inactive)
REMARK    1  A    between atoms: C2_5  and  C3_7 
ROOT
HETATM    1  F1  UNL     1      11.447  53.381  16.852  1.00  0.00    -0.225 F 
HETATM    2  C1  UNL     1      11.908  52.138  17.177  1.00  0.00     0.345 C 
HETATM    3  N1  UNL     1      12.115  51.212  16.108  1.00  0.00    -0.102 NA
HETATM    4  N2  UNL     1      13.275  50.772  16.769  1.00  0.00    -0.088 NA
HETATM    5  C2  UNL     1      13.350  52.015  17.535  1.00  0.00     0.331 C 
HETATM    6  F2  UNL     1      13.544  51.821  18.885  1.00  0.00    -0.208 F 
ENDROOT
BRANCH   5   7
HETATM    7  C3  UNL     1      14.293  52.996  16.934  1.00  0.00     0.444 C 
HETATM    8  F3  UNL     1      15.616  52.618  16.992  1.00  0.00    -0.166 F 
HETATM    9  F4  UNL     1      13.908  53.178  15.600  1.00  0.00    -0.166 F 
HETATM   10  F5  UNL     1      14.180  54.229  17.532  1.00  0.00    -0.166 F 
ENDBRANCH   5   7
TORSDOF 1
ENDMDL
MODEL 4
REMARK VINA RESULT: -5.715622304      1.665      3.012
REMARK  1 active torsions:
REMARK  status: ('A' for Active; 'I' for Inactive)
REMARK    1  A    between atoms: C2_5  and  C3_7 
ROOT
HETATM    1  F1  UNL     1      13.799  54.608  17.346  1.00  0.00    -0.225 F 
HETATM    2  C1  UNL     1      14.470  53.424  17.453  1.00  0.00     0.345 C 
HETATM    3  N1  UNL     1      14.414  52.746  18.709  1.00  0.00    -0.102 NA
HETATM    4  N2  UNL     1      14.319  51.533  18.004  1.00  0.00    -0.088 NA
HETATM    5  C2  UNL     1      13.858  52.229  16.803  1.00  0.00     0.331 C 
HETATM    6  F2  UNL     1      14.522  51.853  15.656  1.00  0.00    -0.208 F 
ENDROOT
BRANCH   5   7
HETATM    7  C3  UNL     1      12.377  52.205  16.668  1.00  0.00     0.444 C 
HETATM    8  F3  UNL     1      11.698  52.543  17.817  1.00  0.00    -0.166 F 
HETATM    9  F4  UNL     1      12.041  53.093  15.638  1.00  0.00    -0.166 F 
HETATM   10  F5  UNL     1      11.931  50.970  16.262  1.00  0.00    -0.166 F 
ENDBRANCH   5   7
TORSDOF 1
ENDMDL
MODEL 5
REMARK VINA RESULT: -5.705285485      1.445      2.703
REMARK  1 active torsions:
REMARK  status: ('A' for Active; 'I' for Inactive)
REMARK    1  A    between atoms: C2_5  and  C3_7 
ROOT
HETATM    1  F1  UNL     1      14.509  53.665  19.361  1.00  0.00    -0.225 F 
HETATM    2  C1  UNL     1      14.524  52.417  18.809  1.00  0.00     0.345 C 
HETATM    3  N1  UNL     1      13.340  51.627  18.934  1.00  0.00    -0.102 NA
HETATM    4  N2  UNL     1      13.555  51.171  17.621  1.00  0.00    -0.088 NA
HETATM    5  C2  UNL     1      14.406  52.323  17.325  1.00  0.00     0.331 C 
HETATM    6  F2  UNL     1      15.598  51.990  16.721  1.00  0.00    -0.208 F 
ENDROOT
BRANCH   5   7
HETATM    7  C3  UNL     1      13.669  53.409  16.626  1.00  0.00     0.444 C 
HETATM    8  F3  UNL     1      14.199  54.665  16.815  1.00  0.00    -0.166 F 
HETATM    9  F4  UNL     1      13.664  53.095  15.261  1.00  0.00    -0.166 F 
HETATM   10  F5  UNL     1      12.349  53.445  17.009  1.00  0.00    -0.166 F 
ENDBRANCH   5   7
TORSDOF 1
ENDMDL
