MODEL 1
REMARK VINA RESULT: -5.707505657      0.000      0.000
REMARK  3 active torsions:
REMARK  status: ('A' for Active; 'I' for Inactive)
REMARK    1  A    between atoms: N1_1  and  N2_4 
REMARK    2  A    between atoms: N2_4  and  C1_5 
REMARK    3  A    between atoms: C3_8  and  C4_10 
ROOT
HETATM    1  C1  UNL     1      14.320  52.368  16.508  1.00  0.00     0.188 A 
HETATM    2  C2  UNL     1      14.195  53.386  17.656  1.00  0.00     0.245 A 
HETATM    3  F1  UNL     1      13.660  54.627  17.331  1.00  0.00    -0.244 F 
HETATM    4  C3  UNL     1      13.376  52.162  17.607  1.00  0.00     0.253 A 
HETATM    5  F2  UNL     1      13.647  51.202  18.591  1.00  0.00    -0.228 F 
ENDROOT
BRANCH   4   6
HETATM    6  C4  UNL     1      11.890  52.300  17.340  1.00  0.00     0.428 C 
HETATM    7  F3  UNL     1      11.542  53.539  16.884  1.00  0.00    -0.167 F 
HETATM    8  F4  UNL     1      11.563  51.381  16.360  1.00  0.00    -0.167 F 
HETATM    9  F5  UNL     1      11.155  52.065  18.496  1.00  0.00    -0.167 F 
ENDBRANCH   4   6
BRANCH   1  10
HETATM   10  N2  UNL     1      15.602  51.739  16.441  1.00  0.00    -0.137 NA
BRANCH  10  11
HETATM   11  N1  UNL     1      15.845  51.314  15.131  1.00  0.00    -0.348 N 
ATOM     12  H12 UNL     1      16.760  51.043  14.772  1.00  0.00     0.172 HD
ATOM     13  H11 UNL     1      14.971  51.320  14.605  1.00  0.00     0.172 HD
ENDBRANCH  10  11
ENDBRANCH   1  10
TORSDOF 3
ENDMDL
MODEL 2
REMARK VINA RESULT: -5.554281369      0.058      1.174
REMARK  3 active torsions:
REMARK  status: ('A' for Active; 'I' for Inactive)
REMARK    1  A    between atoms: N1_1  and  N2_4 
REMARK    2  A    between atoms: N2_4  and  C1_5 
REMARK    3  A    between atoms: C3_8  and  C4_10 
ROOT
HETATM    1  C1  UNL     1      14.332  52.362  16.507  1.00  0.00     0.188 A 
HETATM    2  C2  UNL     1      14.204  53.385  17.650  1.00  0.00     0.245 A 
HETATM    3  F1  UNL     1      13.656  54.620  17.322  1.00  0.00    -0.244 F 
HETATM    4  C3  UNL     1      13.394  52.154  17.612  1.00  0.00     0.253 A 
HETATM    5  F2  UNL     1      13.678  51.201  18.599  1.00  0.00    -0.228 F 
ENDROOT
BRANCH   4   6
HETATM    6  C4  UNL     1      11.907  52.278  17.350  1.00  0.00     0.428 C 
HETATM    7  F3  UNL     1      11.451  51.380  16.428  1.00  0.00    -0.167 F 
HETATM    8  F4  UNL     1      11.258  52.025  18.545  1.00  0.00    -0.167 F 
HETATM    9  F5  UNL     1      11.590  53.548  16.881  1.00  0.00    -0.167 F 
ENDBRANCH   4   6
BRANCH   1  10
HETATM   10  N2  UNL     1      15.619  51.744  16.438  1.00  0.00    -0.137 NA
BRANCH  10  11
HETATM   11  N1  UNL     1      15.855  51.306  15.131  1.00  0.00    -0.348 N 
ATOM     12  H12 UNL     1      15.164  50.841  14.544  1.00  0.00     0.172 HD
ATOM     13  H11 UNL     1      16.816  51.526  14.868  1.00  0.00     0.172 HD
ENDBRANCH  10  11
ENDBRANCH   1  10
TORSDOF 3
ENDMDL
MODEL 3
REMARK VINA RESULT: -5.526641148      1.923      3.281
REMARK  3 active torsions:
REMARK  status: ('A' for Active; 'I' for Inactive)
REMARK    1  A    between atoms: N1_1  and  N2_4 
REMARK    2  A    between atoms: N2_4  and  C1_5 
REMARK    3  A    between atoms: C3_8  and  C4_10 
ROOT
HETATM    1  C1  UNL     1      13.644  51.621  17.287  1.00  0.00     0.188 A 
HETATM    2  C2  UNL     1      13.185  52.009  18.704  1.00  0.00     0.245 A 
HETATM    3  F1  UNL     1      14.131  51.900  19.716  1.00  0.00    -0.244 F 
HETATM    4  C3  UNL     1      13.324  53.007  17.630  1.00  0.00     0.253 A 
HETATM    5  F2  UNL     1      12.133  53.585  17.169  1.00  0.00    -0.228 F 
ENDROOT
BRANCH   4   6
HETATM    6  C4  UNL     1      14.446  54.021  17.729  1.00  0.00     0.428 C 
HETATM    7  F3  UNL     1      14.569  54.561  18.977  1.00  0.00    -0.167 F 
HETATM    8  F4  UNL     1      15.624  53.360  17.436  1.00  0.00    -0.167 F 
HETATM    9  F5  UNL     1      14.243  55.074  16.843  1.00  0.00    -0.167 F 
ENDBRANCH   4   6
BRANCH   1  10
HETATM   10  N2  UNL     1      12.737  50.745  16.613  1.00  0.00    -0.137 NA
BRANCH  10  11
HETATM   11  N1  UNL     1      12.336  51.327  15.407  1.00  0.00    -0.348 N 
ATOM     12  H12 UNL     1      12.763  52.159  14.997  1.00  0.00     0.172 HD
ATOM     13  H11 UNL     1      11.563  50.793  15.012  1.00  0.00     0.172 HD
ENDBRANCH  10  11
ENDBRANCH   1  10
TORSDOF 3
ENDMDL
MODEL 4
REMARK VINA RESULT: -5.357475015      1.929      3.262
REMARK  3 active torsions:
REMARK  status: ('A' for Active; 'I' for Inactive)
REMARK    1  A    between atoms: N1_1  and  N2_4 
REMARK    2  A    between atoms: N2_4  and  C1_5 
REMARK    3  A    between atoms: C3_8  and  C4_10 
ROOT
HETATM    1  C1  UNL     1      13.644  51.617  17.296  1.00  0.00     0.188 A 
HETATM    2  C2  UNL     1      13.167  52.006  18.707  1.00  0.00     0.245 A 
HETATM    3  F1  UNL     1      14.095  51.877  19.735  1.00  0.00    -0.244 F 
HETATM    4  C3  UNL     1      13.340  53.007  17.641  1.00  0.00     0.253 A 
HETATM    5  F2  UNL     1      12.166  53.605  17.163  1.00  0.00    -0.228 F 
ENDROOT
BRANCH   4   6
HETATM    6  C4  UNL     1      14.477  54.002  17.763  1.00  0.00     0.428 C 
HETATM    7  F3  UNL     1      15.699  53.450  17.510  1.00  0.00    -0.167 F 
HETATM    8  F4  UNL     1      14.256  54.994  16.826  1.00  0.00    -0.167 F 
HETATM    9  F5  UNL     1      14.526  54.542  19.044  1.00  0.00    -0.167 F 
ENDBRANCH   4   6
BRANCH   1  10
HETATM   10  N2  UNL     1      12.734  50.759  16.604  1.00  0.00    -0.137 NA
BRANCH  10  11
HETATM   11  N1  UNL     1      12.373  51.347  15.388  1.00  0.00    -0.348 N 
ATOM     12  H12 UNL     1      12.334  52.352  15.222  1.00  0.00     0.172 HD
ATOM     13  H11 UNL     1      12.160  50.618  14.708  1.00  0.00     0.172 HD
ENDBRANCH  10  11
ENDBRANCH   1  10
TORSDOF 3
ENDMDL
MODEL 5
REMARK VINA RESULT: -5.260889533      1.104      1.563
REMARK  3 active torsions:
REMARK  status: ('A' for Active; 'I' for Inactive)
REMARK    1  A    between atoms: N1_1  and  N2_4 
REMARK    2  A    between atoms: N2_4  and  C1_5 
REMARK    3  A    between atoms: C3_8  and  C4_10 
ROOT
HETATM    1  C1  UNL     1      14.663  52.449  16.839  1.00  0.00     0.188 A 
HETATM    2  C2  UNL     1      14.215  52.116  18.273  1.00  0.00     0.245 A 
HETATM    3  F1  UNL     1      14.064  53.191  19.143  1.00  0.00    -0.244 F 
HETATM    4  C3  UNL     1      13.321  51.936  17.116  1.00  0.00     0.253 A 
HETATM    5  F2  UNL     1      12.996  50.612  16.791  1.00  0.00    -0.228 F 
ENDROOT
BRANCH   4   6
HETATM    6  C4  UNL     1      12.131  52.865  16.973  1.00  0.00     0.428 C 
HETATM    7  F3  UNL     1      11.504  52.746  15.766  1.00  0.00    -0.167 F 
HETATM    8  F4  UNL     1      11.224  52.524  17.958  1.00  0.00    -0.167 F 
HETATM    9  F5  UNL     1      12.521  54.193  17.105  1.00  0.00    -0.167 F 
ENDBRANCH   4   6
BRANCH   1  10
HETATM   10  N2  UNL     1      15.740  51.630  16.375  1.00  0.00    -0.137 NA
BRANCH  10  11
HETATM   11  N1  UNL     1      15.581  51.383  15.008  1.00  0.00    -0.348 N 
ATOM     12  H12 UNL     1      14.772  51.674  14.459  1.00  0.00     0.172 HD
ATOM     13  H11 UNL     1      16.392  50.874  14.658  1.00  0.00     0.172 HD
ENDBRANCH  10  11
ENDBRANCH   1  10
TORSDOF 3
ENDMDL
