MODEL 1
REMARK VINA RESULT: -5.915293656      0.000      0.000
REMARK  1 active torsions:
REMARK  status: ('A' for Active; 'I' for Inactive)
REMARK    1  A    between atoms: C2_6  and  C3_7 
ROOT
HETATM    1  F1  UNL     1      10.718  52.559  17.765  1.00  0.00    -0.158 F 
HETATM    2  C1  UNL     1      11.458  52.654  16.596  1.00  0.00     0.506 C 
HETATM    3  F2  UNL     1      10.815  53.367  15.630  1.00  0.00    -0.158 F 
HETATM    4  N1  UNL     1      11.838  51.329  16.194  1.00  0.00    -0.043 NA
HETATM    5  N2  UNL     1      13.174  51.153  16.564  1.00  0.00    -0.099 NA
HETATM    6  C2  UNL     1      13.765  52.449  16.379  1.00  0.00     0.410 C 
HETATM    7  N3  UNL     1      12.724  53.332  16.869  1.00  0.00     0.036 N 
ATOM      8  H31 UNL     1      12.842  53.596  17.848  1.00  0.00     0.288 HD
ATOM      9  H32 UNL     1      12.773  54.274  16.481  1.00  0.00     0.288 HD
ENDROOT
BRANCH   6  10
HETATM   10  C3  UNL     1      15.038  52.601  17.225  1.00  0.00     0.431 C 
HETATM   11  F3  UNL     1      16.112  52.134  16.493  1.00  0.00    -0.167 F 
HETATM   12  F4  UNL     1      14.905  51.829  18.351  1.00  0.00    -0.167 F 
HETATM   13  F5  UNL     1      15.211  53.933  17.571  1.00  0.00    -0.167 F 
ENDBRANCH   6  10
TORSDOF 1
ENDMDL
MODEL 2
REMARK VINA RESULT: -5.913820495      0.031      1.183
REMARK  1 active torsions:
REMARK  status: ('A' for Active; 'I' for Inactive)
REMARK    1  A    between atoms: C2_6  and  C3_7 
ROOT
HETATM    1  F1  UNL     1      10.720  52.602  17.772  1.00  0.00    -0.158 F 
HETATM    2  C1  UNL     1      11.454  52.670  16.597  1.00  0.00     0.506 C 
HETATM    3  F2  UNL     1      10.816  53.378  15.625  1.00  0.00    -0.158 F 
HETATM    4  N1  UNL     1      11.812  51.334  16.212  1.00  0.00    -0.043 NA
HETATM    5  N2  UNL     1      13.149  51.144  16.576  1.00  0.00    -0.099 NA
HETATM    6  C2  UNL     1      13.757  52.430  16.369  1.00  0.00     0.410 C 
HETATM    7  N3  UNL     1      12.731  53.334  16.853  1.00  0.00     0.036 N 
ATOM      8  H31 UNL     1      12.859  53.610  17.827  1.00  0.00     0.288 HD
ATOM      9  H32 UNL     1      12.791  54.270  16.451  1.00  0.00     0.288 HD
ENDROOT
BRANCH   6  10
HETATM   10  C3  UNL     1      15.037  52.575  17.205  1.00  0.00     0.431 C 
HETATM   11  F3  UNL     1      14.890  51.840  18.366  1.00  0.00    -0.167 F 
HETATM   12  F4  UNL     1      15.189  53.898  17.538  1.00  0.00    -0.167 F 
HETATM   13  F5  UNL     1      16.126  52.134  16.469  1.00  0.00    -0.167 F 
ENDBRANCH   6  10
TORSDOF 1
ENDMDL
MODEL 3
REMARK VINA RESULT: -5.464964564      1.791      3.769
REMARK  1 active torsions:
REMARK  status: ('A' for Active; 'I' for Inactive)
REMARK    1  A    between atoms: C2_6  and  C3_7 
ROOT
HETATM    1  F1  UNL     1      15.237  54.263  18.349  1.00  0.00    -0.158 F 
HETATM    2  C1  UNL     1      14.667  53.018  18.572  1.00  0.00     0.506 C 
HETATM    3  F2  UNL     1      14.537  52.735  19.897  1.00  0.00    -0.158 F 
HETATM    4  N1  UNL     1      15.415  52.042  17.832  1.00  0.00    -0.043 NA
HETATM    5  N2  UNL     1      14.677  51.740  16.683  1.00  0.00    -0.099 NA
HETATM    6  C2  UNL     1      13.308  51.820  17.112  1.00  0.00     0.410 C 
HETATM    7  N3  UNL     1      13.328  52.978  17.984  1.00  0.00     0.036 N 
ATOM      8  H31 UNL     1      13.063  53.845  17.516  1.00  0.00     0.288 HD
ATOM      9  H32 UNL     1      12.579  52.979  18.677  1.00  0.00     0.288 HD
ENDROOT
BRANCH   6  10
HETATM   10  C3  UNL     1      12.370  52.063  15.921  1.00  0.00     0.431 C 
HETATM   11  F3  UNL     1      11.470  53.053  16.265  1.00  0.00    -0.167 F 
HETATM   12  F4  UNL     1      11.676  50.906  15.671  1.00  0.00    -0.167 F 
HETATM   13  F5  UNL     1      13.114  52.429  14.809  1.00  0.00    -0.167 F 
ENDBRANCH   6  10
TORSDOF 1
ENDMDL
MODEL 4
REMARK VINA RESULT: -5.459715232      1.778      3.758
REMARK  1 active torsions:
REMARK  status: ('A' for Active; 'I' for Inactive)
REMARK    1  A    between atoms: C2_6  and  C3_7 
ROOT
HETATM    1  F1  UNL     1      15.224  54.253  18.323  1.00  0.00    -0.158 F 
HETATM    2  C1  UNL     1      14.651  53.011  18.560  1.00  0.00     0.506 C 
HETATM    3  F2  UNL     1      14.534  52.738  19.888  1.00  0.00    -0.158 F 
HETATM    4  N1  UNL     1      15.388  52.027  17.819  1.00  0.00    -0.043 NA
HETATM    5  N2  UNL     1      14.637  51.721  16.680  1.00  0.00    -0.099 NA
HETATM    6  C2  UNL     1      13.273  51.808  17.122  1.00  0.00     0.410 C 
HETATM    7  N3  UNL     1      13.306  52.973  17.986  1.00  0.00     0.036 N 
ATOM      8  H31 UNL     1      13.040  53.837  17.515  1.00  0.00     0.288 HD
ATOM      9  H32 UNL     1      12.565  52.981  18.687  1.00  0.00     0.288 HD
ENDROOT
BRANCH   6  10
HETATM   10  C3  UNL     1      12.324  52.048  15.939  1.00  0.00     0.431 C 
HETATM   11  F3  UNL     1      11.658  50.869  15.663  1.00  0.00    -0.167 F 
HETATM   12  F4  UNL     1      13.074  52.395  14.844  1.00  0.00    -0.167 F 
HETATM   13  F5  UNL     1      11.432  53.062  16.255  1.00  0.00    -0.167 F 
ENDBRANCH   6  10
TORSDOF 1
ENDMDL
MODEL 5
REMARK VINA RESULT: -5.434928244      1.590      1.758
REMARK  1 active torsions:
REMARK  status: ('A' for Active; 'I' for Inactive)
REMARK    1  A    between atoms: C2_6  and  C3_7 
ROOT
HETATM    1  F1  UNL     1      11.687  50.987  15.815  1.00  0.00    -0.158 F 
HETATM    2  C1  UNL     1      12.092  52.297  16.027  1.00  0.00     0.506 C 
HETATM    3  F2  UNL     1      11.147  53.201  15.650  1.00  0.00    -0.158 F 
HETATM    4  N1  UNL     1      13.368  52.481  15.396  1.00  0.00    -0.043 NA
HETATM    5  N2  UNL     1      14.338  52.430  16.403  1.00  0.00    -0.099 NA
HETATM    6  C2  UNL     1      13.699  53.037  17.538  1.00  0.00     0.410 C 
HETATM    7  N3  UNL     1      12.352  52.506  17.451  1.00  0.00     0.036 N 
ATOM      8  H31 UNL     1      12.207  51.671  18.019  1.00  0.00     0.288 HD
ATOM      9  H32 UNL     1      11.654  53.090  17.911  1.00  0.00     0.288 HD
ENDROOT
BRANCH   6  10
HETATM   10  C3  UNL     1      14.366  52.592  18.848  1.00  0.00     0.431 C 
HETATM   11  F3  UNL     1      15.485  51.843  18.540  1.00  0.00    -0.167 F 
HETATM   12  F4  UNL     1      13.483  51.800  19.537  1.00  0.00    -0.167 F 
HETATM   13  F5  UNL     1      14.703  53.707  19.601  1.00  0.00    -0.167 F 
ENDBRANCH   6  10
TORSDOF 1
ENDMDL
