MODEL 1
REMARK VINA RESULT: -7.655753164      0.000      0.000
REMARK  8 active torsions:
REMARK  status: ('A' for Active; 'I' for Inactive)
REMARK       I    between atoms: C2_2  and  N1_4 
REMARK    1  A    between atoms: N1_4  and  C3_6 
REMARK    2  A    between atoms: C4_9  and  C5_10 
REMARK    3  A    between atoms: C5_10  and  C7_12 
REMARK    4  A    between atoms: C7_12  and  O2_13 
REMARK    5  A    between atoms: C7_12  and  C8_15 
REMARK    6  A    between atoms: C8_15  and  N4_17 
REMARK    7  A    between atoms: C9_24  and  N8_25 
REMARK    8  A    between atoms: C10_30  and  N10_31 
ROOT
HETATM    1  C5  UNL     1     -30.456 -16.983  21.828  1.00  0.00     0.086 C 
HETATM    2  C6  UNL     1     -30.640 -18.476  21.939  1.00  0.00     0.021 C 
ENDROOT
BRANCH   1   3
HETATM    3  C4  UNL     1     -31.851 -16.441  21.618  1.00  0.00     0.120 A 
HETATM    4  N2  UNL     1     -32.088 -15.132  21.565  1.00  0.00    -0.179 N 
HETATM    5  C3  UNL     1     -33.342 -14.594  21.375  1.00  0.00     0.700 A 
ATOM      6  H2  UNL     1     -31.300 -14.494  21.672  1.00  0.00     0.185 HD
HETATM    7  N11 UNL     1     -34.378 -15.416  21.236  1.00  0.00    -0.022 N 
HETATM    8  C10 UNL     1     -34.154 -16.762  21.287  1.00  0.00     0.691 A 
ATOM      9  H11 UNL     1     -35.319 -15.049  21.095  1.00  0.00     0.203 HD
HETATM   10  N9  UNL     1     -32.918 -17.247  21.474  1.00  0.00    -0.179 N 
ATOM     11  H9  UNL     1     -32.783 -18.257  21.508  1.00  0.00     0.185 HD
BRANCH   5  12
HETATM   12  N1  UNL     1     -33.489 -13.196  21.335  1.00  0.00    -0.159 N 
HETATM   13  C2  UNL     1     -33.232 -12.343  20.263  1.00  0.00     0.231 C 
HETATM   14  C1  UNL     1     -33.479 -10.857  20.500  1.00  0.00     0.118 C 
HETATM   15  O1  UNL     1     -32.818 -12.640  19.116  1.00  0.00    -0.273 OA
ATOM     16  H1  UNL     1     -33.823 -12.754  22.191  1.00  0.00     0.187 HD
ENDBRANCH   5  12
BRANCH   8  17
HETATM   17  N10 UNL     1     -35.182 -17.530  21.148  1.00  0.00    -0.234 N 
ATOM     18 2H10 UNL     1     -35.303 -17.978  20.239  1.00  0.00     0.174 HD
ATOM     19 1H10 UNL     1     -35.850 -17.688  21.902  1.00  0.00     0.174 HD
ENDBRANCH   8  17
ENDBRANCH   1   3
BRANCH   1  20
HETATM   20  C7  UNL     1     -29.594 -16.554  20.680  1.00  0.00     0.196 C 
BRANCH  20  21
HETATM   21  O2  UNL     1     -28.237 -16.510  21.134  1.00  0.00    -0.387 OA
ATOM     22  H2  UNL     1     -27.857 -17.372  21.013  1.00  0.00     0.210 HD
ENDBRANCH  20  21
BRANCH  20  23
HETATM   23  C8  UNL     1     -29.596 -17.424  19.475  1.00  0.00     0.164 C 
HETATM   24  N3  UNL     1     -30.454 -17.028  18.426  1.00  0.00    -0.082 NA
BRANCH  23  25
HETATM   25  N4  UNL     1     -28.292 -17.894  19.152  1.00  0.00    -0.057 N 
HETATM   26  N5  UNL     1     -27.771 -18.945  19.830  1.00  0.00    -0.205 N 
HETATM   27  N6  UNL     1     -26.587 -19.217  19.378  1.00  0.00    -0.213 N 
ATOM     28  H5  UNL     1     -28.241 -19.447  20.582  1.00  0.00     0.211 HD
HETATM   29  N7  UNL     1     -26.309 -18.380  18.426  1.00  0.00    -0.115 N 
ATOM     30  H6  UNL     1     -25.977 -19.962  19.714  1.00  0.00     0.210 HD
HETATM   31  C9  UNL     1     -27.361 -17.545  18.271  1.00  0.00     0.715 A 
ATOM     32  H7  UNL     1     -25.443 -18.356  17.887  1.00  0.00     0.207 HD
BRANCH  31  33
HETATM   33  N8  UNL     1     -27.461 -16.585  17.439  1.00  0.00    -0.231 N 
ATOM     34  H82 UNL     1     -27.015 -15.670  17.502  1.00  0.00     0.174 HD
ATOM     35  H81 UNL     1     -28.017 -16.605  16.584  1.00  0.00     0.174 HD
ENDBRANCH  31  33
ENDBRANCH  23  25
ENDBRANCH  20  23
ENDBRANCH   1  20
TORSDOF 8
ENDMDL
MODEL 2
REMARK VINA RESULT: -7.237029965      1.173      1.866
REMARK  8 active torsions:
REMARK  status: ('A' for Active; 'I' for Inactive)
REMARK       I    between atoms: C2_2  and  N1_4 
REMARK    1  A    between atoms: N1_4  and  C3_6 
REMARK    2  A    between atoms: C4_9  and  C5_10 
REMARK    3  A    between atoms: C5_10  and  C7_12 
REMARK    4  A    between atoms: C7_12  and  O2_13 
REMARK    5  A    between atoms: C7_12  and  C8_15 
REMARK    6  A    between atoms: C8_15  and  N4_17 
REMARK    7  A    between atoms: C9_24  and  N8_25 
REMARK    8  A    between atoms: C10_30  and  N10_31 
ROOT
HETATM    1  C5  UNL     1     -30.833 -16.992  19.550  1.00  0.00     0.086 C 
HETATM    2  C6  UNL     1     -30.757 -16.251  18.239  1.00  0.00     0.021 C 
ENDROOT
BRANCH   1   3
HETATM    3  C4  UNL     1     -32.038 -16.407  20.251  1.00  0.00     0.120 A 
HETATM    4  N2  UNL     1     -32.163 -15.095  20.440  1.00  0.00    -0.179 N 
HETATM    5  C3  UNL     1     -33.242 -14.518  21.072  1.00  0.00     0.700 A 
ATOM      6  H2  UNL     1     -31.420 -14.485  20.100  1.00  0.00     0.185 HD
HETATM    7  N11 UNL     1     -34.217 -15.303  21.521  1.00  0.00    -0.022 N 
HETATM    8  C10 UNL     1     -34.106 -16.651  21.335  1.00  0.00     0.691 A 
ATOM      9  H11 UNL     1     -35.029 -14.906  21.994  1.00  0.00     0.203 HD
HETATM   10  N9  UNL     1     -33.039 -17.174  20.715  1.00  0.00    -0.179 N 
ATOM     11  H9  UNL     1     -32.985 -18.185  20.593  1.00  0.00     0.185 HD
BRANCH   5  12
HETATM   12  N1  UNL     1     -33.281 -13.120  21.224  1.00  0.00    -0.159 N 
HETATM   13  C2  UNL     1     -33.185 -12.153  20.225  1.00  0.00     0.231 C 
HETATM   14  C1  UNL     1     -33.256 -10.698  20.678  1.00  0.00     0.118 C 
HETATM   15  O1  UNL     1     -33.044 -12.321  18.989  1.00  0.00    -0.273 OA
ATOM     16  H1  UNL     1     -33.392 -12.774  22.176  1.00  0.00     0.187 HD
ENDBRANCH   5  12
BRANCH   8  17
HETATM   17  N10 UNL     1     -35.071 -17.382  21.784  1.00  0.00    -0.234 N 
ATOM     18 2H10 UNL     1     -35.135 -18.334  21.421  1.00  0.00     0.174 HD
ATOM     19 1H10 UNL     1     -35.745 -17.037  22.467  1.00  0.00     0.174 HD
ENDBRANCH   8  17
ENDBRANCH   1   3
BRANCH   1  20
HETATM   20  C7  UNL     1     -29.632 -16.815  20.428  1.00  0.00     0.196 C 
BRANCH  20  21
HETATM   21  O2  UNL     1     -30.089 -16.570  21.763  1.00  0.00    -0.387 OA
ATOM     22  H2  UNL     1     -29.626 -15.812  22.099  1.00  0.00     0.210 HD
ENDBRANCH  20  21
BRANCH  20  23
HETATM   23  C8  UNL     1     -28.690 -17.961  20.519  1.00  0.00     0.164 C 
HETATM   24  N3  UNL     1     -29.250 -19.190  20.931  1.00  0.00    -0.082 NA
BRANCH  23  25
HETATM   25  N4  UNL     1     -27.743 -17.962  19.457  1.00  0.00    -0.057 N 
HETATM   26  N5  UNL     1     -27.757 -16.960  18.546  1.00  0.00    -0.205 N 
HETATM   27  N6  UNL     1     -26.815 -17.142  17.675  1.00  0.00    -0.213 N 
ATOM     28  H5  UNL     1     -28.412 -16.178  18.545  1.00  0.00     0.211 HD
HETATM   29  N7  UNL     1     -26.180 -18.232  17.981  1.00  0.00    -0.115 N 
ATOM     30  H6  UNL     1     -26.607 -16.533  16.884  1.00  0.00     0.210 HD
HETATM   31  C9  UNL     1     -26.745 -18.758  19.091  1.00  0.00     0.715 A 
ATOM     32  H7  UNL     1     -25.388 -18.624  17.471  1.00  0.00     0.207 HD
BRANCH  31  33
HETATM   33  N8  UNL     1     -26.403 -19.829  19.691  1.00  0.00    -0.231 N 
ATOM     34  H82 UNL     1     -26.102 -20.704  19.261  1.00  0.00     0.174 HD
ATOM     35  H81 UNL     1     -26.389 -19.956  20.702  1.00  0.00     0.174 HD
ENDBRANCH  31  33
ENDBRANCH  23  25
ENDBRANCH  20  23
ENDBRANCH   1  20
TORSDOF 8
ENDMDL
MODEL 3
REMARK VINA RESULT: -7.003414465      2.123      6.563
REMARK  8 active torsions:
REMARK  status: ('A' for Active; 'I' for Inactive)
REMARK       I    between atoms: C2_2  and  N1_4 
REMARK    1  A    between atoms: N1_4  and  C3_6 
REMARK    2  A    between atoms: C4_9  and  C5_10 
REMARK    3  A    between atoms: C5_10  and  C7_12 
REMARK    4  A    between atoms: C7_12  and  O2_13 
REMARK    5  A    between atoms: C7_12  and  C8_15 
REMARK    6  A    between atoms: C8_15  and  N4_17 
REMARK    7  A    between atoms: C9_24  and  N8_25 
REMARK    8  A    between atoms: C10_30  and  N10_31 
ROOT
HETATM    1  C5  UNL     1     -30.237 -17.660  20.530  1.00  0.00     0.086 C 
HETATM    2  C6  UNL     1     -29.593 -17.830  21.883  1.00  0.00     0.021 C 
ENDROOT
BRANCH   1   3
HETATM    3  C4  UNL     1     -29.077 -17.559  19.566  1.00  0.00     0.120 A 
HETATM    4  N2  UNL     1     -29.180 -16.885  18.423  1.00  0.00    -0.179 N 
HETATM    5  C3  UNL     1     -28.151 -16.766  17.515  1.00  0.00     0.700 A 
ATOM      6  H2  UNL     1     -30.069 -16.433  18.207  1.00  0.00     0.185 HD
HETATM    7  N11 UNL     1     -26.989 -17.352  17.784  1.00  0.00    -0.022 N 
HETATM    8  C10 UNL     1     -26.864 -18.048  18.953  1.00  0.00     0.691 A 
ATOM      9  H11 UNL     1     -26.207 -17.284  17.132  1.00  0.00     0.203 HD
HETATM   10  N9  UNL     1     -27.890 -18.141  19.810  1.00  0.00    -0.179 N 
ATOM     11  H9  UNL     1     -27.766 -18.668  20.674  1.00  0.00     0.185 HD
BRANCH   5  12
HETATM   12  N1  UNL     1     -28.360 -16.032  16.334  1.00  0.00    -0.159 N 
HETATM   13  C2  UNL     1     -29.558 -15.849  15.646  1.00  0.00     0.231 C 
HETATM   14  C1  UNL     1     -29.494 -14.999  14.381  1.00  0.00     0.118 C 
HETATM   15  O1  UNL     1     -30.695 -16.296  15.932  1.00  0.00    -0.273 OA
ATOM     16  H1  UNL     1     -27.538 -15.580  15.934  1.00  0.00     0.187 HD
ENDBRANCH   5  12
BRANCH   8  17
HETATM   17  N10 UNL     1     -25.722 -18.604  19.181  1.00  0.00    -0.234 N 
ATOM     18 2H10 UNL     1     -25.586 -19.016  20.105  1.00  0.00     0.174 HD
ATOM     19 1H10 UNL     1     -24.981 -18.637  18.481  1.00  0.00     0.174 HD
ENDBRANCH   8  17
ENDBRANCH   1   3
BRANCH   1  20
HETATM   20  C7  UNL     1     -31.080 -16.429  20.400  1.00  0.00     0.196 C 
BRANCH  20  21
HETATM   21  O2  UNL     1     -31.313 -16.194  19.006  1.00  0.00    -0.387 OA
ATOM     22  H2  UNL     1     -32.064 -16.712  18.741  1.00  0.00     0.210 HD
ENDBRANCH  20  21
BRANCH  20  23
HETATM   23  C8  UNL     1     -32.422 -16.461  21.041  1.00  0.00     0.164 C 
HETATM   24  N3  UNL     1     -32.599 -17.425  22.057  1.00  0.00    -0.082 NA
BRANCH  23  25
HETATM   25  N4  UNL     1     -32.953 -15.156  21.236  1.00  0.00    -0.057 N 
HETATM   26  N5  UNL     1     -32.179 -14.073  20.984  1.00  0.00    -0.205 N 
HETATM   27  N6  UNL     1     -32.850 -12.988  21.214  1.00  0.00    -0.213 N 
ATOM     28  H5  UNL     1     -31.212 -14.106  20.662  1.00  0.00     0.211 HD
HETATM   29  N7  UNL     1     -34.041 -13.319  21.609  1.00  0.00    -0.115 N 
ATOM     30  H6  UNL     1     -32.502 -12.036  21.102  1.00  0.00     0.210 HD
HETATM   31  C9  UNL     1     -34.124 -14.669  21.630  1.00  0.00     0.715 A 
ATOM     32  H7  UNL     1     -34.788 -12.671  21.861  1.00  0.00     0.207 HD
BRANCH  31  33
HETATM   33  N8  UNL     1     -35.133 -15.369  21.969  1.00  0.00    -0.231 N 
ATOM     34  H82 UNL     1     -35.563 -15.418  22.893  1.00  0.00     0.174 HD
ATOM     35  H81 UNL     1     -35.651 -15.991  21.349  1.00  0.00     0.174 HD
ENDBRANCH  31  33
ENDBRANCH  23  25
ENDBRANCH  20  23
ENDBRANCH   1  20
TORSDOF 8
ENDMDL
MODEL 4
REMARK VINA RESULT: -6.998717743      1.217      1.410
REMARK  8 active torsions:
REMARK  status: ('A' for Active; 'I' for Inactive)
REMARK       I    between atoms: C2_2  and  N1_4 
REMARK    1  A    between atoms: N1_4  and  C3_6 
REMARK    2  A    between atoms: C4_9  and  C5_10 
REMARK    3  A    between atoms: C5_10  and  C7_12 
REMARK    4  A    between atoms: C7_12  and  O2_13 
REMARK    5  A    between atoms: C7_12  and  C8_15 
REMARK    6  A    between atoms: C8_15  and  N4_17 
REMARK    7  A    between atoms: C9_24  and  N8_25 
REMARK    8  A    between atoms: C10_30  and  N10_31 
ROOT
HETATM    1  C5  UNL     1     -30.160 -16.431  20.517  1.00  0.00     0.086 C 
HETATM    2  C6  UNL     1     -29.827 -17.298  21.705  1.00  0.00     0.021 C 
ENDROOT
BRANCH   1   3
HETATM    3  C4  UNL     1     -31.589 -15.995  20.751  1.00  0.00     0.120 A 
HETATM    4  N2  UNL     1     -31.923 -14.708  20.809  1.00  0.00    -0.179 N 
HETATM    5  C3  UNL     1     -33.210 -14.266  21.020  1.00  0.00     0.700 A 
ATOM      6  H2  UNL     1     -31.187 -14.013  20.692  1.00  0.00     0.185 HD
HETATM    7  N11 UNL     1     -34.179 -15.163  21.175  1.00  0.00    -0.022 N 
HETATM    8  C10 UNL     1     -33.855 -16.489  21.118  1.00  0.00     0.691 A 
ATOM      9  H11 UNL     1     -35.142 -14.869  21.334  1.00  0.00     0.203 HD
HETATM   10  N9  UNL     1     -32.590 -16.879  20.911  1.00  0.00    -0.179 N 
ATOM     11  H9  UNL     1     -32.379 -17.876  20.875  1.00  0.00     0.185 HD
BRANCH   5  12
HETATM   12  N1  UNL     1     -33.461 -12.883  21.065  1.00  0.00    -0.159 N 
HETATM   13  C2  UNL     1     -33.289 -11.952  20.042  1.00  0.00     0.231 C 
HETATM   14  C1  UNL     1     -33.642 -10.505  20.371  1.00  0.00     0.118 C 
HETATM   15  O1  UNL     1     -32.877 -12.149  18.873  1.00  0.00    -0.273 OA
ATOM     16  H1  UNL     1     -33.810 -12.518  21.951  1.00  0.00     0.187 HD
ENDBRANCH   5  12
BRANCH   8  17
HETATM   17  N10 UNL     1     -34.820 -17.332  21.273  1.00  0.00    -0.234 N 
ATOM     18 2H10 UNL     1     -34.579 -18.322  21.228  1.00  0.00     0.174 HD
ATOM     19 1H10 UNL     1     -35.783 -17.036  21.432  1.00  0.00     0.174 HD
ENDBRANCH   8  17
ENDBRANCH   1   3
BRANCH   1  20
HETATM   20  C7  UNL     1     -30.083 -17.138  19.198  1.00  0.00     0.196 C 
BRANCH  20  21
HETATM   21  O2  UNL     1     -31.010 -16.514  18.303  1.00  0.00    -0.387 OA
ATOM     22  H2  UNL     1     -30.858 -16.861  17.431  1.00  0.00     0.210 HD
ENDBRANCH  20  21
BRANCH  20  23
HETATM   23  C8  UNL     1     -28.768 -17.124  18.504  1.00  0.00     0.164 C 
HETATM   24  N3  UNL     1     -28.259 -15.851  18.170  1.00  0.00    -0.082 NA
BRANCH  23  25
HETATM   25  N4  UNL     1     -27.877 -18.103  19.026  1.00  0.00    -0.057 N 
HETATM   26  N5  UNL     1     -28.280 -18.903  20.042  1.00  0.00    -0.205 N 
HETATM   27  N6  UNL     1     -27.330 -19.724  20.360  1.00  0.00    -0.213 N 
ATOM     28  H5  UNL     1     -29.196 -18.864  20.490  1.00  0.00     0.211 HD
HETATM   29  N7  UNL     1     -26.312 -19.493  19.589  1.00  0.00    -0.115 N 
ATOM     30  H6  UNL     1     -27.374 -20.433  21.093  1.00  0.00     0.210 HD
HETATM   31  C9  UNL     1     -26.634 -18.483  18.749  1.00  0.00     0.715 A 
ATOM     32  H7  UNL     1     -25.422 -19.989  19.612  1.00  0.00     0.207 HD
BRANCH  31  33
HETATM   33  N8  UNL     1     -25.893 -17.968  17.850  1.00  0.00    -0.231 N 
ATOM     34  H82 UNL     1     -24.979 -17.535  17.982  1.00  0.00     0.174 HD
ATOM     35  H81 UNL     1     -26.124 -17.916  16.858  1.00  0.00     0.174 HD
ENDBRANCH  31  33
ENDBRANCH  23  25
ENDBRANCH  20  23
ENDBRANCH   1  20
TORSDOF 8
ENDMDL
MODEL 5
REMARK VINA RESULT: -6.647792049      1.001      1.724
REMARK  8 active torsions:
REMARK  status: ('A' for Active; 'I' for Inactive)
REMARK       I    between atoms: C2_2  and  N1_4 
REMARK    1  A    between atoms: N1_4  and  C3_6 
REMARK    2  A    between atoms: C4_9  and  C5_10 
REMARK    3  A    between atoms: C5_10  and  C7_12 
REMARK    4  A    between atoms: C7_12  and  O2_13 
REMARK    5  A    between atoms: C7_12  and  C8_15 
REMARK    6  A    between atoms: C8_15  and  N4_17 
REMARK    7  A    between atoms: C9_24  and  N8_25 
REMARK    8  A    between atoms: C10_30  and  N10_31 
ROOT
HETATM    1  C5  UNL     1     -30.356 -17.187  21.487  1.00  0.00     0.086 C 
HETATM    2  C6  UNL     1     -30.661 -18.347  22.403  1.00  0.00     0.021 C 
ENDROOT
BRANCH   1   3
HETATM    3  C4  UNL     1     -31.663 -16.435  21.376  1.00  0.00     0.120 A 
HETATM    4  N2  UNL     1     -31.693 -15.121  21.168  1.00  0.00    -0.179 N 
HETATM    5  C3  UNL     1     -32.859 -14.395  21.059  1.00  0.00     0.700 A 
ATOM      6  H2  UNL     1     -30.806 -14.625  21.085  1.00  0.00     0.185 HD
HETATM    7  N11 UNL     1     -34.022 -15.031  21.166  1.00  0.00    -0.022 N 
HETATM    8  C10 UNL     1     -34.011 -16.380  21.380  1.00  0.00     0.691 A 
ATOM      9  H11 UNL     1     -34.902 -14.523  21.092  1.00  0.00     0.203 HD
HETATM   10  N9  UNL     1     -32.854 -17.050  21.480  1.00  0.00    -0.179 N 
ATOM     11  H9  UNL     1     -32.878 -18.057  21.641  1.00  0.00     0.185 HD
BRANCH   5  12
HETATM   12  N1  UNL     1     -32.785 -13.009  20.839  1.00  0.00    -0.159 N 
HETATM   13  C2  UNL     1     -33.531 -12.249  19.939  1.00  0.00     0.231 C 
HETATM   14  C1  UNL     1     -33.241 -10.751  19.909  1.00  0.00     0.118 C 
HETATM   15  O1  UNL     1     -34.418 -12.637  19.141  1.00  0.00    -0.273 OA
ATOM     16  H1  UNL     1     -32.107 -12.499  21.404  1.00  0.00     0.187 HD
ENDBRANCH   5  12
BRANCH   8  17
HETATM   17  N10 UNL     1     -35.157 -16.964  21.479  1.00  0.00    -0.234 N 
ATOM     18 2H10 UNL     1     -35.266 -17.852  20.988  1.00  0.00     0.174 HD
ATOM     19 1H10 UNL     1     -35.926 -16.568  22.018  1.00  0.00     0.174 HD
ENDBRANCH   8  17
ENDBRANCH   1   3
BRANCH   1  20
HETATM   20  C7  UNL     1     -29.913 -17.589  20.114  1.00  0.00     0.196 C 
BRANCH  20  21
HETATM   21  O2  UNL     1     -30.080 -16.462  19.245  1.00  0.00    -0.387 OA
ATOM     22  H2  UNL     1     -30.758 -16.674  18.614  1.00  0.00     0.210 HD
ENDBRANCH  20  21
BRANCH  20  23
HETATM   23  C8  UNL     1     -28.498 -18.018  19.962  1.00  0.00     0.164 C 
HETATM   24  N3  UNL     1     -28.210 -19.346  20.346  1.00  0.00    -0.082 NA
BRANCH  23  25
HETATM   25  N4  UNL     1     -27.908 -17.507  18.772  1.00  0.00    -0.057 N 
HETATM   26  N5  UNL     1     -28.611 -16.654  17.989  1.00  0.00    -0.205 N 
HETATM   27  N6  UNL     1     -27.895 -16.302  16.968  1.00  0.00    -0.213 N 
ATOM     28  H5  UNL     1     -29.563 -16.338  18.175  1.00  0.00     0.211 HD
HETATM   29  N7  UNL     1     -26.743 -16.893  17.051  1.00  0.00    -0.115 N 
ATOM     30  H6  UNL     1     -28.187 -15.667  16.225  1.00  0.00     0.210 HD
HETATM   31  C9  UNL     1     -26.732 -17.651  18.171  1.00  0.00     0.715 A 
ATOM     32  H7  UNL     1     -25.976 -16.802  16.385  1.00  0.00     0.207 HD
BRANCH  31  33
HETATM   33  N8  UNL     1     -25.779 -18.384  18.591  1.00  0.00    -0.231 N 
ATOM     34  H82 UNL     1     -24.847 -18.078  18.871  1.00  0.00     0.174 HD
ATOM     35  H81 UNL     1     -25.821 -19.397  18.699  1.00  0.00     0.174 HD
ENDBRANCH  31  33
ENDBRANCH  23  25
ENDBRANCH  20  23
ENDBRANCH   1  20
TORSDOF 8
ENDMDL
