MODEL 1
REMARK VINA RESULT: -7.018712851      0.000      0.000
REMARK  8 active torsions:
REMARK  status: ('A' for Active; 'I' for Inactive)
REMARK    1  A    between atoms: N1_1  and  C1_4 
REMARK    2  A    between atoms: C2_9  and  N4_10 
REMARK    3  A    between atoms: N5_12  and  N6_14 
REMARK    4  A    between atoms: N6_14  and  C3_16 
REMARK    5  A    between atoms: N10_24  and  C6_25 
REMARK    6  A    between atoms: N11_26  and  O1_28 
REMARK    7  A    between atoms: C7_30  and  N12_31 
REMARK    8  A    between atoms: N12_31  and  C8_33 
ROOT
HETATM    1  N4  UNL     1     -30.251 -17.352  20.138  1.00  0.00    -0.267 N 
ATOM      2  H4  UNL     1     -31.068 -17.667  19.615  1.00  0.00     0.190 HD
HETATM    3  N5  UNL     1     -30.442 -16.700  21.210  1.00  0.00    -0.242 N 
ATOM      4  H5  UNL     1     -29.647 -16.371  21.757  1.00  0.00     0.208 HD
ENDROOT
BRANCH   1   5
HETATM    5  C2  UNL     1     -28.975 -17.665  19.628  1.00  0.00     0.182 A 
HETATM    6  N3  UNL     1     -28.124 -18.512  20.267  1.00  0.00    -0.267 N 
HETATM    7  N2  UNL     1     -26.937 -18.762  19.730  1.00  0.00    -0.131 N 
ATOM      8  H3  UNL     1     -28.395 -18.949  21.149  1.00  0.00     0.189 HD
HETATM    9  C1  UNL     1     -26.541 -18.207  18.568  1.00  0.00     0.692 A 
ATOM     10  H2  UNL     1     -26.303 -19.398  20.213  1.00  0.00     0.205 HD
HETATM   11  N13 UNL     1     -27.376 -17.369  17.928  1.00  0.00    -0.172 N 
HETATM   12  C7  UNL     1     -28.591 -17.080  18.431  1.00  0.00     0.170 A 
ATOM     13  H13 UNL     1     -27.084 -16.945  17.048  1.00  0.00     0.186 HD
BRANCH   9  14
HETATM   14  N1  UNL     1     -25.365 -18.469  18.057  1.00  0.00    -0.233 N 
ATOM     15  H12 UNL     1     -25.036 -19.435  18.010  1.00  0.00     0.174 HD
ATOM     16  H11 UNL     1     -24.764 -17.726  17.701  1.00  0.00     0.174 HD
ENDBRANCH   9  14
BRANCH  12  17
HETATM   17  N12 UNL     1     -29.409 -16.279  17.835  1.00  0.00    -0.317 N 
ATOM     18  H12 UNL     1     -29.611 -15.354  18.215  1.00  0.00     0.169 HD
BRANCH  17  19
HETATM   19  C8  UNL     1     -30.018 -16.726  16.632  1.00  0.00     0.354 C 
HETATM   20  O2  UNL     1     -30.874 -15.984  16.091  1.00  0.00    -0.283 OA
ENDBRANCH  17  19
ENDBRANCH  12  17
ENDBRANCH   1   5
BRANCH   3  21
HETATM   21  N6  UNL     1     -31.733 -16.438  21.635  1.00  0.00    -0.281 N 
ATOM     22  H6  UNL     1     -31.908 -16.387  22.639  1.00  0.00     0.186 HD
BRANCH  21  23
HETATM   23  C3  UNL     1     -32.849 -16.232  20.739  1.00  0.00     0.311 C 
HETATM   24  N7  UNL     1     -32.679 -15.049  19.921  1.00  0.00    -0.326 N 
HETATM   25  C4  UNL     1     -33.104 -13.810  20.428  1.00  0.00     0.188 C 
ATOM     26  H7  UNL     1     -32.257 -15.114  18.994  1.00  0.00     0.166 HD
HETATM   27  N8  UNL     1     -32.709 -12.603  19.766  1.00  0.00    -0.064 NA
HETATM   28  N9  UNL     1     -33.833 -13.737  21.466  1.00  0.00    -0.348 N 
HETATM   29  C5  UNL     1     -34.298 -14.876  22.224  1.00  0.00     0.253 C 
ATOM     30  H9  UNL     1     -34.111 -12.809  21.786  1.00  0.00     0.163 HD
HETATM   31  N10 UNL     1     -34.095 -16.086  21.456  1.00  0.00    -0.320 N 
BRANCH  31  32
HETATM   32  C6  UNL     1     -35.053 -17.123  21.380  1.00  0.00     0.206 C 
HETATM   33  N11 UNL     1     -34.752 -18.289  21.790  1.00  0.00    -0.265 N 
ATOM     34  H11 UNL     1     -33.813 -18.427  22.164  1.00  0.00     0.194 HD
BRANCH  33  35
HETATM   35  O1  UNL     1     -35.585 -19.366  21.769  1.00  0.00    -0.289 OA
ATOM     36  H1  UNL     1     -35.525 -20.114  22.351  1.00  0.00     0.244 HD
ENDBRANCH  33  35
ENDBRANCH  31  32
ENDBRANCH  21  23
ENDBRANCH   3  21
TORSDOF 8
ENDMDL
MODEL 2
REMARK VINA RESULT: -6.379590953      1.691      2.337
REMARK  8 active torsions:
REMARK  status: ('A' for Active; 'I' for Inactive)
REMARK    1  A    between atoms: N1_1  and  C1_4 
REMARK    2  A    between atoms: C2_9  and  N4_10 
REMARK    3  A    between atoms: N5_12  and  N6_14 
REMARK    4  A    between atoms: N6_14  and  C3_16 
REMARK    5  A    between atoms: N10_24  and  C6_25 
REMARK    6  A    between atoms: N11_26  and  O1_28 
REMARK    7  A    between atoms: C7_30  and  N12_31 
REMARK    8  A    between atoms: N12_31  and  C8_33 
ROOT
HETATM    1  N4  UNL     1     -30.360 -17.073  19.927  1.00  0.00    -0.267 N 
ATOM      2  H4  UNL     1     -31.199 -17.348  19.415  1.00  0.00     0.190 HD
HETATM    3  N5  UNL     1     -30.507 -16.455  21.025  1.00  0.00    -0.242 N 
ATOM      4  H5  UNL     1     -29.690 -16.166  21.562  1.00  0.00     0.208 HD
ENDROOT
BRANCH   1   5
HETATM    5  C2  UNL     1     -29.107 -17.404  19.374  1.00  0.00     0.182 A 
HETATM    6  N3  UNL     1     -28.470 -16.597  18.483  1.00  0.00    -0.267 N 
HETATM    7  N2  UNL     1     -27.292 -16.971  18.001  1.00  0.00    -0.131 N 
ATOM      8  H3  UNL     1     -28.893 -15.716  18.188  1.00  0.00     0.189 HD
HETATM    9  C1  UNL     1     -26.699 -18.124  18.363  1.00  0.00     0.692 A 
ATOM     10  H2  UNL     1     -26.818 -16.362  17.333  1.00  0.00     0.205 HD
HETATM   11  N13 UNL     1     -27.321 -18.928  19.245  1.00  0.00    -0.172 N 
HETATM   12  C7  UNL     1     -28.518 -18.597  19.763  1.00  0.00     0.170 A 
ATOM     13  H13 UNL     1     -26.877 -19.803  19.525  1.00  0.00     0.186 HD
BRANCH   9  14
HETATM   14  N1  UNL     1     -25.535 -18.472  17.875  1.00  0.00    -0.233 N 
ATOM     15  H12 UNL     1     -25.488 -19.013  17.011  1.00  0.00     0.174 HD
ATOM     16  H11 UNL     1     -24.666 -18.214  18.342  1.00  0.00     0.174 HD
ENDBRANCH   9  14
BRANCH  12  17
HETATM   17  N12 UNL     1     -29.133 -19.353  20.609  1.00  0.00    -0.317 N 
ATOM     18  H12 UNL     1     -29.680 -20.156  20.298  1.00  0.00     0.169 HD
BRANCH  17  19
HETATM   19  C8  UNL     1     -29.026 -19.029  21.988  1.00  0.00     0.354 C 
HETATM   20  O2  UNL     1     -30.075 -18.729  22.609  1.00  0.00    -0.283 OA
ENDBRANCH  17  19
ENDBRANCH  12  17
ENDBRANCH   1   5
BRANCH   3  21
HETATM   21  N6  UNL     1     -31.780 -16.172  21.491  1.00  0.00    -0.281 N 
ATOM     22  H6  UNL     1     -31.909 -16.063  22.497  1.00  0.00     0.186 HD
BRANCH  21  23
HETATM   23  C3  UNL     1     -32.935 -16.023  20.636  1.00  0.00     0.311 C 
HETATM   24  N7  UNL     1     -32.840 -14.850  19.793  1.00  0.00    -0.326 N 
HETATM   25  C4  UNL     1     -33.291 -13.618  20.295  1.00  0.00     0.188 C 
ATOM     26  H7  UNL     1     -32.452 -14.917  18.852  1.00  0.00     0.166 HD
HETATM   27  N8  UNL     1     -32.967 -12.410  19.597  1.00  0.00    -0.064 NA
HETATM   28  N9  UNL     1     -33.983 -13.553  21.359  1.00  0.00    -0.348 N 
HETATM   29  C5  UNL     1     -34.375 -14.693  22.154  1.00  0.00     0.253 C 
ATOM     30  H9  UNL     1     -34.282 -12.630  21.673  1.00  0.00     0.163 HD
HETATM   31  N10 UNL     1     -34.157 -15.909  21.399  1.00  0.00    -0.320 N 
BRANCH  31  32
HETATM   32  C6  UNL     1     -35.079 -16.982  21.378  1.00  0.00     0.206 C 
HETATM   33  N11 UNL     1     -34.707 -18.138  21.755  1.00  0.00    -0.265 N 
ATOM     34  H11 UNL     1     -33.741 -18.243  22.064  1.00  0.00     0.194 HD
BRANCH  33  35
HETATM   35  O1  UNL     1     -35.499 -19.246  21.780  1.00  0.00    -0.289 OA
ATOM     36  H1  UNL     1     -35.832 -19.661  22.566  1.00  0.00     0.244 HD
ENDBRANCH  33  35
ENDBRANCH  31  32
ENDBRANCH  21  23
ENDBRANCH   3  21
TORSDOF 8
ENDMDL
MODEL 3
REMARK VINA RESULT: -6.241331412      2.561      4.184
REMARK  8 active torsions:
REMARK  status: ('A' for Active; 'I' for Inactive)
REMARK    1  A    between atoms: N1_1  and  C1_4 
REMARK    2  A    between atoms: C2_9  and  N4_10 
REMARK    3  A    between atoms: N5_12  and  N6_14 
REMARK    4  A    between atoms: N6_14  and  C3_16 
REMARK    5  A    between atoms: N10_24  and  C6_25 
REMARK    6  A    between atoms: N11_26  and  O1_28 
REMARK    7  A    between atoms: C7_30  and  N12_31 
REMARK    8  A    between atoms: N12_31  and  C8_33 
ROOT
HETATM    1  N4  UNL     1     -30.268 -17.094  18.888  1.00  0.00    -0.267 N 
ATOM      2  H4  UNL     1     -29.995 -18.036  19.168  1.00  0.00     0.190 HD
HETATM    3  N5  UNL     1     -30.955 -16.405  19.702  1.00  0.00    -0.242 N 
ATOM      4  H5  UNL     1     -31.244 -15.459  19.453  1.00  0.00     0.208 HD
ENDROOT
BRANCH   1   5
HETATM    5  C2  UNL     1     -29.860 -16.634  17.620  1.00  0.00     0.182 A 
HETATM    6  N3  UNL     1     -30.747 -16.362  16.625  1.00  0.00    -0.267 N 
HETATM    7  N2  UNL     1     -30.292 -15.933  15.455  1.00  0.00    -0.131 N 
ATOM      8  H3  UNL     1     -31.748 -16.486  16.777  1.00  0.00     0.189 HD
HETATM    9  C1  UNL     1     -28.979 -15.755  15.213  1.00  0.00     0.692 A 
ATOM     10  H2  UNL     1     -30.961 -15.730  14.712  1.00  0.00     0.205 HD
HETATM   11  N13 UNL     1     -28.094 -16.021  16.191  1.00  0.00    -0.172 N 
HETATM   12  C7  UNL     1     -28.503 -16.460  17.397  1.00  0.00     0.170 A 
ATOM     13  H13 UNL     1     -27.098 -15.888  16.017  1.00  0.00     0.186 HD
BRANCH   9  14
HETATM   14  N1  UNL     1     -28.554 -15.330  14.050  1.00  0.00    -0.233 N 
ATOM     15  H12 UNL     1     -28.441 -14.329  13.887  1.00  0.00     0.174 HD
ATOM     16  H11 UNL     1     -28.332 -15.980  13.297  1.00  0.00     0.174 HD
ENDBRANCH   9  14
BRANCH  12  17
HETATM   17  N12 UNL     1     -27.672 -16.723  18.350  1.00  0.00    -0.317 N 
ATOM     18  H12 UNL     1     -27.679 -16.185  19.217  1.00  0.00     0.169 HD
BRANCH  17  19
HETATM   19  C8  UNL     1     -26.749 -17.783  18.151  1.00  0.00     0.354 C 
HETATM   20  O2  UNL     1     -25.750 -17.570  17.420  1.00  0.00    -0.283 OA
ENDBRANCH  17  19
ENDBRANCH  12  17
ENDBRANCH   1   5
BRANCH   3  21
HETATM   21  N6  UNL     1     -31.312 -16.940  20.928  1.00  0.00    -0.281 N 
ATOM     22  H6  UNL     1     -30.835 -17.787  21.239  1.00  0.00     0.186 HD
BRANCH  21  23
HETATM   23  C3  UNL     1     -32.320 -16.370  21.792  1.00  0.00     0.311 C 
HETATM   24  N7  UNL     1     -33.231 -17.373  22.301  1.00  0.00    -0.326 N 
HETATM   25  C4  UNL     1     -34.357 -17.715  21.532  1.00  0.00     0.188 C 
ATOM     26  H7  UNL     1     -33.059 -17.823  23.200  1.00  0.00     0.166 HD
HETATM   27  N8  UNL     1     -35.119 -18.878  21.876  1.00  0.00    -0.064 NA
HETATM   28  N9  UNL     1     -34.713 -17.012  20.536  1.00  0.00    -0.348 N 
HETATM   29  C5  UNL     1     -34.032 -15.821  20.086  1.00  0.00     0.253 C 
ATOM     30  H9  UNL     1     -35.540 -17.311  20.017  1.00  0.00     0.163 HD
HETATM   31  N10 UNL     1     -33.112 -15.372  21.109  1.00  0.00    -0.320 N 
BRANCH  31  32
HETATM   32  C6  UNL     1     -32.953 -14.012  21.465  1.00  0.00     0.206 C 
HETATM   33  N11 UNL     1     -32.411 -13.207  20.644  1.00  0.00    -0.265 N 
ATOM     34  H11 UNL     1     -32.108 -13.584  19.745  1.00  0.00     0.194 HD
BRANCH  33  35
HETATM   35  O1  UNL     1     -32.204 -11.880  20.870  1.00  0.00    -0.289 OA
ATOM     36  H1  UNL     1     -32.427 -11.422  21.671  1.00  0.00     0.244 HD
ENDBRANCH  33  35
ENDBRANCH  31  32
ENDBRANCH  21  23
ENDBRANCH   3  21
TORSDOF 8
ENDMDL
MODEL 4
REMARK VINA RESULT: -5.741530027      2.132      3.448
REMARK  8 active torsions:
REMARK  status: ('A' for Active; 'I' for Inactive)
REMARK    1  A    between atoms: N1_1  and  C1_4 
REMARK    2  A    between atoms: C2_9  and  N4_10 
REMARK    3  A    between atoms: N5_12  and  N6_14 
REMARK    4  A    between atoms: N6_14  and  C3_16 
REMARK    5  A    between atoms: N10_24  and  C6_25 
REMARK    6  A    between atoms: N11_26  and  O1_28 
REMARK    7  A    between atoms: C7_30  and  N12_31 
REMARK    8  A    between atoms: N12_31  and  C8_33 
ROOT
HETATM    1  N4  UNL     1     -30.061 -16.523  19.990  1.00  0.00    -0.267 N 
ATOM      2  H4  UNL     1     -29.837 -15.682  20.522  1.00  0.00     0.190 HD
HETATM    3  N5  UNL     1     -31.210 -16.606  19.460  1.00  0.00    -0.242 N 
ATOM      4  H5  UNL     1     -31.466 -17.433  18.921  1.00  0.00     0.208 HD
ENDROOT
BRANCH   1   5
HETATM    5  C2  UNL     1     -29.075 -17.525  19.889  1.00  0.00     0.182 A 
HETATM    6  N3  UNL     1     -29.040 -18.598  20.724  1.00  0.00    -0.267 N 
HETATM    7  N2  UNL     1     -28.083 -19.503  20.572  1.00  0.00    -0.131 N 
ATOM      8  H3  UNL     1     -29.740 -18.704  21.459  1.00  0.00     0.189 HD
HETATM    9  C1  UNL     1     -27.140 -19.401  19.615  1.00  0.00     0.692 A 
ATOM     10  H2  UNL     1     -28.061 -20.306  21.201  1.00  0.00     0.205 HD
HETATM   11  N13 UNL     1     -27.167 -18.344  18.783  1.00  0.00    -0.172 N 
HETATM   12  C7  UNL     1     -28.116 -17.396  18.896  1.00  0.00     0.170 A 
ATOM     13  H13 UNL     1     -26.457 -18.260  18.056  1.00  0.00     0.186 HD
BRANCH   9  14
HETATM   14  N1  UNL     1     -26.205 -20.308  19.483  1.00  0.00    -0.233 N 
ATOM     15  H12 UNL     1     -25.856 -20.801  20.307  1.00  0.00     0.174 HD
ATOM     16  H11 UNL     1     -25.813 -20.536  18.570  1.00  0.00     0.174 HD
ENDBRANCH   9  14
BRANCH  12  17
HETATM   17  N12 UNL     1     -28.162 -16.373  18.109  1.00  0.00    -0.317 N 
ATOM     18  H12 UNL     1     -27.761 -15.477  18.388  1.00  0.00     0.169 HD
BRANCH  17  19
HETATM   19  C8  UNL     1     -28.789 -16.536  16.845  1.00  0.00     0.354 C 
HETATM   20  O2  UNL     1     -30.034 -16.700  16.818  1.00  0.00    -0.283 OA
ENDBRANCH  17  19
ENDBRANCH  12  17
ENDBRANCH   1   5
BRANCH   3  21
HETATM   21  N6  UNL     1     -32.116 -15.570  19.614  1.00  0.00    -0.281 N 
ATOM     22  H6  UNL     1     -32.700 -15.320  18.815  1.00  0.00     0.186 HD
BRANCH  21  23
HETATM   23  C3  UNL     1     -32.284 -14.823  20.840  1.00  0.00     0.311 C 
HETATM   24  N7  UNL     1     -33.253 -15.438  21.723  1.00  0.00    -0.326 N 
HETATM   25  C4  UNL     1     -34.611 -15.115  21.565  1.00  0.00     0.188 C 
ATOM     26  H7  UNL     1     -32.955 -16.093  22.446  1.00  0.00     0.166 HD
HETATM   27  N8  UNL     1     -35.605 -15.898  22.235  1.00  0.00    -0.064 NA
HETATM   28  N9  UNL     1     -34.977 -14.139  20.839  1.00  0.00    -0.348 N 
HETATM   29  C5  UNL     1     -34.077 -13.274  20.112  1.00  0.00     0.253 C 
ATOM     30  H9  UNL     1     -35.977 -13.953  20.764  1.00  0.00     0.163 HD
HETATM   31  N10 UNL     1     -32.724 -13.470  20.589  1.00  0.00    -0.320 N 
BRANCH  31  32
HETATM   32  C6  UNL     1     -31.822 -12.404  20.816  1.00  0.00     0.206 C 
HETATM   33  N11 UNL     1     -32.255 -11.303  21.281  1.00  0.00    -0.265 N 
ATOM     34  H11 UNL     1     -33.254 -11.234  21.475  1.00  0.00     0.194 HD
BRANCH  33  35
HETATM   35  O1  UNL     1     -31.488 -10.208  21.541  1.00  0.00    -0.289 OA
ATOM     36  H1  UNL     1     -31.008  -9.711  20.890  1.00  0.00     0.244 HD
ENDBRANCH  33  35
ENDBRANCH  31  32
ENDBRANCH  21  23
ENDBRANCH   3  21
TORSDOF 8
ENDMDL
MODEL 5
REMARK VINA RESULT: -5.706132731      2.277      3.967
REMARK  8 active torsions:
REMARK  status: ('A' for Active; 'I' for Inactive)
REMARK    1  A    between atoms: N1_1  and  C1_4 
REMARK    2  A    between atoms: C2_9  and  N4_10 
REMARK    3  A    between atoms: N5_12  and  N6_14 
REMARK    4  A    between atoms: N6_14  and  C3_16 
REMARK    5  A    between atoms: N10_24  and  C6_25 
REMARK    6  A    between atoms: N11_26  and  O1_28 
REMARK    7  A    between atoms: C7_30  and  N12_31 
REMARK    8  A    between atoms: N12_31  and  C8_33 
ROOT
HETATM    1  N4  UNL     1     -30.270 -16.725  19.790  1.00  0.00    -0.267 N 
ATOM      2  H4  UNL     1     -30.519 -16.799  20.776  1.00  0.00     0.190 HD
HETATM    3  N5  UNL     1     -31.075 -16.124  19.015  1.00  0.00    -0.242 N 
ATOM      4  H5  UNL     1     -30.855 -16.031  18.023  1.00  0.00     0.208 HD
ENDROOT
BRANCH   1   5
HETATM    5  C2  UNL     1     -29.052 -17.295  19.368  1.00  0.00     0.182 A 
HETATM    6  N3  UNL     1     -28.279 -16.728  18.403  1.00  0.00    -0.267 N 
HETATM    7  N2  UNL     1     -27.144 -17.320  18.055  1.00  0.00    -0.131 N 
ATOM      8  H3  UNL     1     -28.569 -15.859  17.953  1.00  0.00     0.189 HD
HETATM    9  C1  UNL     1     -26.726 -18.467  18.623  1.00  0.00     0.692 A 
ATOM     10  H2  UNL     1     -26.568 -16.891  17.331  1.00  0.00     0.205 HD
HETATM   11  N13 UNL     1     -27.483 -19.035  19.579  1.00  0.00    -0.172 N 
HETATM   12  C7  UNL     1     -28.644 -18.476  19.969  1.00  0.00     0.170 A 
ATOM     13  H13 UNL     1     -27.173 -19.903  20.015  1.00  0.00     0.186 HD
BRANCH   9  14
HETATM   14  N1  UNL     1     -25.601 -19.033  18.263  1.00  0.00    -0.233 N 
ATOM     15  H12 UNL     1     -25.403 -19.182  17.273  1.00  0.00     0.174 HD
ATOM     16  H11 UNL     1     -24.914 -19.332  18.955  1.00  0.00     0.174 HD
ENDBRANCH   9  14
BRANCH  12  17
HETATM   17  N12 UNL     1     -29.388 -19.003  20.884  1.00  0.00    -0.317 N 
ATOM     18  H12 UNL     1     -29.632 -19.993  20.858  1.00  0.00     0.169 HD
BRANCH  17  19
HETATM   19  C8  UNL     1     -29.854 -18.160  21.926  1.00  0.00     0.354 C 
HETATM   20  O2  UNL     1     -31.094 -18.082  22.115  1.00  0.00    -0.283 OA
ENDBRANCH  17  19
ENDBRANCH  12  17
ENDBRANCH   1   5
BRANCH   3  21
HETATM   21  N6  UNL     1     -32.250 -15.594  19.518  1.00  0.00    -0.281 N 
ATOM     22  H6  UNL     1     -33.096 -15.678  18.953  1.00  0.00     0.186 HD
BRANCH  21  23
HETATM   23  C3  UNL     1     -32.350 -14.929  20.798  1.00  0.00     0.311 C 
HETATM   24  N7  UNL     1     -33.277 -15.597  21.687  1.00  0.00    -0.326 N 
HETATM   25  C4  UNL     1     -34.640 -15.259  21.620  1.00  0.00     0.188 C 
ATOM     26  H7  UNL     1     -32.947 -16.299  22.349  1.00  0.00     0.166 HD
HETATM   27  N8  UNL     1     -35.604 -16.082  22.288  1.00  0.00    -0.064 NA
HETATM   28  N9  UNL     1     -35.035 -14.236  20.979  1.00  0.00    -0.348 N 
HETATM   29  C5  UNL     1     -34.167 -13.329  20.265  1.00  0.00     0.253 C 
ATOM     30  H9  UNL     1     -36.037 -14.042  20.968  1.00  0.00     0.163 HD
HETATM   31  N10 UNL     1     -32.794 -13.560  20.659  1.00  0.00    -0.320 N 
BRANCH  31  32
HETATM   32  C6  UNL     1     -31.874 -12.515  20.909  1.00  0.00     0.206 C 
HETATM   33  N11 UNL     1     -32.305 -11.354  21.198  1.00  0.00    -0.265 N 
ATOM     34  H11 UNL     1     -33.316 -11.224  21.237  1.00  0.00     0.194 HD
BRANCH  33  35
HETATM   35  O1  UNL     1     -31.522 -10.271  21.457  1.00  0.00    -0.289 OA
ATOM     36  H1  UNL     1     -31.670  -9.396  21.117  1.00  0.00     0.244 HD
ENDBRANCH  33  35
ENDBRANCH  31  32
ENDBRANCH  21  23
ENDBRANCH   3  21
TORSDOF 8
ENDMDL
