MODEL 1
REMARK VINA RESULT: -5.057511344      0.000      0.000
REMARK  8 active torsions:
REMARK  status: ('A' for Active; 'I' for Inactive)
REMARK    1  A    between atoms: C2_2  and  C3_3 
REMARK    2  A    between atoms: C2_2  and  N2_11 
REMARK    3  A    between atoms: C3_3  and  N1_4 
REMARK    4  A    between atoms: N1_4  and  C4_7 
REMARK    5  A    between atoms: C4_7  and  O1_9 
REMARK    6  A    between atoms: N4_18  and  N5_19 
REMARK    7  A    between atoms: C10_27  and  N8_28 
REMARK    8  A    between atoms: N8_28  and  N9_30 
ROOT
HETATM    1  N2  UNL     1     -31.773 -15.425  19.805  1.00  0.00    -0.369 N 
ATOM      2  H2  UNL     1     -31.694 -14.808  18.997  1.00  0.00     0.161 HD
HETATM    3  C6  UNL     1     -31.071 -16.419  19.669  1.00  0.00     0.132 C 
HETATM    4  N3  UNL     1     -31.092 -17.360  20.725  1.00  0.00    -0.290 N 
ATOM      5  H3  UNL     1     -32.019 -17.483  21.132  1.00  0.00     0.172 HD
HETATM    6  C7  UNL     1     -30.086 -18.181  21.351  1.00  0.00     0.362 C 
HETATM    7  O2  UNL     1     -30.344 -18.513  22.525  1.00  0.00    -0.243 OA
HETATM    8  N4  UNL     1     -28.839 -18.673  20.848  1.00  0.00    -0.147 N 
HETATM    9  N6  UNL     1     -27.994 -18.301  19.798  1.00  0.00    -0.263 N 
ATOM     10  H6  UNL     1     -27.048 -18.654  19.950  1.00  0.00     0.190 HD
HETATM   11  C8  UNL     1     -28.068 -17.631  18.680  1.00  0.00     0.160 C 
HETATM   12  C9  UNL     1     -26.843 -17.547  17.949  1.00  0.00     0.121 C 
HETATM   13  N7  UNL     1     -25.856 -17.462  17.343  1.00  0.00    -0.190 NA
HETATM   14  C10 UNL     1     -29.145 -16.925  17.992  1.00  0.00     0.114 C 
HETATM   15  C11 UNL     1     -30.333 -16.451  18.407  1.00  0.00     0.121 C 
HETATM   16  N10 UNL     1     -31.011 -15.836  17.331  1.00  0.00    -0.096 NA
ENDROOT
BRANCH  14  17
HETATM   17  N8  UNL     1     -28.832 -16.728  16.630  1.00  0.00    -0.303 N 
ATOM     18  H8  UNL     1     -28.939 -17.511  15.985  1.00  0.00     0.186 HD
BRANCH  17  19
HETATM   19  N9  UNL     1     -28.388 -15.518  16.137  1.00  0.00    -0.345 N 
ATOM     20  H92 UNL     1     -28.095 -14.811  16.810  1.00  0.00     0.176 HD
ATOM     21  H91 UNL     1     -28.346 -15.314  15.138  1.00  0.00     0.176 HD
ENDBRANCH  17  19
ENDBRANCH  14  17
BRANCH   8  22
HETATM   22  N5  UNL     1     -28.391 -19.774  21.580  1.00  0.00    -0.320 N 
ATOM     23  H52 UNL     1     -27.914 -19.533  22.449  1.00  0.00     0.179 HD
ATOM     24  H51 UNL     1     -28.617 -20.652  21.111  1.00  0.00     0.179 HD
ENDBRANCH   8  22
BRANCH   1  25
HETATM   25  C2  UNL     1     -32.653 -14.896  20.754  1.00  0.00     0.104 C 
HETATM   26  C1  UNL     1     -32.531 -13.366  20.737  1.00  0.00     0.034 C 
BRANCH  25  27
HETATM   27  C3  UNL     1     -34.079 -15.271  20.699  1.00  0.00     0.259 C 
BRANCH  27  28
HETATM   28  N1  UNL     1     -34.131 -16.707  20.394  1.00  0.00    -0.048 N 
ATOM     29  H12 UNL     1     -34.706 -16.890  19.571  1.00  0.00     0.280 HD
ATOM     30  H11 UNL     1     -33.234 -17.043  20.042  1.00  0.00     0.280 HD
BRANCH  28  31
HETATM   31  C4  UNL     1     -34.569 -17.477  21.512  1.00  0.00     0.314 C 
HETATM   32  C5  UNL     1     -35.278 -18.753  21.210  1.00  0.00     0.070 C 
BRANCH  31  33
HETATM   33  O1  UNL     1     -33.389 -17.793  22.239  1.00  0.00    -0.370 OA
ATOM     34  H1  UNL     1     -32.994 -18.522  21.775  1.00  0.00     0.212 HD
ENDBRANCH  31  33
ENDBRANCH  28  31
ENDBRANCH  27  28
ENDBRANCH  25  27
ENDBRANCH   1  25
TORSDOF 8
ENDMDL
MODEL 2
REMARK VINA RESULT: -5.004562262      1.799      2.813
REMARK  8 active torsions:
REMARK  status: ('A' for Active; 'I' for Inactive)
REMARK    1  A    between atoms: C2_2  and  C3_3 
REMARK    2  A    between atoms: C2_2  and  N2_11 
REMARK    3  A    between atoms: C3_3  and  N1_4 
REMARK    4  A    between atoms: N1_4  and  C4_7 
REMARK    5  A    between atoms: C4_7  and  O1_9 
REMARK    6  A    between atoms: N4_18  and  N5_19 
REMARK    7  A    between atoms: C10_27  and  N8_28 
REMARK    8  A    between atoms: N8_28  and  N9_30 
ROOT
HETATM    1  N2  UNL     1     -31.866 -15.644  19.724  1.00  0.00    -0.369 N 
ATOM      2  H2  UNL     1     -31.813 -15.019  18.920  1.00  0.00     0.161 HD
HETATM    3  C6  UNL     1     -31.102 -16.592  19.594  1.00  0.00     0.132 C 
HETATM    4  N3  UNL     1     -31.081 -17.537  20.646  1.00  0.00    -0.290 N 
ATOM      5  H3  UNL     1     -32.004 -17.719  21.039  1.00  0.00     0.172 HD
HETATM    6  C7  UNL     1     -30.036 -18.299  21.284  1.00  0.00     0.362 C 
HETATM    7  O2  UNL     1     -30.290 -18.651  22.452  1.00  0.00    -0.243 OA
HETATM    8  N4  UNL     1     -28.754 -18.711  20.797  1.00  0.00    -0.147 N 
HETATM    9  N6  UNL     1     -27.918 -18.283  19.761  1.00  0.00    -0.263 N 
ATOM     10  H6  UNL     1     -26.955 -18.577  19.925  1.00  0.00     0.190 HD
HETATM   11  C8  UNL     1     -28.017 -17.613  18.644  1.00  0.00     0.160 C 
HETATM   12  C9  UNL     1     -26.788 -17.450  17.933  1.00  0.00     0.121 C 
HETATM   13  N7  UNL     1     -25.800 -17.301  17.341  1.00  0.00    -0.190 NA
HETATM   14  C10 UNL     1     -29.125 -16.970  17.944  1.00  0.00     0.114 C 
HETATM   15  C11 UNL     1     -30.345 -16.573  18.343  1.00  0.00     0.121 C 
HETATM   16  N10 UNL     1     -31.045 -15.995  17.260  1.00  0.00    -0.096 NA
ENDROOT
BRANCH  14  17
HETATM   17  N8  UNL     1     -28.805 -16.748  16.588  1.00  0.00    -0.303 N 
ATOM     18  H8  UNL     1     -28.855 -17.532  15.938  1.00  0.00     0.186 HD
BRANCH  17  19
HETATM   19  N9  UNL     1     -28.429 -15.511  16.106  1.00  0.00    -0.345 N 
ATOM     20  H92 UNL     1     -28.091 -14.823  16.779  1.00  0.00     0.176 HD
ATOM     21  H91 UNL     1     -28.479 -15.268  15.116  1.00  0.00     0.176 HD
ENDBRANCH  17  19
ENDBRANCH  14  17
BRANCH   8  22
HETATM   22  N5  UNL     1     -28.250 -19.786  21.531  1.00  0.00    -0.320 N 
ATOM     23  H52 UNL     1     -28.731 -20.669  21.363  1.00  0.00     0.179 HD
ATOM     24  H51 UNL     1     -27.473 -19.500  22.127  1.00  0.00     0.179 HD
ENDBRANCH   8  22
BRANCH   1  25
HETATM   25  C2  UNL     1     -32.790 -15.174  20.662  1.00  0.00     0.104 C 
HETATM   26  C1  UNL     1     -32.203 -15.362  22.067  1.00  0.00     0.034 C 
BRANCH  25  27
HETATM   27  C3  UNL     1     -33.311 -13.799  20.532  1.00  0.00     0.259 C 
BRANCH  27  28
HETATM   28  N1  UNL     1     -32.212 -12.892  20.889  1.00  0.00    -0.048 N 
ATOM     29  H12 UNL     1     -32.142 -12.775  21.900  1.00  0.00     0.280 HD
ATOM     30  H11 UNL     1     -31.304 -13.324  20.714  1.00  0.00     0.280 HD
BRANCH  28  31
HETATM   31  C4  UNL     1     -32.321 -11.632  20.230  1.00  0.00     0.314 C 
HETATM   32  C5  UNL     1     -33.588 -11.374  19.486  1.00  0.00     0.070 C 
BRANCH  31  33
HETATM   33  O1  UNL     1     -32.210 -10.656  21.257  1.00  0.00    -0.370 OA
ATOM     34  H1  UNL     1     -31.696 -11.067  21.942  1.00  0.00     0.212 HD
ENDBRANCH  31  33
ENDBRANCH  28  31
ENDBRANCH  27  28
ENDBRANCH  25  27
ENDBRANCH   1  25
TORSDOF 8
ENDMDL
MODEL 3
REMARK VINA RESULT: -3.437992510      2.136      4.209
REMARK  8 active torsions:
REMARK  status: ('A' for Active; 'I' for Inactive)
REMARK    1  A    between atoms: C2_2  and  C3_3 
REMARK    2  A    between atoms: C2_2  and  N2_11 
REMARK    3  A    between atoms: C3_3  and  N1_4 
REMARK    4  A    between atoms: N1_4  and  C4_7 
REMARK    5  A    between atoms: C4_7  and  O1_9 
REMARK    6  A    between atoms: N4_18  and  N5_19 
REMARK    7  A    between atoms: C10_27  and  N8_28 
REMARK    8  A    between atoms: N8_28  and  N9_30 
ROOT
HETATM    1  N2  UNL     1     -32.501 -17.028  20.937  1.00  0.00    -0.369 N 
ATOM      2  H2  UNL     1     -32.452 -17.652  21.743  1.00  0.00     0.161 HD
HETATM    3  C6  UNL     1     -31.390 -16.856  20.449  1.00  0.00     0.132 C 
HETATM    4  N3  UNL     1     -31.320 -16.005  19.322  1.00  0.00    -0.290 N 
ATOM      5  H3  UNL     1     -31.942 -15.200  19.388  1.00  0.00     0.172 HD
HETATM    6  C7  UNL     1     -30.559 -16.031  18.097  1.00  0.00     0.362 C 
HETATM    7  O2  UNL     1     -31.082 -15.416  17.148  1.00  0.00    -0.243 OA
HETATM    8  N4  UNL     1     -29.305 -16.651  17.793  1.00  0.00    -0.147 N 
HETATM    9  N6  UNL     1     -28.560 -17.684  18.369  1.00  0.00    -0.263 N 
ATOM     10  H6  UNL     1     -27.899 -18.075  17.698  1.00  0.00     0.190 HD
HETATM   11  C8  UNL     1     -28.468 -18.291  19.522  1.00  0.00     0.160 C 
HETATM   12  C9  UNL     1     -27.493 -19.335  19.573  1.00  0.00     0.121 C 
HETATM   13  N7  UNL     1     -26.711 -20.191  19.635  1.00  0.00    -0.190 NA
HETATM   14  C10 UNL     1     -29.158 -18.147  20.801  1.00  0.00     0.114 C 
HETATM   15  C11 UNL     1     -30.322 -17.571  21.146  1.00  0.00     0.121 C 
HETATM   16  N10 UNL     1     -30.538 -17.710  22.536  1.00  0.00    -0.096 NA
ENDROOT
BRANCH  14  17
HETATM   17  N8  UNL     1     -28.418 -18.740  21.845  1.00  0.00    -0.303 N 
ATOM     18  H8  UNL     1     -27.585 -18.262  22.188  1.00  0.00     0.186 HD
BRANCH  17  19
HETATM   19  N9  UNL     1     -28.775 -19.943  22.421  1.00  0.00    -0.345 N 
ATOM     20  H92 UNL     1     -29.464 -19.921  23.173  1.00  0.00     0.176 HD
ATOM     21  H91 UNL     1     -28.380 -20.835  22.122  1.00  0.00     0.176 HD
ENDBRANCH  17  19
ENDBRANCH  14  17
BRANCH   8  22
HETATM   22  N5  UNL     1     -28.709 -16.074  16.669  1.00  0.00    -0.320 N 
ATOM     23  H52 UNL     1     -28.907 -15.081  16.555  1.00  0.00     0.179 HD
ATOM     24  H51 UNL     1     -28.169 -16.759  16.140  1.00  0.00     0.179 HD
ENDBRANCH   8  22
BRANCH   1  25
HETATM   25  C2  UNL     1     -33.815 -16.613  20.705  1.00  0.00     0.104 C 
HETATM   26  C1  UNL     1     -34.766 -17.753  21.093  1.00  0.00     0.034 C 
BRANCH  25  27
HETATM   27  C3  UNL     1     -34.290 -15.355  21.313  1.00  0.00     0.259 C 
BRANCH  27  28
HETATM   28  N1  UNL     1     -34.335 -14.353  20.239  1.00  0.00    -0.048 N 
ATOM     29  H12 UNL     1     -34.221 -14.787  19.323  1.00  0.00     0.280 HD
ATOM     30  H11 UNL     1     -35.277 -13.978  20.123  1.00  0.00     0.280 HD
BRANCH  28  31
HETATM   31  C4  UNL     1     -33.384 -13.310  20.439  1.00  0.00     0.314 C 
HETATM   32  C5  UNL     1     -33.503 -12.117  19.553  1.00  0.00     0.070 C 
BRANCH  31  33
HETATM   33  O1  UNL     1     -33.571 -12.880  21.781  1.00  0.00    -0.370 OA
ATOM     34  H1  UNL     1     -34.124 -12.110  21.725  1.00  0.00     0.212 HD
ENDBRANCH  31  33
ENDBRANCH  28  31
ENDBRANCH  27  28
ENDBRANCH  25  27
ENDBRANCH   1  25
TORSDOF 8
ENDMDL
MODEL 4
REMARK VINA RESULT: -2.340272249      1.080      1.279
REMARK  8 active torsions:
REMARK  status: ('A' for Active; 'I' for Inactive)
REMARK    1  A    between atoms: C2_2  and  C3_3 
REMARK    2  A    between atoms: C2_2  and  N2_11 
REMARK    3  A    between atoms: C3_3  and  N1_4 
REMARK    4  A    between atoms: N1_4  and  C4_7 
REMARK    5  A    between atoms: C4_7  and  O1_9 
REMARK    6  A    between atoms: N4_18  and  N5_19 
REMARK    7  A    between atoms: C10_27  and  N8_28 
REMARK    8  A    between atoms: N8_28  and  N9_30 
ROOT
HETATM    1  N2  UNL     1     -31.458 -15.868  19.993  1.00  0.00    -0.369 N 
ATOM      2  H2  UNL     1     -31.467 -15.188  19.233  1.00  0.00     0.161 HD
HETATM    3  C6  UNL     1     -30.700 -16.796  19.742  1.00  0.00     0.132 C 
HETATM    4  N3  UNL     1     -30.597 -17.813  20.720  1.00  0.00    -0.290 N 
ATOM      5  H3  UNL     1     -31.489 -18.032  21.164  1.00  0.00     0.172 HD
HETATM    6  C7  UNL     1     -29.505 -18.606  21.225  1.00  0.00     0.362 C 
HETATM    7  O2  UNL     1     -29.672 -19.043  22.380  1.00  0.00    -0.243 OA
HETATM    8  N4  UNL     1     -28.259 -18.969  20.620  1.00  0.00    -0.147 N 
HETATM    9  N6  UNL     1     -27.502 -18.459  19.560  1.00  0.00    -0.263 N 
ATOM     10  H6  UNL     1     -26.528 -18.754  19.634  1.00  0.00     0.190 HD
HETATM   11  C8  UNL     1     -27.685 -17.714  18.503  1.00  0.00     0.160 C 
HETATM   12  C9  UNL     1     -26.512 -17.488  17.719  1.00  0.00     0.121 C 
HETATM   13  N7  UNL     1     -25.570 -17.287  17.071  1.00  0.00    -0.190 NA
HETATM   14  C10 UNL     1     -28.845 -17.035  17.931  1.00  0.00     0.114 C 
HETATM   15  C11 UNL     1     -30.035 -16.680  18.444  1.00  0.00     0.121 C 
HETATM   16  N10 UNL     1     -30.815 -16.036  17.458  1.00  0.00    -0.096 NA
ENDROOT
BRANCH  14  17
HETATM   17  N8  UNL     1     -28.625 -16.714  16.575  1.00  0.00    -0.303 N 
ATOM     18  H8  UNL     1     -28.569 -17.473  15.895  1.00  0.00     0.186 HD
BRANCH  17  19
HETATM   19  N9  UNL     1     -28.483 -15.415  16.132  1.00  0.00    -0.345 N 
ATOM     20  H92 UNL     1     -29.244 -15.018  15.581  1.00  0.00     0.176 HD
ATOM     21  H91 UNL     1     -27.657 -14.852  16.335  1.00  0.00     0.176 HD
ENDBRANCH  17  19
ENDBRANCH  14  17
BRANCH   8  22
HETATM   22  N5  UNL     1     -27.697 -20.088  21.238  1.00  0.00    -0.320 N 
ATOM     23  H52 UNL     1     -27.734 -20.065  22.257  1.00  0.00     0.179 HD
ATOM     24  H51 UNL     1     -27.332 -20.749  20.552  1.00  0.00     0.179 HD
ENDBRANCH   8  22
BRANCH   1  25
HETATM   25  C2  UNL     1     -32.315 -15.476  21.026  1.00  0.00     0.104 C 
HETATM   26  C1  UNL     1     -31.508 -15.389  22.328  1.00  0.00     0.034 C 
BRANCH  25  27
HETATM   27  C3  UNL     1     -33.116 -14.246  20.867  1.00  0.00     0.259 C 
BRANCH  27  28
HETATM   28  N1  UNL     1     -34.470 -14.666  20.481  1.00  0.00    -0.048 N 
ATOM     29  H12 UNL     1     -35.058 -13.862  20.260  1.00  0.00     0.280 HD
ATOM     30  H11 UNL     1     -34.470 -15.121  19.568  1.00  0.00     0.280 HD
BRANCH  28  31
HETATM   31  C4  UNL     1     -35.077 -15.494  21.471  1.00  0.00     0.314 C 
HETATM   32  C5  UNL     1     -34.656 -16.924  21.497  1.00  0.00     0.070 C 
BRANCH  31  33
HETATM   33  O1  UNL     1     -34.724 -14.911  22.719  1.00  0.00    -0.370 OA
ATOM     34  H1  UNL     1     -34.691 -15.634  23.335  1.00  0.00     0.212 HD
ENDBRANCH  31  33
ENDBRANCH  28  31
ENDBRANCH  27  28
ENDBRANCH  25  27
ENDBRANCH   1  25
TORSDOF 8
ENDMDL
MODEL 5
REMARK VINA RESULT: -1.834721474      1.744      2.447
REMARK  8 active torsions:
REMARK  status: ('A' for Active; 'I' for Inactive)
REMARK    1  A    between atoms: C2_2  and  C3_3 
REMARK    2  A    between atoms: C2_2  and  N2_11 
REMARK    3  A    between atoms: C3_3  and  N1_4 
REMARK    4  A    between atoms: N1_4  and  C4_7 
REMARK    5  A    between atoms: C4_7  and  O1_9 
REMARK    6  A    between atoms: N4_18  and  N5_19 
REMARK    7  A    between atoms: C10_27  and  N8_28 
REMARK    8  A    between atoms: N8_28  and  N9_30 
ROOT
HETATM    1  N2  UNL     1     -31.420 -16.130  19.743  1.00  0.00    -0.369 N 
ATOM      2  H2  UNL     1     -31.519 -15.408  19.030  1.00  0.00     0.161 HD
HETATM    3  C6  UNL     1     -30.576 -16.956  19.417  1.00  0.00     0.132 C 
HETATM    4  N3  UNL     1     -30.343 -18.016  20.324  1.00  0.00    -0.290 N 
ATOM      5  H3  UNL     1     -31.196 -18.355  20.770  1.00  0.00     0.172 HD
HETATM    6  C7  UNL     1     -29.162 -18.720  20.755  1.00  0.00     0.362 C 
HETATM    7  O2  UNL     1     -29.253 -19.244  21.882  1.00  0.00    -0.243 OA
HETATM    8  N4  UNL     1     -27.901 -18.911  20.104  1.00  0.00    -0.147 N 
HETATM    9  N6  UNL     1     -27.229 -18.259  19.065  1.00  0.00    -0.263 N 
ATOM     10  H6  UNL     1     -26.228 -18.454  19.101  1.00  0.00     0.190 HD
HETATM   11  C8  UNL     1     -27.516 -17.472  18.064  1.00  0.00     0.160 C 
HETATM   12  C9  UNL     1     -26.393 -17.074  17.273  1.00  0.00     0.121 C 
HETATM   13  N7  UNL     1     -25.494 -16.735  16.621  1.00  0.00    -0.190 NA
HETATM   14  C10 UNL     1     -28.754 -16.884  17.559  1.00  0.00     0.114 C 
HETATM   15  C11 UNL     1     -29.961 -16.689  18.117  1.00  0.00     0.121 C 
HETATM   16  N10 UNL     1     -30.828 -16.069  17.190  1.00  0.00    -0.096 NA
ENDROOT
BRANCH  14  17
HETATM   17  N8  UNL     1     -28.604 -16.457  16.224  1.00  0.00    -0.303 N 
ATOM     18  H8  UNL     1     -28.673 -17.148  15.477  1.00  0.00     0.186 HD
BRANCH  17  19
HETATM   19  N9  UNL     1     -28.367 -15.140  15.886  1.00  0.00    -0.345 N 
ATOM     20  H92 UNL     1     -27.411 -14.793  15.973  1.00  0.00     0.176 HD
ATOM     21  H91 UNL     1     -29.103 -14.514  15.559  1.00  0.00     0.176 HD
ENDBRANCH  17  19
ENDBRANCH  14  17
BRANCH   8  22
HETATM   22  N5  UNL     1     -27.210 -20.001  20.636  1.00  0.00    -0.320 N 
ATOM     23  H52 UNL     1     -27.804 -20.680  21.112  1.00  0.00     0.179 HD
ATOM     24  H51 UNL     1     -26.208 -19.931  20.459  1.00  0.00     0.179 HD
ENDBRANCH   8  22
BRANCH   1  25
HETATM   25  C2  UNL     1     -32.286 -15.896  20.815  1.00  0.00     0.104 C 
HETATM   26  C1  UNL     1     -31.808 -16.717  22.020  1.00  0.00     0.034 C 
BRANCH  25  27
HETATM   27  C3  UNL     1     -32.541 -14.507  21.243  1.00  0.00     0.259 C 
BRANCH  27  28
HETATM   28  N1  UNL     1     -33.974 -14.255  21.042  1.00  0.00    -0.048 N 
ATOM     29  H12 UNL     1     -34.451 -15.088  20.696  1.00  0.00     0.280 HD
ATOM     30  H11 UNL     1     -34.460 -14.151  21.934  1.00  0.00     0.280 HD
BRANCH  28  31
HETATM   31  C4  UNL     1     -34.207 -13.134  20.192  1.00  0.00     0.314 C 
HETATM   32  C5  UNL     1     -33.014 -12.329  19.804  1.00  0.00     0.070 C 
BRANCH  31  33
HETATM   33  O1  UNL     1     -34.777 -13.671  19.006  1.00  0.00    -0.370 OA
ATOM     34  H1  UNL     1     -34.242 -13.339  18.295  1.00  0.00     0.212 HD
ENDBRANCH  31  33
ENDBRANCH  28  31
ENDBRANCH  27  28
ENDBRANCH  25  27
ENDBRANCH   1  25
TORSDOF 8
ENDMDL
