MODEL 1
REMARK VINA RESULT: -7.916897421      0.000      0.000
REMARK  8 active torsions:
REMARK  status: ('A' for Active; 'I' for Inactive)
REMARK    1  A    between atoms: C2_2  and  C3_3 
REMARK    2  A    between atoms: C3_3  and  N1_4 
REMARK    3  A    between atoms: C6_9  and  N4_10 
REMARK    4  A    between atoms: N6_17  and  N7_19 
REMARK    5  A    between atoms: N7_19  and  O2_20 
REMARK    6  A    between atoms: N7_19  and  C8_22 
REMARK    7  A    between atoms: C8_22  and  N8_23 
REMARK    8  A    between atoms: C9_29  and  N12_30 
ROOT
HETATM    1  C1  UNL     1     -33.914 -17.244  20.991  1.00  0.00     0.066 C 
HETATM    2  C2  UNL     1     -32.713 -16.690  21.658  1.00  0.00     0.020 C 
HETATM    3  N6  UNL     1     -32.734 -15.430  21.941  1.00  0.00    -0.285 N 
ATOM      4  H6  UNL     1     -31.918 -15.024  22.400  1.00  0.00     0.188 HD
ENDROOT
BRANCH   2   5
HETATM    5  C3  UNL     1     -31.527 -17.472  22.009  1.00  0.00     0.188 C 
BRANCH   5   6
HETATM    6  N1  UNL     1     -30.514 -17.490  20.972  1.00  0.00    -0.281 N 
HETATM    7  C4  UNL     1     -29.515 -18.407  21.067  1.00  0.00     0.151 A 
HETATM    8  N2  UNL     1     -29.498 -19.299  22.157  1.00  0.00    -0.080 NA
HETATM    9  C5  UNL     1     -28.527 -18.471  20.111  1.00  0.00     0.131 A 
HETATM   10  N3  UNL     1     -27.499 -19.440  20.237  1.00  0.00    -0.095 NA
HETATM   11  C6  UNL     1     -28.555 -17.596  19.053  1.00  0.00     0.130 A 
HETATM   12  N5  UNL     1     -29.549 -16.695  18.973  1.00  0.00    -0.293 N 
HETATM   13  C7  UNL     1     -30.517 -16.651  19.933  1.00  0.00     0.329 A 
ATOM     14  H5  UNL     1     -29.579 -16.041  18.191  1.00  0.00     0.172 HD
HETATM   15  O1  UNL     1     -31.416 -15.797  19.813  1.00  0.00    -0.246 OA
BRANCH  11  16
HETATM   16  N4  UNL     1     -27.632 -17.658  18.164  1.00  0.00    -0.384 N 
ATOM     17  H42 UNL     1     -26.653 -17.501  18.401  1.00  0.00     0.157 HD
ATOM     18  H41 UNL     1     -27.884 -17.869  17.199  1.00  0.00     0.157 HD
ENDBRANCH  11  16
ENDBRANCH   5   6
ENDBRANCH   2   5
BRANCH   3  19
HETATM   19  N7  UNL     1     -33.814 -14.593  21.651  1.00  0.00    -0.181 N 
BRANCH  19  20
HETATM   20  O2  UNL     1     -34.805 -14.458  22.556  1.00  0.00    -0.271 OA
ATOM     21  H2  UNL     1     -35.631 -14.071  22.287  1.00  0.00     0.246 HD
ENDBRANCH  19  20
BRANCH  19  22
HETATM   22  C8  UNL     1     -33.854 -13.881  20.382  1.00  0.00     0.341 C 
BRANCH  22  23
HETATM   23  N8  UNL     1     -32.962 -12.738  20.407  1.00  0.00    -0.083 N 
HETATM   24  N9  UNL     1     -31.812 -12.672  21.091  1.00  0.00     0.013 NA
HETATM   25  N10 UNL     1     -31.282 -11.478  20.869  1.00  0.00    -0.211 N 
HETATM   26  N11 UNL     1     -32.084 -10.816  20.065  1.00  0.00    -0.118 N 
ATOM     27  H10 UNL     1     -30.404 -11.132  21.255  1.00  0.00     0.206 HD
HETATM   28  C9  UNL     1     -33.129 -11.568  19.763  1.00  0.00     0.708 A 
ATOM     29  H11 UNL     1     -31.924  -9.866  19.727  1.00  0.00     0.207 HD
BRANCH  28  30
HETATM   30  N12 UNL     1     -34.154 -11.294  19.001  1.00  0.00    -0.232 N 
ATOM     31 2H12 UNL     1     -34.338 -11.576  18.038  1.00  0.00     0.174 HD
ATOM     32 1H12 UNL     1     -34.949 -10.727  19.297  1.00  0.00     0.174 HD
ENDBRANCH  28  30
ENDBRANCH  22  23
ENDBRANCH  19  22
ENDBRANCH   3  19
TORSDOF 8
ENDMDL
MODEL 2
REMARK VINA RESULT: -7.174480282      1.582      2.680
REMARK  8 active torsions:
REMARK  status: ('A' for Active; 'I' for Inactive)
REMARK    1  A    between atoms: C2_2  and  C3_3 
REMARK    2  A    between atoms: C3_3  and  N1_4 
REMARK    3  A    between atoms: C6_9  and  N4_10 
REMARK    4  A    between atoms: N6_17  and  N7_19 
REMARK    5  A    between atoms: N7_19  and  O2_20 
REMARK    6  A    between atoms: N7_19  and  C8_22 
REMARK    7  A    between atoms: C8_22  and  N8_23 
REMARK    8  A    between atoms: C9_29  and  N12_30 
ROOT
HETATM    1  C1  UNL     1     -30.635 -16.088  22.137  1.00  0.00     0.066 C 
HETATM    2  C2  UNL     1     -31.364 -16.688  20.995  1.00  0.00     0.020 C 
HETATM    3  N6  UNL     1     -32.393 -16.041  20.557  1.00  0.00    -0.285 N 
ATOM      4  H6  UNL     1     -32.912 -16.434  19.772  1.00  0.00     0.188 HD
ENDROOT
BRANCH   2   5
HETATM    5  C3  UNL     1     -30.994 -17.946  20.345  1.00  0.00     0.188 C 
BRANCH   5   6
HETATM    6  N1  UNL     1     -29.651 -17.943  19.795  1.00  0.00    -0.281 N 
HETATM    7  C4  UNL     1     -29.396 -17.130  18.736  1.00  0.00     0.151 A 
HETATM    8  N2  UNL     1     -30.429 -16.328  18.214  1.00  0.00    -0.080 NA
HETATM    9  C5  UNL     1     -28.140 -17.085  18.173  1.00  0.00     0.131 A 
HETATM   10  N3  UNL     1     -27.903 -16.227  17.069  1.00  0.00    -0.095 NA
HETATM   11  C6  UNL     1     -27.141 -17.873  18.691  1.00  0.00     0.130 A 
HETATM   12  N5  UNL     1     -27.410 -18.670  19.738  1.00  0.00    -0.293 N 
HETATM   13  C7  UNL     1     -28.662 -18.697  20.279  1.00  0.00     0.329 A 
ATOM     14  H5  UNL     1     -26.674 -19.258  20.130  1.00  0.00     0.172 HD
HETATM   15  O1  UNL     1     -28.860 -19.454  21.248  1.00  0.00    -0.246 OA
BRANCH  11  16
HETATM   16  N4  UNL     1     -25.973 -17.829  18.163  1.00  0.00    -0.384 N 
ATOM     17  H42 UNL     1     -25.272 -17.158  18.477  1.00  0.00     0.157 HD
ATOM     18  H41 UNL     1     -25.740 -18.479  17.413  1.00  0.00     0.157 HD
ENDBRANCH  11  16
ENDBRANCH   5   6
ENDBRANCH   2   5
BRANCH   3  19
HETATM   19  N7  UNL     1     -32.833 -14.833  21.103  1.00  0.00    -0.181 N 
BRANCH  19  20
HETATM   20  O2  UNL     1     -34.031 -14.786  21.721  1.00  0.00    -0.271 OA
ATOM     21  H2  UNL     1     -34.090 -14.409  22.591  1.00  0.00     0.246 HD
ENDBRANCH  19  20
BRANCH  19  22
HETATM   22  C8  UNL     1     -31.995 -13.648  20.999  1.00  0.00     0.341 C 
BRANCH  22  23
HETATM   23  N8  UNL     1     -32.713 -12.566  20.354  1.00  0.00    -0.083 N 
HETATM   24  N9  UNL     1     -33.700 -12.721  19.461  1.00  0.00     0.013 NA
HETATM   25  N10 UNL     1     -34.105 -11.512  19.098  1.00  0.00    -0.211 N 
HETATM   26  N11 UNL     1     -33.387 -10.625  19.751  1.00  0.00    -0.118 N 
ATOM     27  H10 UNL     1     -34.845 -11.305  18.429  1.00  0.00     0.206 HD
HETATM   28  C9  UNL     1     -32.519 -11.247  20.534  1.00  0.00     0.708 A 
ATOM     29  H11 UNL     1     -33.484  -9.613  19.667  1.00  0.00     0.207 HD
BRANCH  28  30
HETATM   30  N12 UNL     1     -31.626 -10.744  21.343  1.00  0.00    -0.232 N 
ATOM     31 2H12 UNL     1     -30.897 -11.218  21.877  1.00  0.00     0.174 HD
ATOM     32 1H12 UNL     1     -31.543  -9.749  21.553  1.00  0.00     0.174 HD
ENDBRANCH  28  30
ENDBRANCH  22  23
ENDBRANCH  19  22
ENDBRANCH   3  19
TORSDOF 8
ENDMDL
MODEL 3
REMARK VINA RESULT: -6.883635212      1.299      1.824
REMARK  8 active torsions:
REMARK  status: ('A' for Active; 'I' for Inactive)
REMARK    1  A    between atoms: C2_2  and  C3_3 
REMARK    2  A    between atoms: C3_3  and  N1_4 
REMARK    3  A    between atoms: C6_9  and  N4_10 
REMARK    4  A    between atoms: N6_17  and  N7_19 
REMARK    5  A    between atoms: N7_19  and  O2_20 
REMARK    6  A    between atoms: N7_19  and  C8_22 
REMARK    7  A    between atoms: C8_22  and  N8_23 
REMARK    8  A    between atoms: C9_29  and  N12_30 
ROOT
HETATM    1  C1  UNL     1     -31.052 -15.736  22.051  1.00  0.00     0.066 C 
HETATM    2  C2  UNL     1     -31.633 -16.547  20.957  1.00  0.00     0.020 C 
HETATM    3  N6  UNL     1     -32.692 -16.079  20.384  1.00  0.00    -0.285 N 
ATOM      4  H6  UNL     1     -33.111 -16.620  19.627  1.00  0.00     0.188 HD
ENDROOT
BRANCH   2   5
HETATM    5  C3  UNL     1     -31.088 -17.824  20.494  1.00  0.00     0.188 C 
BRANCH   5   6
HETATM    6  N1  UNL     1     -29.873 -17.689  19.713  1.00  0.00    -0.281 N 
HETATM    7  C4  UNL     1     -28.798 -18.442  20.066  1.00  0.00     0.151 A 
HETATM    8  N2  UNL     1     -28.896 -19.316  21.166  1.00  0.00    -0.080 NA
HETATM    9  C5  UNL     1     -27.619 -18.356  19.360  1.00  0.00     0.131 A 
HETATM   10  N3  UNL     1     -26.514 -19.153  19.752  1.00  0.00    -0.095 NA
HETATM   11  C6  UNL     1     -27.535 -17.499  18.290  1.00  0.00     0.130 A 
HETATM   12  N5  UNL     1     -28.607 -16.763  17.953  1.00  0.00    -0.293 N 
HETATM   13  C7  UNL     1     -29.765 -16.866  18.668  1.00  0.00     0.329 A 
ATOM     14  H5  UNL     1     -28.555 -16.124  17.160  1.00  0.00     0.172 HD
HETATM   15  O1  UNL     1     -30.730 -16.160  18.315  1.00  0.00    -0.246 OA
BRANCH  11  16
HETATM   16  N4  UNL     1     -26.435 -17.421  17.635  1.00  0.00    -0.384 N 
ATOM     17  H42 UNL     1     -26.177 -18.123  16.942  1.00  0.00     0.157 HD
ATOM     18  H41 UNL     1     -25.805 -16.640  17.811  1.00  0.00     0.157 HD
ENDBRANCH  11  16
ENDBRANCH   5   6
ENDBRANCH   2   5
BRANCH   3  19
HETATM   19  N7  UNL     1     -33.293 -14.872  20.746  1.00  0.00    -0.181 N 
BRANCH  19  20
HETATM   20  O2  UNL     1     -34.638 -14.803  20.828  1.00  0.00    -0.271 OA
ATOM     21  H2  UNL     1     -35.046 -13.988  21.098  1.00  0.00     0.246 HD
ENDBRANCH  19  20
BRANCH  19  22
HETATM   22  C8  UNL     1     -32.464 -13.710  21.029  1.00  0.00     0.341 C 
BRANCH  22  23
HETATM   23  N8  UNL     1     -32.897 -12.567  20.248  1.00  0.00    -0.083 N 
HETATM   24  N9  UNL     1     -33.897 -12.578  19.356  1.00  0.00     0.013 NA
HETATM   25  N10 UNL     1     -33.993 -11.357  18.849  1.00  0.00    -0.211 N 
HETATM   26  N11 UNL     1     -33.074 -10.604  19.412  1.00  0.00    -0.118 N 
ATOM     27  H10 UNL     1     -34.664 -11.053  18.144  1.00  0.00     0.206 HD
HETATM   28  C9  UNL     1     -32.382 -11.324  20.280  1.00  0.00     0.708 A 
ATOM     29  H11 UNL     1     -32.919  -9.616  19.211  1.00  0.00     0.207 HD
BRANCH  28  30
HETATM   30  N12 UNL     1     -31.387 -10.966  21.047  1.00  0.00    -0.232 N 
ATOM     31 2H12 UNL     1     -30.993 -11.441  21.859  1.00  0.00     0.174 HD
ATOM     32 1H12 UNL     1     -30.847 -10.110  20.917  1.00  0.00     0.174 HD
ENDBRANCH  28  30
ENDBRANCH  22  23
ENDBRANCH  19  22
ENDBRANCH   3  19
TORSDOF 8
ENDMDL
MODEL 4
REMARK VINA RESULT: -6.412347296      1.486      2.316
REMARK  8 active torsions:
REMARK  status: ('A' for Active; 'I' for Inactive)
REMARK    1  A    between atoms: C2_2  and  C3_3 
REMARK    2  A    between atoms: C3_3  and  N1_4 
REMARK    3  A    between atoms: C6_9  and  N4_10 
REMARK    4  A    between atoms: N6_17  and  N7_19 
REMARK    5  A    between atoms: N7_19  and  O2_20 
REMARK    6  A    between atoms: N7_19  and  C8_22 
REMARK    7  A    between atoms: C8_22  and  N8_23 
REMARK    8  A    between atoms: C9_29  and  N12_30 
ROOT
HETATM    1  C1  UNL     1     -30.796 -15.789  21.961  1.00  0.00     0.066 C 
HETATM    2  C2  UNL     1     -31.487 -16.750  21.071  1.00  0.00     0.020 C 
HETATM    3  N6  UNL     1     -32.624 -16.377  20.583  1.00  0.00    -0.285 N 
ATOM      4  H6  UNL     1     -33.120 -17.021  19.968  1.00  0.00     0.188 HD
ENDROOT
BRANCH   2   5
HETATM    5  C3  UNL     1     -30.969 -18.072  20.717  1.00  0.00     0.188 C 
BRANCH   5   6
HETATM    6  N1  UNL     1     -29.657 -18.036  20.100  1.00  0.00    -0.281 N 
HETATM    7  C4  UNL     1     -29.480 -17.229  19.020  1.00  0.00     0.151 A 
HETATM    8  N2  UNL     1     -30.562 -16.465  18.543  1.00  0.00    -0.080 NA
HETATM    9  C5  UNL     1     -28.256 -17.154  18.394  1.00  0.00     0.131 A 
HETATM   10  N3  UNL     1     -28.101 -16.303  17.270  1.00  0.00    -0.095 NA
HETATM   11  C6  UNL     1     -27.209 -17.904  18.869  1.00  0.00     0.130 A 
HETATM   12  N5  UNL     1     -27.400 -18.696  19.937  1.00  0.00    -0.293 N 
HETATM   13  C7  UNL     1     -28.622 -18.754  20.541  1.00  0.00     0.329 A 
ATOM     14  H5  UNL     1     -26.628 -19.257  20.298  1.00  0.00     0.172 HD
HETATM   15  O1  UNL     1     -28.747 -19.504  21.527  1.00  0.00    -0.246 OA
BRANCH  11  16
HETATM   16  N4  UNL     1     -26.070 -17.832  18.282  1.00  0.00    -0.384 N 
ATOM     17  H42 UNL     1     -25.870 -17.106  17.595  1.00  0.00     0.157 HD
ATOM     18  H41 UNL     1     -25.349 -18.517  18.509  1.00  0.00     0.157 HD
ENDBRANCH  11  16
ENDBRANCH   5   6
ENDBRANCH   2   5
BRANCH   3  19
HETATM   19  N7  UNL     1     -33.209 -15.138  20.855  1.00  0.00    -0.181 N 
BRANCH  19  20
HETATM   20  O2  UNL     1     -33.621 -14.864  22.110  1.00  0.00    -0.271 OA
ATOM     21  H2  UNL     1     -33.781 -15.581  22.713  1.00  0.00     0.246 HD
ENDBRANCH  19  20
BRANCH  19  22
HETATM   22  C8  UNL     1     -33.365 -14.164  19.784  1.00  0.00     0.341 C 
BRANCH  22  23
HETATM   23  N8  UNL     1     -32.740 -12.905  20.140  1.00  0.00    -0.083 N 
HETATM   24  N9  UNL     1     -31.660 -12.775  20.924  1.00  0.00     0.013 NA
HETATM   25  N10 UNL     1     -31.389 -11.481  21.019  1.00  0.00    -0.211 N 
HETATM   26  N11 UNL     1     -32.278 -10.822  20.311  1.00  0.00    -0.118 N 
ATOM     27  H10 UNL     1     -30.622 -11.068  21.549  1.00  0.00     0.206 HD
HETATM   28  C9  UNL     1     -33.125 -11.674  19.757  1.00  0.00     0.708 A 
ATOM     29  H11 UNL     1     -32.311  -9.807  20.204  1.00  0.00     0.207 HD
BRANCH  28  30
HETATM   30  N12 UNL     1     -34.152 -11.438  18.984  1.00  0.00    -0.232 N 
ATOM     31 2H12 UNL     1     -34.853 -10.700  19.048  1.00  0.00     0.174 HD
ATOM     32 1H12 UNL     1     -34.392 -12.001  18.169  1.00  0.00     0.174 HD
ENDBRANCH  28  30
ENDBRANCH  22  23
ENDBRANCH  19  22
ENDBRANCH   3  19
TORSDOF 8
ENDMDL
MODEL 5
REMARK VINA RESULT: -6.304268510      1.388      2.537
REMARK  8 active torsions:
REMARK  status: ('A' for Active; 'I' for Inactive)
REMARK    1  A    between atoms: C2_2  and  C3_3 
REMARK    2  A    between atoms: C3_3  and  N1_4 
REMARK    3  A    between atoms: C6_9  and  N4_10 
REMARK    4  A    between atoms: N6_17  and  N7_19 
REMARK    5  A    between atoms: N7_19  and  O2_20 
REMARK    6  A    between atoms: N7_19  and  C8_22 
REMARK    7  A    between atoms: C8_22  and  N8_23 
REMARK    8  A    between atoms: C9_29  and  N12_30 
ROOT
HETATM    1  C1  UNL     1     -31.194 -15.616  21.627  1.00  0.00     0.066 C 
HETATM    2  C2  UNL     1     -31.758 -15.719  20.262  1.00  0.00     0.020 C 
HETATM    3  N6  UNL     1     -32.991 -15.361  20.113  1.00  0.00    -0.285 N 
ATOM      4  H6  UNL     1     -33.402 -15.423  19.182  1.00  0.00     0.188 HD
ENDROOT
BRANCH   2   5
HETATM    5  C3  UNL     1     -31.016 -16.193  19.093  1.00  0.00     0.188 C 
BRANCH   5   6
HETATM    6  N1  UNL     1     -29.936 -17.104  19.420  1.00  0.00    -0.281 N 
HETATM    7  C4  UNL     1     -28.817 -17.073  18.650  1.00  0.00     0.151 A 
HETATM    8  N2  UNL     1     -28.744 -16.169  17.573  1.00  0.00    -0.080 NA
HETATM    9  C5  UNL     1     -27.759 -17.914  18.914  1.00  0.00     0.131 A 
HETATM   10  N3  UNL     1     -26.605 -17.858  18.093  1.00  0.00    -0.095 NA
HETATM   11  C6  UNL     1     -27.843 -18.792  19.967  1.00  0.00     0.130 A 
HETATM   12  N5  UNL     1     -28.956 -18.810  20.719  1.00  0.00    -0.293 N 
HETATM   13  C7  UNL     1     -29.991 -17.967  20.437  1.00  0.00     0.329 A 
ATOM     14  H5  UNL     1     -29.028 -19.458  21.503  1.00  0.00     0.172 HD
HETATM   15  O1  UNL     1     -31.001 -18.024  21.165  1.00  0.00    -0.246 OA
BRANCH  11  16
HETATM   16  N4  UNL     1     -26.856 -19.575  20.209  1.00  0.00    -0.384 N 
ATOM     17  H42 UNL     1     -26.152 -19.342  20.908  1.00  0.00     0.157 HD
ATOM     18  H41 UNL     1     -26.775 -20.449  19.691  1.00  0.00     0.157 HD
ENDBRANCH  11  16
ENDBRANCH   5   6
ENDBRANCH   2   5
BRANCH   3  19
HETATM   19  N7  UNL     1     -33.789 -14.893  21.159  1.00  0.00    -0.181 N 
BRANCH  19  20
HETATM   20  O2  UNL     1     -34.708 -15.715  21.706  1.00  0.00    -0.271 OA
ATOM     21  H2  UNL     1     -34.626 -15.961  22.620  1.00  0.00     0.246 HD
ENDBRANCH  19  20
BRANCH  19  22
HETATM   22  C8  UNL     1     -33.616 -13.532  21.644  1.00  0.00     0.341 C 
BRANCH  22  23
HETATM   23  N8  UNL     1     -33.568 -12.595  20.538  1.00  0.00    -0.083 N 
HETATM   24  N9  UNL     1     -34.350 -12.647  19.451  1.00  0.00     0.013 NA
HETATM   25  N10 UNL     1     -34.014 -11.630  18.668  1.00  0.00    -0.211 N 
HETATM   26  N11 UNL     1     -33.046 -10.962  19.255  1.00  0.00    -0.118 N 
ATOM     27  H10 UNL     1     -34.433 -11.405  17.767  1.00  0.00     0.206 HD
HETATM   28  C9  UNL     1     -32.750 -11.534  20.411  1.00  0.00     0.708 A 
ATOM     29  H11 UNL     1     -32.593 -10.130  18.877  1.00  0.00     0.207 HD
BRANCH  28  30
HETATM   30  N12 UNL     1     -31.855 -11.192  21.299  1.00  0.00    -0.232 N 
ATOM     31 2H12 UNL     1     -31.978 -10.963  22.285  1.00  0.00     0.174 HD
ATOM     32 1H12 UNL     1     -30.858 -11.108  21.100  1.00  0.00     0.174 HD
ENDBRANCH  28  30
ENDBRANCH  22  23
ENDBRANCH  19  22
ENDBRANCH   3  19
TORSDOF 8
ENDMDL
