MODEL 1
REMARK VINA RESULT: -8.579851031      0.000      0.000
REMARK  9 active torsions:
REMARK  status: ('A' for Active; 'I' for Inactive)
REMARK    1  A    between atoms: N1_1  and  C1_4 
REMARK    2  A    between atoms: C2_7  and  N3_8 
REMARK    3  A    between atoms: N3_8  and  N4_10 
REMARK    4  A    between atoms: N4_10  and  C3_12 
REMARK    5  A    between atoms: C4_17  and  C5_18 
REMARK    6  A    between atoms: C5_18  and  O1_19 
REMARK    7  A    between atoms: C5_18  and  O2_21 
REMARK    8  A    between atoms: C7_28  and  N9_29 
REMARK    9  A    between atoms: N9_29  and  C8_31 
ROOT
HETATM    1  C1  UNL     1     -33.982 -17.247  21.432  1.00  0.00     0.692 C 
HETATM    2  N2  UNL     1     -32.738 -17.791  21.470  1.00  0.00    -0.174 N 
ATOM      3  H2  UNL     1     -32.705 -18.809  21.507  1.00  0.00     0.186 HD
HETATM    4  C2  UNL     1     -31.524 -17.164  21.464  1.00  0.00     0.151 C 
HETATM    5  C6  UNL     1     -31.244 -15.970  20.858  1.00  0.00     0.156 C 
HETATM    6  N8  UNL     1     -32.116 -14.921  20.741  1.00  0.00    -0.197 N 
ATOM      7  H8  UNL     1     -31.730 -14.058  20.359  1.00  0.00     0.183 HD
HETATM    8  C7  UNL     1     -33.421 -14.891  21.069  1.00  0.00     0.699 C 
HETATM    9  N12 UNL     1     -34.246 -15.936  21.129  1.00  0.00    -0.022 N 
ATOM     10  H12 UNL     1     -35.222 -15.729  20.918  1.00  0.00     0.203 HD
ENDROOT
BRANCH   4  11
HETATM   11  N3  UNL     1     -30.456 -17.787  22.184  1.00  0.00    -0.270 N 
ATOM     12  H3  UNL     1     -30.166 -17.451  23.103  1.00  0.00     0.189 HD
BRANCH  11  13
HETATM   13  N4  UNL     1     -29.825 -18.879  21.573  1.00  0.00    -0.129 N 
ATOM     14  H4  UNL     1     -30.170 -19.814  21.788  1.00  0.00     0.205 HD
BRANCH  13  15
HETATM   15  C3  UNL     1     -28.741 -18.762  20.675  1.00  0.00     0.713 A 
HETATM   16  N5  UNL     1     -27.548 -19.397  20.721  1.00  0.00    -0.129 N 
HETATM   17  N6  UNL     1     -26.793 -19.016  19.695  1.00  0.00    -0.270 N 
ATOM     18  H5  UNL     1     -27.269 -20.068  21.436  1.00  0.00     0.205 HD
HETATM   19  C4  UNL     1     -27.493 -18.125  18.971  1.00  0.00     0.167 A 
ATOM     20  H6  UNL     1     -25.849 -19.344  19.493  1.00  0.00     0.189 HD
HETATM   21  N7  UNL     1     -28.691 -17.977  19.586  1.00  0.00    -0.172 N 
ATOM     22  H7  UNL     1     -29.441 -17.363  19.269  1.00  0.00     0.186 HD
BRANCH  19  23
HETATM   23  C5  UNL     1     -27.057 -17.431  17.724  1.00  0.00     0.325 C 
BRANCH  23  24
HETATM   24  O1  UNL     1     -27.514 -16.117  17.824  1.00  0.00    -0.365 OA
ATOM     25  H1  UNL     1     -28.186 -16.016  17.160  1.00  0.00     0.213 HD
ENDBRANCH  23  24
BRANCH  23  26
HETATM   26  O2  UNL     1     -25.687 -17.508  17.535  1.00  0.00    -0.365 OA
ATOM     27  H2  UNL     1     -25.374 -16.859  16.916  1.00  0.00     0.213 HD
ENDBRANCH  23  26
ENDBRANCH  19  23
ENDBRANCH  13  15
ENDBRANCH  11  13
ENDBRANCH   4  11
BRANCH   1  28
HETATM   28  N1  UNL     1     -34.977 -17.992  21.698  1.00  0.00    -0.234 N 
ATOM     29  H12 UNL     1     -34.982 -18.925  21.287  1.00  0.00     0.174 HD
ATOM     30  H11 UNL     1     -35.713 -17.623  22.300  1.00  0.00     0.174 HD
ENDBRANCH   1  28
BRANCH   8  31
HETATM   31  N9  UNL     1     -33.909 -13.757  21.366  1.00  0.00    -0.161 N 
ATOM     32  H9  UNL     1     -34.621 -13.706  22.095  1.00  0.00     0.187 HD
BRANCH  31  33
HETATM   33  C8  UNL     1     -33.499 -12.549  20.721  1.00  0.00     0.190 C 
HETATM   34  N10 UNL     1     -33.861 -12.123  19.551  1.00  0.00    -0.360 N 
HETATM   35  C9  UNL     1     -33.229 -10.858  19.249  1.00  0.00     0.142 C 
ATOM     36  H10 UNL     1     -34.504 -12.613  18.929  1.00  0.00     0.162 HD
HETATM   37  C10 UNL     1     -32.038 -10.856  20.193  1.00  0.00     0.142 C 
HETATM   38  N11 UNL     1     -32.592 -11.613  21.297  1.00  0.00    -0.360 N 
ATOM     39  H11 UNL     1     -32.376 -11.499  22.287  1.00  0.00     0.162 HD
ENDBRANCH  31  33
ENDBRANCH   8  31
TORSDOF 9
ENDMDL
MODEL 2
REMARK VINA RESULT: -7.602082664      0.667      1.094
REMARK  9 active torsions:
REMARK  status: ('A' for Active; 'I' for Inactive)
REMARK    1  A    between atoms: N1_1  and  C1_4 
REMARK    2  A    between atoms: C2_7  and  N3_8 
REMARK    3  A    between atoms: N3_8  and  N4_10 
REMARK    4  A    between atoms: N4_10  and  C3_12 
REMARK    5  A    between atoms: C4_17  and  C5_18 
REMARK    6  A    between atoms: C5_18  and  O1_19 
REMARK    7  A    between atoms: C5_18  and  O2_21 
REMARK    8  A    between atoms: C7_28  and  N9_29 
REMARK    9  A    between atoms: N9_29  and  C8_31 
ROOT
HETATM    1  C1  UNL     1     -34.147 -17.179  21.407  1.00  0.00     0.692 C 
HETATM    2  N2  UNL     1     -32.922 -17.767  21.403  1.00  0.00    -0.174 N 
ATOM      3  H2  UNL     1     -32.925 -18.786  21.432  1.00  0.00     0.186 HD
HETATM    4  C2  UNL     1     -31.687 -17.184  21.365  1.00  0.00     0.151 C 
HETATM    5  C6  UNL     1     -31.384 -15.995  20.759  1.00  0.00     0.156 C 
HETATM    6  N8  UNL     1     -32.221 -14.916  20.676  1.00  0.00    -0.197 N 
ATOM      7  H8  UNL     1     -31.816 -14.064  20.289  1.00  0.00     0.183 HD
HETATM    8  C7  UNL     1     -33.513 -14.842  21.044  1.00  0.00     0.699 C 
HETATM    9  N12 UNL     1     -34.373 -15.858  21.122  1.00  0.00    -0.022 N 
ATOM     10  H12 UNL     1     -35.347 -15.615  20.942  1.00  0.00     0.203 HD
ENDROOT
BRANCH   4  11
HETATM   11  N3  UNL     1     -30.621 -17.850  22.047  1.00  0.00    -0.270 N 
ATOM     12  H3  UNL     1     -30.464 -17.719  23.047  1.00  0.00     0.189 HD
BRANCH  11  13
HETATM   13  N4  UNL     1     -29.801 -18.692  21.283  1.00  0.00    -0.129 N 
ATOM     14  H4  UNL     1     -29.766 -19.680  21.530  1.00  0.00     0.205 HD
BRANCH  13  15
HETATM   15  C3  UNL     1     -29.019 -18.251  20.192  1.00  0.00     0.713 A 
HETATM   16  N5  UNL     1     -29.348 -17.348  19.242  1.00  0.00    -0.129 N 
HETATM   17  N6  UNL     1     -28.342 -17.206  18.385  1.00  0.00    -0.270 N 
ATOM     18  H5  UNL     1     -30.236 -16.849  19.189  1.00  0.00     0.205 HD
HETATM   19  C4  UNL     1     -27.346 -18.022  18.773  1.00  0.00     0.167 A 
ATOM     20  H6  UNL     1     -28.328 -16.587  17.574  1.00  0.00     0.189 HD
HETATM   21  N7  UNL     1     -27.776 -18.660  19.888  1.00  0.00    -0.172 N 
ATOM     22  H7  UNL     1     -27.237 -19.347  20.416  1.00  0.00     0.186 HD
BRANCH  19  23
HETATM   23  C5  UNL     1     -26.014 -18.196  18.123  1.00  0.00     0.325 C 
BRANCH  23  24
HETATM   24  O1  UNL     1     -25.893 -17.166  17.190  1.00  0.00    -0.365 OA
ATOM     25  H1  UNL     1     -25.471 -17.543  16.428  1.00  0.00     0.213 HD
ENDBRANCH  23  24
BRANCH  23  26
HETATM   26  O2  UNL     1     -24.980 -18.205  19.046  1.00  0.00    -0.365 OA
ATOM     27  H2  UNL     1     -25.153 -18.792  19.771  1.00  0.00     0.213 HD
ENDBRANCH  23  26
ENDBRANCH  19  23
ENDBRANCH  13  15
ENDBRANCH  11  13
ENDBRANCH   4  11
BRANCH   1  28
HETATM   28  N1  UNL     1     -35.159 -17.891  21.699  1.00  0.00    -0.234 N 
ATOM     29  H12 UNL     1     -35.724 -17.593  22.494  1.00  0.00     0.174 HD
ATOM     30  H11 UNL     1     -35.351 -18.717  21.132  1.00  0.00     0.174 HD
ENDBRANCH   1  28
BRANCH   8  31
HETATM   31  N9  UNL     1     -33.951 -13.694  21.364  1.00  0.00    -0.161 N 
ATOM     32  H9  UNL     1     -34.653 -13.625  22.101  1.00  0.00     0.187 HD
BRANCH  31  33
HETATM   33  C8  UNL     1     -33.498 -12.494  20.735  1.00  0.00     0.190 C 
HETATM   34  N10 UNL     1     -33.838 -12.043  19.567  1.00  0.00    -0.360 N 
HETATM   35  C9  UNL     1     -33.163 -10.797  19.282  1.00  0.00     0.142 C 
ATOM     36  H10 UNL     1     -34.493 -12.504  18.936  1.00  0.00     0.162 HD
HETATM   37  C10 UNL     1     -31.979 -10.844  20.234  1.00  0.00     0.142 C 
HETATM   38  N11 UNL     1     -32.564 -11.594  21.325  1.00  0.00    -0.360 N 
ATOM     39  H11 UNL     1     -32.351 -11.498  22.318  1.00  0.00     0.162 HD
ENDBRANCH  31  33
ENDBRANCH   8  31
TORSDOF 9
ENDMDL
MODEL 3
REMARK VINA RESULT: -7.329469457      2.938      6.501
REMARK  9 active torsions:
REMARK  status: ('A' for Active; 'I' for Inactive)
REMARK    1  A    between atoms: N1_1  and  C1_4 
REMARK    2  A    between atoms: C2_7  and  N3_8 
REMARK    3  A    between atoms: N3_8  and  N4_10 
REMARK    4  A    between atoms: N4_10  and  C3_12 
REMARK    5  A    between atoms: C4_17  and  C5_18 
REMARK    6  A    between atoms: C5_18  and  O1_19 
REMARK    7  A    between atoms: C5_18  and  O2_21 
REMARK    8  A    between atoms: C7_28  and  N9_29 
REMARK    9  A    between atoms: N9_29  and  C8_31 
ROOT
HETATM    1  C1  UNL     1     -29.985 -18.708  21.811  1.00  0.00     0.692 C 
HETATM    2  N2  UNL     1     -31.021 -17.961  22.274  1.00  0.00    -0.174 N 
ATOM      3  H2  UNL     1     -31.368 -18.218  23.198  1.00  0.00     0.186 HD
HETATM    4  C2  UNL     1     -31.664 -16.915  21.675  1.00  0.00     0.151 C 
HETATM    5  C6  UNL     1     -31.100 -16.025  20.804  1.00  0.00     0.156 C 
HETATM    6  N8  UNL     1     -30.117 -16.322  19.899  1.00  0.00    -0.197 N 
ATOM      7  H8  UNL     1     -29.873 -15.579  19.243  1.00  0.00     0.183 HD
HETATM    8  C7  UNL     1     -29.434 -17.473  19.769  1.00  0.00     0.699 C 
HETATM    9  N12 UNL     1     -29.217 -18.377  20.725  1.00  0.00    -0.022 N 
ATOM     10  H12 UNL     1     -28.347 -18.902  20.635  1.00  0.00     0.203 HD
ENDROOT
BRANCH   4  11
HETATM   11  N3  UNL     1     -33.059 -16.752  21.952  1.00  0.00    -0.270 N 
ATOM     12  H3  UNL     1     -33.702 -17.543  21.927  1.00  0.00     0.189 HD
BRANCH  11  13
HETATM   13  N4  UNL     1     -33.502 -15.458  22.257  1.00  0.00    -0.129 N 
ATOM     14  H4  UNL     1     -33.694 -15.235  23.233  1.00  0.00     0.205 HD
BRANCH  13  15
HETATM   15  C3  UNL     1     -33.699 -14.444  21.293  1.00  0.00     0.713 A 
HETATM   16  N5  UNL     1     -34.564 -14.437  20.255  1.00  0.00    -0.129 N 
HETATM   17  N6  UNL     1     -34.447 -13.301  19.576  1.00  0.00    -0.270 N 
ATOM     18  H5  UNL     1     -35.210 -15.192  20.026  1.00  0.00     0.205 HD
HETATM   19  C4  UNL     1     -33.499 -12.556  20.170  1.00  0.00     0.167 A 
ATOM     20  H6  UNL     1     -34.984 -13.040  18.748  1.00  0.00     0.189 HD
HETATM   21  N7  UNL     1     -33.046 -13.271  21.227  1.00  0.00    -0.172 N 
ATOM     22  H7  UNL     1     -32.319 -12.966  21.875  1.00  0.00     0.186 HD
BRANCH  19  23
HETATM   23  C5  UNL     1     -33.030 -11.197  19.767  1.00  0.00     0.325 C 
BRANCH  23  24
HETATM   24  O1  UNL     1     -33.832 -10.285  20.453  1.00  0.00    -0.365 OA
ATOM     25  H1  UNL     1     -34.520 -10.028  19.851  1.00  0.00     0.213 HD
ENDBRANCH  23  24
BRANCH  23  26
HETATM   26  O2  UNL     1     -31.680 -11.016  20.017  1.00  0.00    -0.365 OA
ATOM     27  H2  UNL     1     -31.521 -10.307  20.629  1.00  0.00     0.213 HD
ENDBRANCH  23  26
ENDBRANCH  19  23
ENDBRANCH  13  15
ENDBRANCH  11  13
ENDBRANCH   4  11
BRANCH   1  28
HETATM   28  N1  UNL     1     -29.701 -19.790  22.414  1.00  0.00    -0.234 N 
ATOM     29  H12 UNL     1     -29.844 -20.659  21.901  1.00  0.00     0.174 HD
ATOM     30  H11 UNL     1     -29.352 -19.735  23.371  1.00  0.00     0.174 HD
ENDBRANCH   1  28
BRANCH   8  31
HETATM   31  N9  UNL     1     -28.965 -17.733  18.618  1.00  0.00    -0.161 N 
ATOM     32  H9  UNL     1     -28.402 -18.574  18.496  1.00  0.00     0.187 HD
BRANCH  31  33
HETATM   33  C8  UNL     1     -29.196 -16.893  17.485  1.00  0.00     0.190 C 
HETATM   34  N10 UNL     1     -30.289 -16.789  16.794  1.00  0.00    -0.360 N 
HETATM   35  C9  UNL     1     -30.128 -15.834  15.721  1.00  0.00     0.142 C 
ATOM     36  H10 UNL     1     -31.145 -17.311  16.982  1.00  0.00     0.162 HD
HETATM   37  C10 UNL     1     -28.617 -15.773  15.563  1.00  0.00     0.142 C 
HETATM   38  N11 UNL     1     -28.212 -16.023  16.932  1.00  0.00    -0.360 N 
ATOM     39  H11 UNL     1     -27.388 -15.651  17.404  1.00  0.00     0.162 HD
ENDBRANCH  31  33
ENDBRANCH   8  31
TORSDOF 9
ENDMDL
MODEL 4
REMARK VINA RESULT: -6.897058023      1.348      1.635
REMARK  9 active torsions:
REMARK  status: ('A' for Active; 'I' for Inactive)
REMARK    1  A    between atoms: N1_1  and  C1_4 
REMARK    2  A    between atoms: C2_7  and  N3_8 
REMARK    3  A    between atoms: N3_8  and  N4_10 
REMARK    4  A    between atoms: N4_10  and  C3_12 
REMARK    5  A    between atoms: C4_17  and  C5_18 
REMARK    6  A    between atoms: C5_18  and  O1_19 
REMARK    7  A    between atoms: C5_18  and  O2_21 
REMARK    8  A    between atoms: C7_28  and  N9_29 
REMARK    9  A    between atoms: N9_29  and  C8_31 
ROOT
HETATM    1  C1  UNL     1     -34.039 -17.162  21.411  1.00  0.00     0.692 C 
HETATM    2  N2  UNL     1     -32.817 -17.752  21.335  1.00  0.00    -0.174 N 
ATOM      3  H2  UNL     1     -32.821 -18.772  21.344  1.00  0.00     0.186 HD
HETATM    4  C2  UNL     1     -31.584 -17.171  21.249  1.00  0.00     0.151 C 
HETATM    5  C6  UNL     1     -31.307 -15.971  20.653  1.00  0.00     0.156 C 
HETATM    6  N8  UNL     1     -32.144 -14.888  20.633  1.00  0.00    -0.197 N 
ATOM      7  H8  UNL     1     -31.755 -14.029  20.243  1.00  0.00     0.183 HD
HETATM    8  C7  UNL     1     -33.416 -14.819  21.064  1.00  0.00     0.699 C 
HETATM    9  N12 UNL     1     -34.274 -15.835  21.163  1.00  0.00    -0.022 N 
ATOM     10  H12 UNL     1     -35.255 -15.586  21.036  1.00  0.00     0.203 HD
ENDROOT
BRANCH   4  11
HETATM   11  N3  UNL     1     -30.488 -17.853  21.865  1.00  0.00    -0.270 N 
ATOM     12  H3  UNL     1     -30.402 -17.915  22.880  1.00  0.00     0.189 HD
BRANCH  11  13
HETATM   13  N4  UNL     1     -29.537 -18.433  21.015  1.00  0.00    -0.129 N 
ATOM     14  H4  UNL     1     -29.118 -19.319  21.297  1.00  0.00     0.205 HD
BRANCH  13  15
HETATM   15  C3  UNL     1     -29.124 -17.864  19.790  1.00  0.00     0.713 A 
HETATM   16  N5  UNL     1     -27.870 -17.546  19.399  1.00  0.00    -0.129 N 
HETATM   17  N6  UNL     1     -27.895 -17.029  18.175  1.00  0.00    -0.270 N 
ATOM     18  H5  UNL     1     -27.029 -17.682  19.960  1.00  0.00     0.205 HD
HETATM   19  C4  UNL     1     -29.173 -17.006  17.758  1.00  0.00     0.167 A 
ATOM     20  H6  UNL     1     -27.085 -16.706  17.645  1.00  0.00     0.189 HD
HETATM   21  N7  UNL     1     -29.920 -17.523  18.762  1.00  0.00    -0.172 N 
ATOM     22  H7  UNL     1     -30.934 -17.637  18.741  1.00  0.00     0.186 HD
BRANCH  19  23
HETATM   23  C5  UNL     1     -29.687 -16.520  16.444  1.00  0.00     0.325 C 
BRANCH  23  24
HETATM   24  O1  UNL     1     -31.040 -16.236  16.632  1.00  0.00    -0.365 OA
ATOM     25  H1  UNL     1     -31.314 -15.727  15.878  1.00  0.00     0.213 HD
ENDBRANCH  23  24
BRANCH  23  26
HETATM   26  O2  UNL     1     -28.973 -15.431  15.974  1.00  0.00    -0.365 OA
ATOM     27  H2  UNL     1     -28.885 -14.750  16.630  1.00  0.00     0.213 HD
ENDBRANCH  23  26
ENDBRANCH  19  23
ENDBRANCH  13  15
ENDBRANCH  11  13
ENDBRANCH   4  11
BRANCH   1  28
HETATM   28  N1  UNL     1     -35.037 -17.878  21.736  1.00  0.00    -0.234 N 
ATOM     29  H12 UNL     1     -35.822 -17.905  21.086  1.00  0.00     0.174 HD
ATOM     30  H11 UNL     1     -35.006 -18.380  22.624  1.00  0.00     0.174 HD
ENDBRANCH   1  28
BRANCH   8  31
HETATM   31  N9  UNL     1     -33.834 -13.677  21.428  1.00  0.00    -0.161 N 
ATOM     32  H9  UNL     1     -34.467 -13.619  22.226  1.00  0.00     0.187 HD
BRANCH  31  33
HETATM   33  C8  UNL     1     -33.454 -12.470  20.765  1.00  0.00     0.190 C 
HETATM   34  N10 UNL     1     -33.877 -12.037  19.617  1.00  0.00    -0.360 N 
HETATM   35  C9  UNL     1     -33.255 -10.776  19.284  1.00  0.00     0.142 C 
ATOM     36  H10 UNL     1     -34.556 -12.522  19.031  1.00  0.00     0.162 HD
HETATM   37  C10 UNL     1     -32.014 -10.784  20.162  1.00  0.00     0.142 C 
HETATM   38  N11 UNL     1     -32.511 -11.541  21.292  1.00  0.00    -0.360 N 
ATOM     39  H11 UNL     1     -32.240 -11.431  22.269  1.00  0.00     0.162 HD
ENDBRANCH  31  33
ENDBRANCH   8  31
TORSDOF 9
ENDMDL
MODEL 5
REMARK VINA RESULT: -6.672100543      2.565      6.917
REMARK  9 active torsions:
REMARK  status: ('A' for Active; 'I' for Inactive)
REMARK    1  A    between atoms: N1_1  and  C1_4 
REMARK    2  A    between atoms: C2_7  and  N3_8 
REMARK    3  A    between atoms: N3_8  and  N4_10 
REMARK    4  A    between atoms: N4_10  and  C3_12 
REMARK    5  A    between atoms: C4_17  and  C5_18 
REMARK    6  A    between atoms: C5_18  and  O1_19 
REMARK    7  A    between atoms: C5_18  and  O2_21 
REMARK    8  A    between atoms: C7_28  and  N9_29 
REMARK    9  A    between atoms: N9_29  and  C8_31 
ROOT
HETATM    1  C1  UNL     1     -30.585 -17.988  21.925  1.00  0.00     0.692 C 
HETATM    2  N2  UNL     1     -31.776 -17.414  22.237  1.00  0.00    -0.174 N 
ATOM      3  H2  UNL     1     -32.126 -17.612  23.174  1.00  0.00     0.186 HD
HETATM    4  C2  UNL     1     -32.570 -16.607  21.471  1.00  0.00     0.151 C 
HETATM    5  C6  UNL     1     -32.134 -15.743  20.505  1.00  0.00     0.156 C 
HETATM    6  N8  UNL     1     -31.054 -15.951  19.689  1.00  0.00    -0.197 N 
ATOM      7  H8  UNL     1     -30.918 -15.267  18.945  1.00  0.00     0.183 HD
HETATM    8  C7  UNL     1     -30.153 -16.947  19.750  1.00  0.00     0.699 C 
HETATM    9  N12 UNL     1     -29.826 -17.654  20.833  1.00  0.00    -0.022 N 
ATOM     10  H12 UNL     1     -28.867 -17.998  20.851  1.00  0.00     0.203 HD
ENDROOT
BRANCH   4  11
HETATM   11  N3  UNL     1     -33.984 -16.696  21.668  1.00  0.00    -0.270 N 
ATOM     12  H3  UNL     1     -34.457 -17.597  21.735  1.00  0.00     0.189 HD
BRANCH  11  13
HETATM   13  N4  UNL     1     -34.693 -15.490  21.763  1.00  0.00    -0.129 N 
ATOM     14  H4  UNL     1     -35.519 -15.465  22.359  1.00  0.00     0.205 HD
BRANCH  13  15
HETATM   15  C3  UNL     1     -34.330 -14.307  21.081  1.00  0.00     0.713 A 
HETATM   16  N5  UNL     1     -34.799 -13.848  19.899  1.00  0.00    -0.129 N 
HETATM   17  N6  UNL     1     -34.208 -12.698  19.593  1.00  0.00    -0.270 N 
ATOM     18  H5  UNL     1     -35.503 -14.315  19.327  1.00  0.00     0.205 HD
HETATM   19  C4  UNL     1     -33.343 -12.399  20.578  1.00  0.00     0.167 A 
ATOM     20  H6  UNL     1     -34.380 -12.141  18.756  1.00  0.00     0.189 HD
HETATM   21  N7  UNL     1     -33.428 -13.398  21.489  1.00  0.00    -0.172 N 
ATOM     22  H7  UNL     1     -32.889 -13.452  22.353  1.00  0.00     0.186 HD
BRANCH  19  23
HETATM   23  C5  UNL     1     -32.462 -11.199  20.675  1.00  0.00     0.325 C 
BRANCH  23  24
HETATM   24  O1  UNL     1     -31.195 -11.668  21.023  1.00  0.00    -0.365 OA
ATOM     25  H1  UNL     1     -31.331 -12.465  21.520  1.00  0.00     0.213 HD
ENDBRANCH  23  24
BRANCH  23  26
HETATM   26  O2  UNL     1     -32.455 -10.460  19.503  1.00  0.00    -0.365 OA
ATOM     27  H2  UNL     1     -31.678  -9.919  19.425  1.00  0.00     0.213 HD
ENDBRANCH  23  26
ENDBRANCH  19  23
ENDBRANCH  13  15
ENDBRANCH  11  13
ENDBRANCH   4  11
BRANCH   1  28
HETATM   28  N1  UNL     1     -30.136 -18.902  22.685  1.00  0.00    -0.234 N 
ATOM     29  H12 UNL     1     -30.730 -19.717  22.834  1.00  0.00     0.174 HD
ATOM     30  H11 UNL     1     -29.216 -18.774  23.107  1.00  0.00     0.174 HD
ENDBRANCH   1  28
BRANCH   8  31
HETATM   31  N9  UNL     1     -29.567 -17.254  18.667  1.00  0.00    -0.161 N 
ATOM     32  H9  UNL     1     -30.101 -17.230  17.798  1.00  0.00     0.187 HD
BRANCH  31  33
HETATM   33  C8  UNL     1     -28.190 -17.632  18.616  1.00  0.00     0.190 C 
HETATM   34  N10 UNL     1     -27.294 -17.225  17.771  1.00  0.00    -0.360 N 
HETATM   35  C9  UNL     1     -26.014 -17.838  18.045  1.00  0.00     0.142 C 
ATOM     36  H10 UNL     1     -27.469 -16.562  17.016  1.00  0.00     0.162 HD
HETATM   37  C10 UNL     1     -26.408 -19.063  18.854  1.00  0.00     0.142 C 
HETATM   38  N11 UNL     1     -27.589 -18.555  19.520  1.00  0.00    -0.360 N 
ATOM     39  H11 UNL     1     -27.924 -18.807  20.450  1.00  0.00     0.162 HD
ENDBRANCH  31  33
ENDBRANCH   8  31
TORSDOF 9
ENDMDL
