MODEL 1
REMARK VINA RESULT: -7.658344157      0.000      0.000
REMARK  9 active torsions:
REMARK  status: ('A' for Active; 'I' for Inactive)
REMARK    1  A    between atoms: N1_1  and  C1_4 
REMARK    2  A    between atoms: C2_7  and  N3_8 
REMARK    3  A    between atoms: N6_16  and  C4_17 
REMARK    4  A    between atoms: C4_17  and  C5_18 
REMARK    5  A    between atoms: C5_18  and  C6_20 
REMARK    6  A    between atoms: C6_20  and  O2_21 
REMARK    7  A    between atoms: C6_20  and  C7_23 
REMARK    8  A    between atoms: C8_28  and  N9_29 
REMARK    9  A    between atoms: N9_29  and  N10_31 
ROOT
HETATM    1  C1  UNL     1      70.719  67.248 278.852  1.00  0.00     0.679 A 
HETATM    2  N2  UNL     1      71.562  66.988 279.874  1.00  0.00    -0.175 N 
ATOM      3  H2  UNL     1      72.395  66.419 279.717  1.00  0.00     0.186 HD
HETATM    4  C2  UNL     1      71.304  67.478 281.099  1.00  0.00     0.147 A 
HETATM    5  C3  UNL     1      70.171  68.239 281.264  1.00  0.00     0.140 A 
HETATM    6  N4  UNL     1      69.625  68.873 282.347  1.00  0.00    -0.279 N 
ATOM      7  H4  UNL     1      70.006  68.882 283.294  1.00  0.00     0.189 HD
HETATM    8  N5  UNL     1      68.503  69.476 281.943  1.00  0.00    -0.238 N 
ATOM      9  H5  UNL     1      67.900  70.021 282.559  1.00  0.00     0.208 HD
HETATM   10  N6  UNL     1      68.263  69.291 280.679  1.00  0.00    -0.252 N 
HETATM   11  C9  UNL     1      69.298  68.516 280.235  1.00  0.00     0.171 A 
HETATM   12  N12 UNL     1      69.613  67.997 279.036  1.00  0.00    -0.173 N 
ATOM     13  H12 UNL     1      68.998  68.175 278.242  1.00  0.00     0.186 HD
ENDROOT
BRANCH  10  14
HETATM   14  C4  UNL     1      67.213  69.731 279.788  1.00  0.00     0.234 C 
BRANCH  14  15
HETATM   15  C5  UNL     1      66.034  70.169 280.583  1.00  0.00     0.182 C 
HETATM   16  O1  UNL     1      66.178  70.617 281.701  1.00  0.00    -0.293 OA
BRANCH  15  17
HETATM   17  C6  UNL     1      64.692  70.049 279.993  1.00  0.00     0.258 C 
BRANCH  17  18
HETATM   18  O2  UNL     1      63.739  70.411 280.975  1.00  0.00    -0.380 OA
ATOM     19  H2  UNL     1      63.448  69.622 281.417  1.00  0.00     0.211 HD
ENDBRANCH  17  18
BRANCH  17  20
HETATM   20  C7  UNL     1      64.625  71.040 278.865  1.00  0.00     0.148 A 
HETATM   21  N7  UNL     1      63.982  72.189 278.864  1.00  0.00    -0.272 N 
HETATM   22  N8  UNL     1      64.171  72.761 277.662  1.00  0.00    -0.129 N 
ATOM     23  H7  UNL     1      63.439  72.575 279.636  1.00  0.00     0.189 HD
HETATM   24  C8  UNL     1      64.939  71.965 276.898  1.00  0.00     0.712 A 
ATOM     25  H8  UNL     1      63.789  73.662 277.373  1.00  0.00     0.205 HD
HETATM   26  N11 UNL     1      65.217  70.887 277.668  1.00  0.00    -0.173 N 
ATOM     27  H11 UNL     1      65.785  70.088 277.386  1.00  0.00     0.185 HD
BRANCH  24  28
HETATM   28  N9  UNL     1      65.385  72.170 275.558  1.00  0.00    -0.137 N 
ATOM     29  H9  UNL     1      66.011  72.947 275.343  1.00  0.00     0.205 HD
BRANCH  28  30
HETATM   30  N10 UNL     1      64.970  71.316 274.547  1.00  0.00    -0.331 N 
ATOM     31 2H10 UNL     1      64.672  70.372 274.791  1.00  0.00     0.177 HD
ATOM     32 1H10 UNL     1      64.965  71.635 273.579  1.00  0.00     0.177 HD
ENDBRANCH  28  30
ENDBRANCH  24  28
ENDBRANCH  17  20
ENDBRANCH  15  17
ENDBRANCH  14  15
ENDBRANCH  10  14
BRANCH   4  33
HETATM   33  N3  UNL     1      72.123  67.217 282.045  1.00  0.00    -0.383 N 
ATOM     34  H32 UNL     1      72.441  66.275 282.272  1.00  0.00     0.157 HD
ATOM     35  H31 UNL     1      72.478  67.990 282.608  1.00  0.00     0.157 HD
ENDBRANCH   4  33
BRANCH   1  36
HETATM   36  N1  UNL     1      70.916  66.797 277.662  1.00  0.00    -0.234 N 
ATOM     37  H12 UNL     1      71.527  65.984 277.578  1.00  0.00     0.174 HD
ATOM     38  H11 UNL     1      70.494  67.224 276.838  1.00  0.00     0.174 HD
ENDBRANCH   1  36
TORSDOF 9
ENDMDL
MODEL 2
REMARK VINA RESULT: -7.572016734      1.378      1.767
REMARK  9 active torsions:
REMARK  status: ('A' for Active; 'I' for Inactive)
REMARK    1  A    between atoms: N1_1  and  C1_4 
REMARK    2  A    between atoms: C2_7  and  N3_8 
REMARK    3  A    between atoms: N6_16  and  C4_17 
REMARK    4  A    between atoms: C4_17  and  C5_18 
REMARK    5  A    between atoms: C5_18  and  C6_20 
REMARK    6  A    between atoms: C6_20  and  O2_21 
REMARK    7  A    between atoms: C6_20  and  C7_23 
REMARK    8  A    between atoms: C8_28  and  N9_29 
REMARK    9  A    between atoms: N9_29  and  N10_31 
ROOT
HETATM    1  C1  UNL     1      70.487  67.304 278.919  1.00  0.00     0.679 A 
HETATM    2  N2  UNL     1      71.262  67.312 280.025  1.00  0.00    -0.175 N 
ATOM      3  H2  UNL     1      72.164  66.836 280.020  1.00  0.00     0.186 HD
HETATM    4  C2  UNL     1      70.844  67.948 281.134  1.00  0.00     0.147 A 
HETATM    5  C3  UNL     1      69.622  68.576 281.095  1.00  0.00     0.140 A 
HETATM    6  N4  UNL     1      68.915  69.294 282.021  1.00  0.00    -0.279 N 
ATOM      7  H4  UNL     1      69.209  69.497 282.977  1.00  0.00     0.189 HD
HETATM    8  N5  UNL     1      67.772  69.682 281.448  1.00  0.00    -0.238 N 
ATOM      9  H5  UNL     1      67.059  70.235 281.925  1.00  0.00     0.208 HD
HETATM   10  N6  UNL     1      67.666  69.277 280.218  1.00  0.00    -0.252 N 
HETATM   11  C9  UNL     1      68.817  68.580 279.977  1.00  0.00     0.171 A 
HETATM   12  N12 UNL     1      69.292  67.927 278.903  1.00  0.00    -0.173 N 
ATOM     13  H12 UNL     1      68.732  67.903 278.051  1.00  0.00     0.186 HD
ENDROOT
BRANCH  10  14
HETATM   14  C4  UNL     1      66.654  69.440 279.198  1.00  0.00     0.234 C 
BRANCH  14  15
HETATM   15  C5  UNL     1      66.029  70.785 279.324  1.00  0.00     0.182 C 
HETATM   16  O1  UNL     1      66.532  71.633 280.032  1.00  0.00    -0.293 OA
BRANCH  15  17
HETATM   17  C6  UNL     1      64.792  71.069 278.580  1.00  0.00     0.258 C 
BRANCH  17  18
HETATM   18  O2  UNL     1      64.187  72.218 279.143  1.00  0.00    -0.380 OA
ATOM     19  H2  UNL     1      64.100  72.875 278.462  1.00  0.00     0.211 HD
ENDBRANCH  17  18
BRANCH  17  20
HETATM   20  C7  UNL     1      65.201  71.382 277.167  1.00  0.00     0.148 A 
HETATM   21  N7  UNL     1      64.452  71.273 276.090  1.00  0.00    -0.272 N 
HETATM   22  N8  UNL     1      65.201  71.641 275.034  1.00  0.00    -0.129 N 
ATOM     23  H7  UNL     1      63.481  70.966 276.060  1.00  0.00     0.189 HD
HETATM   24  C8  UNL     1      66.432  71.983 275.451  1.00  0.00     0.712 A 
ATOM     25  H8  UNL     1      64.882  71.658 274.065  1.00  0.00     0.205 HD
HETATM   26  N11 UNL     1      66.417  71.816 276.794  1.00  0.00    -0.173 N 
ATOM     27  H11 UNL     1      67.202  71.991 277.422  1.00  0.00     0.185 HD
BRANCH  24  28
HETATM   28  N9  UNL     1      67.547  72.429 274.678  1.00  0.00    -0.137 N 
ATOM     29  H9  UNL     1      67.731  72.015 273.764  1.00  0.00     0.205 HD
BRANCH  28  30
HETATM   30  N10 UNL     1      68.380  73.423 275.169  1.00  0.00    -0.331 N 
ATOM     31 2H10 UNL     1      68.916  73.244 276.018  1.00  0.00     0.177 HD
ATOM     32 1H10 UNL     1      68.451  74.316 274.682  1.00  0.00     0.177 HD
ENDBRANCH  28  30
ENDBRANCH  24  28
ENDBRANCH  17  20
ENDBRANCH  15  17
ENDBRANCH  14  15
ENDBRANCH  10  14
BRANCH   4  33
HETATM   33  N3  UNL     1      71.602  67.940 282.163  1.00  0.00    -0.383 N 
ATOM     34  H32 UNL     1      72.443  67.369 282.240  1.00  0.00     0.157 HD
ATOM     35  H31 UNL     1      71.354  68.534 282.954  1.00  0.00     0.157 HD
ENDBRANCH   4  33
BRANCH   1  36
HETATM   36  N1  UNL     1      70.838  66.704 277.835  1.00  0.00    -0.234 N 
ATOM     37  H12 UNL     1      71.832  66.720 277.606  1.00  0.00     0.174 HD
ATOM     38  H11 UNL     1      70.165  66.239 277.226  1.00  0.00     0.174 HD
ENDBRANCH   1  36
TORSDOF 9
ENDMDL
MODEL 3
REMARK VINA RESULT: -7.412596972      2.380      6.302
REMARK  9 active torsions:
REMARK  status: ('A' for Active; 'I' for Inactive)
REMARK    1  A    between atoms: N1_1  and  C1_4 
REMARK    2  A    between atoms: C2_7  and  N3_8 
REMARK    3  A    between atoms: N6_16  and  C4_17 
REMARK    4  A    between atoms: C4_17  and  C5_18 
REMARK    5  A    between atoms: C5_18  and  C6_20 
REMARK    6  A    between atoms: C6_20  and  O2_21 
REMARK    7  A    between atoms: C6_20  and  C7_23 
REMARK    8  A    between atoms: C8_28  and  N9_29 
REMARK    9  A    between atoms: N9_29  and  N10_31 
ROOT
HETATM    1  C1  UNL     1      65.772  71.257 277.495  1.00  0.00     0.679 A 
HETATM    2  N2  UNL     1      64.556  71.358 278.075  1.00  0.00    -0.175 N 
ATOM      3  H2  UNL     1      63.746  71.631 277.518  1.00  0.00     0.186 HD
HETATM    4  C2  UNL     1      64.414  71.099 279.387  1.00  0.00     0.147 A 
HETATM    5  C3  UNL     1      65.532  70.734 280.097  1.00  0.00     0.140 A 
HETATM    6  N4  UNL     1      65.734  70.411 281.412  1.00  0.00    -0.279 N 
ATOM      7  H4  UNL     1      65.022  70.387 282.142  1.00  0.00     0.189 HD
HETATM    8  N5  UNL     1      67.033  70.133 281.567  1.00  0.00    -0.238 N 
ATOM      9  H5  UNL     1      67.451  69.861 282.456  1.00  0.00     0.208 HD
HETATM   10  N6  UNL     1      67.704  70.247 280.460  1.00  0.00    -0.252 N 
HETATM   11  C9  UNL     1      66.781  70.625 279.526  1.00  0.00     0.171 A 
HETATM   12  N12 UNL     1      66.856  70.897 278.212  1.00  0.00    -0.173 N 
ATOM     13  H12 UNL     1      67.759  70.829 277.743  1.00  0.00     0.186 HD
ENDROOT
BRANCH  10  14
HETATM   14  C4  UNL     1      69.094  70.050 280.112  1.00  0.00     0.234 C 
BRANCH  14  15
HETATM   15  C5  UNL     1      69.495  68.653 280.428  1.00  0.00     0.182 C 
HETATM   16  O1  UNL     1      69.098  68.114 281.440  1.00  0.00    -0.293 OA
BRANCH  15  17
HETATM   17  C6  UNL     1      70.381  67.937 279.498  1.00  0.00     0.258 C 
BRANCH  17  18
HETATM   18  O2  UNL     1      71.176  67.034 280.244  1.00  0.00    -0.380 OA
ATOM     19  H2  UNL     1      71.826  66.656 279.662  1.00  0.00     0.211 HD
ENDBRANCH  17  18
BRANCH  17  20
HETATM   20  C7  UNL     1      69.492  67.150 278.575  1.00  0.00     0.148 A 
HETATM   21  N7  UNL     1      68.201  66.938 278.718  1.00  0.00    -0.272 N 
HETATM   22  N8  UNL     1      67.795  66.181 277.682  1.00  0.00    -0.129 N 
ATOM     23  H7  UNL     1      67.614  67.285 279.476  1.00  0.00     0.189 HD
HETATM   24  C8  UNL     1      68.840  65.913 276.881  1.00  0.00     0.712 A 
ATOM     25  H8  UNL     1      66.839  65.860 277.528  1.00  0.00     0.205 HD
HETATM   26  N11 UNL     1      69.900  66.529 277.454  1.00  0.00    -0.173 N 
ATOM     27  H11 UNL     1      70.855  66.524 277.094  1.00  0.00     0.185 HD
BRANCH  24  28
HETATM   28  N9  UNL     1      68.872  65.146 275.678  1.00  0.00    -0.137 N 
ATOM     29  H9  UNL     1      68.369  65.472 274.853  1.00  0.00     0.205 HD
BRANCH  28  30
HETATM   30  N10 UNL     1      69.586  63.959 275.628  1.00  0.00    -0.331 N 
ATOM     31 2H10 UNL     1      69.139  63.100 275.951  1.00  0.00     0.177 HD
ATOM     32 1H10 UNL     1      70.542  63.951 275.272  1.00  0.00     0.177 HD
ENDBRANCH  28  30
ENDBRANCH  24  28
ENDBRANCH  17  20
ENDBRANCH  15  17
ENDBRANCH  14  15
ENDBRANCH  10  14
BRANCH   4  33
HETATM   33  N3  UNL     1      63.249  71.201 279.905  1.00  0.00    -0.383 N 
ATOM     34  H32 UNL     1      62.419  70.751 279.519  1.00  0.00     0.157 HD
ATOM     35  H31 UNL     1      63.139  71.765 280.747  1.00  0.00     0.157 HD
ENDBRANCH   4  33
BRANCH   1  36
HETATM   36  N1  UNL     1      65.964  71.501 276.245  1.00  0.00    -0.234 N 
ATOM     37  H12 UNL     1      65.137  71.726 275.693  1.00  0.00     0.174 HD
ATOM     38  H11 UNL     1      66.889  71.469 275.818  1.00  0.00     0.174 HD
ENDBRANCH   1  36
TORSDOF 9
ENDMDL
MODEL 4
REMARK VINA RESULT: -7.104579640      2.478      6.421
REMARK  9 active torsions:
REMARK  status: ('A' for Active; 'I' for Inactive)
REMARK    1  A    between atoms: N1_1  and  C1_4 
REMARK    2  A    between atoms: C2_7  and  N3_8 
REMARK    3  A    between atoms: N6_16  and  C4_17 
REMARK    4  A    between atoms: C4_17  and  C5_18 
REMARK    5  A    between atoms: C5_18  and  C6_20 
REMARK    6  A    between atoms: C6_20  and  O2_21 
REMARK    7  A    between atoms: C6_20  and  C7_23 
REMARK    8  A    between atoms: C8_28  and  N9_29 
REMARK    9  A    between atoms: N9_29  and  N10_31 
ROOT
HETATM    1  C1  UNL     1      64.029  70.044 281.211  1.00  0.00     0.679 A 
HETATM    2  N2  UNL     1      63.645  70.703 280.097  1.00  0.00    -0.175 N 
ATOM      3  H2  UNL     1      62.655  70.771 279.860  1.00  0.00     0.186 HD
HETATM    4  C2  UNL     1      64.568  71.270 279.300  1.00  0.00     0.147 A 
HETATM    5  C3  UNL     1      65.889  71.154 279.659  1.00  0.00     0.140 A 
HETATM    6  N4  UNL     1      67.051  71.599 279.089  1.00  0.00    -0.279 N 
ATOM      7  H4  UNL     1      67.130  72.137 278.226  1.00  0.00     0.189 HD
HETATM    8  N5  UNL     1      68.064  71.201 279.865  1.00  0.00    -0.238 N 
ATOM      9  H5  UNL     1      69.043  71.403 279.665  1.00  0.00     0.208 HD
HETATM   10  N6  UNL     1      67.664  70.527 280.902  1.00  0.00    -0.252 N 
HETATM   11  C9  UNL     1      66.302  70.486 280.791  1.00  0.00     0.171 A 
HETATM   12  N12 UNL     1      65.332  69.942 281.544  1.00  0.00    -0.173 N 
ATOM     13  H12 UNL     1      65.588  69.438 282.393  1.00  0.00     0.186 HD
ENDROOT
BRANCH  10  14
HETATM   14  C4  UNL     1      68.350  69.908 282.014  1.00  0.00     0.234 C 
BRANCH  14  15
HETATM   15  C5  UNL     1      69.192  68.785 281.519  1.00  0.00     0.182 C 
HETATM   16  O1  UNL     1      69.215  67.726 282.112  1.00  0.00    -0.293 OA
BRANCH  15  17
HETATM   17  C6  UNL     1      69.997  68.979 280.304  1.00  0.00     0.258 C 
BRANCH  17  18
HETATM   18  O2  UNL     1      71.343  68.662 280.604  1.00  0.00    -0.380 OA
ATOM     19  H2  UNL     1      71.827  68.605 279.788  1.00  0.00     0.211 HD
ENDBRANCH  17  18
BRANCH  17  20
HETATM   20  C7  UNL     1      69.485  67.997 279.286  1.00  0.00     0.148 A 
HETATM   21  N7  UNL     1      68.242  67.587 279.144  1.00  0.00    -0.272 N 
HETATM   22  N8  UNL     1      68.216  66.707 278.128  1.00  0.00    -0.129 N 
ATOM     23  H7  UNL     1      67.443  67.883 279.704  1.00  0.00     0.189 HD
HETATM   24  C8  UNL     1      69.454  66.560 277.625  1.00  0.00     0.712 A 
ATOM     25  H8  UNL     1      67.384  66.224 277.789  1.00  0.00     0.205 HD
HETATM   26  N11 UNL     1      70.241  67.378 278.363  1.00  0.00    -0.173 N 
ATOM     27  H11 UNL     1      71.246  67.505 278.238  1.00  0.00     0.185 HD
BRANCH  24  28
HETATM   28  N9  UNL     1      69.891  65.730 276.549  1.00  0.00    -0.137 N 
ATOM     29  H9  UNL     1      70.888  65.626 276.359  1.00  0.00     0.205 HD
BRANCH  28  30
HETATM   30  N10 UNL     1      68.963  65.066 275.762  1.00  0.00    -0.331 N 
ATOM     31 2H10 UNL     1      67.973  65.147 275.992  1.00  0.00     0.177 HD
ATOM     32 1H10 UNL     1      69.273  64.509 274.966  1.00  0.00     0.177 HD
ENDBRANCH  28  30
ENDBRANCH  24  28
ENDBRANCH  17  20
ENDBRANCH  15  17
ENDBRANCH  14  15
ENDBRANCH  10  14
BRANCH   4  33
HETATM   33  N3  UNL     1      64.171  71.890 278.254  1.00  0.00    -0.383 N 
ATOM     34  H32 UNL     1      64.745  72.562 277.745  1.00  0.00     0.157 HD
ATOM     35  H31 UNL     1      63.229  71.708 277.910  1.00  0.00     0.157 HD
ENDBRANCH   4  33
BRANCH   1  36
HETATM   36  N1  UNL     1      63.187  69.477 282.004  1.00  0.00    -0.234 N 
ATOM     37  H12 UNL     1      63.535  68.692 282.554  1.00  0.00     0.174 HD
ATOM     38  H11 UNL     1      62.218  69.786 282.082  1.00  0.00     0.174 HD
ENDBRANCH   1  36
TORSDOF 9
ENDMDL
MODEL 5
REMARK VINA RESULT: -6.565088280      2.132      6.393
REMARK  9 active torsions:
REMARK  status: ('A' for Active; 'I' for Inactive)
REMARK    1  A    between atoms: N1_1  and  C1_4 
REMARK    2  A    between atoms: C2_7  and  N3_8 
REMARK    3  A    between atoms: N6_16  and  C4_17 
REMARK    4  A    between atoms: C4_17  and  C5_18 
REMARK    5  A    between atoms: C5_18  and  C6_20 
REMARK    6  A    between atoms: C6_20  and  O2_21 
REMARK    7  A    between atoms: C6_20  and  C7_23 
REMARK    8  A    between atoms: C8_28  and  N9_29 
REMARK    9  A    between atoms: N9_29  and  N10_31 
ROOT
HETATM    1  C1  UNL     1      65.833  71.239 277.452  1.00  0.00     0.679 A 
HETATM    2  N2  UNL     1      64.609  71.391 278.001  1.00  0.00    -0.175 N 
ATOM      3  H2  UNL     1      63.819  71.673 277.420  1.00  0.00     0.186 HD
HETATM    4  C2  UNL     1      64.431  71.171 279.317  1.00  0.00     0.147 A 
HETATM    5  C3  UNL     1      65.523  70.793 280.061  1.00  0.00     0.140 A 
HETATM    6  N4  UNL     1      65.688  70.498 281.387  1.00  0.00    -0.279 N 
ATOM      7  H4  UNL     1      64.960  70.515 282.102  1.00  0.00     0.189 HD
HETATM    8  N5  UNL     1      66.974  70.186 281.577  1.00  0.00    -0.238 N 
ATOM      9  H5  UNL     1      67.365  69.926 282.482  1.00  0.00     0.208 HD
HETATM   10  N6  UNL     1      67.671  70.252 280.483  1.00  0.00    -0.252 N 
HETATM   11  C9  UNL     1      66.779  70.632 279.519  1.00  0.00     0.171 A 
HETATM   12  N12 UNL     1      66.890  70.866 278.201  1.00  0.00    -0.173 N 
ATOM     13  H12 UNL     1      67.801  70.760 277.754  1.00  0.00     0.186 HD
ENDROOT
BRANCH  10  14
HETATM   14  C4  UNL     1      69.062  70.005 280.170  1.00  0.00     0.234 C 
BRANCH  14  15
HETATM   15  C5  UNL     1      69.527  68.787 280.887  1.00  0.00     0.182 C 
HETATM   16  O1  UNL     1      68.880  68.330 281.806  1.00  0.00    -0.293 OA
BRANCH  15  17
HETATM   17  C6  UNL     1      70.783  68.147 280.467  1.00  0.00     0.258 C 
BRANCH  17  18
HETATM   18  O2  UNL     1      71.172  67.226 281.468  1.00  0.00    -0.380 OA
ATOM     19  H2  UNL     1      72.119  67.155 281.458  1.00  0.00     0.211 HD
ENDBRANCH  17  18
BRANCH  17  20
HETATM   20  C7  UNL     1      70.479  67.389 279.204  1.00  0.00     0.148 A 
HETATM   21  N7  UNL     1      71.353  66.929 278.334  1.00  0.00    -0.272 N 
HETATM   22  N8  UNL     1      70.667  66.322 277.348  1.00  0.00    -0.129 N 
ATOM     23  H7  UNL     1      72.367  67.015 278.395  1.00  0.00     0.189 HD
HETATM   24  C8  UNL     1      69.349  66.403 277.599  1.00  0.00     0.712 A 
ATOM     25  H8  UNL     1      71.083  65.870 276.534  1.00  0.00     0.205 HD
HETATM   26  N11 UNL     1      69.246  67.076 278.770  1.00  0.00    -0.173 N 
ATOM     27  H11 UNL     1      68.374  67.307 279.246  1.00  0.00     0.185 HD
BRANCH  24  28
HETATM   28  N9  UNL     1      68.258  65.905 276.826  1.00  0.00    -0.137 N 
ATOM     29  H9  UNL     1      67.299  66.117 277.102  1.00  0.00     0.205 HD
BRANCH  28  30
HETATM   30  N10 UNL     1      68.499  65.132 275.700  1.00  0.00    -0.331 N 
ATOM     31 2H10 UNL     1      68.289  65.521 274.781  1.00  0.00     0.177 HD
ATOM     32 1H10 UNL     1      68.881  64.192 275.797  1.00  0.00     0.177 HD
ENDBRANCH  28  30
ENDBRANCH  24  28
ENDBRANCH  17  20
ENDBRANCH  15  17
ENDBRANCH  14  15
ENDBRANCH  10  14
BRANCH   4  33
HETATM   33  N3  UNL     1      63.259  71.320 279.806  1.00  0.00    -0.383 N 
ATOM     34  H32 UNL     1      62.983  72.121 280.373  1.00  0.00     0.157 HD
ATOM     35  H31 UNL     1      62.561  70.599 279.624  1.00  0.00     0.157 HD
ENDBRANCH   4  33
BRANCH   1  36
HETATM   36  N1  UNL     1      66.058  71.444 276.200  1.00  0.00    -0.234 N 
ATOM     37  H12 UNL     1      65.783  72.353 275.831  1.00  0.00     0.174 HD
ATOM     38  H11 UNL     1      66.484  70.739 275.599  1.00  0.00     0.174 HD
ENDBRANCH   1  36
TORSDOF 9
ENDMDL
