MODEL 1
REMARK VINA RESULT: -4.470958021      0.000      0.000
REMARK  9 active torsions:
REMARK  status: ('A' for Active; 'I' for Inactive)
REMARK    1  A    between atoms: N1_1  and  C1_4 
REMARK    2  A    between atoms: C2_7  and  N3_8 
REMARK    3  A    between atoms: C3_12  and  C4_13 
REMARK    4  A    between atoms: C6_26  and  C7_27 
REMARK    5  A    between atoms: C7_27  and  N11_28 
REMARK    6  A    between atoms: N11_28  and  C8_31 
REMARK    7  A    between atoms: C8_31  and  N12_32 
REMARK    8  A    between atoms: C8_31  and  C9_36 
REMARK    9  A    between atoms: C9_36  and  O1_37 
ROOT
HETATM    1  C1  UNL     1      64.293  61.841 268.946  1.00  0.00     0.714 A 
HETATM    2  N2  UNL     1      63.273  61.076 268.570  1.00  0.00    -0.019 N 
ATOM      3  H2  UNL     1      63.336  60.146 268.154  1.00  0.00     0.203 HD
HETATM    4  C2  UNL     1      62.129  61.761 268.841  1.00  0.00     0.713 A 
HETATM    5  N4  UNL     1      62.436  62.953 269.385  1.00  0.00    -0.056 N 
HETATM    6  C3  UNL     1      61.711  63.999 269.828  1.00  0.00     0.163 A 
HETATM    7  C5  UNL     1      62.328  65.142 270.357  1.00  0.00     0.151 A 
HETATM    8  N9  UNL     1      61.562  66.267 270.833  1.00  0.00    -0.080 NA
HETATM    9  N10 UNL     1      63.655  65.150 270.403  1.00  0.00    -0.329 N 
ATOM     10  H10 UNL     1      64.139  65.965 270.781  1.00  0.00     0.168 HD
HETATM   11  C6  UNL     1      64.376  64.094 269.957  1.00  0.00     0.150 A 
HETATM   12  N13 UNL     1      63.792  63.005 269.453  1.00  0.00    -0.050 N 
ENDROOT
BRANCH  11  13
HETATM   13  C7  UNL     1      65.847  64.212 270.055  1.00  0.00     0.313 C 
BRANCH  13  14
HETATM   14  N11 UNL     1      66.344  64.075 271.382  1.00  0.00    -0.038 N 
ATOM     15 2H11 UNL     1      66.463  64.985 271.826  1.00  0.00     0.280 HD
ATOM     16 1H11 UNL     1      65.634  63.682 272.001  1.00  0.00     0.280 HD
BRANCH  14  17
HETATM   17  C8  UNL     1      67.545  63.318 271.437  1.00  0.00     0.403 C 
BRANCH  17  18
HETATM   18  N12 UNL     1      68.195  63.273 270.160  1.00  0.00    -0.048 N 
ATOM     19 3H12 UNL     1      67.773  62.572 269.551  1.00  0.00     0.276 HD
ATOM     20 2H12 UNL     1      67.990  64.106 269.608  1.00  0.00     0.276 HD
ATOM     21 1H12 UNL     1      69.200  63.128 270.259  1.00  0.00     0.276 HD
ENDBRANCH  17  18
BRANCH  17  22
HETATM   22  C9  UNL     1      67.328  61.857 271.850  1.00  0.00     0.226 C 
BRANCH  22  23
HETATM   23  O1  UNL     1      68.264  61.442 272.780  1.00  0.00    -0.397 OA
ATOM     24  H1  UNL     1      68.783  60.714 272.457  1.00  0.00     0.209 HD
ENDBRANCH  22  23
ENDBRANCH  17  22
ENDBRANCH  14  17
ENDBRANCH  13  14
ENDBRANCH  11  13
BRANCH   1  25
HETATM   25  N1  UNL     1      65.560  61.521 268.840  1.00  0.00    -0.232 N 
ATOM     26  H12 UNL     1      66.203  61.831 268.111  1.00  0.00     0.174 HD
ATOM     27  H11 UNL     1      66.071  60.911 269.479  1.00  0.00     0.174 HD
ENDBRANCH   1  25
BRANCH   6  28
HETATM   28  C4  UNL     1      60.251  64.026 269.793  1.00  0.00     0.170 A 
HETATM   29  N5  UNL     1      59.376  64.399 268.871  1.00  0.00    -0.267 N 
HETATM   30  N6  UNL     1      58.164  64.229 269.338  1.00  0.00    -0.227 N 
ATOM     31  H5  UNL     1      59.608  64.759 267.946  1.00  0.00     0.190 HD
HETATM   32  N7  UNL     1      58.239  63.745 270.570  1.00  0.00    -0.227 N 
ATOM     33  H6  UNL     1      57.302  64.437 268.835  1.00  0.00     0.210 HD
HETATM   34  N8  UNL     1      59.505  63.613 270.869  1.00  0.00    -0.267 N 
ATOM     35  H7  UNL     1      57.451  63.516 271.175  1.00  0.00     0.210 HD
ATOM     36  H8  UNL     1      59.876  63.263 271.752  1.00  0.00     0.190 HD
ENDBRANCH   6  28
BRANCH   4  37
HETATM   37  N3  UNL     1      60.959  61.299 268.594  1.00  0.00    -0.232 N 
ATOM     38  H32 UNL     1      60.403  60.679 269.183  1.00  0.00     0.174 HD
ATOM     39  H31 UNL     1      60.441  61.517 267.742  1.00  0.00     0.174 HD
ENDBRANCH   4  37
TORSDOF 9
ENDMDL
MODEL 2
REMARK VINA RESULT: -3.685374310      1.995      3.182
REMARK  9 active torsions:
REMARK  status: ('A' for Active; 'I' for Inactive)
REMARK    1  A    between atoms: N1_1  and  C1_4 
REMARK    2  A    between atoms: C2_7  and  N3_8 
REMARK    3  A    between atoms: C3_12  and  C4_13 
REMARK    4  A    between atoms: C6_26  and  C7_27 
REMARK    5  A    between atoms: C7_27  and  N11_28 
REMARK    6  A    between atoms: N11_28  and  C8_31 
REMARK    7  A    between atoms: C8_31  and  N12_32 
REMARK    8  A    between atoms: C8_31  and  C9_36 
REMARK    9  A    between atoms: C9_36  and  O1_37 
ROOT
HETATM    1  C1  UNL     1      66.349  64.031 269.700  1.00  0.00     0.714 A 
HETATM    2  N2  UNL     1      65.821  65.118 269.144  1.00  0.00    -0.019 N 
ATOM      3  H2  UNL     1      66.333  65.937 268.815  1.00  0.00     0.203 HD
HETATM    4  C2  UNL     1      64.474  64.936 269.095  1.00  0.00     0.713 A 
HETATM    5  N4  UNL     1      64.161  63.738 269.619  1.00  0.00    -0.056 N 
HETATM    6  C3  UNL     1      63.007  63.071 269.818  1.00  0.00     0.163 A 
HETATM    7  C5  UNL     1      62.993  61.799 270.410  1.00  0.00     0.151 A 
HETATM    8  N9  UNL     1      61.763  61.077 270.627  1.00  0.00    -0.080 NA
HETATM    9  N10 UNL     1      64.161  61.281 270.767  1.00  0.00    -0.329 N 
ATOM     10  H10 UNL     1      64.190  60.359 271.201  1.00  0.00     0.168 HD
HETATM   11  C6  UNL     1      65.317  61.958 270.563  1.00  0.00     0.150 A 
HETATM   12  N13 UNL     1      65.334  63.168 270.000  1.00  0.00    -0.050 N 
ENDROOT
BRANCH  11  13
HETATM   13  C7  UNL     1      66.560  61.286 271.000  1.00  0.00     0.313 C 
BRANCH  13  14
HETATM   14  N11 UNL     1      66.631  61.075 272.406  1.00  0.00    -0.038 N 
ATOM     15 2H11 UNL     1      65.720  61.209 272.844  1.00  0.00     0.280 HD
ATOM     16 1H11 UNL     1      66.775  60.089 272.623  1.00  0.00     0.280 HD
BRANCH  14  17
HETATM   17  C8  UNL     1      67.621  61.885 273.027  1.00  0.00     0.403 C 
BRANCH  17  18
HETATM   18  N12 UNL     1      68.242  61.204 274.124  1.00  0.00    -0.048 N 
ATOM     19 3H12 UNL     1      67.598  61.095 274.909  1.00  0.00     0.276 HD
ATOM     20 2H12 UNL     1      68.398  60.219 273.912  1.00  0.00     0.276 HD
ATOM     21 1H12 UNL     1      69.105  61.666 274.409  1.00  0.00     0.276 HD
ENDBRANCH  17  18
BRANCH  17  22
HETATM   22  C9  UNL     1      67.065  63.193 273.604  1.00  0.00     0.226 C 
BRANCH  22  23
HETATM   23  O1  UNL     1      65.704  63.112 273.841  1.00  0.00    -0.397 OA
ATOM     24  H1  UNL     1      65.513  62.613 274.627  1.00  0.00     0.209 HD
ENDBRANCH  22  23
ENDBRANCH  17  22
ENDBRANCH  14  17
ENDBRANCH  13  14
ENDBRANCH  11  13
BRANCH   1  25
HETATM   25  N1  UNL     1      67.626  63.836 269.921  1.00  0.00    -0.232 N 
ATOM     26  H12 UNL     1      68.200  64.315 270.615  1.00  0.00     0.174 HD
ATOM     27  H11 UNL     1      68.218  63.174 269.418  1.00  0.00     0.174 HD
ENDBRANCH   1  25
BRANCH   6  28
HETATM   28  C4  UNL     1      61.703  63.608 269.440  1.00  0.00     0.170 A 
HETATM   29  N5  UNL     1      60.957  63.488 268.353  1.00  0.00    -0.267 N 
HETATM   30  N6  UNL     1      59.856  64.180 268.510  1.00  0.00    -0.227 N 
ATOM     31  H5  UNL     1      61.200  62.944 267.525  1.00  0.00     0.190 HD
HETATM   32  N7  UNL     1      59.875  64.758 269.703  1.00  0.00    -0.227 N 
ATOM     33  H6  UNL     1      59.105  64.261 267.825  1.00  0.00     0.210 HD
HETATM   34  N8  UNL     1      60.995  64.423 270.289  1.00  0.00    -0.267 N 
ATOM     35  H7  UNL     1      59.147  65.355 270.093  1.00  0.00     0.210 HD
ATOM     36  H8  UNL     1      61.292  64.717 271.220  1.00  0.00     0.190 HD
ENDBRANCH   6  28
BRANCH   4  37
HETATM   37  N3  UNL     1      63.666  65.807 268.612  1.00  0.00    -0.232 N 
ATOM     38  H32 UNL     1      63.896  66.587 267.996  1.00  0.00     0.174 HD
ATOM     39  H31 UNL     1      62.665  65.807 268.806  1.00  0.00     0.174 HD
ENDBRANCH   4  37
TORSDOF 9
ENDMDL
MODEL 3
REMARK VINA RESULT: -2.902270786     10.848     14.181
REMARK  9 active torsions:
REMARK  status: ('A' for Active; 'I' for Inactive)
REMARK    1  A    between atoms: N1_1  and  C1_4 
REMARK    2  A    between atoms: C2_7  and  N3_8 
REMARK    3  A    between atoms: C3_12  and  C4_13 
REMARK    4  A    between atoms: C6_26  and  C7_27 
REMARK    5  A    between atoms: C7_27  and  N11_28 
REMARK    6  A    between atoms: N11_28  and  C8_31 
REMARK    7  A    between atoms: C8_31  and  N12_32 
REMARK    8  A    between atoms: C8_31  and  C9_36 
REMARK    9  A    between atoms: C9_36  and  O1_37 
ROOT
HETATM    1  C1  UNL     1      67.114  70.352 281.271  1.00  0.00     0.714 A 
HETATM    2  N2  UNL     1      67.957  70.422 282.296  1.00  0.00    -0.019 N 
ATOM      3  H2  UNL     1      67.843  70.991 283.135  1.00  0.00     0.203 HD
HETATM    4  C2  UNL     1      69.001  69.595 282.020  1.00  0.00     0.713 A 
HETATM    5  N4  UNL     1      68.810  69.009 280.824  1.00  0.00    -0.056 N 
HETATM    6  C3  UNL     1      69.512  68.130 280.084  1.00  0.00     0.163 A 
HETATM    7  C5  UNL     1      69.047  67.692 278.835  1.00  0.00     0.151 A 
HETATM    8  N9  UNL     1      69.791  66.750 278.036  1.00  0.00    -0.080 NA
HETATM    9  N10 UNL     1      67.887  68.180 278.414  1.00  0.00    -0.329 N 
ATOM     10  H10 UNL     1      67.517  67.885 277.510  1.00  0.00     0.168 HD
HETATM   11  C6  UNL     1      67.186  69.063 279.164  1.00  0.00     0.150 A 
HETATM   12  N13 UNL     1      67.626  69.482 280.352  1.00  0.00    -0.050 N 
ENDROOT
BRANCH  11  13
HETATM   13  C7  UNL     1      65.908  69.543 278.595  1.00  0.00     0.313 C 
BRANCH  13  14
HETATM   14  N11 UNL     1      66.030  70.752 277.854  1.00  0.00    -0.038 N 
ATOM     15 2H11 UNL     1      66.413  71.499 278.431  1.00  0.00     0.280 HD
ATOM     16 1H11 UNL     1      66.774  70.683 277.159  1.00  0.00     0.280 HD
BRANCH  14  17
HETATM   17  C8  UNL     1      64.805  71.146 277.252  1.00  0.00     0.403 C 
BRANCH  17  18
HETATM   18  N12 UNL     1      64.996  71.554 275.892  1.00  0.00    -0.048 N 
ATOM     19 3H12 UNL     1      65.811  72.161 275.794  1.00  0.00     0.276 HD
ATOM     20 2H12 UNL     1      65.308  70.776 275.310  1.00  0.00     0.276 HD
ATOM     21 1H12 UNL     1      64.156  71.991 275.512  1.00  0.00     0.276 HD
ENDBRANCH  17  18
BRANCH  17  22
HETATM   22  C9  UNL     1      64.133  72.333 277.956  1.00  0.00     0.226 C 
BRANCH  22  23
HETATM   23  O1  UNL     1      63.879  72.062 279.289  1.00  0.00    -0.397 OA
ATOM     24  H1  UNL     1      63.290  72.701 279.672  1.00  0.00     0.209 HD
ENDBRANCH  22  23
ENDBRANCH  17  22
ENDBRANCH  14  17
ENDBRANCH  13  14
ENDBRANCH  11  13
BRANCH   1  25
HETATM   25  N1  UNL     1      65.986  71.014 281.170  1.00  0.00    -0.232 N 
ATOM     26  H12 UNL     1      65.076  70.623 280.927  1.00  0.00     0.174 HD
ATOM     27  H11 UNL     1      65.874  72.017 281.322  1.00  0.00     0.174 HD
ENDBRANCH   1  25
BRANCH   6  28
HETATM   28  C4  UNL     1      70.792  67.572 280.514  1.00  0.00     0.170 A 
HETATM   29  N5  UNL     1      71.335  67.370 281.705  1.00  0.00    -0.267 N 
HETATM   30  N6  UNL     1      72.521  66.837 281.550  1.00  0.00    -0.227 N 
ATOM     31  H5  UNL     1      70.899  67.595 282.599  1.00  0.00     0.190 HD
HETATM   32  N7  UNL     1      72.761  66.686 280.255  1.00  0.00    -0.227 N 
ATOM     33  H6  UNL     1      73.157  66.579 282.304  1.00  0.00     0.210 HD
HETATM   34  N8  UNL     1      71.718  67.129 279.603  1.00  0.00    -0.267 N 
ATOM     35  H7  UNL     1      73.608  66.294 279.843  1.00  0.00     0.210 HD
ATOM     36  H8  UNL     1      71.611  67.143 278.589  1.00  0.00     0.190 HD
ENDBRANCH   6  28
BRANCH   4  37
HETATM   37  N3  UNL     1      69.997  69.433 282.812  1.00  0.00    -0.232 N 
ATOM     38  H32 UNL     1      70.834  70.012 282.877  1.00  0.00     0.174 HD
ATOM     39  H31 UNL     1      70.052  68.674 283.492  1.00  0.00     0.174 HD
ENDBRANCH   4  37
TORSDOF 9
ENDMDL
MODEL 4
REMARK VINA RESULT: -2.776957644     10.792     14.008
REMARK  9 active torsions:
REMARK  status: ('A' for Active; 'I' for Inactive)
REMARK    1  A    between atoms: N1_1  and  C1_4 
REMARK    2  A    between atoms: C2_7  and  N3_8 
REMARK    3  A    between atoms: C3_12  and  C4_13 
REMARK    4  A    between atoms: C6_26  and  C7_27 
REMARK    5  A    between atoms: C7_27  and  N11_28 
REMARK    6  A    between atoms: N11_28  and  C8_31 
REMARK    7  A    between atoms: C8_31  and  N12_32 
REMARK    8  A    between atoms: C8_31  and  C9_36 
REMARK    9  A    between atoms: C9_36  and  O1_37 
ROOT
HETATM    1  C1  UNL     1      66.711  70.683 281.005  1.00  0.00     0.714 A 
HETATM    2  N2  UNL     1      67.505  70.808 282.064  1.00  0.00    -0.019 N 
ATOM      3  H2  UNL     1      67.362  71.437 282.854  1.00  0.00     0.203 HD
HETATM    4  C2  UNL     1      68.542  69.944 281.899  1.00  0.00     0.713 A 
HETATM    5  N4  UNL     1      68.397  69.280 280.738  1.00  0.00    -0.056 N 
HETATM    6  C3  UNL     1      69.115  68.337 280.097  1.00  0.00     0.163 A 
HETATM    7  C5  UNL     1      68.702  67.821 278.860  1.00  0.00     0.151 A 
HETATM    8  N9  UNL     1      69.463  66.812 278.167  1.00  0.00    -0.080 NA
HETATM    9  N10 UNL     1      67.575  68.300 278.348  1.00  0.00    -0.329 N 
ATOM     10  H10 UNL     1      67.243  67.949 277.449  1.00  0.00     0.168 HD
HETATM   11  C6  UNL     1      66.858  69.247 278.999  1.00  0.00     0.150 A 
HETATM   12  N13 UNL     1      67.249  69.740 280.176  1.00  0.00    -0.050 N 
ENDROOT
BRANCH  11  13
HETATM   13  C7  UNL     1      65.620  69.709 278.334  1.00  0.00     0.313 C 
BRANCH  13  14
HETATM   14  N11 UNL     1      65.831  70.209 277.018  1.00  0.00    -0.038 N 
ATOM     15 2H11 UNL     1      66.740  69.922 276.657  1.00  0.00     0.280 HD
ATOM     16 1H11 UNL     1      65.229  69.734 276.344  1.00  0.00     0.280 HD
BRANCH  14  17
HETATM   17  C8  UNL     1      65.671  71.619 276.941  1.00  0.00     0.403 C 
BRANCH  17  18
HETATM   18  N12 UNL     1      64.571  72.066 277.742  1.00  0.00    -0.048 N 
ATOM     19 3H12 UNL     1      63.740  72.239 277.175  1.00  0.00     0.276 HD
ATOM     20 2H12 UNL     1      64.207  71.316 278.330  1.00  0.00     0.276 HD
ATOM     21 1H12 UNL     1      64.822  72.886 278.296  1.00  0.00     0.276 HD
ENDBRANCH  17  18
BRANCH  17  22
HETATM   22  C9  UNL     1      65.389  72.124 275.520  1.00  0.00     0.226 C 
BRANCH  22  23
HETATM   23  O1  UNL     1      66.284  73.108 275.138  1.00  0.00    -0.397 OA
ATOM     24  H1  UNL     1      66.820  72.832 274.404  1.00  0.00     0.209 HD
ENDBRANCH  22  23
ENDBRANCH  17  22
ENDBRANCH  14  17
ENDBRANCH  13  14
ENDBRANCH  11  13
BRANCH   1  25
HETATM   25  N1  UNL     1      65.605  71.356 280.802  1.00  0.00    -0.232 N 
ATOM     26  H12 UNL     1      65.524  72.258 280.331  1.00  0.00     0.174 HD
ATOM     27  H11 UNL     1      64.672  71.063 281.095  1.00  0.00     0.174 HD
ENDBRANCH   1  25
BRANCH   6  28
HETATM   28  C4  UNL     1      70.359  67.787 280.629  1.00  0.00     0.170 A 
HETATM   29  N5  UNL     1      70.772  67.509 281.857  1.00  0.00    -0.267 N 
HETATM   30  N6  UNL     1      71.988  67.027 281.800  1.00  0.00    -0.227 N 
ATOM     31  H5  UNL     1      70.230  67.648 282.709  1.00  0.00     0.190 HD
HETATM   32  N7  UNL     1      72.379  66.986 280.534  1.00  0.00    -0.227 N 
ATOM     33  H6  UNL     1      72.545  66.730 282.601  1.00  0.00     0.210 HD
HETATM   34  N8  UNL     1      71.399  67.447 279.800  1.00  0.00    -0.267 N 
ATOM     35  H7  UNL     1      73.281  66.655 280.194  1.00  0.00     0.210 HD
ATOM     36  H8  UNL     1      71.406  67.537 278.784  1.00  0.00     0.190 HD
ENDBRANCH   6  28
BRANCH   4  37
HETATM   37  N3  UNL     1      69.494  69.820 282.750  1.00  0.00    -0.232 N 
ATOM     38  H32 UNL     1      70.295  70.439 282.874  1.00  0.00     0.174 HD
ATOM     39  H31 UNL     1      69.546  69.054 283.421  1.00  0.00     0.174 HD
ENDBRANCH   4  37
TORSDOF 9
ENDMDL
MODEL 5
REMARK VINA RESULT: -2.749851187      9.134     12.341
REMARK  9 active torsions:
REMARK  status: ('A' for Active; 'I' for Inactive)
REMARK    1  A    between atoms: N1_1  and  C1_4 
REMARK    2  A    between atoms: C2_7  and  N3_8 
REMARK    3  A    between atoms: C3_12  and  C4_13 
REMARK    4  A    between atoms: C6_26  and  C7_27 
REMARK    5  A    between atoms: C7_27  and  N11_28 
REMARK    6  A    between atoms: N11_28  and  C8_31 
REMARK    7  A    between atoms: C8_31  and  N12_32 
REMARK    8  A    between atoms: C8_31  and  C9_36 
REMARK    9  A    between atoms: C9_36  and  O1_37 
ROOT
HETATM    1  C1  UNL     1      71.893  66.228 278.687  1.00  0.00     0.714 A 
HETATM    2  N2  UNL     1      72.429  66.733 279.793  1.00  0.00    -0.019 N 
ATOM      3  H2  UNL     1      73.368  66.551 280.147  1.00  0.00     0.203 HD
HETATM    4  C2  UNL     1      71.494  67.538 280.366  1.00  0.00     0.713 A 
HETATM    5  N4  UNL     1      70.376  67.535 279.619  1.00  0.00    -0.056 N 
HETATM    6  C3  UNL     1      69.174  68.137 279.721  1.00  0.00     0.163 A 
HETATM    7  C5  UNL     1      68.173  67.933 278.760  1.00  0.00     0.151 A 
HETATM    8  N9  UNL     1      66.885  68.573 278.860  1.00  0.00    -0.080 NA
HETATM    9  N10 UNL     1      68.458  67.123 277.748  1.00  0.00    -0.329 N 
ATOM     10  H10 UNL     1      67.754  66.951 277.030  1.00  0.00     0.168 HD
HETATM   11  C6  UNL     1      69.668  66.523 277.652  1.00  0.00     0.150 A 
HETATM   12  N13 UNL     1      70.623  66.714 278.565  1.00  0.00    -0.050 N 
ENDROOT
BRANCH  11  13
HETATM   13  C7  UNL     1      69.875  65.640 276.484  1.00  0.00     0.313 C 
BRANCH  13  14
HETATM   14  N11 UNL     1      68.689  65.394 275.736  1.00  0.00    -0.038 N 
ATOM     15 2H11 UNL     1      67.862  65.705 276.246  1.00  0.00     0.280 HD
ATOM     16 1H11 UNL     1      68.628  66.016 274.930  1.00  0.00     0.280 HD
BRANCH  14  17
HETATM   17  C8  UNL     1      68.566  64.034 275.343  1.00  0.00     0.403 C 
BRANCH  17  18
HETATM   18  N12 UNL     1      69.812  63.338 275.471  1.00  0.00    -0.048 N 
ATOM     19 3H12 UNL     1      70.600  63.928 275.202  1.00  0.00     0.276 HD
ATOM     20 2H12 UNL     1      70.056  63.186 276.449  1.00  0.00     0.276 HD
ATOM     21 1H12 UNL     1      69.805  62.462 274.947  1.00  0.00     0.276 HD
ENDBRANCH  17  18
BRANCH  17  22
HETATM   22  C9  UNL     1      68.133  63.857 273.882  1.00  0.00     0.226 C 
BRANCH  22  23
HETATM   23  O1  UNL     1      68.731  64.791 273.054  1.00  0.00    -0.397 OA
ATOM     24  H1  UNL     1      69.677  64.712 273.060  1.00  0.00     0.209 HD
ENDBRANCH  22  23
ENDBRANCH  17  22
ENDBRANCH  14  17
ENDBRANCH  13  14
ENDBRANCH  11  13
BRANCH   1  25
HETATM   25  N1  UNL     1      72.491  65.401 277.863  1.00  0.00    -0.232 N 
ATOM     26  H12 UNL     1      73.487  65.183 277.843  1.00  0.00     0.174 HD
ATOM     27  H11 UNL     1      72.031  64.866 277.126  1.00  0.00     0.174 HD
ENDBRANCH   1  25
BRANCH   6  28
HETATM   28  C4  UNL     1      68.825  69.033 280.820  1.00  0.00     0.170 A 
HETATM   29  N5  UNL     1      68.251  70.226 280.866  1.00  0.00    -0.267 N 
HETATM   30  N6  UNL     1      68.164  70.612 282.114  1.00  0.00    -0.227 N 
ATOM     31  H5  UNL     1      67.928  70.758 280.058  1.00  0.00     0.190 HD
HETATM   32  N7  UNL     1      68.682  69.673 282.894  1.00  0.00    -0.227 N 
ATOM     33  H6  UNL     1      67.763  71.492 282.435  1.00  0.00     0.210 HD
HETATM   34  N8  UNL     1      69.093  68.699 282.124  1.00  0.00    -0.267 N 
ATOM     35  H7  UNL     1      68.748  69.705 283.911  1.00  0.00     0.210 HD
ATOM     36  H8  UNL     1      69.538  67.836 282.440  1.00  0.00     0.190 HD
ENDBRANCH   6  28
BRANCH   4  37
HETATM   37  N3  UNL     1      71.697  68.181 281.458  1.00  0.00    -0.232 N 
ATOM     38  H32 UNL     1      72.479  68.071 282.103  1.00  0.00     0.174 HD
ATOM     39  H31 UNL     1      71.065  68.902 281.806  1.00  0.00     0.174 HD
ENDBRANCH   4  37
TORSDOF 9
ENDMDL
