MODEL 1
REMARK VINA RESULT: -6.145945952      0.000      0.000
REMARK  15 active torsions:
REMARK  status: ('A' for Active; 'I' for Inactive)
REMARK    1  A    between atoms: N1_2  and  C4_5 
REMARK    2  A    between atoms: C4_5  and  C5_6 
REMARK    3  A    between atoms: C5_6  and  N2_7 
REMARK    4  A    between atoms: N2_7  and  C6_8 
REMARK    5  A    between atoms: N2_7  and  S1_14 
REMARK    6  A    between atoms: C6_8  and  C7_9 
REMARK    7  A    between atoms: C7_9  and  N3_10 
REMARK    8  A    between atoms: S1_14  and  C8_16 
REMARK    9  A    between atoms: C8_16  and  N4_17 
REMARK   10  A    between atoms: C8_16  and  N5_20 
REMARK   11  A    between atoms: N5_20  and  C9_22 
REMARK   12  A    between atoms: C9_22  and  C10_23 
REMARK   13  A    between atoms: C10_23  and  C11_24 
REMARK   14  A    between atoms: C11_24  and  C12_25 
REMARK   15  A    between atoms: C12_25  and  C13_26 
ROOT
HETATM    1  S1  UNL     1     -10.965  26.293 -17.838  1.00  0.00     0.162 S 
HETATM    2  O1  UNL     1     -11.915  27.497 -17.897  1.00  0.00    -0.233 OA
ENDROOT
BRANCH   1   3
HETATM    3  N2  UNL     1     -10.221  26.123 -16.326  1.00  0.00    -0.223 NA
BRANCH   3   4
HETATM    4  C5  UNL     1      -9.253  27.154 -16.035  1.00  0.00     0.133 C 
BRANCH   4   5
HETATM    5  C4  UNL     1      -8.248  27.324 -17.145  1.00  0.00     0.251 C 
BRANCH   5   6
HETATM    6  N1  UNL     1      -6.897  27.497 -16.676  1.00  0.00    -0.077 N 
HETATM    7  C1  UNL     1      -6.171  28.338 -17.622  1.00  0.00     0.271 C 
HETATM    8  C2  UNL     1      -6.176  26.280 -16.478  1.00  0.00     0.271 C 
HETATM    9  C3  UNL     1      -6.962  28.198 -15.397  1.00  0.00     0.271 C 
ENDBRANCH   5   6
ENDBRANCH   4   5
ENDBRANCH   3   4
BRANCH   3  10
HETATM   10  C6  UNL     1      -9.686  24.797 -16.183  1.00  0.00     0.132 C 
BRANCH  10  11
HETATM   11  C7  UNL     1      -9.103  24.540 -14.802  1.00  0.00     0.245 C 
BRANCH  11  12
HETATM   12  N3  UNL     1      -9.340  23.132 -14.494  1.00  0.00    -0.078 N 
ATOM     13  H33 UNL     1     -10.206  22.974 -13.979  1.00  0.00     0.274 HD
ATOM     14  H32 UNL     1      -9.575  22.576 -15.316  1.00  0.00     0.274 HD
ATOM     15  H31 UNL     1      -8.514  22.792 -14.002  1.00  0.00     0.274 HD
ENDBRANCH  11  12
ENDBRANCH  10  11
ENDBRANCH   3  10
ENDBRANCH   1   3
BRANCH   1  16
HETATM   16  C8  UNL     1     -12.061  25.153 -17.991  1.00  0.00     0.180 C 
BRANCH  16  17
HETATM   17  N4  UNL     1     -11.953  24.344 -19.098  1.00  0.00    -0.377 N 
ATOM     18  H42 UNL     1     -11.634  24.643 -20.019  1.00  0.00     0.158 HD
ATOM     19  H41 UNL     1     -12.186  23.360 -18.966  1.00  0.00     0.158 HD
ENDBRANCH  16  17
BRANCH  16  20
HETATM   20  N5  UNL     1     -13.057  25.078 -17.040  1.00  0.00    -0.368 N 
ATOM     21  H5  UNL     1     -13.530  25.931 -16.744  1.00  0.00     0.161 HD
BRANCH  20  22
HETATM   22  C9  UNL     1     -13.444  23.817 -16.454  1.00  0.00     0.121 C 
BRANCH  22  23
HETATM   23  C10 UNL     1     -14.952  23.644 -16.347  1.00  0.00     0.020 C 
BRANCH  23  24
HETATM   24  C11 UNL     1     -15.271  22.209 -16.660  1.00  0.00     0.009 C 
BRANCH  24  25
HETATM   25  C12 UNL     1     -16.404  21.992 -17.612  1.00  0.00     0.072 C 
BRANCH  25  26
HETATM   26  C13 UNL     1     -15.984  21.284 -18.810  1.00  0.00     0.086 C 
HETATM   27  N6  UNL     1     -16.705  20.303 -19.300  1.00  0.00    -0.391 N 
ATOM     28  H62 UNL     1     -17.550  20.098 -18.766  1.00  0.00     0.157 HD
ATOM     29  H61 UNL     1     -16.410  19.805 -20.141  1.00  0.00     0.157 HD
HETATM   30  N7  UNL     1     -14.810  21.568 -19.553  1.00  0.00    -0.088 NA
ENDBRANCH  25  26
ENDBRANCH  24  25
ENDBRANCH  23  24
ENDBRANCH  22  23
ENDBRANCH  20  22
ENDBRANCH  16  20
ENDBRANCH   1  16
TORSDOF 15
ENDMDL
MODEL 2
REMARK VINA RESULT: -6.055798288      1.067      2.791
REMARK  15 active torsions:
REMARK  status: ('A' for Active; 'I' for Inactive)
REMARK    1  A    between atoms: N1_2  and  C4_5 
REMARK    2  A    between atoms: C4_5  and  C5_6 
REMARK    3  A    between atoms: C5_6  and  N2_7 
REMARK    4  A    between atoms: N2_7  and  C6_8 
REMARK    5  A    between atoms: N2_7  and  S1_14 
REMARK    6  A    between atoms: C6_8  and  C7_9 
REMARK    7  A    between atoms: C7_9  and  N3_10 
REMARK    8  A    between atoms: S1_14  and  C8_16 
REMARK    9  A    between atoms: C8_16  and  N4_17 
REMARK   10  A    between atoms: C8_16  and  N5_20 
REMARK   11  A    between atoms: N5_20  and  C9_22 
REMARK   12  A    between atoms: C9_22  and  C10_23 
REMARK   13  A    between atoms: C10_23  and  C11_24 
REMARK   14  A    between atoms: C11_24  and  C12_25 
REMARK   15  A    between atoms: C12_25  and  C13_26 
ROOT
HETATM    1  S1  UNL     1     -11.005  26.569 -17.739  1.00  0.00     0.162 S 
HETATM    2  O1  UNL     1     -11.872  27.388 -16.775  1.00  0.00    -0.233 OA
ENDROOT
BRANCH   1   3
HETATM    3  N2  UNL     1      -9.562  26.038 -17.029  1.00  0.00    -0.223 NA
BRANCH   3   4
HETATM    4  C5  UNL     1      -9.611  24.673 -16.560  1.00  0.00     0.133 C 
BRANCH   4   5
HETATM    5  C4  UNL     1      -8.236  24.091 -16.354  1.00  0.00     0.251 C 
BRANCH   5   6
HETATM    6  N1  UNL     1      -8.063  23.470 -15.066  1.00  0.00    -0.077 N 
HETATM    7  C1  UNL     1      -7.217  24.323 -14.239  1.00  0.00     0.271 C 
HETATM    8  C2  UNL     1      -7.506  22.155 -15.110  1.00  0.00     0.271 C 
HETATM    9  C3  UNL     1      -9.377  23.384 -14.438  1.00  0.00     0.271 C 
ENDBRANCH   5   6
ENDBRANCH   4   5
ENDBRANCH   3   4
BRANCH   3  10
HETATM   10  C6  UNL     1      -9.138  26.964 -16.015  1.00  0.00     0.132 C 
BRANCH  10  11
HETATM   11  C7  UNL     1      -7.965  27.826 -16.455  1.00  0.00     0.245 C 
BRANCH  11  12
HETATM   12  N3  UNL     1      -7.358  28.371 -15.243  1.00  0.00    -0.078 N 
ATOM     13  H33 UNL     1      -7.059  29.341 -15.346  1.00  0.00     0.274 HD
ATOM     14  H32 UNL     1      -8.031  28.522 -14.491  1.00  0.00     0.274 HD
ATOM     15  H31 UNL     1      -6.599  27.744 -14.981  1.00  0.00     0.274 HD
ENDBRANCH  11  12
ENDBRANCH  10  11
ENDBRANCH   3  10
ENDBRANCH   1   3
BRANCH   1  16
HETATM   16  C8  UNL     1     -11.979  25.323 -17.892  1.00  0.00     0.180 C 
BRANCH  16  17
HETATM   17  N4  UNL     1     -11.804  24.542 -19.011  1.00  0.00    -0.377 N 
ATOM     18  H42 UNL     1     -12.177  24.747 -19.938  1.00  0.00     0.158 HD
ATOM     19  H41 UNL     1     -11.228  23.709 -18.898  1.00  0.00     0.158 HD
ENDBRANCH  16  17
BRANCH  16  20
HETATM   20  N5  UNL     1     -12.947  25.133 -16.928  1.00  0.00    -0.368 N 
ATOM     21  H5  UNL     1     -13.374  25.945 -16.484  1.00  0.00     0.161 HD
BRANCH  20  22
HETATM   22  C9  UNL     1     -13.368  23.811 -16.536  1.00  0.00     0.121 C 
BRANCH  22  23
HETATM   23  C10 UNL     1     -14.878  23.679 -16.400  1.00  0.00     0.020 C 
BRANCH  23  24
HETATM   24  C11 UNL     1     -15.233  22.234 -16.618  1.00  0.00     0.009 C 
BRANCH  24  25
HETATM   25  C12 UNL     1     -16.391  21.984 -17.531  1.00  0.00     0.072 C 
BRANCH  25  26
HETATM   26  C13 UNL     1     -15.988  21.311 -18.755  1.00  0.00     0.086 C 
HETATM   27  N6  UNL     1     -16.747  20.390 -19.298  1.00  0.00    -0.391 N 
ATOM     28  H62 UNL     1     -17.609  20.203 -18.785  1.00  0.00     0.157 HD
ATOM     29  H61 UNL     1     -16.464  19.917 -20.157  1.00  0.00     0.157 HD
HETATM   30  N7  UNL     1     -14.790  21.572 -19.468  1.00  0.00    -0.088 NA
ENDBRANCH  25  26
ENDBRANCH  24  25
ENDBRANCH  23  24
ENDBRANCH  22  23
ENDBRANCH  20  22
ENDBRANCH  16  20
ENDBRANCH   1  16
TORSDOF 15
ENDMDL
MODEL 3
REMARK VINA RESULT: -6.047821733      1.786      2.531
REMARK  15 active torsions:
REMARK  status: ('A' for Active; 'I' for Inactive)
REMARK    1  A    between atoms: N1_2  and  C4_5 
REMARK    2  A    between atoms: C4_5  and  C5_6 
REMARK    3  A    between atoms: C5_6  and  N2_7 
REMARK    4  A    between atoms: N2_7  and  C6_8 
REMARK    5  A    between atoms: N2_7  and  S1_14 
REMARK    6  A    between atoms: C6_8  and  C7_9 
REMARK    7  A    between atoms: C7_9  and  N3_10 
REMARK    8  A    between atoms: S1_14  and  C8_16 
REMARK    9  A    between atoms: C8_16  and  N4_17 
REMARK   10  A    between atoms: C8_16  and  N5_20 
REMARK   11  A    between atoms: N5_20  and  C9_22 
REMARK   12  A    between atoms: C9_22  and  C10_23 
REMARK   13  A    between atoms: C10_23  and  C11_24 
REMARK   14  A    between atoms: C11_24  and  C12_25 
REMARK   15  A    between atoms: C12_25  and  C13_26 
ROOT
HETATM    1  S1  UNL     1     -11.169  25.019 -18.291  1.00  0.00     0.162 S 
HETATM    2  O1  UNL     1     -12.441  24.925 -19.143  1.00  0.00    -0.233 OA
ENDROOT
BRANCH   1   3
HETATM    3  N2  UNL     1     -10.525  26.585 -18.251  1.00  0.00    -0.223 NA
BRANCH   3   4
HETATM    4  C5  UNL     1      -9.174  26.645 -17.745  1.00  0.00     0.133 C 
BRANCH   4   5
HETATM    5  C4  UNL     1      -8.377  25.415 -18.097  1.00  0.00     0.251 C 
BRANCH   5   6
HETATM    6  N1  UNL     1      -7.431  25.032 -17.081  1.00  0.00    -0.077 N 
HETATM    7  C1  UNL     1      -6.080  25.222 -17.596  1.00  0.00     0.271 C 
HETATM    8  C2  UNL     1      -7.572  23.690 -16.612  1.00  0.00     0.271 C 
HETATM    9  C3  UNL     1      -7.617  25.930 -15.946  1.00  0.00     0.271 C 
ENDBRANCH   5   6
ENDBRANCH   4   5
ENDBRANCH   3   4
BRANCH   3  10
HETATM   10  C6  UNL     1     -11.421  27.473 -17.563  1.00  0.00     0.132 C 
BRANCH  10  11
HETATM   11  C7  UNL     1     -10.862  27.967 -16.238  1.00  0.00     0.245 C 
BRANCH  11  12
HETATM   12  N3  UNL     1     -11.471  29.268 -15.976  1.00  0.00    -0.078 N 
ATOM     13  H33 UNL     1     -11.106  30.010 -16.574  1.00  0.00     0.274 HD
ATOM     14  H32 UNL     1     -12.443  29.324 -16.280  1.00  0.00     0.274 HD
ATOM     15  H31 UNL     1     -11.350  29.460 -14.982  1.00  0.00     0.274 HD
ENDBRANCH  11  12
ENDBRANCH  10  11
ENDBRANCH   3  10
ENDBRANCH   1   3
BRANCH   1  16
HETATM   16  C8  UNL     1     -11.837  24.713 -16.883  1.00  0.00     0.180 C 
BRANCH  16  17
HETATM   17  N4  UNL     1     -10.977  24.458 -15.840  1.00  0.00    -0.377 N 
ATOM     18  H42 UNL     1     -10.759  23.534 -15.466  1.00  0.00     0.158 HD
ATOM     19  H41 UNL     1     -10.502  25.265 -15.435  1.00  0.00     0.158 HD
ENDBRANCH  16  17
BRANCH  16  20
HETATM   20  N5  UNL     1     -13.214  24.683 -16.809  1.00  0.00    -0.368 N 
ATOM     21  H5  UNL     1     -13.751  25.453 -17.206  1.00  0.00     0.161 HD
BRANCH  20  22
HETATM   22  C9  UNL     1     -13.909  23.586 -16.181  1.00  0.00     0.121 C 
BRANCH  22  23
HETATM   23  C10 UNL     1     -15.376  23.502 -16.578  1.00  0.00     0.020 C 
BRANCH  23  24
HETATM   24  C11 UNL     1     -15.685  22.064 -16.888  1.00  0.00     0.009 C 
BRANCH  24  25
HETATM   25  C12 UNL     1     -16.663  21.837 -17.997  1.00  0.00     0.072 C 
BRANCH  25  26
HETATM   26  C13 UNL     1     -16.067  21.121 -19.113  1.00  0.00     0.086 C 
HETATM   27  N6  UNL     1     -16.600  20.009 -19.561  1.00  0.00    -0.391 N 
ATOM     28  H62 UNL     1     -17.437  19.714 -19.056  1.00  0.00     0.157 HD
ATOM     29  H61 UNL     1     -16.182  19.506 -20.344  1.00  0.00     0.157 HD
HETATM   30  N7  UNL     1     -14.905  21.532 -19.815  1.00  0.00    -0.088 NA
ENDBRANCH  25  26
ENDBRANCH  24  25
ENDBRANCH  23  24
ENDBRANCH  22  23
ENDBRANCH  20  22
ENDBRANCH  16  20
ENDBRANCH   1  16
TORSDOF 15
ENDMDL
MODEL 4
REMARK VINA RESULT: -6.023968929      1.633      2.523
REMARK  15 active torsions:
REMARK  status: ('A' for Active; 'I' for Inactive)
REMARK    1  A    between atoms: N1_2  and  C4_5 
REMARK    2  A    between atoms: C4_5  and  C5_6 
REMARK    3  A    between atoms: C5_6  and  N2_7 
REMARK    4  A    between atoms: N2_7  and  C6_8 
REMARK    5  A    between atoms: N2_7  and  S1_14 
REMARK    6  A    between atoms: C6_8  and  C7_9 
REMARK    7  A    between atoms: C7_9  and  N3_10 
REMARK    8  A    between atoms: S1_14  and  C8_16 
REMARK    9  A    between atoms: C8_16  and  N4_17 
REMARK   10  A    between atoms: C8_16  and  N5_20 
REMARK   11  A    between atoms: N5_20  and  C9_22 
REMARK   12  A    between atoms: C9_22  and  C10_23 
REMARK   13  A    between atoms: C10_23  and  C11_24 
REMARK   14  A    between atoms: C11_24  and  C12_25 
REMARK   15  A    between atoms: C12_25  and  C13_26 
ROOT
HETATM    1  S1  UNL     1     -11.251  25.255 -18.364  1.00  0.00     0.162 S 
HETATM    2  O1  UNL     1     -12.585  25.315 -19.120  1.00  0.00    -0.233 OA
ENDROOT
BRANCH   1   3
HETATM    3  N2  UNL     1     -10.543  26.781 -18.168  1.00  0.00    -0.223 NA
BRANCH   3   4
HETATM    4  C5  UNL     1      -9.271  26.748 -17.484  1.00  0.00     0.133 C 
BRANCH   4   5
HETATM    5  C4  UNL     1      -8.178  26.162 -18.341  1.00  0.00     0.251 C 
BRANCH   5   6
HETATM    6  N1  UNL     1      -6.950  26.914 -18.299  1.00  0.00    -0.077 N 
HETATM    7  C1  UNL     1      -5.855  26.013 -17.955  1.00  0.00     0.271 C 
HETATM    8  C2  UNL     1      -6.957  28.016 -17.389  1.00  0.00     0.271 C 
HETATM    9  C3  UNL     1      -6.707  27.437 -19.640  1.00  0.00     0.271 C 
ENDBRANCH   5   6
ENDBRANCH   4   5
ENDBRANCH   3   4
BRANCH   3  10
HETATM   10  C6  UNL     1     -11.479  27.689 -17.566  1.00  0.00     0.132 C 
BRANCH  10  11
HETATM   11  C7  UNL     1     -11.132  28.028 -16.125  1.00  0.00     0.245 C 
BRANCH  11  12
HETATM   12  N3  UNL     1     -11.572  29.401 -15.891  1.00  0.00    -0.078 N 
ATOM     13  H33 UNL     1     -11.287  30.045 -16.629  1.00  0.00     0.274 HD
ATOM     14  H32 UNL     1     -12.579  29.522 -15.995  1.00  0.00     0.274 HD
ATOM     15  H31 UNL     1     -11.229  29.671 -14.970  1.00  0.00     0.274 HD
ENDBRANCH  11  12
ENDBRANCH  10  11
ENDBRANCH   3  10
ENDBRANCH   1   3
BRANCH   1  16
HETATM   16  C8  UNL     1     -11.826  24.783 -16.960  1.00  0.00     0.180 C 
BRANCH  16  17
HETATM   17  N4  UNL     1     -10.900  24.452 -15.998  1.00  0.00    -0.377 N 
ATOM     18  H42 UNL     1     -10.797  23.533 -15.570  1.00  0.00     0.158 HD
ATOM     19  H41 UNL     1     -10.251  25.188 -15.721  1.00  0.00     0.158 HD
ENDBRANCH  16  17
BRANCH  16  20
HETATM   20  N5  UNL     1     -13.195  24.698 -16.814  1.00  0.00    -0.368 N 
ATOM     21  H5  UNL     1     -13.769  25.519 -17.005  1.00  0.00     0.161 HD
BRANCH  20  22
HETATM   22  C9  UNL     1     -13.833  23.472 -16.399  1.00  0.00     0.121 C 
BRANCH  22  23
HETATM   23  C10 UNL     1     -15.351  23.528 -16.486  1.00  0.00     0.020 C 
BRANCH  23  24
HETATM   24  C11 UNL     1     -15.844  22.138 -16.776  1.00  0.00     0.009 C 
BRANCH  24  25
HETATM   25  C12 UNL     1     -16.714  22.000 -17.985  1.00  0.00     0.072 C 
BRANCH  25  26
HETATM   26  C13 UNL     1     -16.095  21.179 -19.013  1.00  0.00     0.086 C 
HETATM   27  N6  UNL     1     -16.623  20.031 -19.366  1.00  0.00    -0.391 N 
ATOM     28  H62 UNL     1     -17.473  19.788 -18.857  1.00  0.00     0.157 HD
ATOM     29  H61 UNL     1     -16.188  19.455 -20.087  1.00  0.00     0.157 HD
HETATM   30  N7  UNL     1     -14.914  21.517 -19.720  1.00  0.00    -0.088 NA
ENDBRANCH  25  26
ENDBRANCH  24  25
ENDBRANCH  23  24
ENDBRANCH  22  23
ENDBRANCH  20  22
ENDBRANCH  16  20
ENDBRANCH   1  16
TORSDOF 15
ENDMDL
MODEL 5
REMARK VINA RESULT: -6.017351315      1.342      1.784
REMARK  15 active torsions:
REMARK  status: ('A' for Active; 'I' for Inactive)
REMARK    1  A    between atoms: N1_2  and  C4_5 
REMARK    2  A    between atoms: C4_5  and  C5_6 
REMARK    3  A    between atoms: C5_6  and  N2_7 
REMARK    4  A    between atoms: N2_7  and  C6_8 
REMARK    5  A    between atoms: N2_7  and  S1_14 
REMARK    6  A    between atoms: C6_8  and  C7_9 
REMARK    7  A    between atoms: C7_9  and  N3_10 
REMARK    8  A    between atoms: S1_14  and  C8_16 
REMARK    9  A    between atoms: C8_16  and  N4_17 
REMARK   10  A    between atoms: C8_16  and  N5_20 
REMARK   11  A    between atoms: N5_20  and  C9_22 
REMARK   12  A    between atoms: C9_22  and  C10_23 
REMARK   13  A    between atoms: C10_23  and  C11_24 
REMARK   14  A    between atoms: C11_24  and  C12_25 
REMARK   15  A    between atoms: C12_25  and  C13_26 
ROOT
HETATM    1  S1  UNL     1     -10.845  24.937 -17.791  1.00  0.00     0.162 S 
HETATM    2  O1  UNL     1     -11.215  25.649 -19.099  1.00  0.00    -0.233 OA
ENDROOT
BRANCH   1   3
HETATM    3  N2  UNL     1      -9.300  25.351 -17.237  1.00  0.00    -0.223 NA
BRANCH   3   4
HETATM    4  C5  UNL     1      -8.451  25.927 -18.253  1.00  0.00     0.133 C 
BRANCH   4   5
HETATM    5  C4  UNL     1      -7.737  27.162 -17.767  1.00  0.00     0.251 C 
BRANCH   5   6
HETATM    6  N1  UNL     1      -6.415  27.315 -18.318  1.00  0.00    -0.077 N 
HETATM    7  C1  UNL     1      -5.682  26.065 -18.145  1.00  0.00     0.271 C 
HETATM    8  C2  UNL     1      -5.656  28.387 -17.755  1.00  0.00     0.271 C 
HETATM    9  C3  UNL     1      -6.560  27.566 -19.748  1.00  0.00     0.271 C 
ENDBRANCH   5   6
ENDBRANCH   4   5
ENDBRANCH   3   4
BRANCH   3  10
HETATM   10  C6  UNL     1      -8.695  24.230 -16.571  1.00  0.00     0.132 C 
BRANCH  10  11
HETATM   11  C7  UNL     1      -8.692  24.373 -15.057  1.00  0.00     0.245 C 
BRANCH  11  12
HETATM   12  N3  UNL     1      -9.650  23.401 -14.535  1.00  0.00    -0.078 N 
ATOM     13  H33 UNL     1     -10.615  23.612 -14.790  1.00  0.00     0.274 HD
ATOM     14  H32 UNL     1      -9.590  22.493 -14.995  1.00  0.00     0.274 HD
ATOM     15  H31 UNL     1      -9.504  23.351 -13.527  1.00  0.00     0.274 HD
ENDBRANCH  11  12
ENDBRANCH  10  11
ENDBRANCH   3  10
ENDBRANCH   1   3
BRANCH   1  16
HETATM   16  C8  UNL     1     -11.921  25.641 -16.858  1.00  0.00     0.180 C 
BRANCH  16  17
HETATM   17  N4  UNL     1     -11.475  26.698 -16.099  1.00  0.00    -0.377 N 
ATOM     18  H42 UNL     1     -10.626  27.235 -16.275  1.00  0.00     0.158 HD
ATOM     19  H41 UNL     1     -12.066  26.977 -15.316  1.00  0.00     0.158 HD
ENDBRANCH  16  17
BRANCH  16  20
HETATM   20  N5  UNL     1     -13.201  25.128 -16.840  1.00  0.00    -0.368 N 
ATOM     21  H5  UNL     1     -13.979  25.720 -17.129  1.00  0.00     0.161 HD
BRANCH  20  22
HETATM   22  C9  UNL     1     -13.462  23.772 -16.422  1.00  0.00     0.121 C 
BRANCH  22  23
HETATM   23  C10 UNL     1     -14.933  23.508 -16.133  1.00  0.00     0.020 C 
BRANCH  23  24
HETATM   24  C11 UNL     1     -15.256  22.127 -16.632  1.00  0.00     0.009 C 
BRANCH  24  25
HETATM   25  C12 UNL     1     -16.372  22.043 -17.624  1.00  0.00     0.072 C 
BRANCH  25  26
HETATM   26  C13 UNL     1     -15.999  21.280 -18.804  1.00  0.00     0.086 C 
HETATM   27  N6  UNL     1     -16.736  20.277 -19.217  1.00  0.00    -0.391 N 
ATOM     28  H62 UNL     1     -17.559  20.097 -18.640  1.00  0.00     0.157 HD
ATOM     29  H61 UNL     1     -16.474  19.740 -20.044  1.00  0.00     0.157 HD
HETATM   30  N7  UNL     1     -14.856  21.530 -19.605  1.00  0.00    -0.088 NA
ENDBRANCH  25  26
ENDBRANCH  24  25
ENDBRANCH  23  24
ENDBRANCH  22  23
ENDBRANCH  20  22
ENDBRANCH  16  20
ENDBRANCH   1  16
TORSDOF 15
ENDMDL
