MODEL 1
REMARK VINA RESULT: -7.021196889      0.000      0.000
REMARK  12 active torsions:
REMARK  status: ('A' for Active; 'I' for Inactive)
REMARK    1  A    between atoms: C3_5  and  C4_6 
REMARK    2  A    between atoms: C3_5  and  N5_12 
REMARK    3  A    between atoms: C4_6  and  N2_7 
REMARK       I    between atoms: N5_12  and  C6_14 
REMARK    4  A    between atoms: N7_16  and  C7_18 
REMARK    5  A    between atoms: C7_18  and  C8_19 
REMARK    6  A    between atoms: C8_19  and  C9_20 
REMARK    7  A    between atoms: C9_20  and  N8_21 
REMARK    8  A    between atoms: C9_20  and  C10_25 
REMARK    9  A    between atoms: C10_25  and  C11_26 
REMARK   10  A    between atoms: C11_26  and  C12_27 
REMARK   11  A    between atoms: C12_27  and  N9_28 
REMARK   12  A    between atoms: N9_28  and  C13_30 
ROOT
HETATM    1  C1  UNL     1      -9.529  24.352 -15.259  1.00  0.00     0.123 C 
HETATM    2  C2  UNL     1     -10.006  24.596 -16.360  1.00  0.00    -0.074 C 
HETATM    3  N1  UNL     1     -10.574  24.875 -17.606  1.00  0.00    -0.314 N 
ATOM      4  H1  UNL     1      -9.971  25.000 -18.419  1.00  0.00     0.176 HD
HETATM    5  C3  UNL     1     -11.845  24.976 -17.736  1.00  0.00     0.108 C 
ENDROOT
BRANCH   5   6
HETATM    6  C4  UNL     1     -12.445  25.273 -19.062  1.00  0.00     0.199 C 
BRANCH   6   7
HETATM    7  N2  UNL     1     -11.794  24.540 -20.133  1.00  0.00    -0.360 N 
HETATM    8  C5  UNL     1     -12.259  24.503 -21.329  1.00  0.00     0.197 C 
HETATM    9  N3  UNL     1     -13.455  25.193 -21.663  1.00  0.00    -0.067 NA
HETATM   10  N4  UNL     1     -11.568  23.769 -22.315  1.00  0.00    -0.067 NA
ATOM     11  H2  UNL     1     -10.933  24.035 -19.927  1.00  0.00     0.162 HD
ENDBRANCH   6   7
ENDBRANCH   5   6
BRANCH   5  12
HETATM   12  N5  UNL     1     -12.670  24.802 -16.603  1.00  0.00    -0.318 N 
HETATM   13  C6  UNL     1     -13.999  24.334 -16.758  1.00  0.00     0.189 C 
HETATM   14  N6  UNL     1     -15.125  25.207 -16.759  1.00  0.00    -0.064 NA
HETATM   15  N7  UNL     1     -14.252  23.062 -16.910  1.00  0.00    -0.364 N 
ATOM     16  H7  UNL     1     -13.471  22.407 -16.915  1.00  0.00     0.162 HD
ATOM     17  H5  UNL     1     -12.310  25.013 -15.672  1.00  0.00     0.169 HD
BRANCH  15  18
HETATM   18  C7  UNL     1     -15.573  22.548 -17.068  1.00  0.00     0.124 C 
BRANCH  18  19
HETATM   19  C8  UNL     1     -15.639  21.270 -17.850  1.00  0.00     0.052 C 
BRANCH  19  20
HETATM   20  C9  UNL     1     -16.180  21.439 -19.228  1.00  0.00     0.185 C 
BRANCH  20  21
HETATM   21  N8  UNL     1     -16.546  20.240 -19.899  1.00  0.00    -0.075 N 
ATOM     22  H83 UNL     1     -17.386  19.848 -19.475  1.00  0.00     0.274 HD
ATOM     23  H82 UNL     1     -16.895  20.457 -20.832  1.00  0.00     0.274 HD
ATOM     24  H81 UNL     1     -15.820  19.526 -19.957  1.00  0.00     0.274 HD
ENDBRANCH  20  21
BRANCH  20  25
HETATM   25  C10 UNL     1     -17.505  22.262 -19.057  1.00  0.00     0.038 C 
BRANCH  25  26
HETATM   26  C11 UNL     1     -17.774  22.870 -20.357  1.00  0.00     0.046 C 
BRANCH  26  27
HETATM   27  C12 UNL     1     -16.820  23.856 -20.883  1.00  0.00     0.063 C 
BRANCH  27  28
HETATM   28  N9  UNL     1     -17.137  25.225 -20.864  1.00  0.00    -0.348 N 
ATOM     29  H9  UNL     1     -18.132  25.438 -20.937  1.00  0.00     0.167 HD
BRANCH  28  30
HETATM   30  C13 UNL     1     -16.302  26.339 -20.761  1.00  0.00     0.352 C 
HETATM   31  O1  UNL     1     -15.949  26.901 -19.699  1.00  0.00    -0.283 OA
ENDBRANCH  28  30
ENDBRANCH  27  28
ENDBRANCH  26  27
ENDBRANCH  25  26
ENDBRANCH  20  25
ENDBRANCH  19  20
ENDBRANCH  18  19
ENDBRANCH  15  18
ENDBRANCH   5  12
TORSDOF 12
ENDMDL
MODEL 2
REMARK VINA RESULT: -6.833257461      3.246      4.562
REMARK  12 active torsions:
REMARK  status: ('A' for Active; 'I' for Inactive)
REMARK    1  A    between atoms: C3_5  and  C4_6 
REMARK    2  A    between atoms: C3_5  and  N5_12 
REMARK    3  A    between atoms: C4_6  and  N2_7 
REMARK       I    between atoms: N5_12  and  C6_14 
REMARK    4  A    between atoms: N7_16  and  C7_18 
REMARK    5  A    between atoms: C7_18  and  C8_19 
REMARK    6  A    between atoms: C8_19  and  C9_20 
REMARK    7  A    between atoms: C9_20  and  N8_21 
REMARK    8  A    between atoms: C9_20  and  C10_25 
REMARK    9  A    between atoms: C10_25  and  C11_26 
REMARK   10  A    between atoms: C11_26  and  C12_27 
REMARK   11  A    between atoms: C12_27  and  N9_28 
REMARK   12  A    between atoms: N9_28  and  C13_30 
ROOT
HETATM    1  C1  UNL     1      -9.337  23.425 -14.103  1.00  0.00     0.123 C 
HETATM    2  C2  UNL     1      -8.965  23.715 -15.233  1.00  0.00    -0.074 C 
HETATM    3  N1  UNL     1      -8.554  24.067 -16.522  1.00  0.00    -0.314 N 
ATOM      4  H1  UNL     1      -7.841  23.511 -16.995  1.00  0.00     0.176 HD
HETATM    5  C3  UNL     1      -9.065  25.082 -17.115  1.00  0.00     0.108 C 
ENDROOT
BRANCH   5   6
HETATM    6  C4  UNL     1      -8.627  25.453 -18.485  1.00  0.00     0.199 C 
BRANCH   6   7
HETATM    7  N2  UNL     1      -7.627  26.507 -18.472  1.00  0.00    -0.360 N 
HETATM    8  C5  UNL     1      -6.916  26.800 -19.500  1.00  0.00     0.197 C 
HETATM    9  N3  UNL     1      -7.080  26.091 -20.720  1.00  0.00    -0.067 NA
HETATM   10  N4  UNL     1      -5.965  27.837 -19.408  1.00  0.00    -0.067 NA
ATOM     11  H2  UNL     1      -7.485  27.035 -17.611  1.00  0.00     0.162 HD
ENDBRANCH   6   7
ENDBRANCH   5   6
BRANCH   5  12
HETATM   12  N5  UNL     1     -10.051  25.844 -16.451  1.00  0.00    -0.318 N 
HETATM   13  C6  UNL     1     -11.410  25.739 -16.839  1.00  0.00     0.189 C 
HETATM   14  N6  UNL     1     -12.039  26.689 -17.695  1.00  0.00    -0.064 NA
HETATM   15  N7  UNL     1     -12.156  24.752 -16.423  1.00  0.00    -0.364 N 
ATOM     16  H7  UNL     1     -11.739  24.052 -15.809  1.00  0.00     0.162 HD
ATOM     17  H5  UNL     1      -9.785  26.471 -15.692  1.00  0.00     0.169 HD
BRANCH  15  18
HETATM   18  C7  UNL     1     -13.527  24.609 -16.788  1.00  0.00     0.124 C 
BRANCH  18  19
HETATM   19  C8  UNL     1     -14.019  23.192 -16.762  1.00  0.00     0.052 C 
BRANCH  19  20
HETATM   20  C9  UNL     1     -15.033  22.929 -15.703  1.00  0.00     0.185 C 
BRANCH  20  21
HETATM   21  N8  UNL     1     -15.466  24.065 -14.967  1.00  0.00    -0.075 N 
ATOM     22  H83 UNL     1     -14.662  24.539 -14.555  1.00  0.00     0.274 HD
ATOM     23  H82 UNL     1     -15.797  24.788 -15.605  1.00  0.00     0.274 HD
ATOM     24  H81 UNL     1     -16.169  23.887 -14.249  1.00  0.00     0.274 HD
ENDBRANCH  20  21
BRANCH  20  25
HETATM   25  C10 UNL     1     -16.298  22.396 -16.462  1.00  0.00     0.038 C 
BRANCH  25  26
HETATM   26  C11 UNL     1     -15.808  21.828 -17.716  1.00  0.00     0.046 C 
BRANCH  26  27
HETATM   27  C12 UNL     1     -16.728  21.749 -18.858  1.00  0.00     0.063 C 
BRANCH  27  28
HETATM   28  N9  UNL     1     -16.815  20.570 -19.616  1.00  0.00    -0.348 N 
ATOM     29  H9  UNL     1     -17.435  20.622 -20.424  1.00  0.00     0.167 HD
BRANCH  28  30
HETATM   30  C13 UNL     1     -16.185  19.337 -19.435  1.00  0.00     0.352 C 
HETATM   31  O1  UNL     1     -16.174  18.387 -20.252  1.00  0.00    -0.283 OA
ENDBRANCH  28  30
ENDBRANCH  27  28
ENDBRANCH  26  27
ENDBRANCH  25  26
ENDBRANCH  20  25
ENDBRANCH  19  20
ENDBRANCH  18  19
ENDBRANCH  15  18
ENDBRANCH   5  12
TORSDOF 12
ENDMDL
MODEL 3
REMARK VINA RESULT: -6.734419561      1.945      5.321
REMARK  12 active torsions:
REMARK  status: ('A' for Active; 'I' for Inactive)
REMARK    1  A    between atoms: C3_5  and  C4_6 
REMARK    2  A    between atoms: C3_5  and  N5_12 
REMARK    3  A    between atoms: C4_6  and  N2_7 
REMARK       I    between atoms: N5_12  and  C6_14 
REMARK    4  A    between atoms: N7_16  and  C7_18 
REMARK    5  A    between atoms: C7_18  and  C8_19 
REMARK    6  A    between atoms: C8_19  and  C9_20 
REMARK    7  A    between atoms: C9_20  and  N8_21 
REMARK    8  A    between atoms: C9_20  and  C10_25 
REMARK    9  A    between atoms: C10_25  and  C11_26 
REMARK   10  A    between atoms: C11_26  and  C12_27 
REMARK   11  A    between atoms: C12_27  and  N9_28 
REMARK   12  A    between atoms: N9_28  and  C13_30 
ROOT
HETATM    1  C1  UNL     1     -16.896  28.787 -21.596  1.00  0.00     0.123 C 
HETATM    2  C2  UNL     1     -16.221  27.801 -21.868  1.00  0.00    -0.074 C 
HETATM    3  N1  UNL     1     -15.467  26.663 -22.168  1.00  0.00    -0.314 N 
ATOM      4  H1  UNL     1     -14.638  26.746 -22.757  1.00  0.00     0.176 HD
HETATM    5  C3  UNL     1     -15.809  25.516 -21.710  1.00  0.00     0.108 C 
ENDROOT
BRANCH   5   6
HETATM    6  C4  UNL     1     -15.006  24.307 -22.030  1.00  0.00     0.199 C 
BRANCH   6   7
HETATM    7  N2  UNL     1     -13.753  24.642 -22.685  1.00  0.00    -0.360 N 
HETATM    8  C5  UNL     1     -12.622  24.600 -22.079  1.00  0.00     0.197 C 
HETATM    9  N3  UNL     1     -12.546  24.216 -20.713  1.00  0.00    -0.067 NA
HETATM   10  N4  UNL     1     -11.449  24.940 -22.784  1.00  0.00    -0.067 NA
ATOM     11  H2  UNL     1     -13.773  24.921 -23.666  1.00  0.00     0.162 HD
ENDBRANCH   6   7
ENDBRANCH   5   6
BRANCH   5  12
HETATM   12  N5  UNL     1     -16.958  25.412 -20.896  1.00  0.00    -0.318 N 
HETATM   13  C6  UNL     1     -17.323  24.161 -20.340  1.00  0.00     0.189 C 
HETATM   14  N6  UNL     1     -18.329  23.330 -20.913  1.00  0.00    -0.064 NA
HETATM   15  N7  UNL     1     -16.744  23.708 -19.260  1.00  0.00    -0.364 N 
ATOM     16  H7  UNL     1     -16.018  24.276 -18.822  1.00  0.00     0.162 HD
ATOM     17  H5  UNL     1     -17.527  26.238 -20.709  1.00  0.00     0.169 HD
BRANCH  15  18
HETATM   18  C7  UNL     1     -17.081  22.457 -18.666  1.00  0.00     0.124 C 
BRANCH  18  19
HETATM   19  C8  UNL     1     -16.126  22.013 -17.598  1.00  0.00     0.052 C 
BRANCH  19  20
HETATM   20  C9  UNL     1     -15.662  23.118 -16.714  1.00  0.00     0.185 C 
BRANCH  20  21
HETATM   21  N8  UNL     1     -15.996  22.990 -15.338  1.00  0.00    -0.075 N 
ATOM     22  H83 UNL     1     -16.506  22.120 -15.184  1.00  0.00     0.274 HD
ATOM     23  H82 UNL     1     -15.154  22.807 -14.791  1.00  0.00     0.274 HD
ATOM     24  H81 UNL     1     -16.511  23.771 -14.932  1.00  0.00     0.274 HD
ENDBRANCH  20  21
BRANCH  20  25
HETATM   25  C10 UNL     1     -14.095  23.077 -16.785  1.00  0.00     0.038 C 
BRANCH  25  26
HETATM   26  C11 UNL     1     -13.652  24.469 -16.757  1.00  0.00     0.046 C 
BRANCH  26  27
HETATM   27  C12 UNL     1     -12.211  24.748 -16.694  1.00  0.00     0.063 C 
BRANCH  27  28
HETATM   28  N9  UNL     1     -11.754  26.029 -16.344  1.00  0.00    -0.348 N 
ATOM     29  H9  UNL     1     -11.781  26.237 -15.345  1.00  0.00     0.167 HD
BRANCH  28  30
HETATM   30  C13 UNL     1     -11.269  27.061 -17.148  1.00  0.00     0.352 C 
HETATM   31  O1  UNL     1     -11.799  27.487 -18.200  1.00  0.00    -0.283 OA
ENDBRANCH  28  30
ENDBRANCH  27  28
ENDBRANCH  26  27
ENDBRANCH  25  26
ENDBRANCH  20  25
ENDBRANCH  19  20
ENDBRANCH  18  19
ENDBRANCH  15  18
ENDBRANCH   5  12
TORSDOF 12
ENDMDL
MODEL 4
REMARK VINA RESULT: -6.622033573      2.496      3.967
REMARK  12 active torsions:
REMARK  status: ('A' for Active; 'I' for Inactive)
REMARK    1  A    between atoms: C3_5  and  C4_6 
REMARK    2  A    between atoms: C3_5  and  N5_12 
REMARK    3  A    between atoms: C4_6  and  N2_7 
REMARK       I    between atoms: N5_12  and  C6_14 
REMARK    4  A    between atoms: N7_16  and  C7_18 
REMARK    5  A    between atoms: C7_18  and  C8_19 
REMARK    6  A    between atoms: C8_19  and  C9_20 
REMARK    7  A    between atoms: C9_20  and  N8_21 
REMARK    8  A    between atoms: C9_20  and  C10_25 
REMARK    9  A    between atoms: C10_25  and  C11_26 
REMARK   10  A    between atoms: C11_26  and  C12_27 
REMARK   11  A    between atoms: C12_27  and  N9_28 
REMARK   12  A    between atoms: N9_28  and  C13_30 
ROOT
HETATM    1  C1  UNL     1      -9.306  23.516 -14.124  1.00  0.00     0.123 C 
HETATM    2  C2  UNL     1      -8.939  23.780 -15.263  1.00  0.00    -0.074 C 
HETATM    3  N1  UNL     1      -8.535  24.101 -16.561  1.00  0.00    -0.314 N 
ATOM      4  H1  UNL     1      -7.820  23.539 -17.022  1.00  0.00     0.176 HD
HETATM    5  C3  UNL     1      -9.056  25.097 -17.179  1.00  0.00     0.108 C 
ENDROOT
BRANCH   5   6
HETATM    6  C4  UNL     1      -8.625  25.436 -18.559  1.00  0.00     0.199 C 
BRANCH   6   7
HETATM    7  N2  UNL     1      -7.541  26.402 -18.571  1.00  0.00    -0.360 N 
HETATM    8  C5  UNL     1      -6.901  26.713 -19.640  1.00  0.00     0.197 C 
HETATM    9  N3  UNL     1      -7.233  26.112 -20.883  1.00  0.00    -0.067 NA
HETATM   10  N4  UNL     1      -5.859  27.661 -19.569  1.00  0.00    -0.067 NA
ATOM     11  H2  UNL     1      -7.277  26.853 -17.694  1.00  0.00     0.162 HD
ENDBRANCH   6   7
ENDBRANCH   5   6
BRANCH   5  12
HETATM   12  N5  UNL     1     -10.045  25.869 -16.531  1.00  0.00    -0.318 N 
HETATM   13  C6  UNL     1     -11.407  25.730 -16.898  1.00  0.00     0.189 C 
HETATM   14  N6  UNL     1     -12.060  26.639 -17.781  1.00  0.00    -0.064 NA
HETATM   15  N7  UNL     1     -12.133  24.748 -16.437  1.00  0.00    -0.364 N 
ATOM     16  H7  UNL     1     -11.699  24.078 -15.803  1.00  0.00     0.162 HD
ATOM     17  H5  UNL     1      -9.780  26.528 -15.799  1.00  0.00     0.169 HD
BRANCH  15  18
HETATM   18  C7  UNL     1     -13.506  24.572 -16.779  1.00  0.00     0.124 C 
BRANCH  18  19
HETATM   19  C8  UNL     1     -13.953  23.141 -16.784  1.00  0.00     0.052 C 
BRANCH  19  20
HETATM   20  C9  UNL     1     -15.047  22.851 -15.816  1.00  0.00     0.185 C 
BRANCH  20  21
HETATM   21  N8  UNL     1     -15.468  23.946 -15.014  1.00  0.00    -0.075 N 
ATOM     22  H83 UNL     1     -14.681  24.570 -14.837  1.00  0.00     0.274 HD
ATOM     23  H82 UNL     1     -16.072  24.563 -15.556  1.00  0.00     0.274 HD
ATOM     24  H81 UNL     1     -15.922  23.702 -14.133  1.00  0.00     0.274 HD
ENDBRANCH  20  21
BRANCH  20  25
HETATM   25  C10 UNL     1     -16.286  22.456 -16.694  1.00  0.00     0.038 C 
BRANCH  25  26
HETATM   26  C11 UNL     1     -15.758  21.676 -17.812  1.00  0.00     0.046 C 
BRANCH  26  27
HETATM   27  C12 UNL     1     -16.703  21.116 -18.787  1.00  0.00     0.063 C 
BRANCH  27  28
HETATM   28  N9  UNL     1     -16.939  21.779 -20.002  1.00  0.00    -0.348 N 
ATOM     29  H9  UNL     1     -16.596  21.294 -20.831  1.00  0.00     0.167 HD
BRANCH  28  30
HETATM   30  C13 UNL     1     -17.571  22.998 -20.253  1.00  0.00     0.352 C 
HETATM   31  O1  UNL     1     -17.098  24.136 -20.023  1.00  0.00    -0.283 OA
ENDBRANCH  28  30
ENDBRANCH  27  28
ENDBRANCH  26  27
ENDBRANCH  25  26
ENDBRANCH  20  25
ENDBRANCH  19  20
ENDBRANCH  18  19
ENDBRANCH  15  18
ENDBRANCH   5  12
TORSDOF 12
ENDMDL
MODEL 5
REMARK VINA RESULT: -6.599959611      2.210      5.171
REMARK  12 active torsions:
REMARK  status: ('A' for Active; 'I' for Inactive)
REMARK    1  A    between atoms: C3_5  and  C4_6 
REMARK    2  A    between atoms: C3_5  and  N5_12 
REMARK    3  A    between atoms: C4_6  and  N2_7 
REMARK       I    between atoms: N5_12  and  C6_14 
REMARK    4  A    between atoms: N7_16  and  C7_18 
REMARK    5  A    between atoms: C7_18  and  C8_19 
REMARK    6  A    between atoms: C8_19  and  C9_20 
REMARK    7  A    between atoms: C9_20  and  N8_21 
REMARK    8  A    between atoms: C9_20  and  C10_25 
REMARK    9  A    between atoms: C10_25  and  C11_26 
REMARK   10  A    between atoms: C11_26  and  C12_27 
REMARK   11  A    between atoms: C12_27  and  N9_28 
REMARK   12  A    between atoms: N9_28  and  C13_30 
ROOT
HETATM    1  C1  UNL     1     -12.650  24.302 -22.716  1.00  0.00     0.123 C 
HETATM    2  C2  UNL     1     -13.376  25.192 -22.291  1.00  0.00    -0.074 C 
HETATM    3  N1  UNL     1     -14.223  26.193 -21.807  1.00  0.00    -0.314 N 
ATOM      4  H1  UNL     1     -13.834  27.093 -21.526  1.00  0.00     0.176 HD
HETATM    5  C3  UNL     1     -15.485  25.989 -21.712  1.00  0.00     0.108 C 
ENDROOT
BRANCH   5   6
HETATM    6  C4  UNL     1     -16.384  27.054 -21.197  1.00  0.00     0.199 C 
BRANCH   6   7
HETATM    7  N2  UNL     1     -16.586  28.115 -22.169  1.00  0.00    -0.360 N 
HETATM    8  C5  UNL     1     -15.881  29.188 -22.180  1.00  0.00     0.197 C 
HETATM    9  N3  UNL     1     -14.850  29.386 -21.223  1.00  0.00    -0.067 NA
HETATM   10  N4  UNL     1     -16.138  30.172 -23.156  1.00  0.00    -0.067 NA
ATOM     11  H2  UNL     1     -17.318  28.003 -22.870  1.00  0.00     0.162 HD
ENDBRANCH   6   7
ENDBRANCH   5   6
BRANCH   5  12
HETATM   12  N5  UNL     1     -16.013  24.739 -22.103  1.00  0.00    -0.318 N 
HETATM   13  C6  UNL     1     -16.266  23.740 -21.130  1.00  0.00     0.189 C 
HETATM   14  N6  UNL     1     -15.366  22.663 -20.885  1.00  0.00    -0.064 NA
HETATM   15  N7  UNL     1     -17.351  23.765 -20.404  1.00  0.00    -0.364 N 
ATOM     16  H7  UNL     1     -18.018  24.522 -20.551  1.00  0.00     0.162 HD
ATOM     17  H5  UNL     1     -16.213  24.554 -23.086  1.00  0.00     0.169 HD
BRANCH  15  18
HETATM   18  C7  UNL     1     -17.645  22.780 -19.416  1.00  0.00     0.124 C 
BRANCH  18  19
HETATM   19  C8  UNL     1     -16.848  22.927 -18.154  1.00  0.00     0.052 C 
BRANCH  19  20
HETATM   20  C9  UNL     1     -16.399  21.631 -17.574  1.00  0.00     0.185 C 
BRANCH  20  21
HETATM   21  N8  UNL     1     -15.734  20.751 -18.469  1.00  0.00    -0.075 N 
ATOM     22  H83 UNL     1     -15.486  19.887 -17.987  1.00  0.00     0.274 HD
ATOM     23  H82 UNL     1     -16.394  20.392 -19.159  1.00  0.00     0.274 HD
ATOM     24  H81 UNL     1     -14.913  21.133 -18.939  1.00  0.00     0.274 HD
ENDBRANCH  20  21
BRANCH  20  25
HETATM   25  C10 UNL     1     -15.346  22.009 -16.474  1.00  0.00     0.038 C 
BRANCH  25  26
HETATM   26  C11 UNL     1     -14.938  23.383 -16.760  1.00  0.00     0.046 C 
BRANCH  26  27
HETATM   27  C12 UNL     1     -13.564  23.789 -16.437  1.00  0.00     0.063 C 
BRANCH  27  28
HETATM   28  N9  UNL     1     -13.104  25.068 -16.790  1.00  0.00    -0.348 N 
ATOM     29  H9  UNL     1     -13.168  25.768 -16.051  1.00  0.00     0.167 HD
BRANCH  28  30
HETATM   30  C13 UNL     1     -12.573  25.530 -17.995  1.00  0.00     0.352 C 
HETATM   31  O1  UNL     1     -13.187  26.185 -18.870  1.00  0.00    -0.283 OA
ENDBRANCH  28  30
ENDBRANCH  27  28
ENDBRANCH  26  27
ENDBRANCH  25  26
ENDBRANCH  20  25
ENDBRANCH  19  20
ENDBRANCH  18  19
ENDBRANCH  15  18
ENDBRANCH   5  12
TORSDOF 12
ENDMDL
