MODEL 1
REMARK VINA RESULT: -5.784008099      0.000      0.000
REMARK  10 active torsions:
REMARK  status: ('A' for Active; 'I' for Inactive)
REMARK    1  A    between atoms: N1_2  and  C4_5 
REMARK    2  A    between atoms: C4_5  and  C5_6 
REMARK    3  A    between atoms: C5_6  and  N2_7 
REMARK    4  A    between atoms: N2_7  and  C6_9 
REMARK    5  A    between atoms: C9_12  and  C10_13 
REMARK       I    between atoms: C10_13  and  N3_15 
REMARK    6  A    between atoms: N3_15  and  C11_17 
REMARK    7  A    between atoms: C11_17  and  C12_18 
REMARK    8  A    between atoms: C13_22  and  C14_23 
REMARK    9  A    between atoms: C14_23  and  N6_24 
REMARK   10  A    between atoms: N6_24  and  C15_26 
ROOT
HETATM    1  C6  UNL     1      -8.646  24.402 -15.167  1.00  0.00     0.088 A 
HETATM    2  C7  UNL     1      -9.981  23.708 -15.201  1.00  0.00     0.037 A 
HETATM    3  C8  UNL     1     -10.624  25.029 -15.610  1.00  0.00     0.051 A 
HETATM    4  C9  UNL     1     -11.039  25.030 -17.024  1.00  0.00     0.079 C 
HETATM    5  N5  UNL     1     -10.176  25.837 -17.790  1.00  0.00    -0.382 N 
ATOM      6  H5  UNL     1     -10.303  26.084 -18.771  1.00  0.00     0.160 HD
HETATM    7  C13 UNL     1      -9.075  26.255 -16.942  1.00  0.00     0.106 C 
HETATM    8  C16 UNL     1      -9.286  25.662 -15.558  1.00  0.00     0.043 A 
ENDROOT
BRANCH   1   9
HETATM    9  N2  UNL     1      -8.058  24.315 -13.824  1.00  0.00    -0.393 N 
ATOM     10  H2  UNL     1      -7.782  23.442 -13.375  1.00  0.00     0.159 HD
BRANCH   9  11
HETATM   11  C5  UNL     1      -7.919  25.593 -13.229  1.00  0.00     0.108 C 
BRANCH  11  12
HETATM   12  C4  UNL     1      -7.104  25.838 -12.050  1.00  0.00     0.217 C 
BRANCH  12  13
HETATM   13  N1  UNL     1      -7.460  25.496 -10.745  1.00  0.00    -0.057 N 
HETATM   14  C1  UNL     1      -6.963  26.488  -9.766  1.00  0.00     0.277 C 
HETATM   15  C2  UNL     1      -6.590  24.289 -10.453  1.00  0.00     0.277 C 
HETATM   16  C3  UNL     1      -8.751  25.093 -10.359  1.00  0.00     0.277 C 
ENDBRANCH  12  13
ENDBRANCH  11  12
ENDBRANCH   9  11
ENDBRANCH   1   9
BRANCH   7  17
HETATM   17  C14 UNL     1      -9.277  27.789 -16.743  1.00  0.00     0.147 C 
BRANCH  17  18
HETATM   18  N6  UNL     1      -8.111  28.258 -16.009  1.00  0.00    -0.366 N 
ATOM     19  H6  UNL     1      -8.282  28.674 -15.094  1.00  0.00     0.161 HD
BRANCH  18  20
HETATM   20  C15 UNL     1      -6.791  28.195 -16.430  1.00  0.00     0.348 C 
HETATM   21  O2  UNL     1      -6.454  28.683 -17.558  1.00  0.00    -0.284 OA
ENDBRANCH  18  20
ENDBRANCH  17  18
ENDBRANCH   7  17
BRANCH   4  22
HETATM   22  C10 UNL     1     -12.491  25.080 -17.209  1.00  0.00     0.268 C 
HETATM   23  O1  UNL     1     -13.025  25.722 -18.196  1.00  0.00    -0.266 OA
HETATM   24  N3  UNL     1     -13.383  24.439 -16.340  1.00  0.00    -0.331 N 
ATOM     25  H3  UNL     1     -12.943  23.972 -15.548  1.00  0.00     0.168 HD
BRANCH  24  26
HETATM   26  C11 UNL     1     -14.781  24.333 -16.377  1.00  0.00     0.105 C 
BRANCH  26  27
HETATM   27  C12 UNL     1     -15.462  23.286 -15.526  1.00  0.00     0.117 C 
HETATM   28  N4  UNL     1     -14.853  22.018 -15.478  1.00  0.00    -0.114 NA
ENDBRANCH  26  27
ENDBRANCH  24  26
ENDBRANCH   4  22
TORSDOF 10
ENDMDL
MODEL 2
REMARK VINA RESULT: -5.755373048      1.924      2.648
REMARK  10 active torsions:
REMARK  status: ('A' for Active; 'I' for Inactive)
REMARK    1  A    between atoms: N1_2  and  C4_5 
REMARK    2  A    between atoms: C4_5  and  C5_6 
REMARK    3  A    between atoms: C5_6  and  N2_7 
REMARK    4  A    between atoms: N2_7  and  C6_9 
REMARK    5  A    between atoms: C9_12  and  C10_13 
REMARK       I    between atoms: C10_13  and  N3_15 
REMARK    6  A    between atoms: N3_15  and  C11_17 
REMARK    7  A    between atoms: C11_17  and  C12_18 
REMARK    8  A    between atoms: C13_22  and  C14_23 
REMARK    9  A    between atoms: C14_23  and  N6_24 
REMARK   10  A    between atoms: N6_24  and  C15_26 
ROOT
HETATM    1  C6  UNL     1      -8.598  24.424 -15.113  1.00  0.00     0.088 A 
HETATM    2  C7  UNL     1      -9.977  23.828 -15.018  1.00  0.00     0.037 A 
HETATM    3  C8  UNL     1     -10.537  25.102 -15.641  1.00  0.00     0.051 A 
HETATM    4  C9  UNL     1     -10.979  24.892 -17.032  1.00  0.00     0.079 C 
HETATM    5  N5  UNL     1     -10.078  25.495 -17.931  1.00  0.00    -0.382 N 
ATOM      6  H5  UNL     1     -10.207  25.580 -18.939  1.00  0.00     0.160 HD
HETATM    7  C13 UNL     1      -8.935  25.974 -17.175  1.00  0.00     0.106 C 
HETATM    8  C16 UNL     1      -9.159  25.640 -15.709  1.00  0.00     0.043 A 
ENDROOT
BRANCH   1   9
HETATM    9  N2  UNL     1      -7.991  24.526 -13.779  1.00  0.00    -0.393 N 
ATOM     10  H2  UNL     1      -7.674  23.726 -13.232  1.00  0.00     0.159 HD
BRANCH   9  11
HETATM   11  C5  UNL     1      -7.899  25.871 -13.346  1.00  0.00     0.108 C 
BRANCH  11  12
HETATM   12  C4  UNL     1      -6.634  26.549 -13.117  1.00  0.00     0.217 C 
BRANCH  12  13
HETATM   13  N1  UNL     1      -5.966  27.337 -14.056  1.00  0.00    -0.057 N 
HETATM   14  C1  UNL     1      -5.292  26.511 -15.082  1.00  0.00     0.277 C 
HETATM   15  C2  UNL     1      -4.796  27.895 -13.270  1.00  0.00     0.277 C 
HETATM   16  C3  UNL     1      -6.528  28.462 -14.685  1.00  0.00     0.277 C 
ENDBRANCH  12  13
ENDBRANCH  11  12
ENDBRANCH   9  11
ENDBRANCH   1   9
BRANCH   7  17
HETATM   17  C14 UNL     1      -9.030  27.529 -17.240  1.00  0.00     0.147 C 
BRANCH  17  18
HETATM   18  N6  UNL     1     -10.042  27.913 -16.267  1.00  0.00    -0.366 N 
ATOM     19  H6  UNL     1      -9.841  27.704 -15.289  1.00  0.00     0.161 HD
BRANCH  18  20
HETATM   20  C15 UNL     1     -11.252  28.535 -16.537  1.00  0.00     0.348 C 
HETATM   21  O2  UNL     1     -11.990  28.942 -15.582  1.00  0.00    -0.284 OA
ENDBRANCH  18  20
ENDBRANCH  17  18
ENDBRANCH   7  17
BRANCH   4  22
HETATM   22  C10 UNL     1     -12.427  25.010 -17.213  1.00  0.00     0.268 C 
HETATM   23  O1  UNL     1     -12.934  25.732 -18.157  1.00  0.00    -0.266 OA
HETATM   24  N3  UNL     1     -13.345  24.352 -16.384  1.00  0.00    -0.331 N 
ATOM     25  H3  UNL     1     -12.924  23.820 -15.623  1.00  0.00     0.168 HD
BRANCH  24  26
HETATM   26  C11 UNL     1     -14.746  24.304 -16.426  1.00  0.00     0.105 C 
BRANCH  26  27
HETATM   27  C12 UNL     1     -15.471  23.267 -15.599  1.00  0.00     0.117 C 
HETATM   28  N4  UNL     1     -14.780  22.068 -15.341  1.00  0.00    -0.114 NA
ENDBRANCH  26  27
ENDBRANCH  24  26
ENDBRANCH   4  22
TORSDOF 10
ENDMDL
MODEL 3
REMARK VINA RESULT: -5.724123913      3.092      4.962
REMARK  10 active torsions:
REMARK  status: ('A' for Active; 'I' for Inactive)
REMARK    1  A    between atoms: N1_2  and  C4_5 
REMARK    2  A    between atoms: C4_5  and  C5_6 
REMARK    3  A    between atoms: C5_6  and  N2_7 
REMARK    4  A    between atoms: N2_7  and  C6_9 
REMARK    5  A    between atoms: C9_12  and  C10_13 
REMARK       I    between atoms: C10_13  and  N3_15 
REMARK    6  A    between atoms: N3_15  and  C11_17 
REMARK    7  A    between atoms: C11_17  and  C12_18 
REMARK    8  A    between atoms: C13_22  and  C14_23 
REMARK    9  A    between atoms: C14_23  and  N6_24 
REMARK   10  A    between atoms: N6_24  and  C15_26 
ROOT
HETATM    1  C6  UNL     1      -8.984  27.401 -15.823  1.00  0.00     0.088 A 
HETATM    2  C7  UNL     1     -10.401  27.615 -16.283  1.00  0.00     0.037 A 
HETATM    3  C8  UNL     1     -10.368  26.233 -16.928  1.00  0.00     0.051 A 
HETATM    4  C9  UNL     1     -11.182  25.254 -16.184  1.00  0.00     0.079 C 
HETATM    5  N5  UNL     1     -10.355  24.353 -15.489  1.00  0.00    -0.382 N 
ATOM      6  H5  UNL     1     -10.666  23.524 -14.983  1.00  0.00     0.160 HD
HETATM    7  C13 UNL     1      -8.982  24.807 -15.616  1.00  0.00     0.106 C 
HETATM    8  C16 UNL     1      -8.975  26.077 -16.452  1.00  0.00     0.043 A 
ENDROOT
BRANCH   1   9
HETATM    9  N2  UNL     1      -8.102  28.435 -16.380  1.00  0.00    -0.393 N 
ATOM     10  H2  UNL     1      -8.405  29.381 -16.611  1.00  0.00     0.159 HD
BRANCH   9  11
HETATM   11  C5  UNL     1      -6.781  27.958 -16.557  1.00  0.00     0.108 C 
BRANCH  11  12
HETATM   12  C4  UNL     1      -6.061  28.055 -17.816  1.00  0.00     0.217 C 
BRANCH  12  13
HETATM   13  N1  UNL     1      -5.880  27.006 -18.718  1.00  0.00    -0.057 N 
HETATM   14  C1  UNL     1      -5.221  25.845 -18.081  1.00  0.00     0.277 C 
HETATM   15  C2  UNL     1      -4.797  27.527 -19.643  1.00  0.00     0.277 C 
HETATM   16  C3  UNL     1      -6.879  26.533 -19.588  1.00  0.00     0.277 C 
ENDBRANCH  12  13
ENDBRANCH  11  12
ENDBRANCH   9  11
ENDBRANCH   1   9
BRANCH   7  17
HETATM   17  C14 UNL     1      -8.284  23.742 -16.517  1.00  0.00     0.147 C 
BRANCH  17  18
HETATM   18  N6  UNL     1      -7.640  22.805 -15.609  1.00  0.00    -0.366 N 
ATOM     19  H6  UNL     1      -8.086  22.665 -14.702  1.00  0.00     0.161 HD
BRANCH  18  20
HETATM   20  C15 UNL     1      -6.481  22.083 -15.853  1.00  0.00     0.348 C 
HETATM   21  O2  UNL     1      -6.179  21.740 -17.042  1.00  0.00    -0.284 OA
ENDBRANCH  18  20
ENDBRANCH  17  18
ENDBRANCH   7  17
BRANCH   4  22
HETATM   22  C10 UNL     1     -12.361  24.793 -16.920  1.00  0.00     0.268 C 
HETATM   23  O1  UNL     1     -12.330  24.604 -18.198  1.00  0.00    -0.266 OA
HETATM   24  N3  UNL     1     -13.584  24.526 -16.291  1.00  0.00    -0.331 N 
ATOM     25  H3  UNL     1     -13.598  24.719 -15.290  1.00  0.00     0.168 HD
BRANCH  24  26
HETATM   26  C11 UNL     1     -14.793  24.039 -16.808  1.00  0.00     0.105 C 
BRANCH  26  27
HETATM   27  C12 UNL     1     -15.191  22.608 -16.526  1.00  0.00     0.117 C 
HETATM   28  N4  UNL     1     -14.789  22.074 -15.287  1.00  0.00    -0.114 NA
ENDBRANCH  26  27
ENDBRANCH  24  26
ENDBRANCH   4  22
TORSDOF 10
ENDMDL
MODEL 4
REMARK VINA RESULT: -5.693644973      0.502      1.008
REMARK  10 active torsions:
REMARK  status: ('A' for Active; 'I' for Inactive)
REMARK    1  A    between atoms: N1_2  and  C4_5 
REMARK    2  A    between atoms: C4_5  and  C5_6 
REMARK    3  A    between atoms: C5_6  and  N2_7 
REMARK    4  A    between atoms: N2_7  and  C6_9 
REMARK    5  A    between atoms: C9_12  and  C10_13 
REMARK       I    between atoms: C10_13  and  N3_15 
REMARK    6  A    between atoms: N3_15  and  C11_17 
REMARK    7  A    between atoms: C11_17  and  C12_18 
REMARK    8  A    between atoms: C13_22  and  C14_23 
REMARK    9  A    between atoms: C14_23  and  N6_24 
REMARK   10  A    between atoms: N6_24  and  C15_26 
ROOT
HETATM    1  C6  UNL     1      -8.632  24.377 -15.183  1.00  0.00     0.088 A 
HETATM    2  C7  UNL     1      -9.966  23.681 -15.235  1.00  0.00     0.037 A 
HETATM    3  C8  UNL     1     -10.611  25.011 -15.610  1.00  0.00     0.051 A 
HETATM    4  C9  UNL     1     -11.026  25.047 -17.024  1.00  0.00     0.079 C 
HETATM    5  N5  UNL     1     -10.165  25.875 -17.768  1.00  0.00    -0.382 N 
ATOM      6  H5  UNL     1     -10.293  26.147 -18.744  1.00  0.00     0.160 HD
HETATM    7  C13 UNL     1      -9.065  26.274 -16.910  1.00  0.00     0.106 C 
HETATM    8  C16 UNL     1      -9.275  25.645 -15.542  1.00  0.00     0.043 A 
ENDROOT
BRANCH   1   9
HETATM    9  N2  UNL     1      -8.044  24.258 -13.842  1.00  0.00    -0.393 N 
ATOM     10  H2  UNL     1      -7.824  23.370 -13.391  1.00  0.00     0.159 HD
BRANCH   9  11
HETATM   11  C5  UNL     1      -7.819  25.526 -13.253  1.00  0.00     0.108 C 
BRANCH  11  12
HETATM   12  C4  UNL     1      -7.925  25.770 -11.824  1.00  0.00     0.217 C 
BRANCH  12  13
HETATM   13  N1  UNL     1      -6.845  25.877 -10.948  1.00  0.00    -0.057 N 
HETATM   14  C1  UNL     1      -6.213  24.563 -10.697  1.00  0.00     0.277 C 
HETATM   15  C2  UNL     1      -7.507  26.177  -9.616  1.00  0.00     0.277 C 
HETATM   16  C3  UNL     1      -5.833  26.848 -11.057  1.00  0.00     0.277 C 
ENDBRANCH  12  13
ENDBRANCH  11  12
ENDBRANCH   9  11
ENDBRANCH   1   9
BRANCH   7  17
HETATM   17  C14 UNL     1      -9.270  27.802 -16.672  1.00  0.00     0.147 C 
BRANCH  17  18
HETATM   18  N6  UNL     1      -8.048  28.281 -16.046  1.00  0.00    -0.366 N 
ATOM     19  H6  UNL     1      -8.147  28.756 -15.149  1.00  0.00     0.161 HD
BRANCH  18  20
HETATM   20  C15 UNL     1      -6.760  28.156 -16.547  1.00  0.00     0.348 C 
HETATM   21  O2  UNL     1      -6.443  28.718 -17.646  1.00  0.00    -0.284 OA
ENDBRANCH  18  20
ENDBRANCH  17  18
ENDBRANCH   7  17
BRANCH   4  22
HETATM   22  C10 UNL     1     -12.478  25.098 -17.208  1.00  0.00     0.268 C 
HETATM   23  O1  UNL     1     -13.015  25.787 -18.161  1.00  0.00    -0.266 OA
HETATM   24  N3  UNL     1     -13.368  24.409 -16.374  1.00  0.00    -0.331 N 
ATOM     25  H3  UNL     1     -12.926  23.904 -15.607  1.00  0.00     0.168 HD
BRANCH  24  26
HETATM   26  C11 UNL     1     -14.765  24.297 -16.419  1.00  0.00     0.105 C 
BRANCH  26  27
HETATM   27  C12 UNL     1     -15.399  22.932 -16.279  1.00  0.00     0.117 C 
HETATM   28  N4  UNL     1     -14.806  22.053 -15.353  1.00  0.00    -0.114 NA
ENDBRANCH  26  27
ENDBRANCH  24  26
ENDBRANCH   4  22
TORSDOF 10
ENDMDL
MODEL 5
REMARK VINA RESULT: -5.660604563      2.869      3.953
REMARK  10 active torsions:
REMARK  status: ('A' for Active; 'I' for Inactive)
REMARK    1  A    between atoms: N1_2  and  C4_5 
REMARK    2  A    between atoms: C4_5  and  C5_6 
REMARK    3  A    between atoms: C5_6  and  N2_7 
REMARK    4  A    between atoms: N2_7  and  C6_9 
REMARK    5  A    between atoms: C9_12  and  C10_13 
REMARK       I    between atoms: C10_13  and  N3_15 
REMARK    6  A    between atoms: N3_15  and  C11_17 
REMARK    7  A    between atoms: C11_17  and  C12_18 
REMARK    8  A    between atoms: C13_22  and  C14_23 
REMARK    9  A    between atoms: C14_23  and  N6_24 
REMARK   10  A    between atoms: N6_24  and  C15_26 
ROOT
HETATM    1  C6  UNL     1      -9.280  25.413 -15.233  1.00  0.00     0.088 A 
HETATM    2  C7  UNL     1     -10.714  25.104 -15.572  1.00  0.00     0.037 A 
HETATM    3  C8  UNL     1     -10.554  25.914 -16.854  1.00  0.00     0.051 A 
HETATM    4  C9  UNL     1     -10.505  25.056 -18.051  1.00  0.00     0.079 C 
HETATM    5  N5  UNL     1      -9.196  25.002 -18.565  1.00  0.00    -0.382 N 
ATOM      6  H5  UNL     1      -8.915  24.561 -19.441  1.00  0.00     0.160 HD
HETATM    7  C13 UNL     1      -8.314  25.682 -17.634  1.00  0.00     0.106 C 
HETATM    8  C16 UNL     1      -9.150  26.189 -16.470  1.00  0.00     0.043 A 
ENDROOT
BRANCH   1   9
HETATM    9  N2  UNL     1      -9.200  26.132 -13.955  1.00  0.00    -0.393 N 
ATOM     10  H2  UNL     1      -9.936  26.736 -13.591  1.00  0.00     0.159 HD
BRANCH   9  11
HETATM   11  C5  UNL     1      -7.974  25.884 -13.290  1.00  0.00     0.108 C 
BRANCH  11  12
HETATM   12  C4  UNL     1      -6.921  26.878 -13.166  1.00  0.00     0.217 C 
BRANCH  12  13
HETATM   13  N1  UNL     1      -6.138  27.352 -14.219  1.00  0.00    -0.057 N 
HETATM   14  C1  UNL     1      -5.593  26.246 -15.036  1.00  0.00     0.277 C 
HETATM   15  C2  UNL     1      -4.900  27.881 -13.521  1.00  0.00     0.277 C 
HETATM   16  C3  UNL     1      -6.522  28.398 -15.079  1.00  0.00     0.277 C 
ENDBRANCH  12  13
ENDBRANCH  11  12
ENDBRANCH   9  11
ENDBRANCH   1   9
BRANCH   7  17
HETATM   17  C14 UNL     1      -7.857  26.974 -18.378  1.00  0.00     0.147 C 
BRANCH  17  18
HETATM   18  N6  UNL     1      -6.593  26.645 -19.018  1.00  0.00    -0.366 N 
ATOM     19  H6  UNL     1      -5.760  26.667 -18.428  1.00  0.00     0.161 HD
BRANCH  18  20
HETATM   20  C15 UNL     1      -6.405  26.305 -20.350  1.00  0.00     0.348 C 
HETATM   21  O2  UNL     1      -7.399  25.966 -21.070  1.00  0.00    -0.284 OA
ENDBRANCH  18  20
ENDBRANCH  17  18
ENDBRANCH   7  17
BRANCH   4  22
HETATM   22  C10 UNL     1     -11.663  25.214 -18.934  1.00  0.00     0.268 C 
HETATM   23  O1  UNL     1     -12.646  25.996 -18.626  1.00  0.00    -0.266 OA
HETATM   24  N3  UNL     1     -11.777  24.538 -20.155  1.00  0.00    -0.331 N 
ATOM     25  H3  UNL     1     -11.010  23.898 -20.359  1.00  0.00     0.168 HD
BRANCH  24  26
HETATM   26  C11 UNL     1     -12.769  24.594 -21.144  1.00  0.00     0.105 C 
BRANCH  26  27
HETATM   27  C12 UNL     1     -12.359  24.593 -22.599  1.00  0.00     0.117 C 
HETATM   28  N4  UNL     1     -10.982  24.707 -22.867  1.00  0.00    -0.114 NA
ENDBRANCH  26  27
ENDBRANCH  24  26
ENDBRANCH   4  22
TORSDOF 10
ENDMDL
