MODEL 1
REMARK VINA RESULT: -6.824623918      0.000      0.000
REMARK  13 active torsions:
REMARK  status: ('A' for Active; 'I' for Inactive)
REMARK    1  A    between atoms: C2_2  and  C3_3 
REMARK    2  A    between atoms: C3_3  and  C4_4 
REMARK    3  A    between atoms: C4_4  and  C5_5 
REMARK    4  A    between atoms: C5_5  and  N1_6 
REMARK    5  A    between atoms: N1_6  and  C6_9 
REMARK    6  A    between atoms: C6_9  and  C7_10 
REMARK    7  A    between atoms: C7_10  and  O1_11 
REMARK    8  A    between atoms: C7_10  and  N2_13 
REMARK    9  A    between atoms: C9_15  and  N3_16 
REMARK       I    between atoms: N3_16  and  C10_18 
REMARK   10  A    between atoms: C11_23  and  C12_24 
REMARK   11  A    between atoms: C12_24  and  N6_25 
REMARK   12  A    between atoms: C13_30  and  C14_31 
REMARK   13  A    between atoms: C14_31  and  O2_32 
ROOT
HETATM    1  N2  UNL     1     -11.512  25.803 -16.898  1.00  0.00    -0.355 N 
HETATM    2  C8  UNL     1     -10.471  25.123 -16.066  1.00  0.00     0.150 C 
HETATM    3  C9  UNL     1      -9.374  25.307 -17.141  1.00  0.00     0.109 C 
HETATM    4  C11 UNL     1      -9.395  26.785 -17.248  1.00  0.00     0.054 C 
HETATM    5  C13 UNL     1     -10.908  27.072 -17.126  1.00  0.00     0.117 C 
ENDROOT
BRANCH   1   6
HETATM    6  C7  UNL     1     -12.679  25.171 -17.241  1.00  0.00     0.140 C 
BRANCH   6   7
HETATM    7  C6  UNL     1     -13.289  23.971 -16.657  1.00  0.00     0.315 C 
BRANCH   7   8
HETATM    8  N1  UNL     1     -14.476  24.241 -15.943  1.00  0.00    -0.068 N 
ATOM      9  H12 UNL     1     -15.017  24.974 -16.401  1.00  0.00     0.277 HD
ATOM     10  H11 UNL     1     -14.271  24.712 -15.062  1.00  0.00     0.277 HD
BRANCH   8  11
HETATM   11  C5  UNL     1     -15.307  23.039 -15.716  1.00  0.00     0.232 C 
BRANCH  11  12
HETATM   12  C4  UNL     1     -15.430  22.310 -17.015  1.00  0.00     0.027 C 
BRANCH  12  13
HETATM   13  C3  UNL     1     -16.862  22.120 -17.479  1.00  0.00     0.001 C 
BRANCH  13  14
HETATM   14  C2  UNL     1     -16.833  21.625 -18.905  1.00  0.00    -0.005 C 
HETATM   15  C1  UNL     1     -17.607  22.596 -19.801  1.00  0.00     0.005 C 
ENDBRANCH  13  14
ENDBRANCH  12  13
ENDBRANCH  11  12
ENDBRANCH   8  11
ENDBRANCH   7   8
ENDBRANCH   6   7
BRANCH   6  16
HETATM   16  O1  UNL     1     -13.417  25.650 -18.220  1.00  0.00    -0.348 OA
ATOM     17  H1  UNL     1     -12.880  26.078 -18.877  1.00  0.00     0.219 HD
ENDBRANCH   6  16
ENDBRANCH   1   6
BRANCH   5  18
HETATM   18  C14 UNL     1     -11.240  27.931 -15.931  1.00  0.00     0.189 C 
BRANCH  18  19
HETATM   19  O2  UNL     1     -11.682  29.195 -16.210  1.00  0.00    -0.399 OA
ATOM     20  H2  UNL     1     -11.117  29.719 -16.766  1.00  0.00     0.209 HD
ENDBRANCH  18  19
ENDBRANCH   5  18
BRANCH   3  21
HETATM   21  N3  UNL     1      -8.198  24.620 -16.858  1.00  0.00    -0.358 N 
HETATM   22  C10 UNL     1      -7.039  24.787 -17.663  1.00  0.00     0.182 C 
HETATM   23  N4  UNL     1      -7.126  25.454 -18.785  1.00  0.00    -0.374 N 
HETATM   24  N5  UNL     1      -5.788  24.249 -17.280  1.00  0.00    -0.064 NA
ATOM     25  H42 UNL     1      -8.028  25.842 -19.061  1.00  0.00     0.158 HD
ATOM     26  H41 UNL     1      -6.294  25.574 -19.363  1.00  0.00     0.158 HD
ATOM     27  H3  UNL     1      -8.168  23.985 -16.060  1.00  0.00     0.162 HD
ENDBRANCH   3  21
BRANCH   4  28
HETATM   28  C12 UNL     1      -8.644  27.561 -16.232  1.00  0.00     0.147 C 
BRANCH  28  29
HETATM   29  N6  UNL     1      -7.484  28.247 -16.685  1.00  0.00    -0.342 N 
HETATM   30  N7  UNL     1      -6.379  28.008 -16.186  1.00  0.00    -0.349 N 
ATOM     31  H72 UNL     1      -6.317  27.309 -15.446  1.00  0.00     0.176 HD
ATOM     32  H71 UNL     1      -5.548  28.500 -16.511  1.00  0.00     0.176 HD
ATOM     33  H6  UNL     1      -7.564  28.942 -17.427  1.00  0.00     0.179 HD
ENDBRANCH  28  29
ENDBRANCH   4  28
TORSDOF 13
ENDMDL
MODEL 2
REMARK VINA RESULT: -6.661642343      1.898      3.081
REMARK  13 active torsions:
REMARK  status: ('A' for Active; 'I' for Inactive)
REMARK    1  A    between atoms: C2_2  and  C3_3 
REMARK    2  A    between atoms: C3_3  and  C4_4 
REMARK    3  A    between atoms: C4_4  and  C5_5 
REMARK    4  A    between atoms: C5_5  and  N1_6 
REMARK    5  A    between atoms: N1_6  and  C6_9 
REMARK    6  A    between atoms: C6_9  and  C7_10 
REMARK    7  A    between atoms: C7_10  and  O1_11 
REMARK    8  A    between atoms: C7_10  and  N2_13 
REMARK    9  A    between atoms: C9_15  and  N3_16 
REMARK       I    between atoms: N3_16  and  C10_18 
REMARK   10  A    between atoms: C11_23  and  C12_24 
REMARK   11  A    between atoms: C12_24  and  N6_25 
REMARK   12  A    between atoms: C13_30  and  C14_31 
REMARK   13  A    between atoms: C14_31  and  O2_32 
ROOT
HETATM    1  N2  UNL     1     -12.460  24.930 -17.187  1.00  0.00    -0.355 N 
HETATM    2  C8  UNL     1     -11.884  26.247 -16.772  1.00  0.00     0.150 C 
HETATM    3  C9  UNL     1     -10.659  25.591 -16.093  1.00  0.00     0.109 C 
HETATM    4  C11 UNL     1     -10.102  24.868 -17.261  1.00  0.00     0.054 C 
HETATM    5  C13 UNL     1     -11.393  24.385 -17.957  1.00  0.00     0.117 C 
ENDROOT
BRANCH   1   6
HETATM    6  C7  UNL     1     -13.718  24.545 -16.801  1.00  0.00     0.140 C 
BRANCH   6   7
HETATM    7  C6  UNL     1     -14.144  23.310 -16.133  1.00  0.00     0.315 C 
BRANCH   7   8
HETATM    8  N1  UNL     1     -15.485  22.963 -16.407  1.00  0.00    -0.068 N 
ATOM      9  H12 UNL     1     -16.024  23.784 -16.682  1.00  0.00     0.277 HD
ATOM     10  H11 UNL     1     -15.979  22.718 -15.549  1.00  0.00     0.277 HD
BRANCH   8  11
HETATM   11  C5  UNL     1     -15.615  21.888 -17.414  1.00  0.00     0.232 C 
BRANCH  11  12
HETATM   12  C4  UNL     1     -16.956  22.019 -18.061  1.00  0.00     0.027 C 
BRANCH  12  13
HETATM   13  C3  UNL     1     -16.927  21.865 -19.570  1.00  0.00     0.001 C 
BRANCH  13  14
HETATM   14  C2  UNL     1     -17.955  22.802 -20.158  1.00  0.00    -0.005 C 
HETATM   15  C1  UNL     1     -17.268  24.091 -20.622  1.00  0.00     0.005 C 
ENDBRANCH  13  14
ENDBRANCH  12  13
ENDBRANCH  11  12
ENDBRANCH   8  11
ENDBRANCH   7   8
ENDBRANCH   6   7
BRANCH   6  16
HETATM   16  O1  UNL     1     -14.742  25.342 -17.022  1.00  0.00    -0.348 OA
ATOM     17  H1  UNL     1     -14.476  26.112 -17.511  1.00  0.00     0.219 HD
ENDBRANCH   6  16
ENDBRANCH   1   6
BRANCH   5  18
HETATM   18  C14 UNL     1     -11.541  24.937 -19.353  1.00  0.00     0.189 C 
BRANCH  18  19
HETATM   19  O2  UNL     1     -12.224  24.147 -20.237  1.00  0.00    -0.399 OA
ATOM     20  H2  UNL     1     -13.166  24.266 -20.257  1.00  0.00     0.209 HD
ENDBRANCH  18  19
ENDBRANCH   5  18
BRANCH   3  21
HETATM   21  N3  UNL     1      -9.885  26.485 -15.360  1.00  0.00    -0.358 N 
HETATM   22  C10 UNL     1      -8.913  26.024 -14.433  1.00  0.00     0.182 C 
HETATM   23  N4  UNL     1      -8.865  24.753 -14.129  1.00  0.00    -0.374 N 
HETATM   24  N5  UNL     1      -7.990  26.909 -13.826  1.00  0.00    -0.064 NA
ATOM     25  H42 UNL     1      -9.530  24.115 -14.567  1.00  0.00     0.158 HD
ATOM     26  H41 UNL     1      -8.167  24.422 -13.463  1.00  0.00     0.158 HD
ATOM     27  H3  UNL     1     -10.019  27.488 -15.491  1.00  0.00     0.162 HD
ENDBRANCH   3  21
BRANCH   4  28
HETATM   28  C12 UNL     1      -9.265  25.637 -18.213  1.00  0.00     0.147 C 
BRANCH  28  29
HETATM   29  N6  UNL     1      -7.871  25.357 -18.206  1.00  0.00    -0.342 N 
HETATM   30  N7  UNL     1      -7.394  24.573 -17.379  1.00  0.00    -0.349 N 
ATOM     31  H72 UNL     1      -8.019  24.131 -16.704  1.00  0.00     0.176 HD
ATOM     32  H71 UNL     1      -6.395  24.372 -17.374  1.00  0.00     0.176 HD
ATOM     33  H6  UNL     1      -7.261  25.806 -18.888  1.00  0.00     0.179 HD
ENDBRANCH  28  29
ENDBRANCH   4  28
TORSDOF 13
ENDMDL
MODEL 3
REMARK VINA RESULT: -6.643065405      1.861      2.466
REMARK  13 active torsions:
REMARK  status: ('A' for Active; 'I' for Inactive)
REMARK    1  A    between atoms: C2_2  and  C3_3 
REMARK    2  A    between atoms: C3_3  and  C4_4 
REMARK    3  A    between atoms: C4_4  and  C5_5 
REMARK    4  A    between atoms: C5_5  and  N1_6 
REMARK    5  A    between atoms: N1_6  and  C6_9 
REMARK    6  A    between atoms: C6_9  and  C7_10 
REMARK    7  A    between atoms: C7_10  and  O1_11 
REMARK    8  A    between atoms: C7_10  and  N2_13 
REMARK    9  A    between atoms: C9_15  and  N3_16 
REMARK       I    between atoms: N3_16  and  C10_18 
REMARK   10  A    between atoms: C11_23  and  C12_24 
REMARK   11  A    between atoms: C12_24  and  N6_25 
REMARK   12  A    between atoms: C13_30  and  C14_31 
REMARK   13  A    between atoms: C14_31  and  O2_32 
ROOT
HETATM    1  N2  UNL     1      -9.989  26.304 -17.240  1.00  0.00    -0.355 N 
HETATM    2  C8  UNL     1      -9.028  25.296 -17.786  1.00  0.00     0.150 C 
HETATM    3  C9  UNL     1      -7.968  26.370 -18.125  1.00  0.00     0.109 C 
HETATM    4  C11 UNL     1      -7.765  26.936 -16.771  1.00  0.00     0.054 C 
HETATM    5  C13 UNL     1      -9.207  26.917 -16.220  1.00  0.00     0.117 C 
ENDROOT
BRANCH   1   6
HETATM    6  C7  UNL     1     -11.255  26.437 -17.750  1.00  0.00     0.140 C 
BRANCH   6   7
HETATM    7  C6  UNL     1     -12.303  25.422 -17.903  1.00  0.00     0.315 C 
BRANCH   7   8
HETATM    8  N1  UNL     1     -13.046  25.206 -16.722  1.00  0.00    -0.068 N 
ATOM      9  H12 UNL     1     -13.904  25.759 -16.726  1.00  0.00     0.277 HD
ATOM     10  H11 UNL     1     -12.580  25.627 -15.918  1.00  0.00     0.277 HD
BRANCH   8  11
HETATM   11  C5  UNL     1     -13.342  23.780 -16.471  1.00  0.00     0.232 C 
BRANCH  11  12
HETATM   12  C4  UNL     1     -14.779  23.669 -16.071  1.00  0.00     0.027 C 
BRANCH  12  13
HETATM   13  C3  UNL     1     -15.326  22.255 -16.136  1.00  0.00     0.001 C 
BRANCH  13  14
HETATM   14  C2  UNL     1     -16.420  22.222 -17.176  1.00  0.00    -0.005 C 
HETATM   15  C1  UNL     1     -16.006  21.302 -18.329  1.00  0.00     0.005 C 
ENDBRANCH  13  14
ENDBRANCH  12  13
ENDBRANCH  11  12
ENDBRANCH   8  11
ENDBRANCH   7   8
ENDBRANCH   6   7
BRANCH   6  16
HETATM   16  O1  UNL     1     -11.666  27.611 -18.180  1.00  0.00    -0.348 OA
ATOM     17  H1  UNL     1     -11.399  28.305 -17.588  1.00  0.00     0.219 HD
ENDBRANCH   6  16
ENDBRANCH   1   6
BRANCH   5  18
HETATM   18  C14 UNL     1      -9.347  26.054 -14.991  1.00  0.00     0.189 C 
BRANCH  18  19
HETATM   19  O2  UNL     1      -9.108  26.676 -13.795  1.00  0.00    -0.399 OA
ATOM     20  H2  UNL     1      -8.194  26.819 -13.578  1.00  0.00     0.209 HD
ENDBRANCH  18  19
ENDBRANCH   5  18
BRANCH   3  21
HETATM   21  N3  UNL     1      -6.900  25.879 -18.871  1.00  0.00    -0.358 N 
HETATM   22  C10 UNL     1      -6.219  26.704 -19.806  1.00  0.00     0.182 C 
HETATM   23  N4  UNL     1      -6.709  27.881 -20.103  1.00  0.00    -0.374 N 
HETATM   24  N5  UNL     1      -5.019  26.285 -20.428  1.00  0.00    -0.064 NA
ATOM     25  H42 UNL     1      -7.574  28.184 -19.655  1.00  0.00     0.158 HD
ATOM     26  H41 UNL     1      -6.220  28.473 -20.774  1.00  0.00     0.158 HD
ATOM     27  H3  UNL     1      -6.602  24.912 -18.745  1.00  0.00     0.162 HD
ENDBRANCH   3  21
BRANCH   4  28
HETATM   28  C12 UNL     1      -6.856  26.212 -15.850  1.00  0.00     0.147 C 
BRANCH  28  29
HETATM   29  N6  UNL     1      -5.979  27.008 -15.063  1.00  0.00    -0.342 N 
HETATM   30  N7  UNL     1      -6.405  27.998 -14.459  1.00  0.00    -0.349 N 
ATOM     31  H72 UNL     1      -7.395  28.231 -14.535  1.00  0.00     0.176 HD
ATOM     32  H71 UNL     1      -5.776  28.569 -13.895  1.00  0.00     0.176 HD
ATOM     33  H6  UNL     1      -4.992  26.760 -14.997  1.00  0.00     0.179 HD
ENDBRANCH  28  29
ENDBRANCH   4  28
TORSDOF 13
ENDMDL
MODEL 4
REMARK VINA RESULT: -6.610641920      1.195      1.453
REMARK  13 active torsions:
REMARK  status: ('A' for Active; 'I' for Inactive)
REMARK    1  A    between atoms: C2_2  and  C3_3 
REMARK    2  A    between atoms: C3_3  and  C4_4 
REMARK    3  A    between atoms: C4_4  and  C5_5 
REMARK    4  A    between atoms: C5_5  and  N1_6 
REMARK    5  A    between atoms: N1_6  and  C6_9 
REMARK    6  A    between atoms: C6_9  and  C7_10 
REMARK    7  A    between atoms: C7_10  and  O1_11 
REMARK    8  A    between atoms: C7_10  and  N2_13 
REMARK    9  A    between atoms: C9_15  and  N3_16 
REMARK       I    between atoms: N3_16  and  C10_18 
REMARK   10  A    between atoms: C11_23  and  C12_24 
REMARK   11  A    between atoms: C12_24  and  N6_25 
REMARK   12  A    between atoms: C13_30  and  C14_31 
REMARK   13  A    between atoms: C14_31  and  O2_32 
ROOT
HETATM    1  N2  UNL     1     -10.635  25.846 -17.641  1.00  0.00    -0.355 N 
HETATM    2  C8  UNL     1      -9.634  24.948 -16.985  1.00  0.00     0.150 C 
HETATM    3  C9  UNL     1      -8.434  25.669 -17.644  1.00  0.00     0.109 C 
HETATM    4  C11 UNL     1      -8.665  27.037 -17.121  1.00  0.00     0.054 C 
HETATM    5  C13 UNL     1     -10.205  27.126 -17.190  1.00  0.00     0.117 C 
ENDROOT
BRANCH   1   6
HETATM    6  C7  UNL     1     -11.630  25.346 -18.441  1.00  0.00     0.140 C 
BRANCH   6   7
HETATM    7  C6  UNL     1     -13.032  25.066 -18.110  1.00  0.00     0.315 C 
BRANCH   7   8
HETATM    8  N1  UNL     1     -13.261  24.934 -16.723  1.00  0.00    -0.068 N 
ATOM      9  H12 UNL     1     -13.898  25.657 -16.390  1.00  0.00     0.277 HD
ATOM     10  H11 UNL     1     -12.428  25.188 -16.192  1.00  0.00     0.277 HD
BRANCH   8  11
HETATM   11  C5  UNL     1     -13.742  23.591 -16.337  1.00  0.00     0.232 C 
BRANCH  11  12
HETATM   12  C4  UNL     1     -15.185  23.705 -15.964  1.00  0.00     0.027 C 
BRANCH  12  13
HETATM   13  C3  UNL     1     -15.976  22.427 -16.172  1.00  0.00     0.001 C 
BRANCH  13  14
HETATM   14  C2  UNL     1     -15.760  21.966 -17.593  1.00  0.00    -0.005 C 
HETATM   15  C1  UNL     1     -17.113  21.825 -18.298  1.00  0.00     0.005 C 
ENDBRANCH  13  14
ENDBRANCH  12  13
ENDBRANCH  11  12
ENDBRANCH   8  11
ENDBRANCH   7   8
ENDBRANCH   6   7
BRANCH   6  16
HETATM   16  O1  UNL     1     -11.372  25.055 -19.698  1.00  0.00    -0.348 OA
ATOM     17  H1  UNL     1     -12.104  25.284 -20.260  1.00  0.00     0.219 HD
ENDBRANCH   6  16
ENDBRANCH   1   6
BRANCH   5  18
HETATM   18  C14 UNL     1     -10.835  27.342 -15.836  1.00  0.00     0.189 C 
BRANCH  18  19
HETATM   19  O2  UNL     1     -11.859  28.248 -15.792  1.00  0.00    -0.399 OA
ATOM     20  H2  UNL     1     -11.625  29.124 -15.510  1.00  0.00     0.209 HD
ENDBRANCH  18  19
ENDBRANCH   5  18
BRANCH   3  21
HETATM   21  N3  UNL     1      -7.220  25.017 -17.451  1.00  0.00    -0.358 N 
HETATM   22  C10 UNL     1      -6.078  25.347 -18.229  1.00  0.00     0.182 C 
HETATM   23  N4  UNL     1      -6.210  26.144 -19.258  1.00  0.00    -0.374 N 
HETATM   24  N5  UNL     1      -4.797  24.835 -17.918  1.00  0.00    -0.064 NA
ATOM     25  H42 UNL     1      -7.134  26.514 -19.483  1.00  0.00     0.158 HD
ATOM     26  H41 UNL     1      -5.390  26.381 -19.817  1.00  0.00     0.158 HD
ATOM     27  H3  UNL     1      -7.149  24.290 -16.739  1.00  0.00     0.162 HD
ENDBRANCH   3  21
BRANCH   4  28
HETATM   28  C12 UNL     1      -8.196  27.338 -15.746  1.00  0.00     0.147 C 
BRANCH  28  29
HETATM   29  N6  UNL     1      -7.477  28.551 -15.570  1.00  0.00    -0.342 N 
HETATM   30  N7  UNL     1      -6.802  28.738 -14.553  1.00  0.00    -0.349 N 
ATOM     31  H72 UNL     1      -6.771  28.006 -13.843  1.00  0.00     0.176 HD
ATOM     32  H71 UNL     1      -6.286  29.608 -14.427  1.00  0.00     0.176 HD
ATOM     33  H6  UNL     1      -7.518  29.272 -16.290  1.00  0.00     0.179 HD
ENDBRANCH  28  29
ENDBRANCH   4  28
TORSDOF 13
ENDMDL
MODEL 5
REMARK VINA RESULT: -6.517852155      0.967      1.307
REMARK  13 active torsions:
REMARK  status: ('A' for Active; 'I' for Inactive)
REMARK    1  A    between atoms: C2_2  and  C3_3 
REMARK    2  A    between atoms: C3_3  and  C4_4 
REMARK    3  A    between atoms: C4_4  and  C5_5 
REMARK    4  A    between atoms: C5_5  and  N1_6 
REMARK    5  A    between atoms: N1_6  and  C6_9 
REMARK    6  A    between atoms: C6_9  and  C7_10 
REMARK    7  A    between atoms: C7_10  and  O1_11 
REMARK    8  A    between atoms: C7_10  and  N2_13 
REMARK    9  A    between atoms: C9_15  and  N3_16 
REMARK       I    between atoms: N3_16  and  C10_18 
REMARK   10  A    between atoms: C11_23  and  C12_24 
REMARK   11  A    between atoms: C12_24  and  N6_25 
REMARK   12  A    between atoms: C13_30  and  C14_31 
REMARK   13  A    between atoms: C14_31  and  O2_32 
ROOT
HETATM    1  N2  UNL     1     -11.565  25.689 -16.942  1.00  0.00    -0.355 N 
HETATM    2  C8  UNL     1     -10.492  24.954 -16.202  1.00  0.00     0.150 C 
HETATM    3  C9  UNL     1      -9.489  25.075 -17.372  1.00  0.00     0.109 C 
HETATM    4  C11 UNL     1      -9.438  26.551 -17.488  1.00  0.00     0.054 C 
HETATM    5  C13 UNL     1     -10.915  26.921 -17.233  1.00  0.00     0.117 C 
ENDROOT
BRANCH   1   6
HETATM    6  C7  UNL     1     -12.792  25.122 -17.175  1.00  0.00     0.140 C 
BRANCH   6   7
HETATM    7  C6  UNL     1     -13.380  23.913 -16.587  1.00  0.00     0.315 C 
BRANCH   7   8
HETATM    8  N1  UNL     1     -14.574  24.163 -15.877  1.00  0.00    -0.068 N 
ATOM      9  H12 UNL     1     -15.137  24.869 -16.352  1.00  0.00     0.277 HD
ATOM     10  H11 UNL     1     -14.382  24.660 -15.007  1.00  0.00     0.277 HD
BRANCH   8  11
HETATM   11  C5  UNL     1     -15.368  22.942 -15.622  1.00  0.00     0.232 C 
BRANCH  11  12
HETATM   12  C4  UNL     1     -15.456  22.172 -16.901  1.00  0.00     0.027 C 
BRANCH  12  13
HETATM   13  C3  UNL     1     -16.851  22.129 -17.497  1.00  0.00     0.001 C 
BRANCH  13  14
HETATM   14  C2  UNL     1     -16.737  21.659 -18.927  1.00  0.00    -0.005 C 
HETATM   15  C1  UNL     1     -17.546  22.587 -19.839  1.00  0.00     0.005 C 
ENDBRANCH  13  14
ENDBRANCH  12  13
ENDBRANCH  11  12
ENDBRANCH   8  11
ENDBRANCH   7   8
ENDBRANCH   6   7
BRANCH   6  16
HETATM   16  O1  UNL     1     -13.619  25.684 -18.030  1.00  0.00    -0.348 OA
ATOM     17  H1  UNL     1     -13.158  26.274 -18.616  1.00  0.00     0.219 HD
ENDBRANCH   6  16
ENDBRANCH   1   6
BRANCH   5  18
HETATM   18  C14 UNL     1     -11.091  27.801 -16.020  1.00  0.00     0.189 C 
BRANCH  18  19
HETATM   19  O2  UNL     1     -11.626  29.038 -16.253  1.00  0.00    -0.399 OA
ATOM     20  H2  UNL     1     -11.645  29.628 -15.509  1.00  0.00     0.209 HD
ENDBRANCH  18  19
ENDBRANCH   5  18
BRANCH   3  21
HETATM   21  N3  UNL     1      -8.331  24.324 -17.191  1.00  0.00    -0.358 N 
HETATM   22  C10 UNL     1      -8.198  23.437 -16.088  1.00  0.00     0.182 C 
HETATM   23  N4  UNL     1      -9.094  23.457 -15.135  1.00  0.00    -0.374 N 
HETATM   24  N5  UNL     1      -7.117  22.529 -15.994  1.00  0.00    -0.064 NA
ATOM     25  H42 UNL     1      -9.874  24.111 -15.202  1.00  0.00     0.158 HD
ATOM     26  H41 UNL     1      -8.999  22.821 -14.343  1.00  0.00     0.158 HD
ATOM     27  H3  UNL     1      -7.566  24.411 -17.860  1.00  0.00     0.162 HD
ENDBRANCH   3  21
BRANCH   4  28
HETATM   28  C12 UNL     1      -8.556  27.287 -16.549  1.00  0.00     0.147 C 
BRANCH  28  29
HETATM   29  N6  UNL     1      -7.391  27.882 -17.104  1.00  0.00    -0.342 N 
HETATM   30  N7  UNL     1      -6.983  27.541 -18.219  1.00  0.00    -0.349 N 
ATOM     31  H72 UNL     1      -7.499  26.826 -18.733  1.00  0.00     0.176 HD
ATOM     32  H71 UNL     1      -6.147  27.968 -18.617  1.00  0.00     0.176 HD
ATOM     33  H6  UNL     1      -6.888  28.596 -16.578  1.00  0.00     0.179 HD
ENDBRANCH  28  29
ENDBRANCH   4  28
TORSDOF 13
ENDMDL
