MODEL 1
REMARK VINA RESULT: -6.184198820      0.000      0.000
REMARK  12 active torsions:
REMARK  status: ('A' for Active; 'I' for Inactive)
REMARK    1  A    between atoms: O1_2  and  C2_3 
REMARK    2  A    between atoms: C2_3  and  C4_5 
REMARK    3  A    between atoms: C2_3  and  C9_23 
REMARK    4  A    between atoms: C4_5  and  O2_6 
REMARK    5  A    between atoms: O2_6  and  C5_7 
REMARK    6  A    between atoms: C5_7  and  C6_8 
REMARK    7  A    between atoms: C6_8  and  C7_9 
REMARK    8  A    between atoms: C7_9  and  N1_10 
REMARK       I    between atoms: N1_10  and  C8_12 
REMARK       I    between atoms: C8_12  and  N3_16 
REMARK    9  A    between atoms: N3_16  and  N4_18 
REMARK   10  A    between atoms: C9_23  and  N6_24 
REMARK   11  A    between atoms: N6_24  and  C12_27 
REMARK   12  A    between atoms: C12_27  and  C13_28 
ROOT
HETATM    1  C5  UNL     1     -13.787  23.651 -16.354  1.00  0.00     0.169 C 
ENDROOT
BRANCH   1   2
HETATM    2  O2  UNL     1     -13.049  24.285 -17.318  1.00  0.00    -0.388 OA
BRANCH   2   3
HETATM    3  C4  UNL     1     -12.364  25.403 -16.926  1.00  0.00     0.207 C 
BRANCH   3   4
HETATM    4  C2  UNL     1     -11.177  25.556 -17.893  1.00  0.00     0.102 C 
HETATM    5  C3  UNL     1     -11.749  24.888 -19.185  1.00  0.00     0.050 C 
BRANCH   4   6
HETATM    6  O1  UNL     1     -11.037  26.865 -18.206  1.00  0.00    -0.381 OA
HETATM    7  C1  UNL     1     -11.484  27.798 -17.312  1.00  0.00     0.202 C 
ENDBRANCH   4   6
BRANCH   4   8
HETATM    8  C9  UNL     1     -10.009  24.741 -17.572  1.00  0.00     0.276 C 
BRANCH   8   9
HETATM    9  N6  UNL     1      -8.904  25.218 -16.843  1.00  0.00    -0.064 N 
HETATM   10  C10 UNL     1      -9.283  25.587 -15.460  1.00  0.00     0.272 C 
HETATM   11  C11 UNL     1      -7.967  24.099 -16.682  1.00  0.00     0.272 C 
BRANCH   9  12
HETATM   12  C12 UNL     1      -8.163  26.315 -17.351  1.00  0.00     0.335 C 
BRANCH  12  13
HETATM   13  C13 UNL     1      -7.472  25.955 -18.608  1.00  0.00     0.257 C 
HETATM   14  N7  UNL     1      -6.050  25.771 -18.658  1.00  0.00    -0.061 NA
HETATM   15  O3  UNL     1      -8.075  25.792 -19.685  1.00  0.00    -0.275 OA
ENDBRANCH  12  13
ENDBRANCH   9  12
ENDBRANCH   8   9
ENDBRANCH   4   8
ENDBRANCH   3   4
ENDBRANCH   2   3
ENDBRANCH   1   2
BRANCH   1  16
HETATM   16  C6  UNL     1     -14.617  22.553 -16.934  1.00  0.00     0.046 C 
BRANCH  16  17
HETATM   17  C7  UNL     1     -16.051  22.970 -17.172  1.00  0.00     0.140 C 
BRANCH  17  18
HETATM   18  N1  UNL     1     -16.821  21.814 -17.618  1.00  0.00    -0.225 N 
HETATM   19  C8  UNL     1     -16.997  21.629 -19.025  1.00  0.00     0.687 C 
HETATM   20  N2  UNL     1     -17.657  22.499 -19.722  1.00  0.00    -0.234 N 
HETATM   21  N3  UNL     1     -16.471  20.511 -19.716  1.00  0.00    -0.119 N 
ATOM     22  H22 UNL     1     -18.037  23.305 -19.224  1.00  0.00     0.174 HD
ATOM     23  H21 UNL     1     -17.783  22.367 -20.725  1.00  0.00     0.174 HD
ATOM     24  H3  UNL     1     -16.115  20.612 -20.667  1.00  0.00     0.207 HD
ATOM     25  H1  UNL     1     -17.221  21.158 -16.947  1.00  0.00     0.177 HD
BRANCH  21  26
HETATM   26  N4  UNL     1     -16.446  19.274 -19.083  1.00  0.00    -0.235 N 
HETATM   27  N5  UNL     1     -16.828  18.220 -19.693  1.00  0.00    -0.330 N 
ATOM     28  H52 UNL     1     -17.154  18.303 -20.656  1.00  0.00     0.178 HD
ATOM     29  H51 UNL     1     -16.809  17.312 -19.228  1.00  0.00     0.178 HD
ATOM     30  H4  UNL     1     -16.118  19.208 -18.119  1.00  0.00     0.208 HD
ENDBRANCH  21  26
ENDBRANCH  17  18
ENDBRANCH  16  17
ENDBRANCH   1  16
TORSDOF 12
ENDMDL
MODEL 2
REMARK VINA RESULT: -6.093660931      1.156      2.068
REMARK  12 active torsions:
REMARK  status: ('A' for Active; 'I' for Inactive)
REMARK    1  A    between atoms: O1_2  and  C2_3 
REMARK    2  A    between atoms: C2_3  and  C4_5 
REMARK    3  A    between atoms: C2_3  and  C9_23 
REMARK    4  A    between atoms: C4_5  and  O2_6 
REMARK    5  A    between atoms: O2_6  and  C5_7 
REMARK    6  A    between atoms: C5_7  and  C6_8 
REMARK    7  A    between atoms: C6_8  and  C7_9 
REMARK    8  A    between atoms: C7_9  and  N1_10 
REMARK       I    between atoms: N1_10  and  C8_12 
REMARK       I    between atoms: C8_12  and  N3_16 
REMARK    9  A    between atoms: N3_16  and  N4_18 
REMARK   10  A    between atoms: C9_23  and  N6_24 
REMARK   11  A    between atoms: N6_24  and  C12_27 
REMARK   12  A    between atoms: C12_27  and  C13_28 
ROOT
HETATM    1  C5  UNL     1     -13.767  23.708 -16.357  1.00  0.00     0.169 C 
ENDROOT
BRANCH   1   2
HETATM    2  O2  UNL     1     -12.940  24.298 -17.276  1.00  0.00    -0.388 OA
BRANCH   2   3
HETATM    3  C4  UNL     1     -12.113  25.284 -16.810  1.00  0.00     0.207 C 
BRANCH   3   4
HETATM    4  C2  UNL     1     -11.109  25.587 -17.936  1.00  0.00     0.102 C 
HETATM    5  C3  UNL     1     -11.810  24.912 -19.159  1.00  0.00     0.050 C 
BRANCH   4   6
HETATM    6  O1  UNL     1     -11.142  26.915 -18.201  1.00  0.00    -0.381 OA
HETATM    7  C1  UNL     1     -11.505  27.768 -17.197  1.00  0.00     0.202 C 
ENDBRANCH   4   6
BRANCH   4   8
HETATM    8  C9  UNL     1      -9.836  24.882 -17.835  1.00  0.00     0.276 C 
BRANCH   8   9
HETATM    9  N6  UNL     1      -8.781  25.296 -17.002  1.00  0.00    -0.064 N 
HETATM   10  C10 UNL     1      -7.713  24.273 -16.927  1.00  0.00     0.272 C 
HETATM   11  C11 UNL     1      -8.138  26.450 -17.646  1.00  0.00     0.272 C 
BRANCH   9  12
HETATM   12  C12 UNL     1      -9.062  25.667 -15.663  1.00  0.00     0.335 C 
BRANCH  12  13
HETATM   13  C13 UNL     1      -9.021  24.493 -14.765  1.00  0.00     0.257 C 
HETATM   14  N7  UNL     1      -8.007  24.349 -13.760  1.00  0.00    -0.061 NA
HETATM   15  O3  UNL     1      -9.853  23.569 -14.827  1.00  0.00    -0.275 OA
ENDBRANCH  12  13
ENDBRANCH   9  12
ENDBRANCH   8   9
ENDBRANCH   4   8
ENDBRANCH   3   4
ENDBRANCH   2   3
ENDBRANCH   1   2
BRANCH   1  16
HETATM   16  C6  UNL     1     -14.604  22.640 -16.980  1.00  0.00     0.046 C 
BRANCH  16  17
HETATM   17  C7  UNL     1     -16.054  23.045 -17.124  1.00  0.00     0.140 C 
BRANCH  17  18
HETATM   18  N1  UNL     1     -16.828  21.903 -17.598  1.00  0.00    -0.225 N 
HETATM   19  C8  UNL     1     -17.050  21.781 -19.005  1.00  0.00     0.687 C 
HETATM   20  N2  UNL     1     -17.740  22.675 -19.639  1.00  0.00    -0.234 N 
HETATM   21  N3  UNL     1     -16.537  20.701 -19.764  1.00  0.00    -0.119 N 
ATOM     22  H22 UNL     1     -18.109  23.453 -19.092  1.00  0.00     0.174 HD
ATOM     23  H21 UNL     1     -17.898  22.588 -20.643  1.00  0.00     0.174 HD
ATOM     24  H3  UNL     1     -16.214  20.849 -20.721  1.00  0.00     0.207 HD
ATOM     25  H1  UNL     1     -17.200  21.213 -16.945  1.00  0.00     0.177 HD
BRANCH  21  26
HETATM   26  N4  UNL     1     -16.480  19.437 -19.190  1.00  0.00    -0.235 N 
HETATM   27  N5  UNL     1     -16.595  18.387 -19.907  1.00  0.00    -0.330 N 
ATOM     28  H52 UNL     1     -16.731  18.495 -20.913  1.00  0.00     0.178 HD
ATOM     29  H51 UNL     1     -16.553  17.460 -19.485  1.00  0.00     0.178 HD
ATOM     30  H4  UNL     1     -16.345  19.346 -18.183  1.00  0.00     0.208 HD
ENDBRANCH  21  26
ENDBRANCH  17  18
ENDBRANCH  16  17
ENDBRANCH   1  16
TORSDOF 12
ENDMDL
MODEL 3
REMARK VINA RESULT: -6.056771010      1.117      1.288
REMARK  12 active torsions:
REMARK  status: ('A' for Active; 'I' for Inactive)
REMARK    1  A    between atoms: O1_2  and  C2_3 
REMARK    2  A    between atoms: C2_3  and  C4_5 
REMARK    3  A    between atoms: C2_3  and  C9_23 
REMARK    4  A    between atoms: C4_5  and  O2_6 
REMARK    5  A    between atoms: O2_6  and  C5_7 
REMARK    6  A    between atoms: C5_7  and  C6_8 
REMARK    7  A    between atoms: C6_8  and  C7_9 
REMARK    8  A    between atoms: C7_9  and  N1_10 
REMARK       I    between atoms: N1_10  and  C8_12 
REMARK       I    between atoms: C8_12  and  N3_16 
REMARK    9  A    between atoms: N3_16  and  N4_18 
REMARK   10  A    between atoms: C9_23  and  N6_24 
REMARK   11  A    between atoms: N6_24  and  C12_27 
REMARK   12  A    between atoms: C12_27  and  C13_28 
ROOT
HETATM    1  C5  UNL     1     -13.743  23.685 -16.399  1.00  0.00     0.169 C 
ENDROOT
BRANCH   1   2
HETATM    2  O2  UNL     1     -12.922  24.317 -17.296  1.00  0.00    -0.388 OA
BRANCH   2   3
HETATM    3  C4  UNL     1     -12.051  25.239 -16.782  1.00  0.00     0.207 C 
BRANCH   3   4
HETATM    4  C2  UNL     1     -11.060  25.585 -17.906  1.00  0.00     0.102 C 
HETATM    5  C3  UNL     1     -11.732  24.884 -19.131  1.00  0.00     0.050 C 
BRANCH   4   6
HETATM    6  O1  UNL     1     -11.146  26.910 -18.169  1.00  0.00    -0.381 OA
HETATM    7  C1  UNL     1     -11.513  27.750 -17.155  1.00  0.00     0.202 C 
ENDBRANCH   4   6
BRANCH   4   8
HETATM    8  C9  UNL     1      -9.758  24.932 -17.807  1.00  0.00     0.276 C 
BRANCH   8   9
HETATM    9  N6  UNL     1      -8.639  25.519 -17.189  1.00  0.00    -0.064 N 
HETATM   10  C10 UNL     1      -8.866  25.731 -15.741  1.00  0.00     0.272 C 
HETATM   11  C11 UNL     1      -7.541  24.544 -17.250  1.00  0.00     0.272 C 
BRANCH   9  12
HETATM   12  C12 UNL     1      -8.137  26.746 -17.691  1.00  0.00     0.335 C 
BRANCH  12  13
HETATM   13  C13 UNL     1      -7.539  27.559 -16.610  1.00  0.00     0.257 C 
HETATM   14  N7  UNL     1      -6.127  27.546 -16.353  1.00  0.00    -0.061 NA
HETATM   15  O3  UNL     1      -8.215  28.294 -15.868  1.00  0.00    -0.275 OA
ENDBRANCH  12  13
ENDBRANCH   9  12
ENDBRANCH   8   9
ENDBRANCH   4   8
ENDBRANCH   3   4
ENDBRANCH   2   3
ENDBRANCH   1   2
BRANCH   1  16
HETATM   16  C6  UNL     1     -14.593  22.655 -17.067  1.00  0.00     0.046 C 
BRANCH  16  17
HETATM   17  C7  UNL     1     -16.055  23.040 -17.102  1.00  0.00     0.140 C 
BRANCH  17  18
HETATM   18  N1  UNL     1     -16.838  21.913 -17.599  1.00  0.00    -0.225 N 
HETATM   19  C8  UNL     1     -17.027  21.800 -19.011  1.00  0.00     0.687 C 
HETATM   20  N2  UNL     1     -17.687  22.708 -19.658  1.00  0.00    -0.234 N 
HETATM   21  N3  UNL     1     -16.516  20.714 -19.762  1.00  0.00    -0.119 N 
ATOM     22  H22 UNL     1     -18.055  23.491 -19.117  1.00  0.00     0.174 HD
ATOM     23  H21 UNL     1     -17.822  22.628 -20.666  1.00  0.00     0.174 HD
ATOM     24  H3  UNL     1     -16.167  20.859 -20.710  1.00  0.00     0.207 HD
ATOM     25  H1  UNL     1     -17.237  21.227 -16.957  1.00  0.00     0.177 HD
BRANCH  21  26
HETATM   26  N4  UNL     1     -16.496  19.447 -19.192  1.00  0.00    -0.235 N 
HETATM   27  N5  UNL     1     -16.604  18.402 -19.917  1.00  0.00    -0.330 N 
ATOM     28  H52 UNL     1     -16.708  18.516 -20.925  1.00  0.00     0.178 HD
ATOM     29  H51 UNL     1     -16.589  17.472 -19.498  1.00  0.00     0.178 HD
ATOM     30  H4  UNL     1     -16.392  19.350 -18.181  1.00  0.00     0.208 HD
ENDBRANCH  21  26
ENDBRANCH  17  18
ENDBRANCH  16  17
ENDBRANCH   1  16
TORSDOF 12
ENDMDL
MODEL 4
REMARK VINA RESULT: -5.889882611      5.070      7.231
REMARK  12 active torsions:
REMARK  status: ('A' for Active; 'I' for Inactive)
REMARK    1  A    between atoms: O1_2  and  C2_3 
REMARK    2  A    between atoms: C2_3  and  C4_5 
REMARK    3  A    between atoms: C2_3  and  C9_23 
REMARK    4  A    between atoms: C4_5  and  O2_6 
REMARK    5  A    between atoms: O2_6  and  C5_7 
REMARK    6  A    between atoms: C5_7  and  C6_8 
REMARK    7  A    between atoms: C6_8  and  C7_9 
REMARK    8  A    between atoms: C7_9  and  N1_10 
REMARK       I    between atoms: N1_10  and  C8_12 
REMARK       I    between atoms: C8_12  and  N3_16 
REMARK    9  A    between atoms: N3_16  and  N4_18 
REMARK   10  A    between atoms: C9_23  and  N6_24 
REMARK   11  A    between atoms: N6_24  and  C12_27 
REMARK   12  A    between atoms: C12_27  and  C13_28 
ROOT
HETATM    1  C5  UNL     1     -17.444  23.335 -20.000  1.00  0.00     0.169 C 
ENDROOT
BRANCH   1   2
HETATM    2  O2  UNL     1     -16.775  24.524 -20.127  1.00  0.00    -0.388 OA
BRANCH   2   3
HETATM    3  C4  UNL     1     -16.205  24.777 -21.345  1.00  0.00     0.207 C 
BRANCH   3   4
HETATM    4  C2  UNL     1     -15.767  26.252 -21.331  1.00  0.00     0.102 C 
HETATM    5  C3  UNL     1     -15.666  26.524 -19.795  1.00  0.00     0.050 C 
BRANCH   4   6
HETATM    6  O1  UNL     1     -14.495  26.332 -21.786  1.00  0.00    -0.381 OA
HETATM    7  C1  UNL     1     -13.920  25.207 -22.307  1.00  0.00     0.202 C 
ENDBRANCH   4   6
BRANCH   4   8
HETATM    8  C9  UNL     1     -16.779  27.202 -21.784  1.00  0.00     0.276 C 
BRANCH   8   9
HETATM    9  N6  UNL     1     -16.473  28.428 -22.402  1.00  0.00    -0.064 N 
HETATM   10  C10 UNL     1     -17.089  28.528 -23.745  1.00  0.00     0.272 C 
HETATM   11  C11 UNL     1     -17.122  29.489 -21.620  1.00  0.00     0.272 C 
BRANCH   9  12
HETATM   12  C12 UNL     1     -15.115  28.799 -22.566  1.00  0.00     0.335 C 
BRANCH  12  13
HETATM   13  C13 UNL     1     -14.885  30.190 -22.120  1.00  0.00     0.257 C 
HETATM   14  N7  UNL     1     -14.149  30.485 -20.925  1.00  0.00    -0.061 NA
HETATM   15  O3  UNL     1     -15.311  31.177 -22.748  1.00  0.00    -0.275 OA
ENDBRANCH  12  13
ENDBRANCH   9  12
ENDBRANCH   8   9
ENDBRANCH   4   8
ENDBRANCH   3   4
ENDBRANCH   2   3
ENDBRANCH   1   2
BRANCH   1  16
HETATM   16  C6  UNL     1     -16.549  22.256 -19.486  1.00  0.00     0.046 C 
BRANCH  16  17
HETATM   17  C7  UNL     1     -16.518  22.196 -17.975  1.00  0.00     0.140 C 
BRANCH  17  18
HETATM   18  N1  UNL     1     -16.015  23.463 -17.454  1.00  0.00    -0.225 N 
HETATM   19  C8  UNL     1     -15.286  23.439 -16.224  1.00  0.00     0.687 C 
HETATM   20  N2  UNL     1     -15.866  23.070 -15.126  1.00  0.00    -0.234 N 
HETATM   21  N3  UNL     1     -13.921  23.809 -16.143  1.00  0.00    -0.119 N 
ATOM     22  H22 UNL     1     -16.849  22.804 -15.185  1.00  0.00     0.174 HD
ATOM     23  H21 UNL     1     -15.345  23.053 -14.249  1.00  0.00     0.174 HD
ATOM     24  H3  UNL     1     -13.291  23.323 -15.505  1.00  0.00     0.207 HD
ATOM     25  H1  UNL     1     -16.180  24.339 -17.951  1.00  0.00     0.177 HD
BRANCH  21  26
HETATM   26  N4  UNL     1     -13.451  24.843 -16.944  1.00  0.00    -0.235 N 
HETATM   27  N5  UNL     1     -12.424  25.519 -16.603  1.00  0.00    -0.330 N 
ATOM     28  H52 UNL     1     -11.954  25.285 -15.728  1.00  0.00     0.178 HD
ATOM     29  H51 UNL     1     -12.079  26.277 -17.191  1.00  0.00     0.178 HD
ATOM     30  H4  UNL     1     -13.934  25.065 -17.816  1.00  0.00     0.208 HD
ENDBRANCH  21  26
ENDBRANCH  17  18
ENDBRANCH  16  17
ENDBRANCH   1  16
TORSDOF 12
ENDMDL
MODEL 5
REMARK VINA RESULT: -5.840578476      1.666      2.550
REMARK  12 active torsions:
REMARK  status: ('A' for Active; 'I' for Inactive)
REMARK    1  A    between atoms: O1_2  and  C2_3 
REMARK    2  A    between atoms: C2_3  and  C4_5 
REMARK    3  A    between atoms: C2_3  and  C9_23 
REMARK    4  A    between atoms: C4_5  and  O2_6 
REMARK    5  A    between atoms: O2_6  and  C5_7 
REMARK    6  A    between atoms: C5_7  and  C6_8 
REMARK    7  A    between atoms: C6_8  and  C7_9 
REMARK    8  A    between atoms: C7_9  and  N1_10 
REMARK       I    between atoms: N1_10  and  C8_12 
REMARK       I    between atoms: C8_12  and  N3_16 
REMARK    9  A    between atoms: N3_16  and  N4_18 
REMARK   10  A    between atoms: C9_23  and  N6_24 
REMARK   11  A    between atoms: N6_24  and  C12_27 
REMARK   12  A    between atoms: C12_27  and  C13_28 
ROOT
HETATM    1  C5  UNL     1     -14.631  23.937 -16.347  1.00  0.00     0.169 C 
ENDROOT
BRANCH   1   2
HETATM    2  O2  UNL     1     -13.476  24.145 -17.054  1.00  0.00    -0.388 OA
BRANCH   2   3
HETATM    3  C4  UNL     1     -12.326  24.267 -16.323  1.00  0.00     0.207 C 
BRANCH   3   4
HETATM    4  C2  UNL     1     -11.438  25.282 -17.062  1.00  0.00     0.102 C 
HETATM    5  C3  UNL     1     -11.851  25.023 -18.547  1.00  0.00     0.050 C 
BRANCH   4   6
HETATM    6  O1  UNL     1     -11.883  26.531 -16.787  1.00  0.00    -0.381 OA
HETATM    7  C1  UNL     1     -11.498  27.553 -17.608  1.00  0.00     0.202 C 
ENDBRANCH   4   6
BRANCH   4   8
HETATM    8  C9  UNL     1     -10.009  24.984 -17.044  1.00  0.00     0.276 C 
BRANCH   8   9
HETATM    9  N6  UNL     1      -9.225  25.003 -15.876  1.00  0.00    -0.064 N 
HETATM   10  C10 UNL     1      -9.357  23.742 -15.112  1.00  0.00     0.272 C 
HETATM   11  C11 UNL     1      -7.817  25.035 -16.292  1.00  0.00     0.272 C 
BRANCH   9  12
HETATM   12  C12 UNL     1      -9.409  26.050 -14.938  1.00  0.00     0.335 C 
BRANCH  12  13
HETATM   13  C13 UNL     1      -8.427  27.135 -15.151  1.00  0.00     0.257 C 
HETATM   14  N7  UNL     1      -7.327  27.341 -14.252  1.00  0.00    -0.061 NA
HETATM   15  O3  UNL     1      -8.493  27.924 -16.111  1.00  0.00    -0.275 OA
ENDBRANCH  12  13
ENDBRANCH   9  12
ENDBRANCH   8   9
ENDBRANCH   4   8
ENDBRANCH   3   4
ENDBRANCH   2   3
ENDBRANCH   1   2
BRANCH   1  16
HETATM   16  C6  UNL     1     -14.895  22.481 -16.146  1.00  0.00     0.046 C 
BRANCH  16  17
HETATM   17  C7  UNL     1     -16.062  21.981 -16.966  1.00  0.00     0.140 C 
BRANCH  17  18
HETATM   18  N1  UNL     1     -15.737  22.092 -18.384  1.00  0.00    -0.225 N 
HETATM   19  C8  UNL     1     -16.602  21.449 -19.323  1.00  0.00     0.687 C 
HETATM   20  N2  UNL     1     -16.727  20.159 -19.321  1.00  0.00    -0.234 N 
HETATM   21  N3  UNL     1     -17.353  22.170 -20.282  1.00  0.00    -0.119 N 
ATOM     22  H22 UNL     1     -16.185  19.640 -18.630  1.00  0.00     0.174 HD
ATOM     23  H21 UNL     1     -17.344  19.700 -19.990  1.00  0.00     0.174 HD
ATOM     24  H3  UNL     1     -18.290  21.860 -20.545  1.00  0.00     0.207 HD
ATOM     25  H1  UNL     1     -14.917  22.614 -18.696  1.00  0.00     0.177 HD
BRANCH  21  26
HETATM   26  N4  UNL     1     -16.800  23.305 -20.862  1.00  0.00    -0.235 N 
HETATM   27  N5  UNL     1     -17.401  24.429 -20.802  1.00  0.00    -0.330 N 
ATOM     28  H52 UNL     1     -18.299  24.478 -20.320  1.00  0.00     0.178 HD
ATOM     29  H51 UNL     1     -16.994  25.262 -21.227  1.00  0.00     0.178 HD
ATOM     30  H4  UNL     1     -15.901  23.239 -21.340  1.00  0.00     0.208 HD
ENDBRANCH  21  26
ENDBRANCH  17  18
ENDBRANCH  16  17
ENDBRANCH   1  16
TORSDOF 12
ENDMDL
