MODEL 1
REMARK VINA RESULT: -8.647517166      0.000      0.000
REMARK  13 active torsions:
REMARK  status: ('A' for Active; 'I' for Inactive)
REMARK    1  A    between atoms: N3_4  and  C2_6 
REMARK    2  A    between atoms: C2_6  and  C3_7 
REMARK    3  A    between atoms: C3_7  and  O1_8 
REMARK    4  A    between atoms: O1_8  and  C4_9 
REMARK    5  A    between atoms: C4_9  and  C5_10 
REMARK    6  A    between atoms: C5_10  and  C6_11 
REMARK    7  A    between atoms: C6_11  and  C7_12 
REMARK    8  A    between atoms: C7_12  and  C8_13 
REMARK    9  A    between atoms: C8_13  and  N5_18 
REMARK   10  A    between atoms: N4_14  and  C9_16 
REMARK   11  A    between atoms: N5_18  and  C10_20 
REMARK   12  A    between atoms: C10_20  and  C11_21 
REMARK   13  A    between atoms: C11_21  and  C12_22 
REMARK       I    between atoms: C12_22  and  N6_24 
ROOT
HETATM    1  C8  UNL     1     -16.631  21.660 -19.106  1.00  0.00     0.079 C 
HETATM    2  N4  UNL     1     -16.741  20.585 -19.789  1.00  0.00    -0.324 N 
ATOM      3  H4  UNL     1     -17.305  20.617 -20.638  1.00  0.00     0.169 HD
ENDROOT
BRANCH   1   4
HETATM    4  C7  UNL     1     -15.790  21.587 -17.845  1.00  0.00     0.076 C 
BRANCH   4   5
HETATM    5  C6  UNL     1     -16.525  22.371 -16.805  1.00  0.00     0.010 C 
BRANCH   5   6
HETATM    6  C5  UNL     1     -15.600  22.781 -15.680  1.00  0.00     0.027 C 
BRANCH   6   7
HETATM    7  C4  UNL     1     -14.194  22.745 -16.138  1.00  0.00     0.167 C 
BRANCH   7   8
HETATM    8  O1  UNL     1     -13.387  23.774 -16.083  1.00  0.00    -0.390 OA
BRANCH   8   9
HETATM    9  C3  UNL     1     -12.929  24.638 -16.935  1.00  0.00     0.187 C 
BRANCH   9  10
HETATM   10  C2  UNL     1     -11.536  25.127 -16.730  1.00  0.00     0.148 C 
BRANCH  10  11
HETATM   11  N3  UNL     1     -11.550  26.430 -16.014  1.00  0.00    -0.365 N 
HETATM   12  C1  UNL     1     -11.577  27.477 -16.744  1.00  0.00     0.197 C 
HETATM   13  N1  UNL     1     -11.593  27.378 -18.154  1.00  0.00    -0.067 NA
HETATM   14  N2  UNL     1     -11.593  28.750 -16.120  1.00  0.00    -0.067 NA
ATOM     15  H3  UNL     1     -11.538  26.484 -14.995  1.00  0.00     0.161 HD
ENDBRANCH  10  11
ENDBRANCH   9  10
ENDBRANCH   8   9
ENDBRANCH   7   8
ENDBRANCH   6   7
ENDBRANCH   5   6
ENDBRANCH   4   5
ENDBRANCH   1   4
BRANCH   1  16
HETATM   16  N5  UNL     1     -17.253  22.879 -19.474  1.00  0.00    -0.379 N 
ATOM     17  H5  UNL     1     -17.831  23.353 -18.780  1.00  0.00     0.160 HD
BRANCH  16  18
HETATM   18  C10 UNL     1     -17.115  23.482 -20.767  1.00  0.00     0.130 C 
BRANCH  18  19
HETATM   19  C11 UNL     1     -17.104  24.976 -20.781  1.00  0.00     0.123 C 
BRANCH  19  20
HETATM   20  C12 UNL     1     -15.965  25.458 -21.599  1.00  0.00     0.225 C 
HETATM   21  O3  UNL     1     -14.866  24.882 -21.503  1.00  0.00    -0.273 OA
HETATM   22  N6  UNL     1     -16.097  26.551 -22.484  1.00  0.00    -0.304 N 
HETATM   23  C13 UNL     1     -16.212  27.750 -22.072  1.00  0.00     0.203 C 
ATOM     24  H6  UNL     1     -16.102  26.373 -23.489  1.00  0.00     0.171 HD
HETATM   25  N7  UNL     1     -16.214  28.068 -20.690  1.00  0.00    -0.066 NA
HETATM   26  N8  UNL     1     -16.340  28.810 -23.004  1.00  0.00    -0.066 NA
ENDBRANCH  19  20
ENDBRANCH  18  19
ENDBRANCH  16  18
ENDBRANCH   1  16
BRANCH   2  27
HETATM   27  C9  UNL     1     -16.135  19.356 -19.447  1.00  0.00     0.354 C 
HETATM   28  O2  UNL     1     -16.176  18.398 -20.250  1.00  0.00    -0.283 OA
ENDBRANCH   2  27
TORSDOF 13
ENDMDL
MODEL 2
REMARK VINA RESULT: -8.431933272      1.271      1.651
REMARK  13 active torsions:
REMARK  status: ('A' for Active; 'I' for Inactive)
REMARK    1  A    between atoms: N3_4  and  C2_6 
REMARK    2  A    between atoms: C2_6  and  C3_7 
REMARK    3  A    between atoms: C3_7  and  O1_8 
REMARK    4  A    between atoms: O1_8  and  C4_9 
REMARK    5  A    between atoms: C4_9  and  C5_10 
REMARK    6  A    between atoms: C5_10  and  C6_11 
REMARK    7  A    between atoms: C6_11  and  C7_12 
REMARK    8  A    between atoms: C7_12  and  C8_13 
REMARK    9  A    between atoms: C8_13  and  N5_18 
REMARK   10  A    between atoms: N4_14  and  C9_16 
REMARK   11  A    between atoms: N5_18  and  C10_20 
REMARK   12  A    between atoms: C10_20  and  C11_21 
REMARK   13  A    between atoms: C11_21  and  C12_22 
REMARK       I    between atoms: C12_22  and  N6_24 
ROOT
HETATM    1  C8  UNL     1     -16.605  21.559 -19.070  1.00  0.00     0.079 C 
HETATM    2  N4  UNL     1     -16.767  20.484 -19.743  1.00  0.00    -0.324 N 
ATOM      3  H4  UNL     1     -17.376  20.523 -20.560  1.00  0.00     0.169 HD
ENDROOT
BRANCH   1   4
HETATM    4  C7  UNL     1     -15.697  21.477 -17.857  1.00  0.00     0.076 C 
BRANCH   4   5
HETATM    5  C6  UNL     1     -16.340  22.310 -16.795  1.00  0.00     0.010 C 
BRANCH   5   6
HETATM    6  C5  UNL     1     -15.324  22.759 -15.768  1.00  0.00     0.027 C 
BRANCH   6   7
HETATM    7  C4  UNL     1     -14.047  23.102 -16.430  1.00  0.00     0.167 C 
BRANCH   7   8
HETATM    8  O1  UNL     1     -13.234  24.033 -15.999  1.00  0.00    -0.390 OA
BRANCH   8   9
HETATM    9  C3  UNL     1     -11.958  24.259 -16.077  1.00  0.00     0.187 C 
BRANCH   9  10
HETATM   10  C2  UNL     1     -11.510  25.328 -17.014  1.00  0.00     0.148 C 
BRANCH  10  11
HETATM   11  N3  UNL     1     -11.297  24.763 -18.372  1.00  0.00    -0.365 N 
HETATM   12  C1  UNL     1     -12.113  25.143 -19.278  1.00  0.00     0.197 C 
HETATM   13  N1  UNL     1     -13.154  26.052 -18.982  1.00  0.00    -0.067 NA
HETATM   14  N2  UNL     1     -11.961  24.641 -20.595  1.00  0.00    -0.067 NA
ATOM     15  H3  UNL     1     -10.541  24.108 -18.570  1.00  0.00     0.161 HD
ENDBRANCH  10  11
ENDBRANCH   9  10
ENDBRANCH   8   9
ENDBRANCH   7   8
ENDBRANCH   6   7
ENDBRANCH   5   6
ENDBRANCH   4   5
ENDBRANCH   1   4
BRANCH   1  16
HETATM   16  N5  UNL     1     -17.228  22.786 -19.407  1.00  0.00    -0.379 N 
ATOM     17  H5  UNL     1     -17.726  23.291 -18.673  1.00  0.00     0.160 HD
BRANCH  16  18
HETATM   18  C10 UNL     1     -17.200  23.357 -20.722  1.00  0.00     0.130 C 
BRANCH  18  19
HETATM   19  C11 UNL     1     -17.193  24.849 -20.774  1.00  0.00     0.123 C 
BRANCH  19  20
HETATM   20  C12 UNL     1     -16.066  25.314 -21.618  1.00  0.00     0.225 C 
HETATM   21  O3  UNL     1     -15.007  24.661 -21.623  1.00  0.00    -0.273 OA
HETATM   22  N6  UNL     1     -16.166  26.475 -22.416  1.00  0.00    -0.304 N 
HETATM   23  C13 UNL     1     -16.176  27.646 -21.917  1.00  0.00     0.203 C 
ATOM     24  H6  UNL     1     -16.233  26.372 -23.429  1.00  0.00     0.171 HD
HETATM   25  N7  UNL     1     -16.086  27.861 -20.518  1.00  0.00    -0.066 NA
HETATM   26  N8  UNL     1     -16.277  28.777 -22.764  1.00  0.00    -0.066 NA
ENDBRANCH  19  20
ENDBRANCH  18  19
ENDBRANCH  16  18
ENDBRANCH   1  16
BRANCH   2  27
HETATM   27  C9  UNL     1     -16.160  19.247 -19.430  1.00  0.00     0.354 C 
HETATM   28  O2  UNL     1     -16.367  18.252 -20.159  1.00  0.00    -0.283 OA
ENDBRANCH   2  27
TORSDOF 13
ENDMDL
MODEL 3
REMARK VINA RESULT: -8.169096030      2.360      6.345
REMARK  13 active torsions:
REMARK  status: ('A' for Active; 'I' for Inactive)
REMARK    1  A    between atoms: N3_4  and  C2_6 
REMARK    2  A    between atoms: C2_6  and  C3_7 
REMARK    3  A    between atoms: C3_7  and  O1_8 
REMARK    4  A    between atoms: O1_8  and  C4_9 
REMARK    5  A    between atoms: C4_9  and  C5_10 
REMARK    6  A    between atoms: C5_10  and  C6_11 
REMARK    7  A    between atoms: C6_11  and  C7_12 
REMARK    8  A    between atoms: C7_12  and  C8_13 
REMARK    9  A    between atoms: C8_13  and  N5_18 
REMARK   10  A    between atoms: N4_14  and  C9_16 
REMARK   11  A    between atoms: N5_18  and  C10_20 
REMARK   12  A    between atoms: C10_20  and  C11_21 
REMARK   13  A    between atoms: C11_21  and  C12_22 
REMARK       I    between atoms: C12_22  and  N6_24 
ROOT
HETATM    1  C8  UNL     1     -14.604  23.515 -16.116  1.00  0.00     0.079 C 
HETATM    2  N4  UNL     1     -15.114  24.259 -15.211  1.00  0.00    -0.324 N 
ATOM      3  H4  UNL     1     -14.753  25.208 -15.116  1.00  0.00     0.169 HD
ENDROOT
BRANCH   1   4
HETATM    4  C7  UNL     1     -15.154  22.106 -16.236  1.00  0.00     0.076 C 
BRANCH   4   5
HETATM    5  C6  UNL     1     -15.552  21.932 -17.667  1.00  0.00     0.010 C 
BRANCH   5   6
HETATM    6  C5  UNL     1     -17.056  21.837 -17.804  1.00  0.00     0.027 C 
BRANCH   6   7
HETATM    7  C4  UNL     1     -17.477  22.310 -19.141  1.00  0.00     0.167 C 
BRANCH   7   8
HETATM    8  O1  UNL     1     -16.933  23.330 -19.754  1.00  0.00    -0.390 OA
BRANCH   8   9
HETATM    9  C3  UNL     1     -17.230  24.056 -20.787  1.00  0.00     0.187 C 
BRANCH   9  10
HETATM   10  C2  UNL     1     -16.151  24.917 -21.349  1.00  0.00     0.148 C 
BRANCH  10  11
HETATM   11  N3  UNL     1     -16.644  26.310 -21.521  1.00  0.00    -0.365 N 
HETATM   12  C1  UNL     1     -16.076  27.203 -20.806  1.00  0.00     0.197 C 
HETATM   13  N1  UNL     1     -15.038  26.863 -19.909  1.00  0.00    -0.067 NA
HETATM   14  N2  UNL     1     -16.500  28.550 -20.925  1.00  0.00    -0.067 NA
ATOM     15  H3  UNL     1     -17.394  26.539 -22.173  1.00  0.00     0.161 HD
ENDBRANCH  10  11
ENDBRANCH   9  10
ENDBRANCH   8   9
ENDBRANCH   7   8
ENDBRANCH   6   7
ENDBRANCH   5   6
ENDBRANCH   4   5
ENDBRANCH   1   4
BRANCH   1  16
HETATM   16  N5  UNL     1     -13.570  23.948 -16.983  1.00  0.00    -0.379 N 
ATOM     17  H5  UNL     1     -13.687  23.796 -17.985  1.00  0.00     0.160 HD
BRANCH  16  18
HETATM   18  C10 UNL     1     -12.370  24.589 -16.531  1.00  0.00     0.130 C 
BRANCH  18  19
HETATM   19  C11 UNL     1     -11.494  25.144 -17.605  1.00  0.00     0.123 C 
BRANCH  19  20
HETATM   20  C12 UNL     1     -11.421  26.619 -17.477  1.00  0.00     0.225 C 
HETATM   21  O3  UNL     1     -12.193  27.323 -18.153  1.00  0.00    -0.273 OA
HETATM   22  N6  UNL     1     -10.501  27.244 -16.605  1.00  0.00    -0.304 N 
HETATM   23  C13 UNL     1      -9.252  27.279 -16.846  1.00  0.00     0.203 C 
ATOM     24  H6  UNL     1     -10.851  27.682 -15.753  1.00  0.00     0.171 HD
HETATM   25  N7  UNL     1      -8.699  26.690 -18.012  1.00  0.00    -0.066 NA
HETATM   26  N8  UNL     1      -8.373  27.920 -15.938  1.00  0.00    -0.066 NA
ENDBRANCH  19  20
ENDBRANCH  18  19
ENDBRANCH  16  18
ENDBRANCH   1  16
BRANCH   2  27
HETATM   27  C9  UNL     1     -16.144  23.855 -14.331  1.00  0.00     0.354 C 
HETATM   28  O2  UNL     1     -16.412  24.551 -13.328  1.00  0.00    -0.283 OA
ENDBRANCH   2  27
TORSDOF 13
ENDMDL
MODEL 4
REMARK VINA RESULT: -7.916159166      1.745      5.329
REMARK  13 active torsions:
REMARK  status: ('A' for Active; 'I' for Inactive)
REMARK    1  A    between atoms: N3_4  and  C2_6 
REMARK    2  A    between atoms: C2_6  and  C3_7 
REMARK    3  A    between atoms: C3_7  and  O1_8 
REMARK    4  A    between atoms: O1_8  and  C4_9 
REMARK    5  A    between atoms: C4_9  and  C5_10 
REMARK    6  A    between atoms: C5_10  and  C6_11 
REMARK    7  A    between atoms: C6_11  and  C7_12 
REMARK    8  A    between atoms: C7_12  and  C8_13 
REMARK    9  A    between atoms: C8_13  and  N5_18 
REMARK   10  A    between atoms: N4_14  and  C9_16 
REMARK   11  A    between atoms: N5_18  and  C10_20 
REMARK   12  A    between atoms: C10_20  and  C11_21 
REMARK   13  A    between atoms: C11_21  and  C12_22 
REMARK       I    between atoms: C12_22  and  N6_24 
ROOT
HETATM    1  C8  UNL     1     -15.958  21.230 -18.413  1.00  0.00     0.079 C 
HETATM    2  N4  UNL     1     -15.610  20.073 -18.834  1.00  0.00    -0.324 N 
ATOM      3  H4  UNL     1     -14.623  19.825 -18.781  1.00  0.00     0.169 HD
ENDROOT
BRANCH   1   4
HETATM    4  C7  UNL     1     -17.432  21.577 -18.504  1.00  0.00     0.076 C 
BRANCH   4   5
HETATM    5  C6  UNL     1     -17.504  22.931 -19.137  1.00  0.00     0.010 C 
BRANCH   5   6
HETATM    6  C5  UNL     1     -17.440  22.829 -20.645  1.00  0.00     0.027 C 
BRANCH   6   7
HETATM    7  C4  UNL     1     -16.640  23.942 -21.198  1.00  0.00     0.167 C 
BRANCH   7   8
HETATM    8  O1  UNL     1     -16.959  25.204 -21.059  1.00  0.00    -0.390 OA
BRANCH   8   9
HETATM    9  C3  UNL     1     -16.315  26.300 -20.799  1.00  0.00     0.187 C 
BRANCH   9  10
HETATM   10  C2  UNL     1     -15.290  26.741 -21.787  1.00  0.00     0.148 C 
BRANCH  10  11
HETATM   11  N3  UNL     1     -15.864  27.767 -22.697  1.00  0.00    -0.365 N 
HETATM   12  C1  UNL     1     -15.632  28.986 -22.395  1.00  0.00     0.197 C 
HETATM   13  N1  UNL     1     -14.868  29.316 -21.252  1.00  0.00    -0.067 NA
HETATM   14  N2  UNL     1     -16.150  30.011 -23.224  1.00  0.00    -0.067 NA
ATOM     15  H3  UNL     1     -16.414  27.511 -23.518  1.00  0.00     0.161 HD
ENDBRANCH  10  11
ENDBRANCH   9  10
ENDBRANCH   8   9
ENDBRANCH   7   8
ENDBRANCH   6   7
ENDBRANCH   5   6
ENDBRANCH   4   5
ENDBRANCH   1   4
BRANCH   1  16
HETATM   16  N5  UNL     1     -15.039  22.169 -17.883  1.00  0.00    -0.379 N 
ATOM     17  H5  UNL     1     -14.457  22.694 -18.536  1.00  0.00     0.160 HD
BRANCH  16  18
HETATM   18  C10 UNL     1     -14.882  22.423 -16.480  1.00  0.00     0.130 C 
BRANCH  18  19
HETATM   19  C11 UNL     1     -13.775  23.357 -16.117  1.00  0.00     0.123 C 
BRANCH  19  20
HETATM   20  C12 UNL     1     -13.954  24.644 -16.831  1.00  0.00     0.225 C 
HETATM   21  O3  UNL     1     -15.106  25.068 -17.030  1.00  0.00    -0.273 OA
HETATM   22  N6  UNL     1     -12.851  25.398 -17.288  1.00  0.00    -0.304 N 
HETATM   23  C13 UNL     1     -12.140  25.034 -18.280  1.00  0.00     0.203 C 
ATOM     24  H6  UNL     1     -12.615  26.266 -16.807  1.00  0.00     0.171 HD
HETATM   25  N7  UNL     1     -12.412  23.839 -18.993  1.00  0.00    -0.066 NA
HETATM   26  N8  UNL     1     -11.045  25.830 -18.697  1.00  0.00    -0.066 NA
ENDBRANCH  19  20
ENDBRANCH  18  19
ENDBRANCH  16  18
ENDBRANCH   1  16
BRANCH   2  27
HETATM   27  C9  UNL     1     -16.502  19.117 -19.368  1.00  0.00     0.354 C 
HETATM   28  O2  UNL     1     -16.175  18.459 -20.380  1.00  0.00    -0.283 OA
ENDBRANCH   2  27
TORSDOF 13
ENDMDL
MODEL 5
REMARK VINA RESULT: -7.803282273      2.487      5.906
REMARK  13 active torsions:
REMARK  status: ('A' for Active; 'I' for Inactive)
REMARK    1  A    between atoms: N3_4  and  C2_6 
REMARK    2  A    between atoms: C2_6  and  C3_7 
REMARK    3  A    between atoms: C3_7  and  O1_8 
REMARK    4  A    between atoms: O1_8  and  C4_9 
REMARK    5  A    between atoms: C4_9  and  C5_10 
REMARK    6  A    between atoms: C5_10  and  C6_11 
REMARK    7  A    between atoms: C6_11  and  C7_12 
REMARK    8  A    between atoms: C7_12  and  C8_13 
REMARK    9  A    between atoms: C8_13  and  N5_18 
REMARK   10  A    between atoms: N4_14  and  C9_16 
REMARK   11  A    between atoms: N5_18  and  C10_20 
REMARK   12  A    between atoms: C10_20  and  C11_21 
REMARK   13  A    between atoms: C11_21  and  C12_22 
REMARK       I    between atoms: C12_22  and  N6_24 
ROOT
HETATM    1  C8  UNL     1     -14.729  23.780 -15.760  1.00  0.00     0.079 C 
HETATM    2  N4  UNL     1     -15.361  24.499 -14.913  1.00  0.00    -0.324 N 
ATOM      3  H4  UNL     1     -15.108  25.485 -14.844  1.00  0.00     0.169 HD
ENDROOT
BRANCH   1   4
HETATM    4  C7  UNL     1     -15.121  22.316 -15.842  1.00  0.00     0.076 C 
BRANCH   4   5
HETATM    5  C6  UNL     1     -15.342  22.023 -17.292  1.00  0.00     0.010 C 
BRANCH   5   6
HETATM    6  C5  UNL     1     -16.815  22.071 -17.636  1.00  0.00     0.027 C 
BRANCH   6   7
HETATM    7  C4  UNL     1     -17.015  21.749 -19.065  1.00  0.00     0.167 C 
BRANCH   7   8
HETATM    8  O1  UNL     1     -16.563  22.488 -20.046  1.00  0.00    -0.390 OA
BRANCH   8   9
HETATM    9  C3  UNL     1     -17.087  23.298 -20.914  1.00  0.00     0.187 C 
BRANCH   9  10
HETATM   10  C2  UNL     1     -17.084  24.751 -20.582  1.00  0.00     0.148 C 
BRANCH  10  11
HETATM   11  N3  UNL     1     -16.243  25.497 -21.555  1.00  0.00    -0.365 N 
HETATM   12  C1  UNL     1     -15.793  26.627 -21.165  1.00  0.00     0.197 C 
HETATM   13  N1  UNL     1     -16.091  27.120 -19.875  1.00  0.00    -0.067 NA
HETATM   14  N2  UNL     1     -14.984  27.386 -22.047  1.00  0.00    -0.067 NA
ATOM     15  H3  UNL     1     -16.038  25.127 -22.484  1.00  0.00     0.161 HD
ENDBRANCH  10  11
ENDBRANCH   9  10
ENDBRANCH   8   9
ENDBRANCH   7   8
ENDBRANCH   6   7
ENDBRANCH   5   6
ENDBRANCH   4   5
ENDBRANCH   1   4
BRANCH   1  16
HETATM   16  N5  UNL     1     -13.705  24.288 -16.596  1.00  0.00    -0.379 N 
ATOM     17  H5  UNL     1     -13.978  24.816 -17.425  1.00  0.00     0.160 HD
BRANCH  16  18
HETATM   18  C10 UNL     1     -12.306  24.101 -16.342  1.00  0.00     0.130 C 
BRANCH  18  19
HETATM   19  C11 UNL     1     -11.478  25.344 -16.360  1.00  0.00     0.123 C 
BRANCH  19  20
HETATM   20  C12 UNL     1     -10.735  25.430 -17.640  1.00  0.00     0.225 C 
HETATM   21  O3  UNL     1      -9.731  26.162 -17.707  1.00  0.00    -0.273 OA
HETATM   22  N6  UNL     1     -11.138  24.703 -18.782  1.00  0.00    -0.304 N 
HETATM   23  C13 UNL     1     -12.177  25.008 -19.452  1.00  0.00     0.203 C 
ATOM     24  H6  UNL     1     -10.576  23.906 -19.081  1.00  0.00     0.171 HD
HETATM   25  N7  UNL     1     -13.003  26.103 -19.092  1.00  0.00    -0.066 NA
HETATM   26  N8  UNL     1     -12.534  24.245 -20.591  1.00  0.00    -0.066 NA
ENDBRANCH  19  20
ENDBRANCH  18  19
ENDBRANCH  16  18
ENDBRANCH   1  16
BRANCH   2  27
HETATM   27  C9  UNL     1     -16.385  24.022 -14.065  1.00  0.00     0.354 C 
HETATM   28  O2  UNL     1     -16.688  24.663 -13.035  1.00  0.00    -0.283 OA
ENDBRANCH   2  27
TORSDOF 13
ENDMDL
