MODEL 1
REMARK VINA RESULT: -7.134446342      0.000      0.000
REMARK  10 active torsions:
REMARK  status: ('A' for Active; 'I' for Inactive)
REMARK    1  A    between atoms: N3_4  and  C2_6 
REMARK    2  A    between atoms: C2_6  and  C3_7 
REMARK    3  A    between atoms: C3_7  and  N4_8 
REMARK    4  A    between atoms: N4_8  and  C4_9 
REMARK    5  A    between atoms: C4_9  and  C5_10 
REMARK    6  A    between atoms: C5_10  and  C6_11 
REMARK    7  A    between atoms: C6_11  and  N5_12 
REMARK    8  A    between atoms: N5_12  and  N6_14 
REMARK    9  A    between atoms: N9_19  and  C8_21 
REMARK   10  A    between atoms: C8_21  and  C9_22 
ROOT
HETATM    1  N4  UNL     1      13.660  24.409  24.139  1.00  0.00    -0.330 N 
HETATM    2  N9  UNL     1      14.592  23.698  23.736  1.00  0.00    -0.334 N 
ATOM      3  H9  UNL     1      15.302  24.150  23.160  1.00  0.00     0.180 HD
ENDROOT
BRANCH   1   4
HETATM    4  C3  UNL     1      12.650  23.831  24.942  1.00  0.00     0.161 C 
BRANCH   4   5
HETATM    5  C2  UNL     1      11.342  24.538  25.015  1.00  0.00     0.143 C 
BRANCH   5   6
HETATM    6  N3  UNL     1      10.339  23.569  25.537  1.00  0.00    -0.365 N 
HETATM    7  C1  UNL     1       9.555  23.023  24.672  1.00  0.00     0.197 C 
HETATM    8  N1  UNL     1       9.649  23.332  23.299  1.00  0.00    -0.067 NA
HETATM    9  N2  UNL     1       8.574  22.092  25.112  1.00  0.00    -0.067 NA
ATOM     10  H3  UNL     1      10.275  23.349  26.530  1.00  0.00     0.161 HD
ENDBRANCH   5   6
ENDBRANCH   4   5
ENDBRANCH   1   4
BRANCH   1  11
HETATM   11  C4  UNL     1      13.669  25.761  23.736  1.00  0.00     0.143 C 
BRANCH  11  12
HETATM   12  C5  UNL     1      14.212  26.787  24.661  1.00  0.00     0.042 C 
BRANCH  12  13
HETATM   13  C6  UNL     1      13.147  27.493  25.474  1.00  0.00     0.141 C 
BRANCH  13  14
HETATM   14  N5  UNL     1      13.144  28.910  25.190  1.00  0.00    -0.334 N 
ATOM     15  H5  UNL     1      13.831  29.288  24.537  1.00  0.00     0.180 HD
BRANCH  14  16
HETATM   16  N6  UNL     1      12.225  29.773  25.784  1.00  0.00    -0.280 N 
HETATM   17  C7  UNL     1      11.176  30.207  25.150  1.00  0.00     0.215 C 
HETATM   18  N7  UNL     1      10.240  31.083  25.751  1.00  0.00    -0.065 NA
HETATM   19  N8  UNL     1      10.994  29.771  23.819  1.00  0.00    -0.065 NA
ATOM     20  H6  UNL     1      12.380  30.073  26.747  1.00  0.00     0.189 HD
ENDBRANCH  14  16
ENDBRANCH  13  14
ENDBRANCH  12  13
ENDBRANCH  11  12
ENDBRANCH   1  11
BRANCH   2  21
HETATM   21  C8  UNL     1      14.762  22.316  24.000  1.00  0.00     0.185 C 
BRANCH  21  22
HETATM   22  C9  UNL     1      14.384  21.593  22.731  1.00  0.00     0.002 A 
HETATM   23  C10 UNL     1      14.470  22.000  21.430  1.00  0.00     0.017 A 
HETATM   24  C11 UNL     1      14.060  21.148  20.487  1.00  0.00     0.008 A 
HETATM   25  C12 UNL     1      13.585  19.932  20.897  1.00  0.00     0.050 A 
HETATM   26  S1  UNL     1      13.729  20.023  22.598  1.00  0.00    -0.105 SA
ENDBRANCH  21  22
ENDBRANCH   2  21
TORSDOF 10
ENDMDL
MODEL 2
REMARK VINA RESULT: -6.816371132      5.025      7.903
REMARK  10 active torsions:
REMARK  status: ('A' for Active; 'I' for Inactive)
REMARK    1  A    between atoms: N3_4  and  C2_6 
REMARK    2  A    between atoms: C2_6  and  C3_7 
REMARK    3  A    between atoms: C3_7  and  N4_8 
REMARK    4  A    between atoms: N4_8  and  C4_9 
REMARK    5  A    between atoms: C4_9  and  C5_10 
REMARK    6  A    between atoms: C5_10  and  C6_11 
REMARK    7  A    between atoms: C6_11  and  N5_12 
REMARK    8  A    between atoms: N5_12  and  N6_14 
REMARK    9  A    between atoms: N9_19  and  C8_21 
REMARK   10  A    between atoms: C8_21  and  C9_22 
ROOT
HETATM    1  N4  UNL     1      10.097  23.503  19.337  1.00  0.00    -0.330 N 
HETATM    2  N9  UNL     1       9.522  24.069  18.397  1.00  0.00    -0.334 N 
ATOM      3  H9  UNL     1      10.071  24.238  17.554  1.00  0.00     0.180 HD
ENDROOT
BRANCH   1   4
HETATM    4  C3  UNL     1       9.380  23.242  20.528  1.00  0.00     0.161 C 
BRANCH   4   5
HETATM    5  C2  UNL     1       9.769  24.005  21.745  1.00  0.00     0.143 C 
BRANCH   5   6
HETATM    6  N3  UNL     1       9.288  23.238  22.927  1.00  0.00    -0.365 N 
HETATM    7  C1  UNL     1       9.965  23.365  24.016  1.00  0.00     0.197 C 
HETATM    8  N1  UNL     1      11.105  24.192  24.079  1.00  0.00    -0.067 NA
HETATM    9  N2  UNL     1       9.555  22.652  25.177  1.00  0.00    -0.067 NA
ATOM     10  H3  UNL     1       8.463  22.641  22.877  1.00  0.00     0.161 HD
ENDBRANCH   5   6
ENDBRANCH   4   5
ENDBRANCH   1   4
BRANCH   1  11
HETATM   11  C4  UNL     1      11.457  23.177  19.150  1.00  0.00     0.143 C 
BRANCH  11  12
HETATM   12  C5  UNL     1      11.825  21.779  18.811  1.00  0.00     0.042 C 
BRANCH  12  13
HETATM   13  C6  UNL     1      13.311  21.504  18.911  1.00  0.00     0.141 C 
BRANCH  13  14
HETATM   14  N5  UNL     1      13.721  21.408  20.294  1.00  0.00    -0.334 N 
ATOM     15  H5  UNL     1      13.819  22.262  20.843  1.00  0.00     0.180 HD
BRANCH  14  16
HETATM   16  N6  UNL     1      13.985  20.179  20.895  1.00  0.00    -0.280 N 
HETATM   17  C7  UNL     1      13.282  19.735  21.895  1.00  0.00     0.215 C 
HETATM   18  N7  UNL     1      13.546  18.487  22.508  1.00  0.00    -0.065 NA
HETATM   19  N8  UNL     1      12.226  20.550  22.361  1.00  0.00    -0.065 NA
ATOM     20  H6  UNL     1      14.753  19.610  20.539  1.00  0.00     0.189 HD
ENDBRANCH  14  16
ENDBRANCH  13  14
ENDBRANCH  12  13
ENDBRANCH  11  12
ENDBRANCH   1  11
BRANCH   2  21
HETATM   21  C8  UNL     1       8.173  24.503  18.383  1.00  0.00     0.185 C 
BRANCH  21  22
HETATM   22  C9  UNL     1       7.355  23.328  17.904  1.00  0.00     0.002 A 
HETATM   23  C10 UNL     1       7.584  22.463  16.873  1.00  0.00     0.017 A 
HETATM   24  C11 UNL     1       6.685  21.497  16.665  1.00  0.00     0.008 A 
HETATM   25  C12 UNL     1       5.603  21.450  17.502  1.00  0.00     0.050 A 
HETATM   26  S1  UNL     1       5.882  22.766  18.557  1.00  0.00    -0.105 SA
ENDBRANCH  21  22
ENDBRANCH   2  21
TORSDOF 10
ENDMDL
MODEL 3
REMARK VINA RESULT: -6.794561165      1.593      5.022
REMARK  10 active torsions:
REMARK  status: ('A' for Active; 'I' for Inactive)
REMARK    1  A    between atoms: N3_4  and  C2_6 
REMARK    2  A    between atoms: C2_6  and  C3_7 
REMARK    3  A    between atoms: C3_7  and  N4_8 
REMARK    4  A    between atoms: N4_8  and  C4_9 
REMARK    5  A    between atoms: C4_9  and  C5_10 
REMARK    6  A    between atoms: C5_10  and  C6_11 
REMARK    7  A    between atoms: C6_11  and  N5_12 
REMARK    8  A    between atoms: N5_12  and  N6_14 
REMARK    9  A    between atoms: N9_19  and  C8_21 
REMARK   10  A    between atoms: C8_21  and  C9_22 
ROOT
HETATM    1  N4  UNL     1      12.773  24.402  24.667  1.00  0.00    -0.330 N 
HETATM    2  N9  UNL     1      13.204  23.269  24.411  1.00  0.00    -0.334 N 
ATOM      3  H9  UNL     1      12.568  22.486  24.568  1.00  0.00     0.180 HD
ENDROOT
BRANCH   1   4
HETATM    4  C3  UNL     1      13.614  25.521  24.464  1.00  0.00     0.161 C 
BRANCH   4   5
HETATM    5  C2  UNL     1      12.961  26.828  24.181  1.00  0.00     0.143 C 
BRANCH   5   6
HETATM    6  N3  UNL     1      13.243  27.728  25.333  1.00  0.00    -0.365 N 
HETATM    7  C1  UNL     1      12.691  28.892  25.310  1.00  0.00     0.197 C 
HETATM    8  N1  UNL     1      11.860  29.288  24.242  1.00  0.00    -0.067 NA
HETATM    9  N2  UNL     1      12.927  29.796  26.382  1.00  0.00    -0.067 NA
ATOM     10  H3  UNL     1      13.845  27.437  26.104  1.00  0.00     0.161 HD
ENDBRANCH   5   6
ENDBRANCH   4   5
ENDBRANCH   1   4
BRANCH   1  11
HETATM   11  C4  UNL     1      11.459  24.486  25.172  1.00  0.00     0.143 C 
BRANCH  11  12
HETATM   12  C5  UNL     1      10.631  23.256  25.242  1.00  0.00     0.042 C 
BRANCH  12  13
HETATM   13  C6  UNL     1       9.421  23.289  24.333  1.00  0.00     0.141 C 
BRANCH  13  14
HETATM   14  N5  UNL     1       9.787  22.935  22.981  1.00  0.00    -0.334 N 
ATOM     15  H5  UNL     1      10.592  22.328  22.826  1.00  0.00     0.180 HD
BRANCH  14  16
HETATM   16  N6  UNL     1       9.068  23.403  21.882  1.00  0.00    -0.280 N 
HETATM   17  C7  UNL     1       9.511  24.365  21.127  1.00  0.00     0.215 C 
HETATM   18  N7  UNL     1       8.784  24.843  20.010  1.00  0.00    -0.065 NA
HETATM   19  N8  UNL     1      10.762  24.930  21.460  1.00  0.00    -0.065 NA
ATOM     20  H6  UNL     1       8.167  22.977  21.664  1.00  0.00     0.189 HD
ENDBRANCH  14  16
ENDBRANCH  13  14
ENDBRANCH  12  13
ENDBRANCH  11  12
ENDBRANCH   1  11
BRANCH   2  21
HETATM   21  C8  UNL     1      14.497  22.958  23.920  1.00  0.00     0.185 C 
BRANCH  21  22
HETATM   22  C9  UNL     1      14.325  21.783  22.989  1.00  0.00     0.002 A 
HETATM   23  C10 UNL     1      15.204  21.233  22.099  1.00  0.00     0.017 A 
HETATM   24  C11 UNL     1      14.788  20.181  21.390  1.00  0.00     0.008 A 
HETATM   25  C12 UNL     1      13.512  19.736  21.607  1.00  0.00     0.050 A 
HETATM   26  S1  UNL     1      12.935  20.811  22.806  1.00  0.00    -0.105 SA
ENDBRANCH  21  22
ENDBRANCH   2  21
TORSDOF 10
ENDMDL
MODEL 4
REMARK VINA RESULT: -6.752189248      5.439      8.290
REMARK  10 active torsions:
REMARK  status: ('A' for Active; 'I' for Inactive)
REMARK    1  A    between atoms: N3_4  and  C2_6 
REMARK    2  A    between atoms: C2_6  and  C3_7 
REMARK    3  A    between atoms: C3_7  and  N4_8 
REMARK    4  A    between atoms: N4_8  and  C4_9 
REMARK    5  A    between atoms: C4_9  and  C5_10 
REMARK    6  A    between atoms: C5_10  and  C6_11 
REMARK    7  A    between atoms: C6_11  and  N5_12 
REMARK    8  A    between atoms: N5_12  and  N6_14 
REMARK    9  A    between atoms: N9_19  and  C8_21 
REMARK   10  A    between atoms: C8_21  and  C9_22 
ROOT
HETATM    1  N4  UNL     1       9.684  23.805  19.288  1.00  0.00    -0.330 N 
HETATM    2  N9  UNL     1       9.535  24.835  18.615  1.00  0.00    -0.334 N 
ATOM      3  H9  UNL     1      10.017  24.872  17.716  1.00  0.00     0.180 HD
ENDROOT
BRANCH   1   4
HETATM    4  C3  UNL     1       9.036  23.701  20.541  1.00  0.00     0.161 C 
BRANCH   4   5
HETATM    5  C2  UNL     1       9.841  23.998  21.757  1.00  0.00     0.143 C 
BRANCH   5   6
HETATM    6  N3  UNL     1       9.275  23.195  22.876  1.00  0.00    -0.365 N 
HETATM    7  C1  UNL     1       9.875  23.278  24.012  1.00  0.00     0.197 C 
HETATM    8  N1  UNL     1      11.013  24.093  24.183  1.00  0.00    -0.067 NA
HETATM    9  N2  UNL     1       9.381  22.530  25.117  1.00  0.00    -0.067 NA
ATOM     10  H3  UNL     1       8.452  22.607  22.748  1.00  0.00     0.161 HD
ENDBRANCH   5   6
ENDBRANCH   4   5
ENDBRANCH   1   4
BRANCH   1  11
HETATM   11  C4  UNL     1      10.523  22.806  18.751  1.00  0.00     0.143 C 
BRANCH  11  12
HETATM   12  C5  UNL     1      11.974  22.839  19.059  1.00  0.00     0.042 C 
BRANCH  12  13
HETATM   13  C6  UNL     1      12.621  21.470  19.070  1.00  0.00     0.141 C 
BRANCH  13  14
HETATM   14  N5  UNL     1      13.465  21.313  20.233  1.00  0.00    -0.334 N 
ATOM     15  H5  UNL     1      13.872  22.141  20.667  1.00  0.00     0.180 HD
BRANCH  14  16
HETATM   16  N6  UNL     1      13.736  20.058  20.775  1.00  0.00    -0.280 N 
HETATM   17  C7  UNL     1      13.207  19.663  21.896  1.00  0.00     0.215 C 
HETATM   18  N7  UNL     1      13.479  18.389  22.450  1.00  0.00    -0.065 NA
HETATM   19  N8  UNL     1      12.337  20.558  22.556  1.00  0.00    -0.065 NA
ATOM     20  H6  UNL     1      14.368  19.431  20.278  1.00  0.00     0.189 HD
ENDBRANCH  14  16
ENDBRANCH  13  14
ENDBRANCH  12  13
ENDBRANCH  11  12
ENDBRANCH   1  11
BRANCH   2  21
HETATM   21  C8  UNL     1       8.760  25.965  18.977  1.00  0.00     0.185 C 
BRANCH  21  22
HETATM   22  C9  UNL     1       7.495  25.890  18.156  1.00  0.00     0.002 A 
HETATM   23  C10 UNL     1       7.238  25.209  17.001  1.00  0.00     0.017 A 
HETATM   24  C11 UNL     1       6.014  25.319  16.478  1.00  0.00     0.008 A 
HETATM   25  C12 UNL     1       5.112  26.107  17.139  1.00  0.00     0.050 A 
HETATM   26  S1  UNL     1       6.013  26.671  18.479  1.00  0.00    -0.105 SA
ENDBRANCH  21  22
ENDBRANCH   2  21
TORSDOF 10
ENDMDL
MODEL 5
REMARK VINA RESULT: -6.691674993      7.087      9.770
REMARK  10 active torsions:
REMARK  status: ('A' for Active; 'I' for Inactive)
REMARK    1  A    between atoms: N3_4  and  C2_6 
REMARK    2  A    between atoms: C2_6  and  C3_7 
REMARK    3  A    between atoms: C3_7  and  N4_8 
REMARK    4  A    between atoms: N4_8  and  C4_9 
REMARK    5  A    between atoms: C4_9  and  C5_10 
REMARK    6  A    between atoms: C5_10  and  C6_11 
REMARK    7  A    between atoms: C6_11  and  N5_12 
REMARK    8  A    between atoms: N5_12  and  N6_14 
REMARK    9  A    between atoms: N9_19  and  C8_21 
REMARK   10  A    between atoms: C8_21  and  C9_22 
ROOT
HETATM    1  N4  UNL     1       7.458  25.903  18.092  1.00  0.00    -0.330 N 
HETATM    2  N9  UNL     1       6.774  26.858  18.489  1.00  0.00    -0.334 N 
ATOM      3  H9  UNL     1       7.233  27.532  19.101  1.00  0.00     0.180 HD
ENDROOT
BRANCH   1   4
HETATM    4  C3  UNL     1       6.870  24.941  17.239  1.00  0.00     0.161 C 
BRANCH   4   5
HETATM    5  C2  UNL     1       7.236  23.515  17.455  1.00  0.00     0.143 C 
BRANCH   5   6
HETATM    6  N3  UNL     1       6.143  22.887  18.248  1.00  0.00    -0.365 N 
HETATM    7  C1  UNL     1       5.727  21.734  17.851  1.00  0.00     0.197 C 
HETATM    8  N1  UNL     1       6.285  21.102  16.721  1.00  0.00    -0.067 NA
HETATM    9  N2  UNL     1       4.682  21.087  18.568  1.00  0.00    -0.067 NA
ATOM     10  H3  UNL     1       5.743  23.348  19.064  1.00  0.00     0.161 HD
ENDBRANCH   5   6
ENDBRANCH   4   5
ENDBRANCH   1   4
BRANCH   1  11
HETATM   11  C4  UNL     1       8.790  25.838  18.552  1.00  0.00     0.143 C 
BRANCH  11  12
HETATM   12  C5  UNL     1       9.047  25.536  19.983  1.00  0.00     0.042 C 
BRANCH  12  13
HETATM   13  C6  UNL     1       9.613  24.151  20.216  1.00  0.00     0.141 C 
BRANCH  13  14
HETATM   14  N5  UNL     1      10.894  24.006  19.561  1.00  0.00    -0.334 N 
ATOM     15  H5  UNL     1      11.619  24.704  19.726  1.00  0.00     0.180 HD
BRANCH  14  16
HETATM   16  N6  UNL     1      11.162  22.935  18.710  1.00  0.00    -0.280 N 
HETATM   17  C7  UNL     1      12.220  22.191  18.851  1.00  0.00     0.215 C 
HETATM   18  N7  UNL     1      12.496  21.102  17.989  1.00  0.00    -0.065 NA
HETATM   19  N8  UNL     1      13.101  22.505  19.910  1.00  0.00    -0.065 NA
ATOM     20  H6  UNL     1      10.510  22.730  17.954  1.00  0.00     0.189 HD
ENDBRANCH  14  16
ENDBRANCH  13  14
ENDBRANCH  12  13
ENDBRANCH  11  12
ENDBRANCH   1  11
BRANCH   2  21
HETATM   21  C8  UNL     1       5.414  27.100  18.170  1.00  0.00     0.185 C 
BRANCH  21  22
HETATM   22  C9  UNL     1       4.636  26.879  19.444  1.00  0.00     0.002 A 
HETATM   23  C10 UNL     1       5.046  26.381  20.648  1.00  0.00     0.017 A 
HETATM   24  C11 UNL     1       4.138  26.292  21.622  1.00  0.00     0.008 A 
HETATM   25  C12 UNL     1       2.864  26.705  21.339  1.00  0.00     0.050 A 
HETATM   26  S1  UNL     1       2.983  27.209  19.709  1.00  0.00    -0.105 SA
ENDBRANCH  21  22
ENDBRANCH   2  21
TORSDOF 10
ENDMDL
