MODEL 1
REMARK VINA RESULT: -6.145749022      0.000      0.000
REMARK  14 active torsions:
REMARK  status: ('A' for Active; 'I' for Inactive)
REMARK    1  A    between atoms: N1_2  and  C2_3 
REMARK    2  A    between atoms: C2_3  and  O1_4 
REMARK    3  A    between atoms: O1_4  and  C3_5 
REMARK    4  A    between atoms: C3_5  and  C4_6 
REMARK    5  A    between atoms: C4_6  and  N2_7 
REMARK    6  A    between atoms: C6_12  and  N3_13 
REMARK       I    between atoms: N3_13  and  C7_15 
REMARK    7  A    between atoms: C7_15  and  C8_17 
REMARK    8  A    between atoms: C8_17  and  C9_18 
REMARK    9  A    between atoms: C9_18  and  N4_19 
REMARK   10  A    between atoms: N4_19  and  C10_21 
REMARK   11  A    between atoms: C10_21  and  N5_23 
REMARK   12  A    between atoms: N5_23  and  C11_25 
REMARK   13  A    between atoms: C11_25  and  C12_26 
REMARK   14  A    between atoms: C12_26  and  N6_27 
ROOT
HETATM    1  N3  UNL     1      14.061  25.577  24.606  1.00  0.00    -0.353 N 
ATOM      2  H3  UNL     1      14.546  25.422  25.490  1.00  0.00     0.163 HD
HETATM    3  C7  UNL     1      14.103  24.579  23.578  1.00  0.00     0.219 C 
HETATM    4  O2  UNL     1      13.510  24.739  22.479  1.00  0.00    -0.274 OA
ENDROOT
BRANCH   3   5
HETATM    5  C8  UNL     1      14.851  23.312  23.778  1.00  0.00     0.122 C 
BRANCH   5   6
HETATM    6  C9  UNL     1      13.925  22.119  23.649  1.00  0.00     0.131 C 
BRANCH   6   7
HETATM    7  N4  UNL     1      14.635  20.963  23.156  1.00  0.00    -0.367 N 
ATOM      8  H4  UNL     1      15.400  20.564  23.700  1.00  0.00     0.161 HD
BRANCH   7   9
HETATM    9  C10 UNL     1      14.272  20.384  21.928  1.00  0.00     0.167 C 
HETATM   10  S1  UNL     1      13.695  18.835  21.921  1.00  0.00    -0.041 SA
BRANCH   9  11
HETATM   11  N5  UNL     1      14.366  21.040  20.668  1.00  0.00    -0.366 N 
ATOM     12  H5  UNL     1      15.227  21.518  20.404  1.00  0.00     0.161 HD
BRANCH  11  13
HETATM   13  C11 UNL     1      13.243  21.027  19.767  1.00  0.00     0.149 C 
BRANCH  13  14
HETATM   14  C12 UNL     1      13.464  21.777  18.491  1.00  0.00     0.249 C 
BRANCH  14  15
HETATM   15  N6  UNL     1      12.575  22.950  18.500  1.00  0.00    -0.078 N 
ATOM     16  H63 UNL     1      11.947  22.977  17.697  1.00  0.00     0.274 HD
ATOM     17  H62 UNL     1      11.861  22.901  19.228  1.00  0.00     0.274 HD
ATOM     18  H61 UNL     1      13.160  23.783  18.574  1.00  0.00     0.274 HD
ENDBRANCH  14  15
ENDBRANCH  13  14
ENDBRANCH  11  13
ENDBRANCH   9  11
ENDBRANCH   7   9
ENDBRANCH   6   7
ENDBRANCH   5   6
ENDBRANCH   3   5
BRANCH   1  19
HETATM   19  C6  UNL     1      13.341  26.784  24.389  1.00  0.00     0.136 C 
HETATM   20  C5  UNL     1      12.600  27.174  25.664  1.00  0.00     0.266 C 
HETATM   21  N1  UNL     1      12.992  28.566  25.492  1.00  0.00    -0.046 N 
HETATM   22  C1  UNL     1      13.539  29.184  26.678  1.00  0.00     0.275 C 
HETATM   23  C13 UNL     1      14.055  28.082  24.626  1.00  0.00     0.266 C 
BRANCH  21  24
HETATM   24  C2  UNL     1      11.943  29.280  24.818  1.00  0.00     0.404 C 
BRANCH  24  25
HETATM   25  O1  UNL     1      11.613  30.469  25.438  1.00  0.00    -0.362 OA
BRANCH  25  26
HETATM   26  C3  UNL     1      10.265  30.773  25.303  1.00  0.00     0.197 C 
BRANCH  26  27
HETATM   27  C4  UNL     1       9.763  31.599  26.473  1.00  0.00     0.255 C 
BRANCH  27  28
HETATM   28  N2  UNL     1      10.791  31.731  27.487  1.00  0.00    -0.077 N 
ATOM     29  H23 UNL     1      11.641  31.229  27.231  1.00  0.00     0.274 HD
ATOM     30  H22 UNL     1      11.174  32.676  27.517  1.00  0.00     0.274 HD
ATOM     31  H21 UNL     1      10.439  31.436  28.399  1.00  0.00     0.274 HD
ENDBRANCH  27  28
ENDBRANCH  26  27
ENDBRANCH  25  26
ENDBRANCH  24  25
ENDBRANCH  21  24
ENDBRANCH   1  19
TORSDOF 14
ENDMDL
MODEL 2
REMARK VINA RESULT: -6.066572629      4.828      7.260
REMARK  14 active torsions:
REMARK  status: ('A' for Active; 'I' for Inactive)
REMARK    1  A    between atoms: N1_2  and  C2_3 
REMARK    2  A    between atoms: C2_3  and  O1_4 
REMARK    3  A    between atoms: O1_4  and  C3_5 
REMARK    4  A    between atoms: C3_5  and  C4_6 
REMARK    5  A    between atoms: C4_6  and  N2_7 
REMARK    6  A    between atoms: C6_12  and  N3_13 
REMARK       I    between atoms: N3_13  and  C7_15 
REMARK    7  A    between atoms: C7_15  and  C8_17 
REMARK    8  A    between atoms: C8_17  and  C9_18 
REMARK    9  A    between atoms: C9_18  and  N4_19 
REMARK   10  A    between atoms: N4_19  and  C10_21 
REMARK   11  A    between atoms: C10_21  and  N5_23 
REMARK   12  A    between atoms: N5_23  and  C11_25 
REMARK   13  A    between atoms: C11_25  and  C12_26 
REMARK   14  A    between atoms: C12_26  and  N6_27 
ROOT
HETATM    1  N3  UNL     1      10.644  23.048  18.755  1.00  0.00    -0.353 N 
ATOM      2  H3  UNL     1      10.263  22.323  18.147  1.00  0.00     0.163 HD
HETATM    3  C7  UNL     1      12.032  23.029  19.112  1.00  0.00     0.219 C 
HETATM    4  O2  UNL     1      12.534  23.912  19.856  1.00  0.00    -0.274 OA
ENDROOT
BRANCH   3   5
HETATM    5  C8  UNL     1      12.933  21.960  18.612  1.00  0.00     0.122 C 
BRANCH   5   6
HETATM    6  C9  UNL     1      13.189  20.929  19.692  1.00  0.00     0.131 C 
BRANCH   6   7
HETATM    7  N4  UNL     1      14.348  21.279  20.480  1.00  0.00    -0.367 N 
ATOM      8  H4  UNL     1      15.065  21.888  20.087  1.00  0.00     0.161 HD
BRANCH   7   9
HETATM    9  C10 UNL     1      14.489  20.781  21.786  1.00  0.00     0.167 C 
HETATM   10  S1  UNL     1      13.722  19.372  22.184  1.00  0.00    -0.041 SA
BRANCH   9  11
HETATM   11  N5  UNL     1      15.253  21.407  22.810  1.00  0.00    -0.366 N 
ATOM     12  H5  UNL     1      16.267  21.296  22.830  1.00  0.00     0.161 HD
BRANCH  11  13
HETATM   13  C11 UNL     1      14.595  22.197  23.817  1.00  0.00     0.149 C 
BRANCH  13  14
HETATM   14  C12 UNL     1      14.421  23.639  23.458  1.00  0.00     0.249 C 
BRANCH  14  15
HETATM   15  N6  UNL     1      13.646  24.279  24.532  1.00  0.00    -0.078 N 
ATOM     16  H63 UNL     1      13.409  25.249  24.326  1.00  0.00     0.274 HD
ATOM     17  H62 UNL     1      12.694  23.920  24.602  1.00  0.00     0.274 HD
ATOM     18  H61 UNL     1      14.173  24.177  25.400  1.00  0.00     0.274 HD
ENDBRANCH  14  15
ENDBRANCH  13  14
ENDBRANCH  11  13
ENDBRANCH   9  11
ENDBRANCH   7   9
ENDBRANCH   6   7
ENDBRANCH   5   6
ENDBRANCH   3   5
BRANCH   1  19
HETATM   19  C6  UNL     1       9.802  24.080  19.250  1.00  0.00     0.136 C 
HETATM   20  C5  UNL     1       8.537  24.159  18.402  1.00  0.00     0.266 C 
HETATM   21  N1  UNL     1       7.718  24.307  19.597  1.00  0.00    -0.046 N 
HETATM   22  C1  UNL     1       6.566  23.435  19.645  1.00  0.00     0.275 C 
HETATM   23  C13 UNL     1       8.829  23.733  20.339  1.00  0.00     0.266 C 
BRANCH  21  24
HETATM   24  C2  UNL     1       7.482  25.702  19.848  1.00  0.00     0.404 C 
BRANCH  24  25
HETATM   25  O1  UNL     1       6.146  26.047  19.773  1.00  0.00    -0.362 OA
BRANCH  25  26
HETATM   26  C3  UNL     1       5.893  26.938  18.739  1.00  0.00     0.197 C 
BRANCH  26  27
HETATM   27  C4  UNL     1       5.188  26.257  17.581  1.00  0.00     0.255 C 
BRANCH  27  28
HETATM   28  N2  UNL     1       6.090  26.093  16.457  1.00  0.00    -0.077 N 
ATOM     29  H23 UNL     1       6.763  26.857  16.398  1.00  0.00     0.274 HD
ATOM     30  H22 UNL     1       6.744  25.323  16.606  1.00  0.00     0.274 HD
ATOM     31  H21 UNL     1       5.568  25.981  15.588  1.00  0.00     0.274 HD
ENDBRANCH  27  28
ENDBRANCH  26  27
ENDBRANCH  25  26
ENDBRANCH  24  25
ENDBRANCH  21  24
ENDBRANCH   1  19
TORSDOF 14
ENDMDL
MODEL 3
REMARK VINA RESULT: -6.059152282      4.939      6.883
REMARK  14 active torsions:
REMARK  status: ('A' for Active; 'I' for Inactive)
REMARK    1  A    between atoms: N1_2  and  C2_3 
REMARK    2  A    between atoms: C2_3  and  O1_4 
REMARK    3  A    between atoms: O1_4  and  C3_5 
REMARK    4  A    between atoms: C3_5  and  C4_6 
REMARK    5  A    between atoms: C4_6  and  N2_7 
REMARK    6  A    between atoms: C6_12  and  N3_13 
REMARK       I    between atoms: N3_13  and  C7_15 
REMARK    7  A    between atoms: C7_15  and  C8_17 
REMARK    8  A    between atoms: C8_17  and  C9_18 
REMARK    9  A    between atoms: C9_18  and  N4_19 
REMARK   10  A    between atoms: N4_19  and  C10_21 
REMARK   11  A    between atoms: C10_21  and  N5_23 
REMARK   12  A    between atoms: N5_23  and  C11_25 
REMARK   13  A    between atoms: C11_25  and  C12_26 
REMARK   14  A    between atoms: C12_26  and  N6_27 
ROOT
HETATM    1  N3  UNL     1      10.812  23.079  18.871  1.00  0.00    -0.353 N 
ATOM      2  H3  UNL     1      10.436  22.344  18.273  1.00  0.00     0.163 HD
HETATM    3  C7  UNL     1      12.201  23.075  19.228  1.00  0.00     0.219 C 
HETATM    4  O2  UNL     1      12.696  23.971  19.960  1.00  0.00    -0.274 OA
ENDROOT
BRANCH   3   5
HETATM    5  C8  UNL     1      13.108  22.006  18.741  1.00  0.00     0.122 C 
BRANCH   5   6
HETATM    6  C9  UNL     1      13.235  20.902  19.772  1.00  0.00     0.131 C 
BRANCH   6   7
HETATM    7  N4  UNL     1      14.177  21.262  20.805  1.00  0.00    -0.367 N 
ATOM      8  H4  UNL     1      14.808  22.051  20.666  1.00  0.00     0.161 HD
BRANCH   7   9
HETATM    9  C10 UNL     1      14.226  20.528  22.002  1.00  0.00     0.167 C 
HETATM   10  S1  UNL     1      13.668  18.972  22.000  1.00  0.00    -0.041 SA
BRANCH   9  11
HETATM   11  N5  UNL     1      14.726  21.029  23.236  1.00  0.00    -0.366 N 
ATOM     12  H5  UNL     1      14.914  20.389  24.008  1.00  0.00     0.161 HD
BRANCH  11  13
HETATM   13  C11 UNL     1      14.967  22.439  23.394  1.00  0.00     0.149 C 
BRANCH  13  14
HETATM   14  C12 UNL     1      13.879  23.178  24.106  1.00  0.00     0.249 C 
BRANCH  14  15
HETATM   15  N6  UNL     1      14.206  24.613  24.061  1.00  0.00    -0.078 N 
ATOM     16  H63 UNL     1      14.893  24.884  24.764  1.00  0.00     0.274 HD
ATOM     17  H62 UNL     1      14.748  24.870  23.236  1.00  0.00     0.274 HD
ATOM     18  H61 UNL     1      13.332  25.134  24.140  1.00  0.00     0.274 HD
ENDBRANCH  14  15
ENDBRANCH  13  14
ENDBRANCH  11  13
ENDBRANCH   9  11
ENDBRANCH   7   9
ENDBRANCH   6   7
ENDBRANCH   5   6
ENDBRANCH   3   5
BRANCH   1  19
HETATM   19  C6  UNL     1       9.963  24.112  19.354  1.00  0.00     0.136 C 
HETATM   20  C5  UNL     1       8.707  24.186  18.492  1.00  0.00     0.266 C 
HETATM   21  N1  UNL     1       7.875  24.337  19.678  1.00  0.00    -0.046 N 
HETATM   22  C1  UNL     1       6.724  23.464  19.717  1.00  0.00     0.275 C 
HETATM   23  C13 UNL     1       8.979  23.768  20.434  1.00  0.00     0.266 C 
BRANCH  21  24
HETATM   24  C2  UNL     1       7.635  25.733  19.921  1.00  0.00     0.404 C 
BRANCH  24  25
HETATM   25  O1  UNL     1       6.291  26.047  19.988  1.00  0.00    -0.362 OA
BRANCH  25  26
HETATM   26  C3  UNL     1       5.874  26.797  18.897  1.00  0.00     0.197 C 
BRANCH  26  27
HETATM   27  C4  UNL     1       4.411  27.181  19.014  1.00  0.00     0.255 C 
BRANCH  27  28
HETATM   28  N2  UNL     1       4.091  27.573  20.374  1.00  0.00    -0.077 N 
ATOM     29  H23 UNL     1       4.857  27.369  21.015  1.00  0.00     0.274 HD
ATOM     30  H22 UNL     1       4.069  28.588  20.479  1.00  0.00     0.274 HD
ATOM     31  H21 UNL     1       3.218  27.142  20.678  1.00  0.00     0.274 HD
ENDBRANCH  27  28
ENDBRANCH  26  27
ENDBRANCH  25  26
ENDBRANCH  24  25
ENDBRANCH  21  24
ENDBRANCH   1  19
TORSDOF 14
ENDMDL
MODEL 4
REMARK VINA RESULT: -5.856876383      5.206      7.088
REMARK  14 active torsions:
REMARK  status: ('A' for Active; 'I' for Inactive)
REMARK    1  A    between atoms: N1_2  and  C2_3 
REMARK    2  A    between atoms: C2_3  and  O1_4 
REMARK    3  A    between atoms: O1_4  and  C3_5 
REMARK    4  A    between atoms: C3_5  and  C4_6 
REMARK    5  A    between atoms: C4_6  and  N2_7 
REMARK    6  A    between atoms: C6_12  and  N3_13 
REMARK       I    between atoms: N3_13  and  C7_15 
REMARK    7  A    between atoms: C7_15  and  C8_17 
REMARK    8  A    between atoms: C8_17  and  C9_18 
REMARK    9  A    between atoms: C9_18  and  N4_19 
REMARK   10  A    between atoms: N4_19  and  C10_21 
REMARK   11  A    between atoms: C10_21  and  N5_23 
REMARK   12  A    between atoms: N5_23  and  C11_25 
REMARK   13  A    between atoms: C11_25  and  C12_26 
REMARK   14  A    between atoms: C12_26  and  N6_27 
ROOT
HETATM    1  N3  UNL     1      10.566  23.642  18.737  1.00  0.00    -0.353 N 
ATOM      2  H3  UNL     1      10.862  24.053  17.851  1.00  0.00     0.163 HD
HETATM    3  C7  UNL     1      11.334  22.589  19.333  1.00  0.00     0.219 C 
HETATM    4  O2  UNL     1      10.998  22.066  20.428  1.00  0.00    -0.274 OA
ENDROOT
BRANCH   3   5
HETATM    5  C8  UNL     1      12.562  22.076  18.675  1.00  0.00     0.122 C 
BRANCH   5   6
HETATM    6  C9  UNL     1      13.197  20.981  19.509  1.00  0.00     0.131 C 
BRANCH   6   7
HETATM    7  N4  UNL     1      14.129  21.530  20.465  1.00  0.00    -0.367 N 
ATOM      8  H4  UNL     1      14.644  22.382  20.242  1.00  0.00     0.161 HD
BRANCH   7   9
HETATM    9  C10 UNL     1      14.328  20.894  21.701  1.00  0.00     0.167 C 
HETATM   10  S1  UNL     1      13.545  19.467  21.993  1.00  0.00    -0.041 SA
BRANCH   9  11
HETATM   11  N5  UNL     1      15.165  21.390  22.739  1.00  0.00    -0.366 N 
ATOM     12  H5  UNL     1      16.164  21.184  22.731  1.00  0.00     0.161 HD
BRANCH  11  13
HETATM   13  C11 UNL     1      14.602  22.183  23.800  1.00  0.00     0.149 C 
BRANCH  13  14
HETATM   14  C12 UNL     1      14.454  23.636  23.477  1.00  0.00     0.249 C 
BRANCH  14  15
HETATM   15  N6  UNL     1      13.641  24.252  24.538  1.00  0.00    -0.078 N 
ATOM     16  H63 UNL     1      12.768  23.753  24.707  1.00  0.00     0.274 HD
ATOM     17  H62 UNL     1      14.045  24.133  25.467  1.00  0.00     0.274 HD
ATOM     18  H61 UNL     1      13.496  25.231  24.290  1.00  0.00     0.274 HD
ENDBRANCH  14  15
ENDBRANCH  13  14
ENDBRANCH  11  13
ENDBRANCH   9  11
ENDBRANCH   7   9
ENDBRANCH   6   7
ENDBRANCH   5   6
ENDBRANCH   3   5
BRANCH   1  19
HETATM   19  C6  UNL     1       9.391  24.112  19.384  1.00  0.00     0.136 C 
HETATM   20  C5  UNL     1       9.015  25.482  18.829  1.00  0.00     0.266 C 
HETATM   21  N1  UNL     1       7.611  25.100  18.776  1.00  0.00    -0.046 N 
HETATM   22  C1  UNL     1       6.957  25.395  17.521  1.00  0.00     0.275 C 
HETATM   23  C13 UNL     1       8.063  23.718  18.808  1.00  0.00     0.266 C 
BRANCH  21  24
HETATM   24  C2  UNL     1       6.947  25.544  19.970  1.00  0.00     0.404 C 
BRANCH  24  25
HETATM   25  O1  UNL     1       5.633  25.913  19.753  1.00  0.00    -0.362 OA
BRANCH  25  26
HETATM   26  C3  UNL     1       4.737  25.035  20.347  1.00  0.00     0.197 C 
BRANCH  26  27
HETATM   27  C4  UNL     1       4.458  25.418  21.788  1.00  0.00     0.255 C 
BRANCH  27  28
HETATM   28  N2  UNL     1       4.114  26.824  21.888  1.00  0.00    -0.077 N 
ATOM     29  H23 UNL     1       4.706  27.400  21.291  1.00  0.00     0.274 HD
ATOM     30  H22 UNL     1       3.214  27.024  21.451  1.00  0.00     0.274 HD
ATOM     31  H21 UNL     1       4.141  27.134  22.860  1.00  0.00     0.274 HD
ENDBRANCH  27  28
ENDBRANCH  26  27
ENDBRANCH  25  26
ENDBRANCH  24  25
ENDBRANCH  21  24
ENDBRANCH   1  19
TORSDOF 14
ENDMDL
MODEL 5
REMARK VINA RESULT: -5.750744124      5.020      6.821
REMARK  14 active torsions:
REMARK  status: ('A' for Active; 'I' for Inactive)
REMARK    1  A    between atoms: N1_2  and  C2_3 
REMARK    2  A    between atoms: C2_3  and  O1_4 
REMARK    3  A    between atoms: O1_4  and  C3_5 
REMARK    4  A    between atoms: C3_5  and  C4_6 
REMARK    5  A    between atoms: C4_6  and  N2_7 
REMARK    6  A    between atoms: C6_12  and  N3_13 
REMARK       I    between atoms: N3_13  and  C7_15 
REMARK    7  A    between atoms: C7_15  and  C8_17 
REMARK    8  A    between atoms: C8_17  and  C9_18 
REMARK    9  A    between atoms: C9_18  and  N4_19 
REMARK   10  A    between atoms: N4_19  and  C10_21 
REMARK   11  A    between atoms: C10_21  and  N5_23 
REMARK   12  A    between atoms: N5_23  and  C11_25 
REMARK   13  A    between atoms: C11_25  and  C12_26 
REMARK   14  A    between atoms: C12_26  and  N6_27 
ROOT
HETATM    1  N3  UNL     1      10.712  23.184  18.570  1.00  0.00    -0.353 N 
ATOM      2  H3  UNL     1      10.993  23.575  17.671  1.00  0.00     0.163 HD
HETATM    3  C7  UNL     1      11.602  22.318  19.287  1.00  0.00     0.219 C 
HETATM    4  O2  UNL     1      11.286  21.824  20.401  1.00  0.00    -0.274 OA
ENDROOT
BRANCH   3   5
HETATM    5  C8  UNL     1      12.937  21.972  18.736  1.00  0.00     0.122 C 
BRANCH   5   6
HETATM    6  C9  UNL     1      13.602  20.902  19.578  1.00  0.00     0.131 C 
BRANCH   6   7
HETATM    7  N4  UNL     1      14.372  21.488  20.649  1.00  0.00    -0.367 N 
ATOM      8  H4  UNL     1      14.860  22.372  20.501  1.00  0.00     0.161 HD
BRANCH   7   9
HETATM    9  C10 UNL     1      14.449  20.845  21.896  1.00  0.00     0.167 C 
HETATM   10  S1  UNL     1      13.705  19.380  22.079  1.00  0.00    -0.041 SA
BRANCH   9  11
HETATM   11  N5  UNL     1      15.131  21.365  23.031  1.00  0.00    -0.366 N 
ATOM     12  H5  UNL     1      16.109  21.126  23.193  1.00  0.00     0.161 HD
BRANCH  11  13
HETATM   13  C11 UNL     1      14.438  22.227  23.952  1.00  0.00     0.149 C 
BRANCH  13  14
HETATM   14  C12 UNL     1      14.470  23.678  23.587  1.00  0.00     0.249 C 
BRANCH  14  15
HETATM   15  N6  UNL     1      13.588  24.396  24.522  1.00  0.00    -0.078 N 
ATOM     16  H63 UNL     1      12.899  24.978  24.047  1.00  0.00     0.274 HD
ATOM     17  H62 UNL     1      12.934  23.779  25.003  1.00  0.00     0.274 HD
ATOM     18  H61 UNL     1      14.180  24.925  25.163  1.00  0.00     0.274 HD
ENDBRANCH  14  15
ENDBRANCH  13  14
ENDBRANCH  11  13
ENDBRANCH   9  11
ENDBRANCH   7   9
ENDBRANCH   6   7
ENDBRANCH   5   6
ENDBRANCH   3   5
BRANCH   1  19
HETATM   19  C6  UNL     1       9.438  23.495  19.117  1.00  0.00     0.136 C 
HETATM   20  C5  UNL     1       9.556  24.714  20.027  1.00  0.00     0.266 C 
HETATM   21  N1  UNL     1       8.330  25.273  19.475  1.00  0.00    -0.046 N 
HETATM   22  C1  UNL     1       8.427  26.661  19.085  1.00  0.00     0.275 C 
HETATM   23  C13 UNL     1       8.536  24.400  18.331  1.00  0.00     0.266 C 
BRANCH  21  24
HETATM   24  C2  UNL     1       7.220  24.915  20.314  1.00  0.00     0.404 C 
BRANCH  24  25
HETATM   25  O1  UNL     1       6.362  25.971  20.555  1.00  0.00    -0.362 OA
BRANCH  25  26
HETATM   26  C3  UNL     1       5.110  25.768  19.989  1.00  0.00     0.197 C 
BRANCH  26  27
HETATM   27  C4  UNL     1       4.538  27.059  19.432  1.00  0.00     0.255 C 
BRANCH  27  28
HETATM   28  N2  UNL     1       3.731  27.735  20.430  1.00  0.00    -0.077 N 
ATOM     29  H23 UNL     1       2.791  27.345  20.482  1.00  0.00     0.274 HD
ATOM     30  H22 UNL     1       4.041  27.517  21.377  1.00  0.00     0.274 HD
ATOM     31  H21 UNL     1       3.714  28.741  20.259  1.00  0.00     0.274 HD
ENDBRANCH  27  28
ENDBRANCH  26  27
ENDBRANCH  25  26
ENDBRANCH  24  25
ENDBRANCH  21  24
ENDBRANCH   1  19
TORSDOF 14
ENDMDL
