MODEL 1
REMARK VINA RESULT: -6.212604584      0.000      0.000
REMARK  12 active torsions:
REMARK  status: ('A' for Active; 'I' for Inactive)
REMARK       I    between atoms: C1_4  and  N3_6 
REMARK    1  A    between atoms: C2_8  and  C3_9 
REMARK    2  A    between atoms: C3_9  and  N5_13 
REMARK    3  A    between atoms: N5_13  and  C4_15 
REMARK    4  A    between atoms: C4_15  and  C5_16 
REMARK    5  A    between atoms: C5_16  and  N6_17 
REMARK    6  A    between atoms: C8_20  and  N7_21 
REMARK    7  A    between atoms: N7_21  and  C9_23 
REMARK    8  A    between atoms: C11_26  and  C12_27 
REMARK    9  A    between atoms: C12_27  and  N8_28 
REMARK   10  A    between atoms: N8_28  and  C13_30 
REMARK   11  A    between atoms: C13_30  and  C14_31 
REMARK   12  A    between atoms: C14_31  and  O2_32 
ROOT
HETATM    1  N6  UNL     1      13.411  23.989  23.920  1.00  0.00    -0.055 N 
HETATM    2  C6  UNL     1      13.462  24.701  22.636  1.00  0.00     0.241 C 
HETATM    3  C7  UNL     1      13.252  26.127  23.121  1.00  0.00     0.063 C 
HETATM    4  C8  UNL     1      13.036  25.831  24.574  1.00  0.00     0.088 C 
HETATM    5  C10 UNL     1      14.152  24.860  24.843  1.00  0.00     0.271 C 
HETATM    6  C11 UNL     1      12.222  24.552  24.472  1.00  0.00     0.237 C 
ENDROOT
BRANCH   1   7
HETATM    7  C5  UNL     1      13.723  22.643  23.914  1.00  0.00     0.257 C 
BRANCH   7   8
HETATM    8  C4  UNL     1      15.188  22.284  23.655  1.00  0.00     0.149 C 
BRANCH   8   9
HETATM    9  N5  UNL     1      15.394  21.627  22.395  1.00  0.00    -0.374 N 
ATOM     10  H5  UNL     1      16.220  21.848  21.839  1.00  0.00     0.161 HD
BRANCH   9  11
HETATM   11  C3  UNL     1      14.468  20.684  21.924  1.00  0.00     0.110 C 
HETATM   12  N4  UNL     1      14.259  19.614  22.601  1.00  0.00    -0.385 N 
ATOM     13  H42 UNL     1      13.586  18.929  22.258  1.00  0.00     0.157 HD
ATOM     14  H41 UNL     1      14.781  19.489  23.468  1.00  0.00     0.157 HD
BRANCH  11  15
HETATM   15  C2  UNL     1      13.721  20.864  20.682  1.00  0.00     0.138 C 
HETATM   16  N3  UNL     1      13.530  22.000  20.161  1.00  0.00    -0.337 N 
HETATM   17  C1  UNL     1      12.796  22.116  18.953  1.00  0.00     0.185 C 
ATOM     18  H3  UNL     1      13.904  22.836  20.611  1.00  0.00     0.168 HD
HETATM   19  N1  UNL     1      12.263  23.226  18.601  1.00  0.00    -0.374 N 
HETATM   20  N2  UNL     1      12.643  20.984  18.110  1.00  0.00    -0.064 NA
ATOM     21  H12 UNL     1      11.735  23.309  17.732  1.00  0.00     0.158 HD
ATOM     22  H11 UNL     1      12.373  24.040  19.207  1.00  0.00     0.158 HD
ENDBRANCH  11  15
ENDBRANCH   9  11
ENDBRANCH   8   9
ENDBRANCH   7   8
ENDBRANCH   1   7
BRANCH   6  23
HETATM   23  C12 UNL     1      11.606  24.082  25.717  1.00  0.00     0.150 C 
BRANCH  23  24
HETATM   24  N8  UNL     1      10.195  24.049  25.780  1.00  0.00    -0.417 N 
ATOM     25  H8  UNL     1       9.678  24.570  26.487  1.00  0.00     0.153 HD
BRANCH  24  26
HETATM   26  C13 UNL     1       9.526  23.240  24.795  1.00  0.00     0.139 C 
BRANCH  26  27
HETATM   27  C14 UNL     1       8.128  22.857  25.173  1.00  0.00     0.183 C 
BRANCH  27  28
HETATM   28  O2  UNL     1       7.523  23.882  25.931  1.00  0.00    -0.399 OA
ATOM     29  H2  UNL     1       7.597  23.696  26.860  1.00  0.00     0.209 HD
ENDBRANCH  27  28
ENDBRANCH  26  27
ENDBRANCH  24  26
ENDBRANCH  23  24
ENDBRANCH   6  23
BRANCH   4  30
HETATM   30  N7  UNL     1      12.684  26.797  25.484  1.00  0.00    -0.355 N 
ATOM     31  H7  UNL     1      12.313  26.520  26.393  1.00  0.00     0.162 HD
BRANCH  30  32
HETATM   32  C9  UNL     1      12.827  28.178  25.179  1.00  0.00     0.349 C 
HETATM   33  O1  UNL     1      12.013  28.773  24.399  1.00  0.00    -0.284 OA
ENDBRANCH  30  32
ENDBRANCH   4  30
TORSDOF 12
ENDMDL
MODEL 2
REMARK VINA RESULT: -6.199254797      5.440      7.414
REMARK  12 active torsions:
REMARK  status: ('A' for Active; 'I' for Inactive)
REMARK       I    between atoms: C1_4  and  N3_6 
REMARK    1  A    between atoms: C2_8  and  C3_9 
REMARK    2  A    between atoms: C3_9  and  N5_13 
REMARK    3  A    between atoms: N5_13  and  C4_15 
REMARK    4  A    between atoms: C4_15  and  C5_16 
REMARK    5  A    between atoms: C5_16  and  N6_17 
REMARK    6  A    between atoms: C8_20  and  N7_21 
REMARK    7  A    between atoms: N7_21  and  C9_23 
REMARK    8  A    between atoms: C11_26  and  C12_27 
REMARK    9  A    between atoms: C12_27  and  N8_28 
REMARK   10  A    between atoms: N8_28  and  C13_30 
REMARK   11  A    between atoms: C13_30  and  C14_31 
REMARK   12  A    between atoms: C14_31  and  O2_32 
ROOT
HETATM    1  N6  UNL     1       8.635  24.341  18.906  1.00  0.00    -0.055 N 
HETATM    2  C6  UNL     1       9.151  25.696  19.141  1.00  0.00     0.241 C 
HETATM    3  C7  UNL     1       7.851  26.419  19.458  1.00  0.00     0.063 C 
HETATM    4  C8  UNL     1       6.907  25.279  19.220  1.00  0.00     0.088 C 
HETATM    5  C10 UNL     1       7.609  24.164  19.943  1.00  0.00     0.271 C 
HETATM    6  C11 UNL     1       7.563  24.632  18.011  1.00  0.00     0.237 C 
ENDROOT
BRANCH   1   7
HETATM    7  C5  UNL     1       9.559  23.328  18.734  1.00  0.00     0.257 C 
BRANCH   7   8
HETATM    8  C4  UNL     1      10.872  23.464  19.510  1.00  0.00     0.149 C 
BRANCH   8   9
HETATM    9  N5  UNL     1      12.035  23.274  18.690  1.00  0.00    -0.374 N 
ATOM     10  H5  UNL     1      12.264  23.959  17.970  1.00  0.00     0.161 HD
BRANCH   9  11
HETATM   11  C3  UNL     1      12.859  22.152  18.872  1.00  0.00     0.110 C 
HETATM   12  N4  UNL     1      13.750  21.877  17.992  1.00  0.00    -0.385 N 
ATOM     13  H42 UNL     1      14.348  21.062  18.124  1.00  0.00     0.157 HD
ATOM     14  H41 UNL     1      13.828  22.493  17.182  1.00  0.00     0.157 HD
BRANCH  11  15
HETATM   15  C2  UNL     1      12.747  21.270  20.031  1.00  0.00     0.138 C 
HETATM   16  N3  UNL     1      13.748  20.690  20.543  1.00  0.00    -0.337 N 
HETATM   17  C1  UNL     1      13.581  19.844  21.669  1.00  0.00     0.185 C 
ATOM     18  H3  UNL     1      14.676  20.831  20.146  1.00  0.00     0.168 HD
HETATM   19  N1  UNL     1      14.459  18.965  21.977  1.00  0.00    -0.374 N 
HETATM   20  N2  UNL     1      12.420  19.967  22.477  1.00  0.00    -0.064 NA
ATOM     21  H12 UNL     1      14.339  18.356  22.787  1.00  0.00     0.158 HD
ATOM     22  H11 UNL     1      15.294  18.877  21.397  1.00  0.00     0.158 HD
ENDBRANCH  11  15
ENDBRANCH   9  11
ENDBRANCH   8   9
ENDBRANCH   7   8
ENDBRANCH   1   7
BRANCH   6  23
HETATM   23  C12 UNL     1       6.775  23.602  17.328  1.00  0.00     0.150 C 
BRANCH  23  24
HETATM   24  N8  UNL     1       6.367  23.859  16.001  1.00  0.00    -0.417 N 
ATOM     25  H8  UNL     1       6.018  23.117  15.394  1.00  0.00     0.153 HD
BRANCH  24  26
HETATM   26  C13 UNL     1       6.468  25.222  15.548  1.00  0.00     0.139 C 
BRANCH  26  27
HETATM   27  C14 UNL     1       5.180  25.982  15.618  1.00  0.00     0.183 C 
BRANCH  27  28
HETATM   28  O2  UNL     1       5.266  27.011  16.580  1.00  0.00    -0.399 OA
ATOM     29  H2  UNL     1       4.412  27.186  16.956  1.00  0.00     0.209 HD
ENDBRANCH  27  28
ENDBRANCH  26  27
ENDBRANCH  24  26
ENDBRANCH  23  24
ENDBRANCH   6  23
BRANCH   4  30
HETATM   30  N7  UNL     1       5.543  25.424  19.265  1.00  0.00    -0.355 N 
ATOM     31  H7  UNL     1       4.952  24.777  18.741  1.00  0.00     0.162 HD
BRANCH  30  32
HETATM   32  C9  UNL     1       4.941  26.460  20.028  1.00  0.00     0.349 C 
HETATM   33  O1  UNL     1       4.638  27.582  19.502  1.00  0.00    -0.284 OA
ENDBRANCH  30  32
ENDBRANCH   4  30
TORSDOF 12
ENDMDL
MODEL 3
REMARK VINA RESULT: -6.140055829      5.299      7.161
REMARK  12 active torsions:
REMARK  status: ('A' for Active; 'I' for Inactive)
REMARK       I    between atoms: C1_4  and  N3_6 
REMARK    1  A    between atoms: C2_8  and  C3_9 
REMARK    2  A    between atoms: C3_9  and  N5_13 
REMARK    3  A    between atoms: N5_13  and  C4_15 
REMARK    4  A    between atoms: C4_15  and  C5_16 
REMARK    5  A    between atoms: C5_16  and  N6_17 
REMARK    6  A    between atoms: C8_20  and  N7_21 
REMARK    7  A    between atoms: N7_21  and  C9_23 
REMARK    8  A    between atoms: C11_26  and  C12_27 
REMARK    9  A    between atoms: C12_27  and  N8_28 
REMARK   10  A    between atoms: N8_28  and  C13_30 
REMARK   11  A    between atoms: C13_30  and  C14_31 
REMARK   12  A    between atoms: C14_31  and  O2_32 
ROOT
HETATM    1  N6  UNL     1       8.523  24.424  18.799  1.00  0.00    -0.055 N 
HETATM    2  C6  UNL     1       9.080  25.743  18.470  1.00  0.00     0.241 C 
HETATM    3  C7  UNL     1       7.917  26.629  18.888  1.00  0.00     0.063 C 
HETATM    4  C8  UNL     1       6.948  25.550  19.264  1.00  0.00     0.088 C 
HETATM    5  C10 UNL     1       7.827  24.639  20.076  1.00  0.00     0.271 C 
HETATM    6  C11 UNL     1       7.244  24.529  18.177  1.00  0.00     0.237 C 
ENDROOT
BRANCH   1   7
HETATM    7  C5  UNL     1       9.366  23.334  18.701  1.00  0.00     0.257 C 
BRANCH   7   8
HETATM    8  C4  UNL     1      10.680  23.416  19.481  1.00  0.00     0.149 C 
BRANCH   8   9
HETATM    9  N5  UNL     1      11.841  23.250  18.653  1.00  0.00    -0.374 N 
ATOM     10  H5  UNL     1      12.031  23.922  17.909  1.00  0.00     0.161 HD
BRANCH   9  11
HETATM   11  C3  UNL     1      12.715  22.171  18.859  1.00  0.00     0.110 C 
HETATM   12  N4  UNL     1      13.618  21.917  17.984  1.00  0.00    -0.385 N 
ATOM     13  H42 UNL     1      14.253  21.134  18.134  1.00  0.00     0.157 HD
ATOM     14  H41 UNL     1      13.668  22.518  17.161  1.00  0.00     0.157 HD
BRANCH  11  15
HETATM   15  C2  UNL     1      12.645  21.312  20.038  1.00  0.00     0.138 C 
HETATM   16  N3  UNL     1      13.657  20.715  20.507  1.00  0.00    -0.337 N 
HETATM   17  C1  UNL     1      13.530  19.892  21.655  1.00  0.00     0.185 C 
ATOM     18  H3  UNL     1      14.566  20.826  20.058  1.00  0.00     0.168 HD
HETATM   19  N1  UNL     1      14.401  18.996  21.932  1.00  0.00    -0.374 N 
HETATM   20  N2  UNL     1      12.417  20.058  22.521  1.00  0.00    -0.064 NA
ATOM     21  H12 UNL     1      14.310  18.404  22.757  1.00  0.00     0.158 HD
ATOM     22  H11 UNL     1      15.201  18.877  21.310  1.00  0.00     0.158 HD
ENDBRANCH  11  15
ENDBRANCH   9  11
ENDBRANCH   8   9
ENDBRANCH   7   8
ENDBRANCH   1   7
BRANCH   6  23
HETATM   23  C12 UNL     1       6.300  23.412  18.072  1.00  0.00     0.150 C 
BRANCH  23  24
HETATM   24  N8  UNL     1       6.278  22.683  16.863  1.00  0.00    -0.417 N 
ATOM     25  H8  UNL     1       6.290  23.149  15.956  1.00  0.00     0.153 HD
BRANCH  24  26
HETATM   26  C13 UNL     1       6.237  21.248  16.976  1.00  0.00     0.139 C 
BRANCH  26  27
HETATM   27  C14 UNL     1       4.857  20.692  17.144  1.00  0.00     0.183 C 
BRANCH  27  28
HETATM   28  O2  UNL     1       4.557  20.520  18.512  1.00  0.00    -0.399 OA
ATOM     29  H2  UNL     1       4.801  21.295  19.005  1.00  0.00     0.209 HD
ENDBRANCH  27  28
ENDBRANCH  26  27
ENDBRANCH  24  26
ENDBRANCH  23  24
ENDBRANCH   6  23
BRANCH   4  30
HETATM   30  N7  UNL     1       5.650  25.811  19.625  1.00  0.00    -0.355 N 
ATOM     31  H7  UNL     1       5.144  25.139  20.204  1.00  0.00     0.162 HD
BRANCH  30  32
HETATM   32  C9  UNL     1       4.998  27.001  19.204  1.00  0.00     0.349 C 
HETATM   33  O1  UNL     1       4.346  27.727  20.026  1.00  0.00    -0.284 OA
ENDBRANCH  30  32
ENDBRANCH   4  30
TORSDOF 12
ENDMDL
MODEL 4
REMARK VINA RESULT: -6.043124750      5.413      7.110
REMARK  12 active torsions:
REMARK  status: ('A' for Active; 'I' for Inactive)
REMARK       I    between atoms: C1_4  and  N3_6 
REMARK    1  A    between atoms: C2_8  and  C3_9 
REMARK    2  A    between atoms: C3_9  and  N5_13 
REMARK    3  A    between atoms: N5_13  and  C4_15 
REMARK    4  A    between atoms: C4_15  and  C5_16 
REMARK    5  A    between atoms: C5_16  and  N6_17 
REMARK    6  A    between atoms: C8_20  and  N7_21 
REMARK    7  A    between atoms: N7_21  and  C9_23 
REMARK    8  A    between atoms: C11_26  and  C12_27 
REMARK    9  A    between atoms: C12_27  and  N8_28 
REMARK   10  A    between atoms: N8_28  and  C13_30 
REMARK   11  A    between atoms: C13_30  and  C14_31 
REMARK   12  A    between atoms: C14_31  and  O2_32 
ROOT
HETATM    1  N6  UNL     1       8.359  24.694  18.692  1.00  0.00    -0.055 N 
HETATM    2  C6  UNL     1       8.140  24.181  17.333  1.00  0.00     0.241 C 
HETATM    3  C7  UNL     1       7.154  25.218  16.819  1.00  0.00     0.063 C 
HETATM    4  C8  UNL     1       6.995  26.010  18.081  1.00  0.00     0.088 C 
HETATM    5  C10 UNL     1       8.426  26.152  18.518  1.00  0.00     0.271 C 
HETATM    6  C11 UNL     1       7.008  24.888  19.108  1.00  0.00     0.237 C 
ENDROOT
BRANCH   1   7
HETATM    7  C5  UNL     1       9.343  24.089  19.450  1.00  0.00     0.257 C 
BRANCH   7   8
HETATM    8  C4  UNL     1      10.147  22.982  18.765  1.00  0.00     0.149 C 
BRANCH   8   9
HETATM    9  N5  UNL     1      11.546  23.287  18.653  1.00  0.00    -0.374 N 
ATOM     10  H5  UNL     1      11.839  24.231  18.403  1.00  0.00     0.161 HD
BRANCH   9  11
HETATM   11  C3  UNL     1      12.512  22.295  18.884  1.00  0.00     0.110 C 
HETATM   12  N4  UNL     1      13.435  22.101  18.015  1.00  0.00    -0.385 N 
ATOM     13  H42 UNL     1      14.136  21.380  18.183  1.00  0.00     0.157 HD
ATOM     14  H41 UNL     1      13.431  22.682  17.177  1.00  0.00     0.157 HD
BRANCH  11  15
HETATM   15  C2  UNL     1      12.517  21.462  20.084  1.00  0.00     0.138 C 
HETATM   16  N3  UNL     1      13.550  20.853  20.485  1.00  0.00    -0.337 N 
HETATM   17  C1  UNL     1      13.497  20.057  21.657  1.00  0.00     0.185 C 
ATOM     18  H3  UNL     1      14.423  20.934  19.964  1.00  0.00     0.168 HD
HETATM   19  N1  UNL     1      14.369  19.147  21.885  1.00  0.00    -0.374 N 
HETATM   20  N2  UNL     1      12.459  20.265  22.604  1.00  0.00    -0.064 NA
ATOM     21  H12 UNL     1      14.330  18.575  22.729  1.00  0.00     0.158 HD
ATOM     22  H11 UNL     1      15.114  18.997  21.205  1.00  0.00     0.158 HD
ENDBRANCH  11  15
ENDBRANCH   9  11
ENDBRANCH   8   9
ENDBRANCH   7   8
ENDBRANCH   1   7
BRANCH   6  23
HETATM   23  C12 UNL     1       6.626  25.264  20.473  1.00  0.00     0.150 C 
BRANCH  23  24
HETATM   24  N8  UNL     1       5.456  24.683  21.011  1.00  0.00    -0.417 N 
ATOM     25  H8  UNL     1       5.480  23.791  21.505  1.00  0.00     0.153 HD
BRANCH  24  26
HETATM   26  C13 UNL     1       4.230  25.414  20.825  1.00  0.00     0.139 C 
BRANCH  26  27
HETATM   27  C14 UNL     1       4.209  26.746  21.507  1.00  0.00     0.183 C 
BRANCH  27  28
HETATM   28  O2  UNL     1       4.190  27.788  20.556  1.00  0.00    -0.399 OA
ATOM     29  H2  UNL     1       4.999  27.798  20.058  1.00  0.00     0.209 HD
ENDBRANCH  27  28
ENDBRANCH  26  27
ENDBRANCH  24  26
ENDBRANCH  23  24
ENDBRANCH   6  23
BRANCH   4  30
HETATM   30  N7  UNL     1       6.097  27.041  18.203  1.00  0.00    -0.355 N 
ATOM     31  H7  UNL     1       6.220  27.729  18.947  1.00  0.00     0.162 HD
BRANCH  30  32
HETATM   32  C9  UNL     1       4.998  27.164  17.311  1.00  0.00     0.349 C 
HETATM   33  O1  UNL     1       3.799  27.241  17.740  1.00  0.00    -0.284 OA
ENDBRANCH  30  32
ENDBRANCH   4  30
TORSDOF 12
ENDMDL
MODEL 5
REMARK VINA RESULT: -6.020561434      6.102      8.301
REMARK  12 active torsions:
REMARK  status: ('A' for Active; 'I' for Inactive)
REMARK       I    between atoms: C1_4  and  N3_6 
REMARK    1  A    between atoms: C2_8  and  C3_9 
REMARK    2  A    between atoms: C3_9  and  N5_13 
REMARK    3  A    between atoms: N5_13  and  C4_15 
REMARK    4  A    between atoms: C4_15  and  C5_16 
REMARK    5  A    between atoms: C5_16  and  N6_17 
REMARK    6  A    between atoms: C8_20  and  N7_21 
REMARK    7  A    between atoms: N7_21  and  C9_23 
REMARK    8  A    between atoms: C11_26  and  C12_27 
REMARK    9  A    between atoms: C12_27  and  N8_28 
REMARK   10  A    between atoms: N8_28  and  C13_30 
REMARK   11  A    between atoms: C13_30  and  C14_31 
REMARK   12  A    between atoms: C14_31  and  O2_32 
ROOT
HETATM    1  N6  UNL     1       6.535  25.997  18.909  1.00  0.00    -0.055 N 
HETATM    2  C6  UNL     1       5.444  26.932  18.601  1.00  0.00     0.241 C 
HETATM    3  C7  UNL     1       4.248  26.062  18.953  1.00  0.00     0.063 C 
HETATM    4  C8  UNL     1       4.988  24.802  19.284  1.00  0.00     0.088 C 
HETATM    5  C10 UNL     1       6.099  25.334  20.146  1.00  0.00     0.271 C 
HETATM    6  C11 UNL     1       6.073  24.837  18.220  1.00  0.00     0.237 C 
ENDROOT
BRANCH   1   7
HETATM    7  C5  UNL     1       7.826  26.487  18.861  1.00  0.00     0.257 C 
BRANCH   7   8
HETATM    8  C4  UNL     1       8.789  25.976  19.935  1.00  0.00     0.149 C 
BRANCH   8   9
HETATM    9  N5  UNL     1       9.870  25.197  19.401  1.00  0.00    -0.374 N 
ATOM     10  H5  UNL     1      10.492  25.606  18.704  1.00  0.00     0.161 HD
BRANCH   9  11
HETATM   11  C3  UNL     1      10.076  23.876  19.831  1.00  0.00     0.110 C 
HETATM   12  N4  UNL     1       9.452  23.447  20.865  1.00  0.00    -0.385 N 
ATOM     13  H42 UNL     1       9.602  22.488  21.178  1.00  0.00     0.157 HD
ATOM     14  H41 UNL     1       8.820  24.090  21.342  1.00  0.00     0.157 HD
BRANCH  11  15
HETATM   15  C2  UNL     1      10.981  22.956  19.147  1.00  0.00     0.138 C 
HETATM   16  N3  UNL     1      12.125  23.306  18.737  1.00  0.00    -0.337 N 
HETATM   17  C1  UNL     1      12.963  22.370  18.079  1.00  0.00     0.185 C 
ATOM     18  H3  UNL     1      12.446  24.264  18.879  1.00  0.00     0.168 HD
HETATM   19  N1  UNL     1      13.930  22.751  17.331  1.00  0.00    -0.374 N 
HETATM   20  N2  UNL     1      12.732  20.979  18.246  1.00  0.00    -0.064 NA
ATOM     21  H12 UNL     1      14.532  22.077  16.857  1.00  0.00     0.158 HD
ATOM     22  H11 UNL     1      14.096  23.751  17.211  1.00  0.00     0.158 HD
ENDBRANCH  11  15
ENDBRANCH   9  11
ENDBRANCH   8   9
ENDBRANCH   7   8
ENDBRANCH   1   7
BRANCH   6  23
HETATM   23  C12 UNL     1       6.866  23.612  18.073  1.00  0.00     0.150 C 
BRANCH  23  24
HETATM   24  N8  UNL     1       6.784  22.921  16.844  1.00  0.00    -0.417 N 
ATOM     25  H8  UNL     1       7.556  22.918  16.178  1.00  0.00     0.153 HD
BRANCH  24  26
HETATM   26  C13 UNL     1       5.555  22.220  16.580  1.00  0.00     0.139 C 
BRANCH  26  27
HETATM   27  C14 UNL     1       5.537  20.812  17.089  1.00  0.00     0.183 C 
BRANCH  27  28
HETATM   28  O2  UNL     1       4.926  20.754  18.359  1.00  0.00    -0.399 OA
ATOM     29  H2  UNL     1       5.379  20.133  18.918  1.00  0.00     0.209 HD
ENDBRANCH  27  28
ENDBRANCH  26  27
ENDBRANCH  24  26
ENDBRANCH  23  24
ENDBRANCH   6  23
BRANCH   4  30
HETATM   30  N7  UNL     1       4.350  23.621  19.575  1.00  0.00    -0.355 N 
ATOM     31  H7  UNL     1       4.882  22.849  19.978  1.00  0.00     0.162 HD
BRANCH  30  32
HETATM   32  C9  UNL     1       2.961  23.458  19.324  1.00  0.00     0.349 C 
HETATM   33  O1  UNL     1       2.527  22.515  18.583  1.00  0.00    -0.284 OA
ENDBRANCH  30  32
ENDBRANCH   4  30
TORSDOF 12
ENDMDL
