MODEL 1
REMARK VINA RESULT: -6.161746931      0.000      0.000
REMARK  12 active torsions:
REMARK  status: ('A' for Active; 'I' for Inactive)
REMARK    1  A    between atoms: N1_1  and  C1_5 
REMARK    2  A    between atoms: C1_5  and  C2_6 
REMARK    3  A    between atoms: C2_6  and  C3_7 
REMARK    4  A    between atoms: C3_7  and  C4_8 
REMARK    5  A    between atoms: C4_8  and  N2_9 
REMARK    6  A    between atoms: C5_10  and  C6_11 
REMARK    7  A    between atoms: C6_11  and  C7_12 
REMARK    8  A    between atoms: C7_12  and  C8_13 
REMARK    9  A    between atoms: C8_13  and  N3_14 
REMARK   10  A    between atoms: C11_20  and  N6_21 
REMARK   11  A    between atoms: C13_26  and  N9_27 
REMARK   12  A    between atoms: N9_27  and  C14_29 
ROOT
HETATM    1  N2  UNL     1       6.684  25.604  18.514  1.00  0.00     0.118 N 
HETATM    2  C5  UNL     1       7.137  25.231  19.847  1.00  0.00     0.227 C 
HETATM    3  C10 UNL     1       6.813  23.771  20.014  1.00  0.00     0.065 C 
HETATM    4  C11 UNL     1       6.282  23.297  18.710  1.00  0.00     0.139 C 
HETATM    5  C13 UNL     1       5.750  24.595  18.100  1.00  0.00     0.347 C 
ENDROOT
BRANCH   1   6
HETATM    6  C4  UNL     1       6.023  26.882  18.501  1.00  0.00     0.276 C 
BRANCH   6   7
HETATM    7  C3  UNL     1       4.552  26.712  18.668  1.00  0.00     0.032 C 
BRANCH   7   8
HETATM    8  C2  UNL     1       4.031  27.450  19.897  1.00  0.00     0.029 C 
BRANCH   8   9
HETATM    9  C1  UNL     1       3.758  26.383  20.935  1.00  0.00     0.229 C 
BRANCH   9  10
HETATM   10  N1  UNL     1       4.349  26.726  22.189  1.00  0.00    -0.079 N 
ATOM     11  H13 UNL     1       4.994  27.511  22.100  1.00  0.00     0.274 HD
ATOM     12  H12 UNL     1       3.671  27.153  22.820  1.00  0.00     0.274 HD
ATOM     13  H11 UNL     1       4.800  25.916  22.615  1.00  0.00     0.274 HD
ENDBRANCH   9  10
ENDBRANCH   8   9
ENDBRANCH   7   8
ENDBRANCH   6   7
ENDBRANCH   1   6
BRANCH   2  14
HETATM   14  C6  UNL     1       8.631  25.347  19.980  1.00  0.00     0.037 C 
BRANCH  14  15
HETATM   15  C7  UNL     1       9.460  24.578  19.033  1.00  0.00     0.022 C 
BRANCH  15  16
HETATM   16  C8  UNL     1      10.518  23.720  19.731  1.00  0.00     0.122 C 
BRANCH  16  17
HETATM   17  N3  UNL     1      10.891  22.653  18.790  1.00  0.00    -0.367 N 
HETATM   18  C9  UNL     1      12.061  22.136  18.876  1.00  0.00     0.196 C 
HETATM   19  N4  UNL     1      12.957  22.602  19.863  1.00  0.00    -0.067 NA
HETATM   20  N5  UNL     1      12.447  21.117  17.994  1.00  0.00    -0.067 NA
ATOM     21  H3  UNL     1      10.232  22.330  18.082  1.00  0.00     0.161 HD
ENDBRANCH  16  17
ENDBRANCH  15  16
ENDBRANCH  14  15
ENDBRANCH   2  14
BRANCH   5  22
HETATM   22  N9  UNL     1       5.702  24.349  16.690  1.00  0.00    -0.337 N 
ATOM     23  H9  UNL     1       4.807  24.143  16.246  1.00  0.00     0.164 HD
BRANCH  22  24
HETATM   24  C14 UNL     1       6.892  24.386  15.895  1.00  0.00     0.350 C 
HETATM   25  O1  UNL     1       7.191  25.471  15.310  1.00  0.00    -0.284 OA
ENDBRANCH  22  24
ENDBRANCH   5  22
BRANCH   4  26
HETATM   26  N6  UNL     1       5.146  22.412  18.886  1.00  0.00    -0.358 N 
HETATM   27  C12 UNL     1       4.963  21.323  18.245  1.00  0.00     0.197 C 
HETATM   28  N7  UNL     1       5.905  20.907  17.285  1.00  0.00    -0.067 NA
HETATM   29  N8  UNL     1       3.830  20.528  18.492  1.00  0.00    -0.067 NA
ATOM     30  H6  UNL     1       4.441  22.680  19.572  1.00  0.00     0.162 HD
ENDBRANCH   4  26
TORSDOF 12
ENDMDL
MODEL 2
REMARK VINA RESULT: -5.795562448      2.253      6.325
REMARK  12 active torsions:
REMARK  status: ('A' for Active; 'I' for Inactive)
REMARK    1  A    between atoms: N1_1  and  C1_5 
REMARK    2  A    between atoms: C1_5  and  C2_6 
REMARK    3  A    between atoms: C2_6  and  C3_7 
REMARK    4  A    between atoms: C3_7  and  C4_8 
REMARK    5  A    between atoms: C4_8  and  N2_9 
REMARK    6  A    between atoms: C5_10  and  C6_11 
REMARK    7  A    between atoms: C6_11  and  C7_12 
REMARK    8  A    between atoms: C7_12  and  C8_13 
REMARK    9  A    between atoms: C8_13  and  N3_14 
REMARK   10  A    between atoms: C11_20  and  N6_21 
REMARK   11  A    between atoms: C13_26  and  N9_27 
REMARK   12  A    between atoms: N9_27  and  C14_29 
ROOT
HETATM    1  N2  UNL     1       8.685  23.942  19.022  1.00  0.00     0.118 N 
HETATM    2  C5  UNL     1       7.691  22.928  18.698  1.00  0.00     0.227 C 
HETATM    3  C10 UNL     1       6.347  23.547  18.971  1.00  0.00     0.065 C 
HETATM    4  C11 UNL     1       6.594  24.966  19.337  1.00  0.00     0.139 C 
HETATM    5  C13 UNL     1       8.031  24.908  19.859  1.00  0.00     0.347 C 
ENDROOT
BRANCH   1   6
HETATM    6  C4  UNL     1       9.810  23.396  19.735  1.00  0.00     0.276 C 
BRANCH   6   7
HETATM    7  C3  UNL     1      10.805  22.826  18.784  1.00  0.00     0.032 C 
BRANCH   7   8
HETATM    8  C2  UNL     1      11.890  22.032  19.505  1.00  0.00     0.029 C 
BRANCH   8   9
HETATM    9  C1  UNL     1      12.642  21.284  18.425  1.00  0.00     0.229 C 
BRANCH   9  10
HETATM   10  N1  UNL     1      13.637  22.115  17.825  1.00  0.00    -0.079 N 
ATOM     11  H13 UNL     1      14.143  21.623  17.088  1.00  0.00     0.274 HD
ATOM     12  H12 UNL     1      13.219  22.854  17.259  1.00  0.00     0.274 HD
ATOM     13  H11 UNL     1      14.271  22.494  18.528  1.00  0.00     0.274 HD
ENDBRANCH   9  10
ENDBRANCH   8   9
ENDBRANCH   7   8
ENDBRANCH   6   7
ENDBRANCH   1   6
BRANCH   2  14
HETATM   14  C6  UNL     1       7.704  22.583  17.234  1.00  0.00     0.037 C 
BRANCH  14  15
HETATM   15  C7  UNL     1       6.403  22.356  16.577  1.00  0.00     0.022 C 
BRANCH  15  16
HETATM   16  C8  UNL     1       6.248  23.149  15.278  1.00  0.00     0.122 C 
BRANCH  16  17
HETATM   17  N3  UNL     1       5.385  24.302  15.582  1.00  0.00    -0.367 N 
HETATM   18  C9  UNL     1       5.915  25.467  15.655  1.00  0.00     0.196 C 
HETATM   19  N4  UNL     1       7.303  25.614  15.446  1.00  0.00    -0.067 NA
HETATM   20  N5  UNL     1       5.120  26.585  15.943  1.00  0.00    -0.067 NA
ATOM     21  H3  UNL     1       4.384  24.177  15.732  1.00  0.00     0.161 HD
ENDBRANCH  16  17
ENDBRANCH  15  16
ENDBRANCH  14  15
ENDBRANCH   2  14
BRANCH   5  22
HETATM   22  N9  UNL     1       8.520  26.249  19.743  1.00  0.00    -0.337 N 
ATOM     23  H9  UNL     1       8.549  26.846  20.569  1.00  0.00     0.164 HD
BRANCH  22  24
HETATM   24  C14 UNL     1       8.970  26.763  18.485  1.00  0.00     0.350 C 
HETATM   25  O1  UNL     1       9.652  27.832  18.480  1.00  0.00    -0.284 OA
ENDBRANCH  22  24
ENDBRANCH   5  22
BRANCH   4  26
HETATM   26  N6  UNL     1       5.755  25.386  20.444  1.00  0.00    -0.358 N 
HETATM   27  C12 UNL     1       5.037  26.442  20.456  1.00  0.00     0.197 C 
HETATM   28  N7  UNL     1       5.025  27.295  19.336  1.00  0.00    -0.067 NA
HETATM   29  N8  UNL     1       4.251  26.761  21.577  1.00  0.00    -0.067 NA
ATOM     30  H6  UNL     1       5.739  24.794  21.274  1.00  0.00     0.162 HD
ENDBRANCH   4  26
TORSDOF 12
ENDMDL
MODEL 3
REMARK VINA RESULT: -5.794571982      2.612      6.345
REMARK  12 active torsions:
REMARK  status: ('A' for Active; 'I' for Inactive)
REMARK    1  A    between atoms: N1_1  and  C1_5 
REMARK    2  A    between atoms: C1_5  and  C2_6 
REMARK    3  A    between atoms: C2_6  and  C3_7 
REMARK    4  A    between atoms: C3_7  and  C4_8 
REMARK    5  A    between atoms: C4_8  and  N2_9 
REMARK    6  A    between atoms: C5_10  and  C6_11 
REMARK    7  A    between atoms: C6_11  and  C7_12 
REMARK    8  A    between atoms: C7_12  and  C8_13 
REMARK    9  A    between atoms: C8_13  and  N3_14 
REMARK   10  A    between atoms: C11_20  and  N6_21 
REMARK   11  A    between atoms: C13_26  and  N9_27 
REMARK   12  A    between atoms: N9_27  and  C14_29 
ROOT
HETATM    1  N2  UNL     1       7.873  24.163  18.051  1.00  0.00     0.118 N 
HETATM    2  C5  UNL     1       6.675  24.634  18.734  1.00  0.00     0.227 C 
HETATM    3  C10 UNL     1       7.041  24.775  20.187  1.00  0.00     0.065 C 
HETATM    4  C11 UNL     1       8.496  24.494  20.292  1.00  0.00     0.139 C 
HETATM    5  C13 UNL     1       8.735  23.618  19.061  1.00  0.00     0.347 C 
ENDROOT
BRANCH   1   6
HETATM    6  C4  UNL     1       7.583  23.137  17.085  1.00  0.00     0.276 C 
BRANCH   6   7
HETATM    7  C3  UNL     1       6.430  22.307  17.534  1.00  0.00     0.032 C 
BRANCH   7   8
HETATM    8  C2  UNL     1       6.237  21.077  16.652  1.00  0.00     0.029 C 
BRANCH   8   9
HETATM    9  C1  UNL     1       4.818  20.612  16.896  1.00  0.00     0.229 C 
BRANCH   9  10
HETATM   10  N1  UNL     1       4.337  21.075  18.159  1.00  0.00    -0.079 N 
ATOM     11  H13 UNL     1       5.072  21.072  18.866  1.00  0.00     0.274 HD
ATOM     12  H12 UNL     1       4.141  22.076  18.142  1.00  0.00     0.274 HD
ATOM     13  H11 UNL     1       3.524  20.538  18.461  1.00  0.00     0.274 HD
ENDBRANCH   9  10
ENDBRANCH   8   9
ENDBRANCH   7   8
ENDBRANCH   6   7
ENDBRANCH   1   6
BRANCH   2  14
HETATM   14  C6  UNL     1       6.272  26.006  18.268  1.00  0.00     0.037 C 
BRANCH  14  15
HETATM   15  C7  UNL     1       5.281  26.736  19.080  1.00  0.00     0.022 C 
BRANCH  15  16
HETATM   16  C8  UNL     1       3.839  26.463  18.644  1.00  0.00     0.122 C 
BRANCH  16  17
HETATM   17  N3  UNL     1       3.320  25.405  19.524  1.00  0.00    -0.367 N 
HETATM   18  C9  UNL     1       3.037  24.263  19.015  1.00  0.00     0.196 C 
HETATM   19  N4  UNL     1       3.227  24.051  17.632  1.00  0.00    -0.067 NA
HETATM   20  N5  UNL     1       2.540  23.234  19.827  1.00  0.00    -0.067 NA
ATOM     21  H3  UNL     1       3.188  25.576  20.521  1.00  0.00     0.161 HD
ENDBRANCH  16  17
ENDBRANCH  15  16
ENDBRANCH  14  15
ENDBRANCH   2  14
BRANCH   5  22
HETATM   22  N9  UNL     1      10.137  23.731  18.794  1.00  0.00    -0.337 N 
ATOM     23  H9  UNL     1      10.537  24.647  18.590  1.00  0.00     0.164 HD
BRANCH  22  24
HETATM   24  C14 UNL     1      10.986  22.578  18.809  1.00  0.00     0.350 C 
HETATM   25  O1  UNL     1      11.363  22.123  19.931  1.00  0.00    -0.284 OA
ENDBRANCH  22  24
ENDBRANCH   5  22
BRANCH   4  26
HETATM   26  N6  UNL     1       8.801  23.685  21.457  1.00  0.00    -0.358 N 
HETATM   27  C12 UNL     1       9.820  23.843  22.209  1.00  0.00     0.197 C 
HETATM   28  N7  UNL     1      10.748  24.864  21.929  1.00  0.00    -0.067 NA
HETATM   29  N8  UNL     1      10.025  23.009  23.323  1.00  0.00    -0.067 NA
ATOM     30  H6  UNL     1       8.152  22.933  21.692  1.00  0.00     0.162 HD
ENDBRANCH   4  26
TORSDOF 12
ENDMDL
MODEL 4
REMARK VINA RESULT: -5.785297074      1.906      6.391
REMARK  12 active torsions:
REMARK  status: ('A' for Active; 'I' for Inactive)
REMARK    1  A    between atoms: N1_1  and  C1_5 
REMARK    2  A    between atoms: C1_5  and  C2_6 
REMARK    3  A    between atoms: C2_6  and  C3_7 
REMARK    4  A    between atoms: C3_7  and  C4_8 
REMARK    5  A    between atoms: C4_8  and  N2_9 
REMARK    6  A    between atoms: C5_10  and  C6_11 
REMARK    7  A    between atoms: C6_11  and  C7_12 
REMARK    8  A    between atoms: C7_12  and  C8_13 
REMARK    9  A    between atoms: C8_13  and  N3_14 
REMARK   10  A    between atoms: C11_20  and  N6_21 
REMARK   11  A    between atoms: C13_26  and  N9_27 
REMARK   12  A    between atoms: N9_27  and  C14_29 
ROOT
HETATM    1  N2  UNL     1       8.571  24.143  19.018  1.00  0.00     0.118 N 
HETATM    2  C5  UNL     1       7.501  23.258  18.576  1.00  0.00     0.227 C 
HETATM    3  C10 UNL     1       6.269  24.112  18.443  1.00  0.00     0.065 C 
HETATM    4  C11 UNL     1       6.690  25.514  18.698  1.00  0.00     0.139 C 
HETATM    5  C13 UNL     1       7.940  25.314  19.558  1.00  0.00     0.347 C 
ENDROOT
BRANCH   1   6
HETATM    6  C4  UNL     1       9.388  23.543  20.040  1.00  0.00     0.276 C 
BRANCH   6   7
HETATM    7  C3  UNL     1      10.829  23.622  19.671  1.00  0.00     0.032 C 
BRANCH   7   8
HETATM    8  C2  UNL     1      11.280  22.398  18.880  1.00  0.00     0.029 C 
BRANCH   8   9
HETATM    9  C1  UNL     1      12.793  22.444  18.874  1.00  0.00     0.229 C 
BRANCH   9  10
HETATM   10  N1  UNL     1      13.345  21.188  19.274  1.00  0.00    -0.079 N 
ATOM     11  H13 UNL     1      14.344  21.260  19.464  1.00  0.00     0.274 HD
ATOM     12  H12 UNL     1      13.028  20.918  20.205  1.00  0.00     0.274 HD
ATOM     13  H11 UNL     1      13.144  20.464  18.584  1.00  0.00     0.274 HD
ENDBRANCH   9  10
ENDBRANCH   8   9
ENDBRANCH   7   8
ENDBRANCH   6   7
ENDBRANCH   1   6
BRANCH   2  14
HETATM   14  C6  UNL     1       7.772  22.697  17.207  1.00  0.00     0.037 C 
BRANCH  14  15
HETATM   15  C7  UNL     1       6.617  22.218  16.427  1.00  0.00     0.022 C 
BRANCH  15  16
HETATM   16  C8  UNL     1       6.156  20.820  16.847  1.00  0.00     0.122 C 
BRANCH  16  17
HETATM   17  N3  UNL     1       4.744  20.699  16.453  1.00  0.00    -0.367 N 
HETATM   18  C9  UNL     1       3.852  20.621  17.370  1.00  0.00     0.196 C 
HETATM   19  N4  UNL     1       4.244  20.649  18.726  1.00  0.00    -0.067 NA
HETATM   20  N5  UNL     1       2.497  20.505  17.027  1.00  0.00    -0.067 NA
ATOM     21  H3  UNL     1       4.478  20.679  15.468  1.00  0.00     0.161 HD
ENDBRANCH  16  17
ENDBRANCH  15  16
ENDBRANCH  14  15
ENDBRANCH   2  14
BRANCH   5  22
HETATM   22  N9  UNL     1       8.684  26.529  19.416  1.00  0.00    -0.337 N 
ATOM     23  H9  UNL     1       8.838  27.122  20.232  1.00  0.00     0.164 HD
BRANCH  22  24
HETATM   24  C14 UNL     1       9.216  26.924  18.147  1.00  0.00     0.350 C 
HETATM   25  O1  UNL     1       9.889  27.997  18.084  1.00  0.00    -0.284 OA
ENDBRANCH  22  24
ENDBRANCH   5  22
BRANCH   4  26
HETATM   26  N6  UNL     1       5.721  26.223  19.513  1.00  0.00    -0.358 N 
HETATM   27  C12 UNL     1       4.891  27.087  19.074  1.00  0.00     0.197 C 
HETATM   28  N7  UNL     1       4.875  27.413  17.704  1.00  0.00    -0.067 NA
HETATM   29  N8  UNL     1       3.983  27.717  19.944  1.00  0.00    -0.067 NA
ATOM     30  H6  UNL     1       5.703  26.015  20.511  1.00  0.00     0.162 HD
ENDBRANCH   4  26
TORSDOF 12
ENDMDL
MODEL 5
REMARK VINA RESULT: -5.781260315      2.065      2.383
REMARK  12 active torsions:
REMARK  status: ('A' for Active; 'I' for Inactive)
REMARK    1  A    between atoms: N1_1  and  C1_5 
REMARK    2  A    between atoms: C1_5  and  C2_6 
REMARK    3  A    between atoms: C2_6  and  C3_7 
REMARK    4  A    between atoms: C3_7  and  C4_8 
REMARK    5  A    between atoms: C4_8  and  N2_9 
REMARK    6  A    between atoms: C5_10  and  C6_11 
REMARK    7  A    between atoms: C6_11  and  C7_12 
REMARK    8  A    between atoms: C7_12  and  C8_13 
REMARK    9  A    between atoms: C8_13  and  N3_14 
REMARK   10  A    between atoms: C11_20  and  N6_21 
REMARK   11  A    between atoms: C13_26  and  N9_27 
REMARK   12  A    between atoms: N9_27  and  C14_29 
ROOT
HETATM    1  N2  UNL     1       6.400  25.584  18.458  1.00  0.00     0.118 N 
HETATM    2  C5  UNL     1       6.729  25.179  19.818  1.00  0.00     0.227 C 
HETATM    3  C10 UNL     1       6.364  23.723  19.929  1.00  0.00     0.065 C 
HETATM    4  C11 UNL     1       5.940  23.283  18.575  1.00  0.00     0.139 C 
HETATM    5  C13 UNL     1       5.487  24.602  17.945  1.00  0.00     0.347 C 
ENDROOT
BRANCH   1   6
HETATM    6  C4  UNL     1       5.766  26.876  18.411  1.00  0.00     0.276 C 
BRANCH   6   7
HETATM    7  C3  UNL     1       4.301  26.748  18.644  1.00  0.00     0.032 C 
BRANCH   7   8
HETATM    8  C2  UNL     1       3.852  27.520  19.881  1.00  0.00     0.029 C 
BRANCH   8   9
HETATM    9  C1  UNL     1       3.562  26.477  20.938  1.00  0.00     0.229 C 
BRANCH   9  10
HETATM   10  N1  UNL     1       4.309  26.732  22.129  1.00  0.00    -0.079 N 
ATOM     11  H13 UNL     1       5.292  26.916  21.925  1.00  0.00     0.274 HD
ATOM     12  H12 UNL     1       4.064  27.632  22.540  1.00  0.00     0.274 HD
ATOM     13  H11 UNL     1       4.200  25.971  22.799  1.00  0.00     0.274 HD
ENDBRANCH   9  10
ENDBRANCH   8   9
ENDBRANCH   7   8
ENDBRANCH   6   7
ENDBRANCH   1   6
BRANCH   2  14
HETATM   14  C6  UNL     1       8.207  25.263  20.082  1.00  0.00     0.037 C 
BRANCH  14  15
HETATM   15  C7  UNL     1       8.936  23.996  20.277  1.00  0.00     0.022 C 
BRANCH  15  16
HETATM   16  C8  UNL     1       9.891  24.039  21.472  1.00  0.00     0.122 C 
BRANCH  16  17
HETATM   17  N3  UNL     1       9.262  23.261  22.550  1.00  0.00    -0.367 N 
HETATM   18  C9  UNL     1       9.776  23.305  23.724  1.00  0.00     0.196 C 
HETATM   19  N4  UNL     1      10.926  24.092  23.951  1.00  0.00    -0.067 NA
HETATM   20  N5  UNL     1       9.200  22.574  24.773  1.00  0.00    -0.067 NA
ATOM     21  H3  UNL     1       8.432  22.696  22.368  1.00  0.00     0.161 HD
ENDBRANCH  16  17
ENDBRANCH  15  16
ENDBRANCH  14  15
ENDBRANCH   2  14
BRANCH   5  22
HETATM   22  N9  UNL     1       5.558  24.380  16.532  1.00  0.00    -0.337 N 
ATOM     23  H9  UNL     1       4.701  24.208  16.007  1.00  0.00     0.164 HD
BRANCH  22  24
HETATM   24  C14 UNL     1       6.814  24.397  15.846  1.00  0.00     0.350 C 
HETATM   25  O1  UNL     1       7.184  25.476  15.293  1.00  0.00    -0.284 OA
ENDBRANCH  22  24
ENDBRANCH   5  22
BRANCH   4  26
HETATM   26  N6  UNL     1       4.777  22.418  18.635  1.00  0.00    -0.358 N 
HETATM   27  C12 UNL     1       4.696  21.264  18.094  1.00  0.00     0.197 C 
HETATM   28  N7  UNL     1       5.791  20.749  17.374  1.00  0.00    -0.067 NA
HETATM   29  N8  UNL     1       3.525  20.496  18.214  1.00  0.00    -0.067 NA
ATOM     30  H6  UNL     1       3.962  22.758  19.147  1.00  0.00     0.162 HD
ENDBRANCH   4  26
TORSDOF 12
ENDMDL
