MODEL 1
REMARK VINA RESULT: -7.441185693      0.000      0.000
REMARK  12 active torsions:
REMARK  status: ('A' for Active; 'I' for Inactive)
REMARK    1  A    between atoms: C3_3  and  N1_4 
REMARK    2  A    between atoms: N1_4  and  C4_5 
REMARK    3  A    between atoms: C4_5  and  C5_6 
REMARK    4  A    between atoms: C5_6  and  C6_7 
REMARK       I    between atoms: C6_7  and  N2_9 
REMARK    5  A    between atoms: N2_9  and  C7_11 
REMARK    6  A    between atoms: C7_11  and  C8_12 
REMARK    7  A    between atoms: C8_12  and  N3_13 
REMARK    8  A    between atoms: N3_13  and  C9_16 
REMARK    9  A    between atoms: C9_16  and  C10_17 
REMARK   10  A    between atoms: C10_17  and  C11_18 
REMARK   11  A    between atoms: C11_18  and  N4_19 
REMARK       I    between atoms: N4_19  and  C12_21 
REMARK   12  A    between atoms: C14_27  and  O2_28 
ROOT
HETATM    1  C1  UNL     1     100.695  19.493  43.216  1.00  0.00     0.013 C 
HETATM    2  C2  UNL     1     101.724  18.872  43.320  1.00  0.00    -0.089 C 
HETATM    3  C3  UNL     1     102.966  18.100  43.467  1.00  0.00     0.330 C 
ENDROOT
BRANCH   3   4
HETATM    4  N1  UNL     1     102.923  17.315  44.660  1.00  0.00    -0.052 N 
HETATM    5  C13 UNL     1     101.633  16.654  44.822  1.00  0.00     0.272 C 
HETATM    6  C14 UNL     1     102.290  15.362  45.188  1.00  0.00     0.170 C 
HETATM    7  C15 UNL     1     103.504  15.990  44.564  1.00  0.00     0.272 C 
BRANCH   4   8
HETATM    8  C4  UNL     1     103.324  18.069  45.821  1.00  0.00     0.248 C 
BRANCH   8   9
HETATM    9  C5  UNL     1     102.119  18.435  46.612  1.00  0.00     0.130 C 
BRANCH   9  10
HETATM   10  C6  UNL     1     102.424  18.681  48.050  1.00  0.00     0.219 C 
HETATM   11  O1  UNL     1     102.911  17.758  48.754  1.00  0.00    -0.274 OA
HETATM   12  N2  UNL     1     102.160  19.947  48.596  1.00  0.00    -0.359 N 
ATOM     13  H2  UNL     1     101.764  20.684  48.012  1.00  0.00     0.162 HD
BRANCH  12  14
HETATM   14  C7  UNL     1     102.453  20.207  50.004  1.00  0.00     0.150 C 
BRANCH  14  15
HETATM   15  C8  UNL     1     103.619  21.120  50.152  1.00  0.00     0.251 C 
BRANCH  15  16
HETATM   16  N3  UNL     1     104.383  20.757  51.318  1.00  0.00    -0.074 N 
ATOM     17  H32 UNL     1     104.094  21.281  52.144  1.00  0.00     0.277 HD
ATOM     18  H31 UNL     1     104.153  19.820  51.650  1.00  0.00     0.277 HD
BRANCH  16  19
HETATM   19  C9  UNL     1     105.794  20.905  51.048  1.00  0.00     0.234 C 
BRANCH  19  20
HETATM   20  C10 UNL     1     106.462  19.695  51.723  1.00  0.00     0.047 C 
BRANCH  20  21
HETATM   21  C11 UNL     1     107.008  18.792  50.653  1.00  0.00     0.124 C 
BRANCH  21  22
HETATM   22  N4  UNL     1     106.712  17.415  51.002  1.00  0.00    -0.365 N 
HETATM   23  C12 UNL     1     106.999  16.423  50.033  1.00  0.00     0.181 C 
HETATM   24  N5  UNL     1     108.211  16.017  49.884  1.00  0.00    -0.374 N 
HETATM   25  N6  UNL     1     105.931  15.913  49.262  1.00  0.00    -0.064 NA
ATOM     26  H52 UNL     1     108.982  16.386  50.440  1.00  0.00     0.158 HD
ATOM     27  H51 UNL     1     108.418  15.303  49.186  1.00  0.00     0.158 HD
ATOM     28  H4  UNL     1     106.314  17.171  51.910  1.00  0.00     0.162 HD
ENDBRANCH  21  22
ENDBRANCH  20  21
ENDBRANCH  19  20
ENDBRANCH  16  19
ENDBRANCH  15  16
ENDBRANCH  14  15
ENDBRANCH  12  14
ENDBRANCH   9  10
ENDBRANCH   8   9
ENDBRANCH   4   8
BRANCH   6  29
HETATM   29  O2  UNL     1     101.753  14.287  44.514  1.00  0.00    -0.392 OA
ATOM     30  H2  UNL     1     102.210  13.475  44.700  1.00  0.00     0.210 HD
ENDBRANCH   6  29
ENDBRANCH   3   4
TORSDOF 12
ENDMDL
MODEL 2
REMARK VINA RESULT: -7.086392664      1.239      1.870
REMARK  12 active torsions:
REMARK  status: ('A' for Active; 'I' for Inactive)
REMARK    1  A    between atoms: C3_3  and  N1_4 
REMARK    2  A    between atoms: N1_4  and  C4_5 
REMARK    3  A    between atoms: C4_5  and  C5_6 
REMARK    4  A    between atoms: C5_6  and  C6_7 
REMARK       I    between atoms: C6_7  and  N2_9 
REMARK    5  A    between atoms: N2_9  and  C7_11 
REMARK    6  A    between atoms: C7_11  and  C8_12 
REMARK    7  A    between atoms: C8_12  and  N3_13 
REMARK    8  A    between atoms: N3_13  and  C9_16 
REMARK    9  A    between atoms: C9_16  and  C10_17 
REMARK   10  A    between atoms: C10_17  and  C11_18 
REMARK   11  A    between atoms: C11_18  and  N4_19 
REMARK       I    between atoms: N4_19  and  C12_21 
REMARK   12  A    between atoms: C14_27  and  O2_28 
ROOT
HETATM    1  C1  UNL     1     106.354  18.165  46.348  1.00  0.00     0.013 C 
HETATM    2  C2  UNL     1     105.330  18.058  45.719  1.00  0.00    -0.089 C 
HETATM    3  C3  UNL     1     104.070  17.916  44.976  1.00  0.00     0.330 C 
ENDROOT
BRANCH   3   4
HETATM    4  N1  UNL     1     103.201  16.999  45.644  1.00  0.00    -0.052 N 
HETATM    5  C13 UNL     1     101.966  16.788  44.898  1.00  0.00     0.272 C 
HETATM    6  C14 UNL     1     102.044  15.308  45.099  1.00  0.00     0.170 C 
HETATM    7  C15 UNL     1     103.482  15.594  45.430  1.00  0.00     0.272 C 
BRANCH   4   8
HETATM    8  C4  UNL     1     102.976  17.368  47.020  1.00  0.00     0.248 C 
BRANCH   8   9
HETATM    9  C5  UNL     1     102.149  18.603  47.071  1.00  0.00     0.130 C 
BRANCH   9  10
HETATM   10  C6  UNL     1     102.061  19.184  48.440  1.00  0.00     0.219 C 
HETATM   11  O1  UNL     1     101.164  18.791  49.231  1.00  0.00    -0.274 OA
HETATM   12  N2  UNL     1     102.988  20.165  48.825  1.00  0.00    -0.359 N 
ATOM     13  H2  UNL     1     103.709  20.473  48.171  1.00  0.00     0.162 HD
BRANCH  12  14
HETATM   14  C7  UNL     1     102.919  20.746  50.164  1.00  0.00     0.150 C 
BRANCH  14  15
HETATM   15  C8  UNL     1     104.156  21.508  50.486  1.00  0.00     0.251 C 
BRANCH  15  16
HETATM   16  N3  UNL     1     104.883  20.843  51.538  1.00  0.00    -0.074 N 
ATOM     17  H32 UNL     1     104.825  21.349  52.421  1.00  0.00     0.277 HD
ATOM     18  H31 UNL     1     104.427  19.980  51.832  1.00  0.00     0.277 HD
BRANCH  16  19
HETATM   19  C9  UNL     1     106.250  20.623  51.128  1.00  0.00     0.234 C 
BRANCH  19  20
HETATM   20  C10 UNL     1     106.605  19.221  51.652  1.00  0.00     0.047 C 
BRANCH  20  21
HETATM   21  C11 UNL     1     107.154  18.410  50.511  1.00  0.00     0.124 C 
BRANCH  21  22
HETATM   22  N4  UNL     1     106.839  17.011  50.733  1.00  0.00    -0.365 N 
HETATM   23  C12 UNL     1     106.954  16.135  49.626  1.00  0.00     0.181 C 
HETATM   24  N5  UNL     1     108.117  15.711  49.274  1.00  0.00    -0.374 N 
HETATM   25  N6  UNL     1     105.775  15.758  48.946  1.00  0.00    -0.064 NA
ATOM     26  H52 UNL     1     108.968  15.985  49.765  1.00  0.00     0.158 HD
ATOM     27  H51 UNL     1     108.200  15.081  48.477  1.00  0.00     0.158 HD
ATOM     28  H4  UNL     1     106.546  16.671  51.650  1.00  0.00     0.162 HD
ENDBRANCH  21  22
ENDBRANCH  20  21
ENDBRANCH  19  20
ENDBRANCH  16  19
ENDBRANCH  15  16
ENDBRANCH  14  15
ENDBRANCH  12  14
ENDBRANCH   9  10
ENDBRANCH   8   9
ENDBRANCH   4   8
BRANCH   6  29
HETATM   29  O2  UNL     1     101.820  14.604  43.937  1.00  0.00    -0.392 OA
ATOM     30  H2  UNL     1     101.789  15.166  43.171  1.00  0.00     0.210 HD
ENDBRANCH   6  29
ENDBRANCH   3   4
TORSDOF 12
ENDMDL
MODEL 3
REMARK VINA RESULT: -6.996764254      1.264      2.269
REMARK  12 active torsions:
REMARK  status: ('A' for Active; 'I' for Inactive)
REMARK    1  A    between atoms: C3_3  and  N1_4 
REMARK    2  A    between atoms: N1_4  and  C4_5 
REMARK    3  A    between atoms: C4_5  and  C5_6 
REMARK    4  A    between atoms: C5_6  and  C6_7 
REMARK       I    between atoms: C6_7  and  N2_9 
REMARK    5  A    between atoms: N2_9  and  C7_11 
REMARK    6  A    between atoms: C7_11  and  C8_12 
REMARK    7  A    between atoms: C8_12  and  N3_13 
REMARK    8  A    between atoms: N3_13  and  C9_16 
REMARK    9  A    between atoms: C9_16  and  C10_17 
REMARK   10  A    between atoms: C10_17  and  C11_18 
REMARK   11  A    between atoms: C11_18  and  N4_19 
REMARK       I    between atoms: N4_19  and  C12_21 
REMARK   12  A    between atoms: C14_27  and  O2_28 
ROOT
HETATM    1  C1  UNL     1     102.176  14.260  45.534  1.00  0.00     0.013 C 
HETATM    2  C2  UNL     1     101.798  15.272  44.998  1.00  0.00    -0.089 C 
HETATM    3  C3  UNL     1     101.365  16.511  44.336  1.00  0.00     0.330 C 
ENDROOT
BRANCH   3   4
HETATM    4  N1  UNL     1     102.494  17.332  44.032  1.00  0.00    -0.052 N 
HETATM    5  C13 UNL     1     103.412  16.665  43.116  1.00  0.00     0.272 C 
HETATM    6  C14 UNL     1     103.551  17.900  42.284  1.00  0.00     0.170 C 
HETATM    7  C15 UNL     1     102.293  18.320  42.991  1.00  0.00     0.272 C 
BRANCH   4   8
HETATM    8  C4  UNL     1     103.140  17.829  45.221  1.00  0.00     0.248 C 
BRANCH   8   9
HETATM    9  C5  UNL     1     102.140  18.527  46.072  1.00  0.00     0.130 C 
BRANCH   9  10
HETATM   10  C6  UNL     1     102.521  18.548  47.512  1.00  0.00     0.219 C 
HETATM   11  O1  UNL     1     103.100  17.553  48.022  1.00  0.00    -0.274 OA
HETATM   12  N2  UNL     1     102.224  19.685  48.280  1.00  0.00    -0.359 N 
ATOM     13  H2  UNL     1     101.753  20.483  47.852  1.00  0.00     0.162 HD
BRANCH  12  14
HETATM   14  C7  UNL     1     102.590  19.724  49.694  1.00  0.00     0.150 C 
BRANCH  14  15
HETATM   15  C8  UNL     1     103.539  20.836  49.975  1.00  0.00     0.251 C 
BRANCH  15  16
HETATM   16  N3  UNL     1     104.285  20.554  51.175  1.00  0.00    -0.074 N 
ATOM     17  H32 UNL     1     103.900  21.036  51.987  1.00  0.00     0.277 HD
ATOM     18  H31 UNL     1     104.148  19.595  51.495  1.00  0.00     0.277 HD
BRANCH  16  19
HETATM   19  C9  UNL     1     105.681  20.862  50.972  1.00  0.00     0.234 C 
BRANCH  19  20
HETATM   20  C10 UNL     1     106.450  19.746  51.697  1.00  0.00     0.047 C 
BRANCH  20  21
HETATM   21  C11 UNL     1     107.042  18.826  50.667  1.00  0.00     0.124 C 
BRANCH  21  22
HETATM   22  N4  UNL     1     106.754  17.453  51.039  1.00  0.00    -0.365 N 
HETATM   23  C12 UNL     1     107.001  16.452  50.068  1.00  0.00     0.181 C 
HETATM   24  N5  UNL     1     108.206  16.040  49.877  1.00  0.00    -0.374 N 
HETATM   25  N6  UNL     1     105.904  15.939  49.342  1.00  0.00    -0.064 NA
ATOM     26  H52 UNL     1     108.998  16.410  50.402  1.00  0.00     0.158 HD
ATOM     27  H51 UNL     1     108.383  15.319  49.178  1.00  0.00     0.158 HD
ATOM     28  H4  UNL     1     106.389  17.218  51.962  1.00  0.00     0.162 HD
ENDBRANCH  21  22
ENDBRANCH  20  21
ENDBRANCH  19  20
ENDBRANCH  16  19
ENDBRANCH  15  16
ENDBRANCH  14  15
ENDBRANCH  12  14
ENDBRANCH   9  10
ENDBRANCH   8   9
ENDBRANCH   4   8
BRANCH   6  29
HETATM   29  O2  UNL     1     103.429  17.645  40.936  1.00  0.00    -0.392 OA
ATOM     30  H2  UNL     1     104.221  17.278  40.562  1.00  0.00     0.210 HD
ENDBRANCH   6  29
ENDBRANCH   3   4
TORSDOF 12
ENDMDL
MODEL 4
REMARK VINA RESULT: -6.896045484      1.045      1.315
REMARK  12 active torsions:
REMARK  status: ('A' for Active; 'I' for Inactive)
REMARK    1  A    between atoms: C3_3  and  N1_4 
REMARK    2  A    between atoms: N1_4  and  C4_5 
REMARK    3  A    between atoms: C4_5  and  C5_6 
REMARK    4  A    between atoms: C5_6  and  C6_7 
REMARK       I    between atoms: C6_7  and  N2_9 
REMARK    5  A    between atoms: N2_9  and  C7_11 
REMARK    6  A    between atoms: C7_11  and  C8_12 
REMARK    7  A    between atoms: C8_12  and  N3_13 
REMARK    8  A    between atoms: N3_13  and  C9_16 
REMARK    9  A    between atoms: C9_16  and  C10_17 
REMARK   10  A    between atoms: C10_17  and  C11_18 
REMARK   11  A    between atoms: C11_18  and  N4_19 
REMARK       I    between atoms: N4_19  and  C12_21 
REMARK   12  A    between atoms: C14_27  and  O2_28 
ROOT
HETATM    1  C1  UNL     1     100.718  20.424  42.631  1.00  0.00     0.013 C 
HETATM    2  C2  UNL     1     100.776  19.343  43.162  1.00  0.00    -0.089 C 
HETATM    3  C3  UNL     1     100.875  18.029  43.814  1.00  0.00     0.330 C 
ENDROOT
BRANCH   3   4
HETATM    4  N1  UNL     1     102.241  17.621  43.903  1.00  0.00    -0.052 N 
HETATM    5  C13 UNL     1     102.375  16.172  43.815  1.00  0.00     0.272 C 
HETATM    6  C14 UNL     1     103.515  16.290  42.854  1.00  0.00     0.170 C 
HETATM    7  C15 UNL     1     103.001  17.690  42.671  1.00  0.00     0.272 C 
BRANCH   4   8
HETATM    8  C4  UNL     1     102.902  18.184  45.054  1.00  0.00     0.248 C 
BRANCH   8   9
HETATM    9  C5  UNL     1     101.895  18.468  46.111  1.00  0.00     0.130 C 
BRANCH   9  10
HETATM   10  C6  UNL     1     102.482  18.476  47.481  1.00  0.00     0.219 C 
HETATM   11  O1  UNL     1     103.210  17.519  47.856  1.00  0.00    -0.274 OA
HETATM   12  N2  UNL     1     102.211  19.558  48.333  1.00  0.00    -0.359 N 
ATOM     13  H2  UNL     1     101.618  20.324  48.014  1.00  0.00     0.162 HD
BRANCH  12  14
HETATM   14  C7  UNL     1     102.778  19.584  49.679  1.00  0.00     0.150 C 
BRANCH  14  15
HETATM   15  C8  UNL     1     103.463  20.876  49.951  1.00  0.00     0.251 C 
BRANCH  15  16
HETATM   16  N3  UNL     1     104.156  20.809  51.213  1.00  0.00    -0.074 N 
ATOM     17  H32 UNL     1     103.777  21.468  51.893  1.00  0.00     0.277 HD
ATOM     18  H31 UNL     1     103.955  19.945  51.715  1.00  0.00     0.277 HD
BRANCH  16  19
HETATM   19  C9  UNL     1     105.573  20.999  51.007  1.00  0.00     0.234 C 
BRANCH  19  20
HETATM   20  C10 UNL     1     106.248  19.842  51.763  1.00  0.00     0.047 C 
BRANCH  20  21
HETATM   21  C11 UNL     1     106.946  18.962  50.765  1.00  0.00     0.124 C 
BRANCH  21  22
HETATM   22  N4  UNL     1     106.803  17.577  51.175  1.00  0.00    -0.365 N 
HETATM   23  C12 UNL     1     106.960  16.584  50.178  1.00  0.00     0.181 C 
HETATM   24  N5  UNL     1     108.144  16.244  49.806  1.00  0.00    -0.374 N 
HETATM   25  N6  UNL     1     105.798  16.000  49.627  1.00  0.00    -0.064 NA
ATOM     26  H52 UNL     1     108.983  16.666  50.204  1.00  0.00     0.158 HD
ATOM     27  H51 UNL     1     108.257  15.529  49.088  1.00  0.00     0.158 HD
ATOM     28  H4  UNL     1     106.597  17.329  52.144  1.00  0.00     0.162 HD
ENDBRANCH  21  22
ENDBRANCH  20  21
ENDBRANCH  19  20
ENDBRANCH  16  19
ENDBRANCH  15  16
ENDBRANCH  14  15
ENDBRANCH  12  14
ENDBRANCH   9  10
ENDBRANCH   8   9
ENDBRANCH   4   8
BRANCH   6  29
HETATM   29  O2  UNL     1     103.382  15.451  41.770  1.00  0.00    -0.392 OA
ATOM     30  H2  UNL     1     103.532  14.541  41.994  1.00  0.00     0.210 HD
ENDBRANCH   6  29
ENDBRANCH   3   4
TORSDOF 12
ENDMDL
MODEL 5
REMARK VINA RESULT: -6.832352506      2.748      8.069
REMARK  12 active torsions:
REMARK  status: ('A' for Active; 'I' for Inactive)
REMARK    1  A    between atoms: C3_3  and  N1_4 
REMARK    2  A    between atoms: N1_4  and  C4_5 
REMARK    3  A    between atoms: C4_5  and  C5_6 
REMARK    4  A    between atoms: C5_6  and  C6_7 
REMARK       I    between atoms: C6_7  and  N2_9 
REMARK    5  A    between atoms: N2_9  and  C7_11 
REMARK    6  A    between atoms: C7_11  and  C8_12 
REMARK    7  A    between atoms: C8_12  and  N3_13 
REMARK    8  A    between atoms: N3_13  and  C9_16 
REMARK    9  A    between atoms: C9_16  and  C10_17 
REMARK   10  A    between atoms: C10_17  and  C11_18 
REMARK   11  A    between atoms: C11_18  and  N4_19 
REMARK       I    between atoms: N4_19  and  C12_21 
REMARK   12  A    between atoms: C14_27  and  O2_28 
ROOT
HETATM    1  C1  UNL     1     106.713  17.440  50.769  1.00  0.00     0.013 C 
HETATM    2  C2  UNL     1     106.517  18.559  51.177  1.00  0.00    -0.089 C 
HETATM    3  C3  UNL     1     106.254  19.922  51.657  1.00  0.00     0.330 C 
ENDROOT
BRANCH   3   4
HETATM    4  N1  UNL     1     105.294  20.567  50.817  1.00  0.00    -0.052 N 
HETATM    5  C13 UNL     1     104.983  21.911  51.291  1.00  0.00     0.272 C 
HETATM    6  C14 UNL     1     105.086  22.472  49.908  1.00  0.00     0.170 C 
HETATM    7  C15 UNL     1     105.822  21.193  49.622  1.00  0.00     0.272 C 
BRANCH   4   8
HETATM    8  C4  UNL     1     104.122  19.755  50.608  1.00  0.00     0.248 C 
BRANCH   8   9
HETATM    9  C5  UNL     1     102.966  20.631  50.280  1.00  0.00     0.130 C 
BRANCH   9  10
HETATM   10  C6  UNL     1     102.225  20.180  49.068  1.00  0.00     0.219 C 
HETATM   11  O1  UNL     1     101.085  20.654  48.819  1.00  0.00    -0.274 OA
HETATM   12  N2  UNL     1     102.815  19.229  48.222  1.00  0.00    -0.359 N 
ATOM     13  H2  UNL     1     103.739  18.854  48.439  1.00  0.00     0.162 HD
BRANCH  12  14
HETATM   14  C7  UNL     1     102.104  18.776  47.029  1.00  0.00     0.150 C 
BRANCH  14  15
HETATM   15  C8  UNL     1     102.950  17.865  46.210  1.00  0.00     0.251 C 
BRANCH  15  16
HETATM   16  N3  UNL     1     102.291  16.593  46.051  1.00  0.00    -0.074 N 
ATOM     17  H32 UNL     1     102.088  16.153  46.948  1.00  0.00     0.277 HD
ATOM     18  H31 UNL     1     101.332  16.697  45.718  1.00  0.00     0.277 HD
BRANCH  16  19
HETATM   19  C9  UNL     1     103.074  15.737  45.192  1.00  0.00     0.234 C 
BRANCH  19  20
HETATM   20  C10 UNL     1     103.039  16.413  43.811  1.00  0.00     0.047 C 
BRANCH  20  21
HETATM   21  C11 UNL     1     101.694  16.163  43.190  1.00  0.00     0.124 C 
BRANCH  21  22
HETATM   22  N4  UNL     1     101.594  14.761  42.830  1.00  0.00    -0.365 N 
HETATM   23  C12 UNL     1     101.399  14.454  41.462  1.00  0.00     0.181 C 
HETATM   24  N5  UNL     1     102.404  14.482  40.658  1.00  0.00    -0.374 N 
HETATM   25  N6  UNL     1     100.095  14.123  41.029  1.00  0.00    -0.064 NA
ATOM     26  H52 UNL     1     103.345  14.721  40.971  1.00  0.00     0.158 HD
ATOM     27  H51 UNL     1     102.264  14.260  39.673  1.00  0.00     0.158 HD
ATOM     28  H4  UNL     1     101.661  14.026  43.535  1.00  0.00     0.162 HD
ENDBRANCH  21  22
ENDBRANCH  20  21
ENDBRANCH  19  20
ENDBRANCH  16  19
ENDBRANCH  15  16
ENDBRANCH  14  15
ENDBRANCH  12  14
ENDBRANCH   9  10
ENDBRANCH   8   9
ENDBRANCH   4   8
BRANCH   6  29
HETATM   29  O2  UNL     1     105.837  23.625  49.860  1.00  0.00    -0.392 OA
ATOM     30  H2  UNL     1     105.576  24.200  49.151  1.00  0.00     0.210 HD
ENDBRANCH   6  29
ENDBRANCH   3   4
TORSDOF 12
ENDMDL
