MODEL 1
REMARK VINA RESULT: -7.253714284      0.000      0.000
REMARK  12 active torsions:
REMARK  status: ('A' for Active; 'I' for Inactive)
REMARK       I    between atoms: C2_2  and  N1_4 
REMARK    1  A    between atoms: N1_4  and  C3_6 
REMARK    2  A    between atoms: N2_8  and  N3_9 
REMARK    3  A    between atoms: N4_12  and  C5_13 
REMARK    4  A    between atoms: N4_12  and  C7_17 
REMARK    5  A    between atoms: C5_13  and  C6_14 
REMARK    6  A    between atoms: C6_14  and  O2_15 
REMARK    7  A    between atoms: C7_17  and  C8_18 
REMARK    8  A    between atoms: C8_18  and  C9_19 
REMARK    9  A    between atoms: C9_19  and  C10_20 
REMARK   10  A    between atoms: C10_20  and  C11_21 
REMARK   11  A    between atoms: C11_21  and  C12_22 
REMARK   12  A    between atoms: C12_22  and  N5_23 
ROOT
HETATM    1  C3  UNL     1     102.579  16.221  43.740  1.00  0.00     0.129 C 
HETATM    2  C4  UNL     1     101.776  15.634  44.873  1.00  0.00     0.172 C 
HETATM    3  N2  UNL     1     102.674  15.843  45.968  1.00  0.00    -0.056 NA
HETATM    4  N4  UNL     1     103.151  17.166  45.846  1.00  0.00     0.016 N 
HETATM    5  C14 UNL     1     103.209  17.399  44.385  1.00  0.00     0.287 C 
ENDROOT
BRANCH   4   6
HETATM    6  C5  UNL     1     104.481  17.292  46.274  1.00  0.00     0.286 C 
BRANCH   6   7
HETATM    7  C6  UNL     1     105.455  18.198  45.685  1.00  0.00     0.194 C 
BRANCH   7   8
HETATM    8  O2  UNL     1     106.241  18.962  46.533  1.00  0.00    -0.399 OA
ATOM      9  H2  UNL     1     106.059  19.892  46.603  1.00  0.00     0.209 HD
ENDBRANCH   7   8
ENDBRANCH   6   7
ENDBRANCH   4   6
BRANCH   4  10
HETATM   10  C7  UNL     1     102.131  18.008  46.326  1.00  0.00     0.261 C 
BRANCH  10  11
HETATM   11  C8  UNL     1     102.448  18.999  47.393  1.00  0.00     0.030 C 
BRANCH  11  12
HETATM   12  C9  UNL     1     102.078  18.424  48.781  1.00  0.00     0.002 C 
BRANCH  12  13
HETATM   13  C10 UNL     1     101.575  19.507  49.683  1.00  0.00     0.002 C 
BRANCH  13  14
HETATM   14  C11 UNL     1     102.373  20.769  49.658  1.00  0.00     0.020 C 
BRANCH  14  15
HETATM   15  C12 UNL     1     103.647  20.504  50.459  1.00  0.00     0.122 C 
BRANCH  15  16
HETATM   16  N5  UNL     1     104.365  21.749  50.636  1.00  0.00    -0.367 N 
HETATM   17  C13 UNL     1     105.394  22.013  49.891  1.00  0.00     0.196 C 
HETATM   18  N6  UNL     1     105.834  21.100  48.898  1.00  0.00    -0.067 NA
HETATM   19  N7  UNL     1     106.091  23.232  50.068  1.00  0.00    -0.067 NA
ATOM     20  H5  UNL     1     104.062  22.418  51.344  1.00  0.00     0.161 HD
ENDBRANCH  15  16
ENDBRANCH  14  15
ENDBRANCH  13  14
ENDBRANCH  12  13
ENDBRANCH  11  12
ENDBRANCH  10  11
ENDBRANCH   4  10
BRANCH   3  21
HETATM   21  N3  UNL     1     103.653  14.879  45.904  1.00  0.00    -0.340 NA
ATOM     22  H32 UNL     1     104.411  15.004  46.576  1.00  0.00     0.172 HD
ATOM     23  H31 UNL     1     104.078  14.922  44.978  1.00  0.00     0.172 HD
ENDBRANCH   3  21
BRANCH   1  24
HETATM   24  N1  UNL     1     101.729  16.580  42.615  1.00  0.00    -0.354 N 
HETATM   25  C2  UNL     1     101.100  15.633  41.791  1.00  0.00     0.214 C 
HETATM   26  C1  UNL     1     100.244  16.040  40.658  1.00  0.00     0.117 C 
HETATM   27  O1  UNL     1     101.263  14.408  42.013  1.00  0.00    -0.274 OA
ATOM     28  H1  UNL     1     101.581  17.569  42.415  1.00  0.00     0.162 HD
ENDBRANCH   1  24
TORSDOF 12
ENDMDL
MODEL 2
REMARK VINA RESULT: -7.073740975      2.222      3.096
REMARK  12 active torsions:
REMARK  status: ('A' for Active; 'I' for Inactive)
REMARK       I    between atoms: C2_2  and  N1_4 
REMARK    1  A    between atoms: N1_4  and  C3_6 
REMARK    2  A    between atoms: N2_8  and  N3_9 
REMARK    3  A    between atoms: N4_12  and  C5_13 
REMARK    4  A    between atoms: N4_12  and  C7_17 
REMARK    5  A    between atoms: C5_13  and  C6_14 
REMARK    6  A    between atoms: C6_14  and  O2_15 
REMARK    7  A    between atoms: C7_17  and  C8_18 
REMARK    8  A    between atoms: C8_18  and  C9_19 
REMARK    9  A    between atoms: C9_19  and  C10_20 
REMARK   10  A    between atoms: C10_20  and  C11_21 
REMARK   11  A    between atoms: C11_21  and  C12_22 
REMARK   12  A    between atoms: C12_22  and  N5_23 
ROOT
HETATM    1  C3  UNL     1     103.213  17.084  42.477  1.00  0.00     0.129 C 
HETATM    2  C4  UNL     1     102.537  18.368  42.888  1.00  0.00     0.172 C 
HETATM    3  N2  UNL     1     101.651  17.884  43.903  1.00  0.00    -0.056 NA
HETATM    4  N4  UNL     1     102.408  17.012  44.714  1.00  0.00     0.016 N 
HETATM    5  C14 UNL     1     103.369  16.386  43.777  1.00  0.00     0.287 C 
ENDROOT
BRANCH   4   6
HETATM    6  C5  UNL     1     101.645  15.941  45.201  1.00  0.00     0.286 C 
BRANCH   6   7
HETATM    7  C6  UNL     1     102.127  14.575  45.328  1.00  0.00     0.194 C 
BRANCH   7   8
HETATM    8  O2  UNL     1     101.357  13.669  46.041  1.00  0.00    -0.399 OA
ATOM      9  H2  UNL     1     100.551  13.353  45.647  1.00  0.00     0.209 HD
ENDBRANCH   7   8
ENDBRANCH   6   7
ENDBRANCH   4   6
BRANCH   4  10
HETATM   10  C7  UNL     1     103.181  17.823  45.565  1.00  0.00     0.261 C 
BRANCH  10  11
HETATM   11  C8  UNL     1     102.927  17.787  47.033  1.00  0.00     0.030 C 
BRANCH  11  12
HETATM   12  C9  UNL     1     102.202  19.079  47.479  1.00  0.00     0.002 C 
BRANCH  12  13
HETATM   13  C10 UNL     1     102.132  19.155  48.973  1.00  0.00     0.002 C 
BRANCH  13  14
HETATM   14  C11 UNL     1     102.402  20.506  49.549  1.00  0.00     0.020 C 
BRANCH  14  15
HETATM   15  C12 UNL     1     103.664  20.380  50.400  1.00  0.00     0.122 C 
BRANCH  15  16
HETATM   16  N5  UNL     1     104.251  21.693  50.576  1.00  0.00    -0.367 N 
HETATM   17  C13 UNL     1     105.297  22.031  49.887  1.00  0.00     0.196 C 
HETATM   18  N6  UNL     1     105.883  21.134  48.955  1.00  0.00    -0.067 NA
HETATM   19  N7  UNL     1     105.866  23.314  50.064  1.00  0.00    -0.067 NA
ATOM     20  H5  UNL     1     103.843  22.350  51.241  1.00  0.00     0.161 HD
ENDBRANCH  15  16
ENDBRANCH  14  15
ENDBRANCH  13  14
ENDBRANCH  12  13
ENDBRANCH  11  12
ENDBRANCH  10  11
ENDBRANCH   4  10
BRANCH   3  21
HETATM   21  N3  UNL     1     100.576  17.290  43.281  1.00  0.00    -0.340 NA
ATOM     22  H32 UNL     1     100.143  17.861  42.555  1.00  0.00     0.172 HD
ATOM     23  H31 UNL     1      99.858  17.122  43.985  1.00  0.00     0.172 HD
ENDBRANCH   3  21
BRANCH   1  24
HETATM   24  N1  UNL     1     104.484  17.341  41.817  1.00  0.00    -0.354 N 
HETATM   25  C2  UNL     1     104.977  16.558  40.761  1.00  0.00     0.214 C 
HETATM   26  C1  UNL     1     106.274  16.853  40.120  1.00  0.00     0.117 C 
HETATM   27  O1  UNL     1     104.308  15.580  40.345  1.00  0.00    -0.274 OA
ATOM     28  H1  UNL     1     105.046  18.129  42.138  1.00  0.00     0.162 HD
ENDBRANCH   1  24
TORSDOF 12
ENDMDL
MODEL 3
REMARK VINA RESULT: -6.823419361      2.307      2.886
REMARK  12 active torsions:
REMARK  status: ('A' for Active; 'I' for Inactive)
REMARK       I    between atoms: C2_2  and  N1_4 
REMARK    1  A    between atoms: N1_4  and  C3_6 
REMARK    2  A    between atoms: N2_8  and  N3_9 
REMARK    3  A    between atoms: N4_12  and  C5_13 
REMARK    4  A    between atoms: N4_12  and  C7_17 
REMARK    5  A    between atoms: C5_13  and  C6_14 
REMARK    6  A    between atoms: C6_14  and  O2_15 
REMARK    7  A    between atoms: C7_17  and  C8_18 
REMARK    8  A    between atoms: C8_18  and  C9_19 
REMARK    9  A    between atoms: C9_19  and  C10_20 
REMARK   10  A    between atoms: C10_20  and  C11_21 
REMARK   11  A    between atoms: C11_21  and  C12_22 
REMARK   12  A    between atoms: C12_22  and  N5_23 
ROOT
HETATM    1  C3  UNL     1     102.087  18.095  42.601  1.00  0.00     0.129 C 
HETATM    2  C4  UNL     1     100.748  17.724  43.189  1.00  0.00     0.172 C 
HETATM    3  N2  UNL     1     101.119  16.601  43.997  1.00  0.00    -0.056 NA
HETATM    4  N4  UNL     1     102.290  16.976  44.690  1.00  0.00     0.016 N 
HETATM    5  C14 UNL     1     103.002  17.868  43.746  1.00  0.00     0.287 C 
ENDROOT
BRANCH   4   6
HETATM    6  C5  UNL     1     103.165  15.896  44.878  1.00  0.00     0.286 C 
BRANCH   6   7
HETATM    7  C6  UNL     1     102.924  14.788  45.789  1.00  0.00     0.194 C 
BRANCH   7   8
HETATM    8  O2  UNL     1     101.635  14.286  45.889  1.00  0.00    -0.399 OA
ATOM      9  H2  UNL     1     101.403  13.531  45.361  1.00  0.00     0.209 HD
ENDBRANCH   7   8
ENDBRANCH   6   7
ENDBRANCH   4   6
BRANCH   4  10
HETATM   10  C7  UNL     1     101.881  17.798  45.755  1.00  0.00     0.261 C 
BRANCH  10  11
HETATM   11  C8  UNL     1     102.899  18.286  46.730  1.00  0.00     0.030 C 
BRANCH  11  12
HETATM   12  C9  UNL     1     102.236  18.551  48.102  1.00  0.00     0.002 C 
BRANCH  12  13
HETATM   13  C10 UNL     1     102.351  19.997  48.472  1.00  0.00     0.002 C 
BRANCH  13  14
HETATM   14  C11 UNL     1     102.345  20.275  49.939  1.00  0.00     0.020 C 
BRANCH  14  15
HETATM   15  C12 UNL     1     103.798  20.207  50.408  1.00  0.00     0.122 C 
BRANCH  15  16
HETATM   16  N5  UNL     1     104.296  21.553  50.605  1.00  0.00    -0.367 N 
HETATM   17  C13 UNL     1     105.295  21.982  49.896  1.00  0.00     0.196 C 
HETATM   18  N6  UNL     1     105.914  21.154  48.923  1.00  0.00    -0.067 NA
HETATM   19  N7  UNL     1     105.778  23.297  50.093  1.00  0.00    -0.067 NA
ATOM     20  H5  UNL     1     103.863  22.161  51.299  1.00  0.00     0.161 HD
ENDBRANCH  15  16
ENDBRANCH  14  15
ENDBRANCH  13  14
ENDBRANCH  12  13
ENDBRANCH  11  12
ENDBRANCH  10  11
ENDBRANCH   4  10
BRANCH   3  21
HETATM   21  N3  UNL     1     101.274  15.514  43.166  1.00  0.00    -0.340 NA
ATOM     22  H32 UNL     1     101.647  14.684  43.627  1.00  0.00     0.172 HD
ATOM     23  H31 UNL     1     101.944  15.766  42.440  1.00  0.00     0.172 HD
ENDBRANCH   3  21
BRANCH   1  24
HETATM   24  N1  UNL     1     102.097  19.473  42.133  1.00  0.00    -0.354 N 
HETATM   25  C2  UNL     1     101.868  19.836  40.796  1.00  0.00     0.214 C 
HETATM   26  C1  UNL     1     101.889  21.247  40.364  1.00  0.00     0.117 C 
HETATM   27  O1  UNL     1     101.640  18.946  39.940  1.00  0.00    -0.274 OA
ATOM     28  H1  UNL     1     102.281  20.214  42.811  1.00  0.00     0.162 HD
ENDBRANCH   1  24
TORSDOF 12
ENDMDL
MODEL 4
REMARK VINA RESULT: -6.691441211      1.240      1.307
REMARK  12 active torsions:
REMARK  status: ('A' for Active; 'I' for Inactive)
REMARK       I    between atoms: C2_2  and  N1_4 
REMARK    1  A    between atoms: N1_4  and  C3_6 
REMARK    2  A    between atoms: N2_8  and  N3_9 
REMARK    3  A    between atoms: N4_12  and  C5_13 
REMARK    4  A    between atoms: N4_12  and  C7_17 
REMARK    5  A    between atoms: C5_13  and  C6_14 
REMARK    6  A    between atoms: C6_14  and  O2_15 
REMARK    7  A    between atoms: C7_17  and  C8_18 
REMARK    8  A    between atoms: C8_18  and  C9_19 
REMARK    9  A    between atoms: C9_19  and  C10_20 
REMARK   10  A    between atoms: C10_20  and  C11_21 
REMARK   11  A    between atoms: C11_21  and  C12_22 
REMARK   12  A    between atoms: C12_22  and  N5_23 
ROOT
HETATM    1  C3  UNL     1     102.298  16.921  43.836  1.00  0.00     0.129 C 
HETATM    2  C4  UNL     1     101.524  16.156  44.879  1.00  0.00     0.172 C 
HETATM    3  N2  UNL     1     102.512  16.041  45.908  1.00  0.00    -0.056 NA
HETATM    4  N4  UNL     1     103.105  17.315  46.038  1.00  0.00     0.016 N 
HETATM    5  C14 UNL     1     103.081  17.870  44.665  1.00  0.00     0.287 C 
ENDROOT
BRANCH   4   6
HETATM    6  C5  UNL     1     104.468  17.238  46.361  1.00  0.00     0.286 C 
BRANCH   6   7
HETATM    7  C6  UNL     1     105.484  18.158  45.877  1.00  0.00     0.194 C 
BRANCH   7   8
HETATM    8  O2  UNL     1     105.774  19.279  46.640  1.00  0.00    -0.399 OA
ATOM      9  H2  UNL     1     106.663  19.394  46.954  1.00  0.00     0.209 HD
ENDBRANCH   7   8
ENDBRANCH   6   7
ENDBRANCH   4   6
BRANCH   4  10
HETATM   10  C7  UNL     1     102.207  18.103  46.781  1.00  0.00     0.261 C 
BRANCH  10  11
HETATM   11  C8  UNL     1     102.410  18.247  48.251  1.00  0.00     0.030 C 
BRANCH  11  12
HETATM   12  C9  UNL     1     101.652  19.491  48.773  1.00  0.00     0.002 C 
BRANCH  12  13
HETATM   13  C10 UNL     1     102.614  20.519  49.281  1.00  0.00     0.002 C 
BRANCH  13  14
HETATM   14  C11 UNL     1     102.869  20.472  50.752  1.00  0.00     0.020 C 
BRANCH  14  15
HETATM   15  C12 UNL     1     104.384  20.493  50.939  1.00  0.00     0.122 C 
BRANCH  15  16
HETATM   16  N5  UNL     1     104.830  21.867  51.050  1.00  0.00    -0.367 N 
HETATM   17  C13 UNL     1     105.561  22.387  50.113  1.00  0.00     0.196 C 
HETATM   18  N6  UNL     1     105.937  21.631  48.972  1.00  0.00    -0.067 NA
HETATM   19  N7  UNL     1     105.993  23.730  50.226  1.00  0.00    -0.067 NA
ATOM     20  H5  UNL     1     104.568  22.425  51.863  1.00  0.00     0.161 HD
ENDBRANCH  15  16
ENDBRANCH  14  15
ENDBRANCH  13  14
ENDBRANCH  12  13
ENDBRANCH  11  12
ENDBRANCH  10  11
ENDBRANCH   4  10
BRANCH   3  21
HETATM   21  N3  UNL     1     103.388  15.043  45.545  1.00  0.00    -0.340 NA
ATOM     22  H32 UNL     1     103.508  14.935  44.538  1.00  0.00     0.172 HD
ATOM     23  H31 UNL     1     103.016  14.157  45.889  1.00  0.00     0.172 HD
ENDBRANCH   3  21
BRANCH   1  24
HETATM   24  N1  UNL     1     101.409  17.591  42.899  1.00  0.00    -0.354 N 
HETATM   25  C2  UNL     1     101.793  17.959  41.599  1.00  0.00     0.214 C 
HETATM   26  C1  UNL     1     100.858  18.638  40.680  1.00  0.00     0.117 C 
HETATM   27  O1  UNL     1     102.957  17.710  41.200  1.00  0.00    -0.274 OA
ATOM     28  H1  UNL     1     100.458  17.804  43.201  1.00  0.00     0.162 HD
ENDBRANCH   1  24
TORSDOF 12
ENDMDL
MODEL 5
REMARK VINA RESULT: -6.391682679      2.581      7.685
REMARK  12 active torsions:
REMARK  status: ('A' for Active; 'I' for Inactive)
REMARK       I    between atoms: C2_2  and  N1_4 
REMARK    1  A    between atoms: N1_4  and  C3_6 
REMARK    2  A    between atoms: N2_8  and  N3_9 
REMARK    3  A    between atoms: N4_12  and  C5_13 
REMARK    4  A    between atoms: N4_12  and  C7_17 
REMARK    5  A    between atoms: C5_13  and  C6_14 
REMARK    6  A    between atoms: C6_14  and  O2_15 
REMARK    7  A    between atoms: C7_17  and  C8_18 
REMARK    8  A    between atoms: C8_18  and  C9_19 
REMARK    9  A    between atoms: C9_19  and  C10_20 
REMARK   10  A    between atoms: C10_20  and  C11_21 
REMARK   11  A    between atoms: C11_21  and  C12_22 
REMARK   12  A    between atoms: C12_22  and  N5_23 
ROOT
HETATM    1  C3  UNL     1     102.538  17.618  46.445  1.00  0.00     0.129 C 
HETATM    2  C4  UNL     1     103.969  17.570  45.971  1.00  0.00     0.172 C 
HETATM    3  N2  UNL     1     103.887  16.526  44.996  1.00  0.00    -0.056 NA
HETATM    4  N4  UNL     1     102.733  16.786  44.226  1.00  0.00     0.016 N 
HETATM    5  C14 UNL     1     101.786  17.400  45.185  1.00  0.00     0.287 C 
ENDROOT
BRANCH   4   6
HETATM    6  C5  UNL     1     102.095  15.609  43.809  1.00  0.00     0.286 C 
BRANCH   6   7
HETATM    7  C6  UNL     1     101.250  15.502  42.630  1.00  0.00     0.194 C 
BRANCH   7   8
HETATM    8  O2  UNL     1     101.090  14.255  42.046  1.00  0.00    -0.399 OA
ATOM      9  H2  UNL     1     100.835  14.214  41.131  1.00  0.00     0.209 HD
ENDBRANCH   7   8
ENDBRANCH   6   7
ENDBRANCH   4   6
BRANCH   4  10
HETATM   10  C7  UNL     1     103.075  17.809  43.322  1.00  0.00     0.261 C 
BRANCH  10  11
HETATM   11  C8  UNL     1     102.141  18.956  43.135  1.00  0.00     0.030 C 
BRANCH  11  12
HETATM   12  C9  UNL     1     101.898  19.203  41.627  1.00  0.00     0.002 C 
BRANCH  12  13
HETATM   13  C10 UNL     1     102.803  18.343  40.800  1.00  0.00     0.002 C 
BRANCH  13  14
HETATM   14  C11 UNL     1     102.190  17.802  39.551  1.00  0.00     0.020 C 
BRANCH  14  15
HETATM   15  C12 UNL     1     102.714  16.378  39.381  1.00  0.00     0.122 C 
BRANCH  15  16
HETATM   16  N5  UNL     1     104.027  16.281  39.985  1.00  0.00    -0.367 N 
HETATM   17  C13 UNL     1     104.430  15.150  40.477  1.00  0.00     0.196 C 
HETATM   18  N6  UNL     1     103.605  13.996  40.435  1.00  0.00    -0.067 NA
HETATM   19  N7  UNL     1     105.713  15.061  41.067  1.00  0.00    -0.067 NA
ATOM     20  H5  UNL     1     104.634  17.099  40.024  1.00  0.00     0.161 HD
ENDBRANCH  15  16
ENDBRANCH  14  15
ENDBRANCH  13  14
ENDBRANCH  12  13
ENDBRANCH  11  12
ENDBRANCH  10  11
ENDBRANCH   4  10
BRANCH   3  21
HETATM   21  N3  UNL     1     103.864  15.322  45.663  1.00  0.00    -0.340 NA
ATOM     22  H32 UNL     1     103.654  14.518  45.072  1.00  0.00     0.172 HD
ATOM     23  H31 UNL     1     103.125  15.366  46.365  1.00  0.00     0.172 HD
ENDBRANCH   3  21
BRANCH   1  24
HETATM   24  N1  UNL     1     102.229  18.893  47.075  1.00  0.00    -0.354 N 
HETATM   25  C2  UNL     1     102.315  19.111  48.459  1.00  0.00     0.214 C 
HETATM   26  C1  UNL     1     101.992  20.422  49.057  1.00  0.00     0.117 C 
HETATM   27  O1  UNL     1     102.675  18.176  49.216  1.00  0.00    -0.274 OA
ATOM     28  H1  UNL     1     101.934  19.668  46.480  1.00  0.00     0.162 HD
ENDBRANCH   1  24
TORSDOF 12
ENDMDL
