MODEL 1
REMARK VINA RESULT: -6.591987286      0.000      0.000
REMARK  11 active torsions:
REMARK  status: ('A' for Active; 'I' for Inactive)
REMARK    1  A    between atoms: C1_4  and  N2_5 
REMARK    2  A    between atoms: N2_5  and  C2_7 
REMARK    3  A    between atoms: C2_7  and  C3_8 
REMARK    4  A    between atoms: C3_8  and  C4_9 
REMARK    5  A    between atoms: C4_9  and  N3_10 
REMARK    6  A    between atoms: N3_10  and  C5_13 
REMARK    7  A    between atoms: C5_13  and  C6_14 
REMARK       I    between atoms: C6_14  and  N4_16 
REMARK    8  A    between atoms: N4_16  and  C7_18 
REMARK    9  A    between atoms: N5_21  and  C10_22 
REMARK   10  A    between atoms: C10_22  and  C11_23 
REMARK   11  A    between atoms: C11_23  and  N6_24 
ROOT
HETATM    1  C6  UNL     1     102.625  18.214  47.039  1.00  0.00     0.243 C 
HETATM    2  O1  UNL     1     103.340  17.298  47.553  1.00  0.00    -0.272 OA
HETATM    3  N4  UNL     1     102.266  18.086  45.707  1.00  0.00    -0.355 N 
ATOM      4  H4  UNL     1     101.701  18.823  45.286  1.00  0.00     0.162 HD
ENDROOT
BRANCH   1   5
HETATM    5  C5  UNL     1     102.238  19.333  47.887  1.00  0.00     0.334 C 
BRANCH   5   6
HETATM    6  N3  UNL     1     102.065  19.023  49.276  1.00  0.00    -0.067 N 
ATOM      7  H32 UNL     1     102.707  18.284  49.565  1.00  0.00     0.277 HD
ATOM      8  H31 UNL     1     101.177  18.546  49.433  1.00  0.00     0.277 HD
BRANCH   6   9
HETATM    9  C4  UNL     1     102.186  20.166  50.134  1.00  0.00     0.234 C 
BRANCH   9  10
HETATM   10  C3  UNL     1     103.432  20.974  49.972  1.00  0.00     0.047 C 
BRANCH  10  11
HETATM   11  C2  UNL     1     104.438  20.863  51.067  1.00  0.00     0.122 C 
BRANCH  11  12
HETATM   12  N2  UNL     1     105.499  21.827  51.013  1.00  0.00    -0.386 N 
ATOM     13  H2  UNL     1     106.375  21.683  51.515  1.00  0.00     0.160 HD
BRANCH  12  14
HETATM   14  C1  UNL     1     105.271  23.010  50.218  1.00  0.00     0.168 C 
HETATM   15  N1  UNL     1     105.711  24.130  50.639  1.00  0.00    -0.396 N 
ATOM     16  H12 UNL     1     106.214  24.173  51.526  1.00  0.00     0.156 HD
ATOM     17  H11 UNL     1     105.551  24.966  50.077  1.00  0.00     0.156 HD
ENDBRANCH  12  14
ENDBRANCH  11  12
ENDBRANCH  10  11
ENDBRANCH   9  10
ENDBRANCH   6   9
ENDBRANCH   5   6
ENDBRANCH   1   5
BRANCH   3  18
HETATM   18  C7  UNL     1     102.656  16.950  44.873  1.00  0.00     0.087 C 
HETATM   19  C8  UNL     1     101.495  16.111  44.449  1.00  0.00     0.055 C 
HETATM   20  C9  UNL     1     101.137  16.275  42.995  1.00  0.00     0.274 C 
HETATM   21  N5  UNL     1     102.236  15.998  42.110  1.00  0.00     0.090 N 
HETATM   22  C13 UNL     1     103.521  16.357  42.661  1.00  0.00     0.274 C 
HETATM   23  C14 UNL     1     103.430  17.461  43.686  1.00  0.00     0.055 C 
BRANCH  21  24
HETATM   24  C10 UNL     1     102.014  16.581  40.811  1.00  0.00     0.292 C 
BRANCH  24  25
HETATM   25  C11 UNL     1     100.971  17.659  40.948  1.00  0.00     0.152 C 
BRANCH  25  26
HETATM   26  N6  UNL     1     101.567  18.929  40.595  1.00  0.00    -0.365 N 
HETATM   27  C12 UNL     1     101.607  19.945  41.362  1.00  0.00     0.197 C 
HETATM   28  N7  UNL     1     102.222  21.136  40.893  1.00  0.00    -0.067 NA
HETATM   29  N8  UNL     1     101.067  19.944  42.660  1.00  0.00    -0.067 NA
ATOM     30  H6  UNL     1     101.983  19.016  39.668  1.00  0.00     0.161 HD
ENDBRANCH  25  26
ENDBRANCH  24  25
ENDBRANCH  21  24
ENDBRANCH   3  18
TORSDOF 11
ENDMDL
MODEL 2
REMARK VINA RESULT: -6.327076702      0.951      1.465
REMARK  11 active torsions:
REMARK  status: ('A' for Active; 'I' for Inactive)
REMARK    1  A    between atoms: C1_4  and  N2_5 
REMARK    2  A    between atoms: N2_5  and  C2_7 
REMARK    3  A    between atoms: C2_7  and  C3_8 
REMARK    4  A    between atoms: C3_8  and  C4_9 
REMARK    5  A    between atoms: C4_9  and  N3_10 
REMARK    6  A    between atoms: N3_10  and  C5_13 
REMARK    7  A    between atoms: C5_13  and  C6_14 
REMARK       I    between atoms: C6_14  and  N4_16 
REMARK    8  A    between atoms: N4_16  and  C7_18 
REMARK    9  A    between atoms: N5_21  and  C10_22 
REMARK   10  A    between atoms: C10_22  and  C11_23 
REMARK   11  A    between atoms: C11_23  and  N6_24 
ROOT
HETATM    1  C6  UNL     1     102.646  18.246  47.104  1.00  0.00     0.243 C 
HETATM    2  O1  UNL     1     103.308  17.301  47.636  1.00  0.00    -0.272 OA
HETATM    3  N4  UNL     1     102.305  18.125  45.766  1.00  0.00    -0.355 N 
ATOM      4  H4  UNL     1     101.783  18.885  45.330  1.00  0.00     0.162 HD
ENDROOT
BRANCH   1   5
HETATM    5  C5  UNL     1     102.298  19.389  47.937  1.00  0.00     0.334 C 
BRANCH   5   6
HETATM    6  N3  UNL     1     101.956  19.080  49.295  1.00  0.00    -0.067 N 
ATOM      7  H32 UNL     1     102.453  18.248  49.613  1.00  0.00     0.277 HD
ATOM      8  H31 UNL     1     100.997  18.739  49.358  1.00  0.00     0.277 HD
BRANCH   6   9
HETATM    9  C4  UNL     1     102.167  20.174  50.197  1.00  0.00     0.234 C 
BRANCH   9  10
HETATM   10  C3  UNL     1     103.480  20.876  50.078  1.00  0.00     0.047 C 
BRANCH  10  11
HETATM   11  C2  UNL     1     104.372  20.816  51.272  1.00  0.00     0.122 C 
BRANCH  11  12
HETATM   12  N2  UNL     1     105.764  20.634  50.979  1.00  0.00    -0.386 N 
ATOM     13  H2  UNL     1     106.214  21.124  50.206  1.00  0.00     0.160 HD
BRANCH  12  14
HETATM   14  C1  UNL     1     106.499  19.725  51.826  1.00  0.00     0.168 C 
HETATM   15  N1  UNL     1     106.758  18.553  51.395  1.00  0.00    -0.396 N 
ATOM     16  H12 UNL     1     106.443  18.277  50.465  1.00  0.00     0.156 HD
ATOM     17  H11 UNL     1     107.277  17.911  51.994  1.00  0.00     0.156 HD
ENDBRANCH  12  14
ENDBRANCH  11  12
ENDBRANCH  10  11
ENDBRANCH   9  10
ENDBRANCH   6   9
ENDBRANCH   5   6
ENDBRANCH   1   5
BRANCH   3  18
HETATM   18  C7  UNL     1     102.655  16.966  44.947  1.00  0.00     0.087 C 
HETATM   19  C8  UNL     1     101.467  16.148  44.555  1.00  0.00     0.055 C 
HETATM   20  C9  UNL     1     101.092  16.296  43.103  1.00  0.00     0.274 C 
HETATM   21  N5  UNL     1     102.170  15.976  42.208  1.00  0.00     0.090 N 
HETATM   22  C13 UNL     1     103.471  16.313  42.733  1.00  0.00     0.274 C 
HETATM   23  C14 UNL     1     103.423  17.437  43.741  1.00  0.00     0.055 C 
BRANCH  21  24
HETATM   24  C10 UNL     1     101.943  16.542  40.902  1.00  0.00     0.292 C 
BRANCH  24  25
HETATM   25  C11 UNL     1     100.924  17.643  41.034  1.00  0.00     0.152 C 
BRANCH  25  26
HETATM   26  N6  UNL     1     101.545  18.897  40.668  1.00  0.00    -0.365 N 
HETATM   27  C12 UNL     1     101.586  19.928  41.414  1.00  0.00     0.197 C 
HETATM   28  N7  UNL     1     102.227  21.100  40.933  1.00  0.00    -0.067 NA
HETATM   29  N8  UNL     1     101.021  19.961  42.701  1.00  0.00    -0.067 NA
ATOM     30  H6  UNL     1     101.981  18.959  39.747  1.00  0.00     0.161 HD
ENDBRANCH  25  26
ENDBRANCH  24  25
ENDBRANCH  21  24
ENDBRANCH   3  18
TORSDOF 11
ENDMDL
MODEL 3
REMARK VINA RESULT: -6.261539388      1.574      2.051
REMARK  11 active torsions:
REMARK  status: ('A' for Active; 'I' for Inactive)
REMARK    1  A    between atoms: C1_4  and  N2_5 
REMARK    2  A    between atoms: N2_5  and  C2_7 
REMARK    3  A    between atoms: C2_7  and  C3_8 
REMARK    4  A    between atoms: C3_8  and  C4_9 
REMARK    5  A    between atoms: C4_9  and  N3_10 
REMARK    6  A    between atoms: N3_10  and  C5_13 
REMARK    7  A    between atoms: C5_13  and  C6_14 
REMARK       I    between atoms: C6_14  and  N4_16 
REMARK    8  A    between atoms: N4_16  and  C7_18 
REMARK    9  A    between atoms: N5_21  and  C10_22 
REMARK   10  A    between atoms: C10_22  and  C11_23 
REMARK   11  A    between atoms: C11_23  and  N6_24 
ROOT
HETATM    1  C6  UNL     1     102.364  18.156  48.280  1.00  0.00     0.243 C 
HETATM    2  O1  UNL     1     103.253  17.368  48.730  1.00  0.00    -0.272 OA
HETATM    3  N4  UNL     1     102.125  18.153  46.915  1.00  0.00    -0.355 N 
ATOM      4  H4  UNL     1     101.420  18.791  46.546  1.00  0.00     0.162 HD
ENDROOT
BRANCH   1   5
HETATM    5  C5  UNL     1     101.663  19.008  49.231  1.00  0.00     0.334 C 
BRANCH   5   6
HETATM    6  N3  UNL     1     102.123  20.364  49.299  1.00  0.00    -0.067 N 
ATOM      7  H32 UNL     1     101.335  21.011  49.353  1.00  0.00     0.277 HD
ATOM      8  H31 UNL     1     102.521  20.657  48.407  1.00  0.00     0.277 HD
BRANCH   6   9
HETATM    9  C4  UNL     1     103.047  20.598  50.369  1.00  0.00     0.234 C 
BRANCH   9  10
HETATM   10  C3  UNL     1     104.190  21.509  50.058  1.00  0.00     0.047 C 
BRANCH  10  11
HETATM   11  C2  UNL     1     105.458  21.256  50.800  1.00  0.00     0.122 C 
BRANCH  11  12
HETATM   12  N2  UNL     1     105.479  20.045  51.568  1.00  0.00    -0.386 N 
ATOM     13  H2  UNL     1     104.641  19.696  52.035  1.00  0.00     0.160 HD
BRANCH  12  14
HETATM   14  C1  UNL     1     106.737  19.341  51.651  1.00  0.00     0.168 C 
HETATM   15  N1  UNL     1     106.806  18.149  51.205  1.00  0.00    -0.396 N 
ATOM     16  H12 UNL     1     105.978  17.713  50.798  1.00  0.00     0.156 HD
ATOM     17  H11 UNL     1     107.695  17.652  51.263  1.00  0.00     0.156 HD
ENDBRANCH  12  14
ENDBRANCH  11  12
ENDBRANCH  10  11
ENDBRANCH   9  10
ENDBRANCH   6   9
ENDBRANCH   5   6
ENDBRANCH   1   5
BRANCH   3  18
HETATM   18  C7  UNL     1     102.833  17.284  45.975  1.00  0.00     0.087 C 
HETATM   19  C8  UNL     1     102.024  16.101  45.552  1.00  0.00     0.055 C 
HETATM   20  C9  UNL     1     101.517  16.199  44.136  1.00  0.00     0.274 C 
HETATM   21  N5  UNL     1     102.568  16.390  43.174  1.00  0.00     0.090 N 
HETATM   22  C13 UNL     1     103.675  17.165  43.680  1.00  0.00     0.274 C 
HETATM   23  C14 UNL     1     103.273  18.104  44.792  1.00  0.00     0.055 C 
BRANCH  21  24
HETATM   24  C10 UNL     1     102.048  16.918  41.938  1.00  0.00     0.292 C 
BRANCH  24  25
HETATM   25  C11 UNL     1     100.703  17.536  42.216  1.00  0.00     0.152 C 
BRANCH  25  26
HETATM   26  N6  UNL     1     100.796  18.964  42.008  1.00  0.00    -0.365 N 
HETATM   27  C12 UNL     1     100.585  19.841  42.907  1.00  0.00     0.197 C 
HETATM   28  N7  UNL     1     100.709  21.214  42.572  1.00  0.00    -0.067 NA
HETATM   29  N8  UNL     1     100.231  19.510  44.228  1.00  0.00    -0.067 NA
ATOM     30  H6  UNL     1     101.048  19.292  41.075  1.00  0.00     0.161 HD
ENDBRANCH  25  26
ENDBRANCH  24  25
ENDBRANCH  21  24
ENDBRANCH   3  18
TORSDOF 11
ENDMDL
MODEL 4
REMARK VINA RESULT: -6.150452644      1.782      2.476
REMARK  11 active torsions:
REMARK  status: ('A' for Active; 'I' for Inactive)
REMARK    1  A    between atoms: C1_4  and  N2_5 
REMARK    2  A    between atoms: N2_5  and  C2_7 
REMARK    3  A    between atoms: C2_7  and  C3_8 
REMARK    4  A    between atoms: C3_8  and  C4_9 
REMARK    5  A    between atoms: C4_9  and  N3_10 
REMARK    6  A    between atoms: N3_10  and  C5_13 
REMARK    7  A    between atoms: C5_13  and  C6_14 
REMARK       I    between atoms: C6_14  and  N4_16 
REMARK    8  A    between atoms: N4_16  and  C7_18 
REMARK    9  A    between atoms: N5_21  and  C10_22 
REMARK   10  A    between atoms: C10_22  and  C11_23 
REMARK   11  A    between atoms: C11_23  and  N6_24 
ROOT
HETATM    1  C6  UNL     1     102.592  18.210  47.127  1.00  0.00     0.243 C 
HETATM    2  O1  UNL     1     103.292  17.284  47.643  1.00  0.00    -0.272 OA
HETATM    3  N4  UNL     1     102.080  18.004  45.856  1.00  0.00    -0.355 N 
ATOM      4  H4  UNL     1     101.526  18.748  45.432  1.00  0.00     0.162 HD
ENDROOT
BRANCH   1   5
HETATM    5  C5  UNL     1     102.383  19.422  47.907  1.00  0.00     0.334 C 
BRANCH   5   6
HETATM    6  N3  UNL     1     101.821  19.226  49.212  1.00  0.00    -0.067 N 
ATOM      7  H32 UNL     1     101.998  18.277  49.543  1.00  0.00     0.277 HD
ATOM      8  H31 UNL     1     100.802  19.203  49.168  1.00  0.00     0.277 HD
BRANCH   6   9
HETATM    9  C4  UNL     1     102.266  20.191  50.174  1.00  0.00     0.234 C 
BRANCH   9  10
HETATM   10  C3  UNL     1     103.611  20.791  49.923  1.00  0.00     0.047 C 
BRANCH  10  11
HETATM   11  C2  UNL     1     104.537  20.849  51.090  1.00  0.00     0.122 C 
BRANCH  11  12
HETATM   12  N2  UNL     1     105.557  21.854  51.005  1.00  0.00    -0.386 N 
ATOM     13  H2  UNL     1     106.459  21.738  51.466  1.00  0.00     0.160 HD
BRANCH  12  14
HETATM   14  C1  UNL     1     105.250  23.036  50.236  1.00  0.00     0.168 C 
HETATM   15  N1  UNL     1     105.660  24.169  50.656  1.00  0.00    -0.396 N 
ATOM     16  H12 UNL     1     106.194  24.221  51.523  1.00  0.00     0.156 HD
ATOM     17  H11 UNL     1     105.443  25.004  50.113  1.00  0.00     0.156 HD
ENDBRANCH  12  14
ENDBRANCH  11  12
ENDBRANCH  10  11
ENDBRANCH   9  10
ENDBRANCH   6   9
ENDBRANCH   5   6
ENDBRANCH   1   5
BRANCH   3  18
HETATM   18  C7  UNL     1     102.292  16.776  45.091  1.00  0.00     0.087 C 
HETATM   19  C8  UNL     1     101.037  16.246  44.477  1.00  0.00     0.055 C 
HETATM   20  C9  UNL     1     100.973  16.444  42.984  1.00  0.00     0.274 C 
HETATM   21  N5  UNL     1     102.090  15.862  42.291  1.00  0.00     0.090 N 
HETATM   22  C13 UNL     1     103.318  15.901  43.048  1.00  0.00     0.274 C 
HETATM   23  C14 UNL     1     103.352  17.029  44.052  1.00  0.00     0.055 C 
BRANCH  21  24
HETATM   24  C10 UNL     1     102.238  16.435  40.977  1.00  0.00     0.292 C 
BRANCH  24  25
HETATM   25  C11 UNL     1     103.203  15.583  40.195  1.00  0.00     0.152 C 
BRANCH  25  26
HETATM   26  N6  UNL     1     104.278  16.422  39.714  1.00  0.00    -0.365 N 
HETATM   27  C12 UNL     1     105.504  16.276  40.027  1.00  0.00     0.197 C 
HETATM   28  N7  UNL     1     106.464  17.170  39.486  1.00  0.00    -0.067 NA
HETATM   29  N8  UNL     1     105.955  15.262  40.892  1.00  0.00    -0.067 NA
ATOM     30  H6  UNL     1     104.038  17.184  39.080  1.00  0.00     0.161 HD
ENDBRANCH  25  26
ENDBRANCH  24  25
ENDBRANCH  21  24
ENDBRANCH   3  18
TORSDOF 11
ENDMDL
MODEL 5
REMARK VINA RESULT: -6.147218005      2.469      3.954
REMARK  11 active torsions:
REMARK  status: ('A' for Active; 'I' for Inactive)
REMARK    1  A    between atoms: C1_4  and  N2_5 
REMARK    2  A    between atoms: N2_5  and  C2_7 
REMARK    3  A    between atoms: C2_7  and  C3_8 
REMARK    4  A    between atoms: C3_8  and  C4_9 
REMARK    5  A    between atoms: C4_9  and  N3_10 
REMARK    6  A    between atoms: N3_10  and  C5_13 
REMARK    7  A    between atoms: C5_13  and  C6_14 
REMARK       I    between atoms: C6_14  and  N4_16 
REMARK    8  A    between atoms: N4_16  and  C7_18 
REMARK    9  A    between atoms: N5_21  and  C10_22 
REMARK   10  A    between atoms: C10_22  and  C11_23 
REMARK   11  A    between atoms: C11_23  and  N6_24 
ROOT
HETATM    1  C6  UNL     1     102.270  19.545  48.813  1.00  0.00     0.243 C 
HETATM    2  O1  UNL     1     101.369  18.735  49.195  1.00  0.00    -0.272 OA
HETATM    3  N4  UNL     1     102.929  19.270  47.626  1.00  0.00    -0.355 N 
ATOM      4  H4  UNL     1     103.660  19.911  47.319  1.00  0.00     0.162 HD
ENDROOT
BRANCH   1   5
HETATM    5  C5  UNL     1     102.546  20.702  49.653  1.00  0.00     0.334 C 
BRANCH   5   6
HETATM    6  N3  UNL     1     103.344  20.443  50.817  1.00  0.00    -0.067 N 
ATOM      7  H32 UNL     1     103.272  19.463  51.093  1.00  0.00     0.277 HD
ATOM      8  H31 UNL     1     102.934  20.881  51.642  1.00  0.00     0.277 HD
BRANCH   6   9
HETATM    9  C4  UNL     1     104.716  20.829  50.664  1.00  0.00     0.234 C 
BRANCH   9  10
HETATM   10  C3  UNL     1     105.696  20.116  51.538  1.00  0.00     0.047 C 
BRANCH  10  11
HETATM   11  C2  UNL     1     106.732  19.301  50.841  1.00  0.00     0.122 C 
BRANCH  11  12
HETATM   12  N2  UNL     1     106.797  17.928  51.249  1.00  0.00    -0.386 N 
ATOM     13  H2  UNL     1     106.631  17.652  52.217  1.00  0.00     0.160 HD
BRANCH  12  14
HETATM   14  C1  UNL     1     107.109  16.954  50.230  1.00  0.00     0.168 C 
HETATM   15  N1  UNL     1     108.242  17.013  49.647  1.00  0.00    -0.396 N 
ATOM     16  H12 UNL     1     108.906  17.743  49.908  1.00  0.00     0.156 HD
ATOM     17  H11 UNL     1     108.462  16.326  48.927  1.00  0.00     0.156 HD
ENDBRANCH  12  14
ENDBRANCH  11  12
ENDBRANCH  10  11
ENDBRANCH   9  10
ENDBRANCH   6   9
ENDBRANCH   5   6
ENDBRANCH   1   5
BRANCH   3  18
HETATM   18  C7  UNL     1     102.631  18.108  46.790  1.00  0.00     0.087 C 
HETATM   19  C8  UNL     1     101.664  18.411  45.692  1.00  0.00     0.055 C 
HETATM   20  C9  UNL     1     102.304  18.464  44.329  1.00  0.00     0.274 C 
HETATM   21  N5  UNL     1     103.004  17.256  43.988  1.00  0.00     0.090 N 
HETATM   22  C13 UNL     1     103.603  16.599  45.125  1.00  0.00     0.274 C 
HETATM   23  C14 UNL     1     103.923  17.554  46.250  1.00  0.00     0.055 C 
BRANCH  21  24
HETATM   24  C10 UNL     1     103.951  17.489  42.927  1.00  0.00     0.292 C 
BRANCH  24  25
HETATM   25  C11 UNL     1     103.859  16.346  41.951  1.00  0.00     0.152 C 
BRANCH  25  26
HETATM   26  N6  UNL     1     102.533  15.774  42.028  1.00  0.00    -0.365 N 
HETATM   27  C12 UNL     1     102.147  14.753  41.372  1.00  0.00     0.197 C 
HETATM   28  N7  UNL     1     100.816  14.292  41.538  1.00  0.00    -0.067 NA
HETATM   29  N8  UNL     1     102.985  14.056  40.483  1.00  0.00    -0.067 NA
ATOM     30  H6  UNL     1     101.860  16.220  42.652  1.00  0.00     0.161 HD
ENDBRANCH  25  26
ENDBRANCH  24  25
ENDBRANCH  21  24
ENDBRANCH   3  18
TORSDOF 11
ENDMDL
