MODEL 1
REMARK VINA RESULT: -5.936261312      0.000      0.000
REMARK  4 active torsions:
REMARK  status: ('A' for Active; 'I' for Inactive)
REMARK    1  A    between atoms: C4_5  and  N2_6 
REMARK    2  A    between atoms: N2_6  and  C5_8 
REMARK    3  A    between atoms: C5_8  and  C7_11 
REMARK    4  A    between atoms: C8_12  and  C9_13 
ROOT
HETATM    1  C5  UNL     1     -37.341 -57.584  65.865  1.00  0.00     0.266 C 
HETATM    2  C6  UNL     1     -37.165 -59.037  66.258  1.00  0.00     0.097 C 
HETATM    3  N3  UNL     1     -37.017 -60.138  66.532  1.00  0.00    -0.194 NA
ENDROOT
BRANCH   1   4
HETATM    4  N2  UNL     1     -36.887 -57.434  64.526  1.00  0.00    -0.391 N 
ATOM      5  H2  UNL     1     -37.442 -57.824  63.763  1.00  0.00     0.155 HD
BRANCH   4   6
HETATM    6  C4  UNL     1     -35.703 -56.768  64.238  1.00  0.00     0.108 C 
HETATM    7  C3  UNL     1     -35.909 -55.958  62.947  1.00  0.00     0.056 C 
HETATM    8  C2  UNL     1     -34.873 -54.893  63.081  1.00  0.00     0.274 C 
HETATM    9  N1  UNL     1     -35.014 -54.511  64.459  1.00  0.00     0.086 N 
HETATM   10  C1  UNL     1     -36.243 -53.731  64.584  1.00  0.00     0.310 C 
HETATM   11  C15 UNL     1     -35.226 -55.748  65.192  1.00  0.00     0.296 C 
ENDBRANCH   4   6
ENDBRANCH   1   4
BRANCH   1  12
HETATM   12  C7  UNL     1     -38.821 -57.406  65.783  1.00  0.00    -0.064 C 
HETATM   13  C8  UNL     1     -40.016 -57.310  65.684  1.00  0.00    -0.067 C 
BRANCH  13  14
HETATM   14  C9  UNL     1     -41.448 -57.260  65.547  1.00  0.00     0.300 C 
HETATM   15  C10 UNL     1     -41.917 -56.415  64.444  1.00  0.00     0.049 C 
HETATM   16  C11 UNL     1     -43.445 -56.416  64.404  1.00  0.00     0.005 C 
HETATM   17  C12 UNL     1     -44.091 -56.220  65.728  1.00  0.00     0.030 C 
HETATM   18  C13 UNL     1     -43.363 -56.799  66.908  1.00  0.00     0.273 C 
HETATM   19  N4  UNL     1     -41.954 -56.712  66.817  1.00  0.00     0.100 N 
HETATM   20  C14 UNL     1     -41.330 -57.517  67.849  1.00  0.00     0.311 C 
ENDBRANCH  13  14
ENDBRANCH   1  12
TORSDOF 4
ENDMDL
MODEL 2
REMARK VINA RESULT: -5.801085300      1.720      2.522
REMARK  4 active torsions:
REMARK  status: ('A' for Active; 'I' for Inactive)
REMARK    1  A    between atoms: C4_5  and  N2_6 
REMARK    2  A    between atoms: N2_6  and  C5_8 
REMARK    3  A    between atoms: C5_8  and  C7_11 
REMARK    4  A    between atoms: C8_12  and  C9_13 
ROOT
HETATM    1  C5  UNL     1     -37.402 -56.730  66.053  1.00  0.00     0.266 C 
HETATM    2  C6  UNL     1     -36.895 -56.930  64.639  1.00  0.00     0.097 C 
HETATM    3  N3  UNL     1     -36.499 -57.054  63.572  1.00  0.00    -0.194 NA
ENDROOT
BRANCH   1   4
HETATM    4  N2  UNL     1     -37.206 -55.366  66.401  1.00  0.00    -0.391 N 
ATOM      5  H2  UNL     1     -36.840 -55.133  67.324  1.00  0.00     0.155 HD
BRANCH   4   6
HETATM    6  C4  UNL     1     -37.504 -54.346  65.507  1.00  0.00     0.108 C 
HETATM    7  C3  UNL     1     -38.558 -53.432  66.153  1.00  0.00     0.056 C 
HETATM    8  C2  UNL     1     -38.345 -52.149  65.425  1.00  0.00     0.274 C 
HETATM    9  N1  UNL     1     -36.911 -52.054  65.401  1.00  0.00     0.086 N 
HETATM   10  C1  UNL     1     -36.463 -51.697  66.745  1.00  0.00     0.310 C 
HETATM   11  C15 UNL     1     -36.430 -53.401  65.143  1.00  0.00     0.296 C 
ENDBRANCH   4   6
ENDBRANCH   1   4
BRANCH   1  12
HETATM   12  C7  UNL     1     -38.883 -56.878  65.931  1.00  0.00    -0.064 C 
HETATM   13  C8  UNL     1     -40.074 -56.966  65.784  1.00  0.00    -0.067 C 
BRANCH  13  14
HETATM   14  C9  UNL     1     -41.490 -57.056  65.544  1.00  0.00     0.300 C 
HETATM   15  C10 UNL     1     -41.963 -56.237  64.423  1.00  0.00     0.049 C 
HETATM   16  C11 UNL     1     -43.477 -56.391  64.271  1.00  0.00     0.005 C 
HETATM   17  C12 UNL     1     -44.231 -56.291  65.547  1.00  0.00     0.030 C 
HETATM   18  C13 UNL     1     -43.534 -56.823  66.767  1.00  0.00     0.273 C 
HETATM   19  N4  UNL     1     -42.139 -56.592  66.781  1.00  0.00     0.100 N 
HETATM   20  C14 UNL     1     -41.510 -57.354  67.843  1.00  0.00     0.311 C 
ENDBRANCH  13  14
ENDBRANCH   1  12
TORSDOF 4
ENDMDL
MODEL 3
REMARK VINA RESULT: -5.762598559      1.165      1.372
REMARK  4 active torsions:
REMARK  status: ('A' for Active; 'I' for Inactive)
REMARK    1  A    between atoms: C4_5  and  N2_6 
REMARK    2  A    between atoms: N2_6  and  C5_8 
REMARK    3  A    between atoms: C5_8  and  C7_11 
REMARK    4  A    between atoms: C8_12  and  C9_13 
ROOT
HETATM    1  C5  UNL     1     -37.540 -56.650  65.871  1.00  0.00     0.266 C 
HETATM    2  C6  UNL     1     -37.176 -57.346  67.167  1.00  0.00     0.097 C 
HETATM    3  N3  UNL     1     -36.884 -57.889  68.131  1.00  0.00    -0.194 NA
ENDROOT
BRANCH   1   4
HETATM    4  N2  UNL     1     -37.042 -57.436  64.797  1.00  0.00    -0.391 N 
ATOM      5  H2  UNL     1     -37.494 -58.324  64.574  1.00  0.00     0.155 HD
BRANCH   4   6
HETATM    6  C4  UNL     1     -35.952 -57.018  64.044  1.00  0.00     0.108 C 
HETATM    7  C3  UNL     1     -35.902 -55.481  64.084  1.00  0.00     0.056 C 
HETATM    8  C2  UNL     1     -34.465 -55.210  63.797  1.00  0.00     0.274 C 
HETATM    9  N1  UNL     1     -33.806 -56.189  64.616  1.00  0.00     0.086 N 
HETATM   10  C1  UNL     1     -33.906 -55.752  66.006  1.00  0.00     0.310 C 
HETATM   11  C15 UNL     1     -34.601 -57.400  64.500  1.00  0.00     0.296 C 
ENDBRANCH   4   6
ENDBRANCH   1   4
BRANCH   1  12
HETATM   12  C7  UNL     1     -39.024 -56.794  65.786  1.00  0.00    -0.064 C 
HETATM   13  C8  UNL     1     -40.217 -56.892  65.663  1.00  0.00    -0.067 C 
BRANCH  13  14
HETATM   14  C9  UNL     1     -41.635 -57.009  65.450  1.00  0.00     0.300 C 
HETATM   15  C10 UNL     1     -42.140 -56.222  64.320  1.00  0.00     0.049 C 
HETATM   16  C11 UNL     1     -43.654 -56.402  64.198  1.00  0.00     0.005 C 
HETATM   17  C12 UNL     1     -44.388 -56.286  65.485  1.00  0.00     0.030 C 
HETATM   18  C13 UNL     1     -43.661 -56.778  66.704  1.00  0.00     0.273 C 
HETATM   19  N4  UNL     1     -42.270 -56.526  66.688  1.00  0.00     0.100 N 
HETATM   20  C14 UNL     1     -41.611 -57.254  67.756  1.00  0.00     0.311 C 
ENDBRANCH  13  14
ENDBRANCH   1  12
TORSDOF 4
ENDMDL
MODEL 4
REMARK VINA RESULT: -5.692811781      0.783      1.080
REMARK  4 active torsions:
REMARK  status: ('A' for Active; 'I' for Inactive)
REMARK    1  A    between atoms: C4_5  and  N2_6 
REMARK    2  A    between atoms: N2_6  and  C5_8 
REMARK    3  A    between atoms: C5_8  and  C7_11 
REMARK    4  A    between atoms: C8_12  and  C9_13 
ROOT
HETATM    1  C5  UNL     1     -37.597 -56.880  66.126  1.00  0.00     0.266 C 
HETATM    2  C6  UNL     1     -37.238 -58.353  66.154  1.00  0.00     0.097 C 
HETATM    3  N3  UNL     1     -36.949 -59.460  66.153  1.00  0.00    -0.194 NA
ENDROOT
BRANCH   1   4
HETATM    4  N2  UNL     1     -37.062 -56.322  64.933  1.00  0.00    -0.391 N 
ATOM      5  H2  UNL     1     -37.513 -56.522  64.040  1.00  0.00     0.155 HD
BRANCH   4   6
HETATM    6  C4  UNL     1     -35.938 -55.507  64.962  1.00  0.00     0.108 C 
HETATM    7  C3  UNL     1     -34.881 -56.113  64.023  1.00  0.00     0.056 C 
HETATM    8  C2  UNL     1     -34.046 -54.924  63.687  1.00  0.00     0.274 C 
HETATM    9  N1  UNL     1     -35.043 -53.917  63.449  1.00  0.00     0.086 N 
HETATM   10  C1  UNL     1     -35.668 -54.202  62.159  1.00  0.00     0.310 C 
HETATM   11  C15 UNL     1     -36.064 -54.124  64.463  1.00  0.00     0.296 C 
ENDBRANCH   4   6
ENDBRANCH   1   4
BRANCH   1  12
HETATM   12  C7  UNL     1     -39.075 -56.871  65.917  1.00  0.00    -0.064 C 
HETATM   13  C8  UNL     1     -40.261 -56.911  65.716  1.00  0.00    -0.067 C 
BRANCH  13  14
HETATM   14  C9  UNL     1     -41.672 -57.023  65.457  1.00  0.00     0.300 C 
HETATM   15  C10 UNL     1     -42.130 -56.270  64.285  1.00  0.00     0.049 C 
HETATM   16  C11 UNL     1     -43.640 -56.440  64.117  1.00  0.00     0.005 C 
HETATM   17  C12 UNL     1     -44.416 -56.275  65.373  1.00  0.00     0.030 C 
HETATM   18  C13 UNL     1     -43.737 -56.733  66.632  1.00  0.00     0.273 C 
HETATM   19  N4  UNL     1     -42.344 -56.494  66.656  1.00  0.00     0.100 N 
HETATM   20  C14 UNL     1     -41.730 -57.192  67.769  1.00  0.00     0.311 C 
ENDBRANCH  13  14
ENDBRANCH   1  12
TORSDOF 4
ENDMDL
MODEL 5
REMARK VINA RESULT: -5.621315013      2.538      3.434
REMARK  4 active torsions:
REMARK  status: ('A' for Active; 'I' for Inactive)
REMARK    1  A    between atoms: C4_5  and  N2_6 
REMARK    2  A    between atoms: N2_6  and  C5_8 
REMARK    3  A    between atoms: C5_8  and  C7_11 
REMARK    4  A    between atoms: C8_12  and  C9_13 
ROOT
HETATM    1  C5  UNL     1     -37.554 -56.490  65.990  1.00  0.00     0.266 C 
HETATM    2  C6  UNL     1     -36.961 -56.819  64.635  1.00  0.00     0.097 C 
HETATM    3  N3  UNL     1     -36.503 -57.042  63.611  1.00  0.00    -0.194 NA
ENDROOT
BRANCH   1   4
HETATM    4  N2  UNL     1     -37.454 -55.085  66.183  1.00  0.00    -0.391 N 
ATOM      5  H2  UNL     1     -37.667 -54.456  65.408  1.00  0.00     0.155 HD
BRANCH   4   6
HETATM    6  C4  UNL     1     -37.070 -54.553  67.407  1.00  0.00     0.108 C 
HETATM    7  C3  UNL     1     -38.306 -53.911  68.061  1.00  0.00     0.056 C 
HETATM    8  C2  UNL     1     -37.941 -53.935  69.506  1.00  0.00     0.274 C 
HETATM    9  N1  UNL     1     -37.382 -55.251  69.651  1.00  0.00     0.086 N 
HETATM   10  C1  UNL     1     -38.483 -56.211  69.619  1.00  0.00     0.310 C 
HETATM   11  C15 UNL     1     -36.593 -55.479  68.452  1.00  0.00     0.296 C 
ENDBRANCH   4   6
ENDBRANCH   1   4
BRANCH   1  12
HETATM   12  C7  UNL     1     -39.015 -56.742  65.818  1.00  0.00    -0.064 C 
HETATM   13  C8  UNL     1     -40.200 -56.890  65.664  1.00  0.00    -0.067 C 
BRANCH  13  14
HETATM   14  C9  UNL     1     -41.617 -57.011  65.445  1.00  0.00     0.300 C 
HETATM   15  C10 UNL     1     -42.122 -56.214  64.322  1.00  0.00     0.049 C 
HETATM   16  C11 UNL     1     -43.634 -56.399  64.194  1.00  0.00     0.005 C 
HETATM   17  C12 UNL     1     -44.373 -56.299  65.479  1.00  0.00     0.030 C 
HETATM   18  C13 UNL     1     -43.648 -56.802  66.695  1.00  0.00     0.273 C 
HETATM   19  N4  UNL     1     -42.257 -56.544  66.687  1.00  0.00     0.100 N 
HETATM   20  C14 UNL     1     -41.599 -57.281  67.748  1.00  0.00     0.311 C 
ENDBRANCH  13  14
ENDBRANCH   1  12
TORSDOF 4
ENDMDL
