MODEL 1
REMARK VINA RESULT: -4.916536477      0.000      0.000
REMARK  1 active torsions:
REMARK  status: ('A' for Active; 'I' for Inactive)
REMARK       I    between atoms: N2_5  and  C4_6 
REMARK       I    between atoms: C4_6  and  N3_8 
REMARK    1  A    between atoms: N3_8  and  C5_10 
ROOT
HETATM    1  C1  UNL     1     -42.971 -56.385  63.664  1.00  0.00     0.146 C 
HETATM    2  N1  UNL     1     -42.784 -56.883  64.997  1.00  0.00    -0.173 NA
HETATM    3  C2  UNL     1     -43.708 -56.284  65.951  1.00  0.00     0.145 C 
HETATM    4  C3  UNL     1     -42.981 -56.585  67.266  1.00  0.00     0.180 C 
HETATM    5  N2  UNL     1     -41.684 -56.973  66.781  1.00  0.00    -0.187 N 
HETATM    6  C4  UNL     1     -40.714 -57.692  67.496  1.00  0.00     0.344 C 
HETATM    7  O1  UNL     1     -39.619 -57.947  66.905  1.00  0.00    -0.245 OA
HETATM    8  N3  UNL     1     -40.940 -58.130  68.845  1.00  0.00    -0.337 N 
ATOM      9  H3  UNL     1     -41.819 -57.926  69.322  1.00  0.00     0.164 HD
HETATM   10  O3  UNL     1     -41.581 -56.518  65.530  1.00  0.00    -0.176 OA
ENDROOT
BRANCH   8  11
HETATM   11  C5  UNL     1     -39.888 -58.866  69.508  1.00  0.00     0.087 C 
HETATM   12  C6  UNL     1     -40.491 -60.158  69.994  1.00  0.00     0.032 C 
HETATM   13  C7  UNL     1     -39.624 -60.856  71.020  1.00  0.00     0.012 C 
HETATM   14  C8  UNL     1     -38.301 -61.156  70.359  1.00  0.00     0.172 C 
HETATM   15  C11 UNL     1     -39.482 -59.910  72.191  1.00  0.00     0.013 C 
HETATM   16  O2  UNL     1     -37.227 -60.631  71.039  1.00  0.00    -0.390 OA
HETATM   17  C9  UNL     1     -37.277 -59.277  71.240  1.00  0.00     0.172 C 
HETATM   18  C10 UNL     1     -38.610 -58.757  71.672  1.00  0.00     0.012 C 
HETATM   19  C12 UNL     1     -39.342 -58.007  70.602  1.00  0.00     0.032 C 
ENDBRANCH   8  11
TORSDOF 1
ENDMDL
MODEL 2
REMARK VINA RESULT: -4.810969606      3.062      3.488
REMARK  1 active torsions:
REMARK  status: ('A' for Active; 'I' for Inactive)
REMARK       I    between atoms: N2_5  and  C4_6 
REMARK       I    between atoms: C4_6  and  N3_8 
REMARK    1  A    between atoms: N3_8  and  C5_10 
ROOT
HETATM    1  C1  UNL     1     -43.270 -56.368  64.180  1.00  0.00     0.146 C 
HETATM    2  N1  UNL     1     -42.381 -56.997  65.115  1.00  0.00    -0.173 NA
HETATM    3  C2  UNL     1     -42.682 -56.646  66.495  1.00  0.00     0.145 C 
HETATM    4  C3  UNL     1     -41.355 -57.008  67.170  1.00  0.00     0.180 C 
HETATM    5  N2  UNL     1     -40.497 -57.160  66.026  1.00  0.00    -0.187 N 
HETATM    6  C4  UNL     1     -39.264 -57.830  65.998  1.00  0.00     0.344 C 
HETATM    7  O1  UNL     1     -38.640 -57.865  64.893  1.00  0.00    -0.245 OA
HETATM    8  N3  UNL     1     -38.718 -58.454  67.170  1.00  0.00    -0.337 N 
ATOM      9  H3  UNL     1     -39.217 -58.428  68.060  1.00  0.00     0.164 HD
HETATM   10  O3  UNL     1     -41.097 -56.547  65.002  1.00  0.00    -0.176 OA
ENDROOT
BRANCH   8  11
HETATM   11  C5  UNL     1     -37.442 -59.122  67.054  1.00  0.00     0.087 C 
HETATM   12  C6  UNL     1     -37.531 -60.391  67.862  1.00  0.00     0.032 C 
HETATM   13  C7  UNL     1     -36.175 -61.000  68.143  1.00  0.00     0.012 C 
HETATM   14  C8  UNL     1     -35.541 -61.317  66.811  1.00  0.00     0.172 C 
HETATM   15  C11 UNL     1     -35.387 -59.974  68.927  1.00  0.00     0.013 C 
HETATM   16  O2  UNL     1     -34.311 -60.726  66.644  1.00  0.00    -0.390 OA
HETATM   17  C9  UNL     1     -34.303 -59.363  66.778  1.00  0.00     0.172 C 
HETATM   18  C10 UNL     1     -35.101 -58.842  67.930  1.00  0.00     0.012 C 
HETATM   19  C12 UNL     1     -36.383 -58.181  67.528  1.00  0.00     0.032 C 
ENDBRANCH   8  11
TORSDOF 1
ENDMDL
MODEL 3
REMARK VINA RESULT: -4.741379426      9.668     10.494
REMARK  1 active torsions:
REMARK  status: ('A' for Active; 'I' for Inactive)
REMARK       I    between atoms: N2_5  and  C4_6 
REMARK       I    between atoms: C4_6  and  N3_8 
REMARK    1  A    between atoms: N3_8  and  C5_10 
ROOT
HETATM    1  C1  UNL     1     -44.596 -49.003  64.168  1.00  0.00     0.146 C 
HETATM    2  N1  UNL     1     -43.233 -49.352  64.449  1.00  0.00    -0.173 NA
HETATM    3  C2  UNL     1     -42.756 -48.781  65.700  1.00  0.00     0.145 C 
HETATM    4  C3  UNL     1     -41.241 -48.873  65.488  1.00  0.00     0.180 C 
HETATM    5  N2  UNL     1     -41.177 -49.150  64.078  1.00  0.00    -0.187 N 
HETATM    6  C4  UNL     1     -40.078 -49.685  63.389  1.00  0.00     0.344 C 
HETATM    7  O1  UNL     1     -40.201 -49.864  62.138  1.00  0.00    -0.245 OA
HETATM    8  N3  UNL     1     -38.855 -50.020  64.062  1.00  0.00    -0.337 N 
ATOM      9  H3  UNL     1     -38.753 -49.877  65.067  1.00  0.00     0.164 HD
HETATM   10  O3  UNL     1     -42.357 -48.804  63.557  1.00  0.00    -0.176 OA
ENDROOT
BRANCH   8  11
HETATM   11  C5  UNL     1     -37.772 -50.565  63.276  1.00  0.00     0.087 C 
HETATM   12  C6  UNL     1     -37.260 -51.778  64.008  1.00  0.00     0.032 C 
HETATM   13  C7  UNL     1     -35.904 -52.230  63.512  1.00  0.00     0.012 C 
HETATM   14  C8  UNL     1     -36.053 -52.573  62.051  1.00  0.00     0.172 C 
HETATM   15  C11 UNL     1     -34.948 -51.081  63.740  1.00  0.00     0.013 C 
HETATM   16  O2  UNL     1     -35.187 -51.877  61.241  1.00  0.00    -0.390 OA
HETATM   17  C9  UNL     1     -35.272 -50.514  61.344  1.00  0.00     0.172 C 
HETATM   18  C10 UNL     1     -35.381 -49.996  62.742  1.00  0.00     0.012 C 
HETATM   19  C12 UNL     1     -36.746 -49.493  63.096  1.00  0.00     0.032 C 
ENDBRANCH   8  11
TORSDOF 1
ENDMDL
MODEL 4
REMARK VINA RESULT: -4.634879182      4.610      6.636
REMARK  1 active torsions:
REMARK  status: ('A' for Active; 'I' for Inactive)
REMARK       I    between atoms: N2_5  and  C4_6 
REMARK       I    between atoms: C4_6  and  N3_8 
REMARK    1  A    between atoms: N3_8  and  C5_10 
ROOT
HETATM    1  C1  UNL     1     -33.309 -53.757  64.670  1.00  0.00     0.146 C 
HETATM    2  N1  UNL     1     -34.390 -54.620  65.053  1.00  0.00    -0.173 NA
HETATM    3  C2  UNL     1     -34.308 -55.931  64.425  1.00  0.00     0.145 C 
HETATM    4  C3  UNL     1     -35.755 -56.409  64.588  1.00  0.00     0.180 C 
HETATM    5  N2  UNL     1     -36.410 -55.181  64.953  1.00  0.00    -0.187 N 
HETATM    6  C4  UNL     1     -37.664 -55.064  65.571  1.00  0.00     0.344 C 
HETATM    7  O1  UNL     1     -38.088 -53.893  65.821  1.00  0.00    -0.245 OA
HETATM    8  N3  UNL     1     -38.449 -56.218  65.911  1.00  0.00    -0.337 N 
ATOM      9  H3  UNL     1     -38.111 -57.159  65.711  1.00  0.00     0.164 HD
HETATM   10  O3  UNL     1     -35.599 -54.182  64.594  1.00  0.00    -0.176 OA
ENDROOT
BRANCH   8  11
HETATM   11  C5  UNL     1     -39.730 -56.007  66.544  1.00  0.00     0.087 C 
HETATM   12  C6  UNL     1     -39.517 -56.140  68.030  1.00  0.00     0.032 C 
HETATM   13  C7  UNL     1     -40.813 -56.317  68.792  1.00  0.00     0.012 C 
HETATM   14  C8  UNL     1     -41.658 -55.096  68.530  1.00  0.00     0.172 C 
HETATM   15  C11 UNL     1     -41.456 -57.585  68.274  1.00  0.00     0.013 C 
HETATM   16  O2  UNL     1     -42.895 -55.396  68.011  1.00  0.00    -0.390 OA
HETATM   17  C9  UNL     1     -42.874 -56.124  66.852  1.00  0.00     0.172 C 
HETATM   18  C10 UNL     1     -41.895 -57.255  66.840  1.00  0.00     0.012 C 
HETATM   19  C12 UNL     1     -40.692 -57.004  65.983  1.00  0.00     0.032 C 
ENDBRANCH   8  11
TORSDOF 1
ENDMDL
MODEL 5
REMARK VINA RESULT: -4.587046971      4.705      7.031
REMARK  1 active torsions:
REMARK  status: ('A' for Active; 'I' for Inactive)
REMARK       I    between atoms: N2_5  and  C4_6 
REMARK       I    between atoms: C4_6  and  N3_8 
REMARK    1  A    between atoms: N3_8  and  C5_10 
ROOT
HETATM    1  C1  UNL     1     -40.714 -50.206  73.055  1.00  0.00     0.146 C 
HETATM    2  N1  UNL     1     -40.342 -51.269  72.165  1.00  0.00    -0.173 NA
HETATM    3  C2  UNL     1     -38.915 -51.282  71.877  1.00  0.00     0.145 C 
HETATM    4  C3  UNL     1     -38.898 -52.120  70.594  1.00  0.00     0.180 C 
HETATM    5  N2  UNL     1     -40.294 -52.119  70.247  1.00  0.00    -0.187 N 
HETATM    6  C4  UNL     1     -40.930 -53.013  69.372  1.00  0.00     0.344 C 
HETATM    7  O1  UNL     1     -42.177 -52.861  69.183  1.00  0.00    -0.245 OA
HETATM    8  N3  UNL     1     -40.209 -54.063  68.710  1.00  0.00    -0.337 N 
ATOM      9  H3  UNL     1     -39.208 -54.188  68.861  1.00  0.00     0.164 HD
HETATM   10  O3  UNL     1     -40.863 -51.110  70.912  1.00  0.00    -0.176 OA
ENDROOT
BRANCH   8  11
HETATM   11  C5  UNL     1     -40.942 -54.940  67.826  1.00  0.00     0.087 C 
HETATM   12  C6  UNL     1     -41.192 -56.221  68.578  1.00  0.00     0.032 C 
HETATM   13  C7  UNL     1     -41.610 -57.358  67.671  1.00  0.00     0.012 C 
HETATM   14  C8  UNL     1     -42.888 -56.940  66.988  1.00  0.00     0.172 C 
HETATM   15  C11 UNL     1     -40.478 -57.578  66.692  1.00  0.00     0.013 C 
HETATM   16  O2  UNL     1     -42.807 -56.985  65.616  1.00  0.00    -0.390 OA
HETATM   17  C9  UNL     1     -41.798 -56.235  65.073  1.00  0.00     0.172 C 
HETATM   18  C10 UNL     1     -40.487 -56.339  65.785  1.00  0.00     0.012 C 
HETATM   19  C12 UNL     1     -40.134 -55.121  66.581  1.00  0.00     0.032 C 
ENDBRANCH   8  11
TORSDOF 1
ENDMDL
