MODEL 1
REMARK VINA RESULT: -5.633913489      0.000      0.000
REMARK  1 active torsions:
REMARK  status: ('A' for Active; 'I' for Inactive)
REMARK    1  A    between atoms: C9_11  and  O1_12 
ROOT
HETATM    1  C1  UNL     1     -38.769 -53.486  65.758  1.00  0.00     0.144 C 
HETATM    2  N1  UNL     1     -38.880 -54.708  66.496  1.00  0.00    -0.404 N 
HETATM    3  C2  UNL     1     -38.188 -55.780  66.007  1.00  0.00     0.120 C 
HETATM    4  C3  UNL     1     -37.155 -56.215  67.064  1.00  0.00     0.149 C 
HETATM    5  N2  UNL     1     -38.172 -57.108  67.504  1.00  0.00    -0.384 N 
HETATM    6  C4  UNL     1     -38.481 -57.242  68.810  1.00  0.00     0.064 C 
HETATM    7  C5  UNL     1     -39.883 -56.843  68.963  1.00  0.00     0.038 A 
HETATM    8  C6  UNL     1     -39.706 -55.465  68.719  1.00  0.00     0.026 A 
HETATM    9  C7  UNL     1     -39.904 -54.777  67.435  1.00  0.00     0.092 C 
HETATM   10  C8  UNL     1     -41.169 -55.262  66.833  1.00  0.00     0.052 C 
HETATM   11  C9  UNL     1     -41.902 -55.803  68.021  1.00  0.00     0.069 C 
HETATM   12  C10 UNL     1     -42.223 -57.183  67.569  1.00  0.00     0.044 C 
HETATM   13  C11 UNL     1     -41.376 -57.651  66.473  1.00  0.00     0.004 A 
HETATM   14  C12 UNL     1     -40.135 -57.354  65.842  1.00  0.00     0.024 A 
HETATM   15  C13 UNL     1     -38.773 -57.170  66.305  1.00  0.00     0.112 C 
HETATM   16  C14 UNL     1     -41.113 -56.293  65.790  1.00  0.00    -0.025 A 
HETATM   17  C15 UNL     1     -42.102 -56.097  64.628  1.00  0.00     0.016 C 
HETATM   18  C16 UNL     1     -40.897 -55.898  69.188  1.00  0.00     0.036 A 
ENDROOT
BRANCH  11  19
HETATM   19  O1  UNL     1     -42.988 -55.047  68.408  1.00  0.00    -0.389 OA
ATOM     20  H1  UNL     1     -42.776 -54.330  68.993  1.00  0.00     0.210 HD
ENDBRANCH  11  19
TORSDOF 1
ENDMDL
MODEL 2
REMARK VINA RESULT: -5.418263127      2.143      4.084
REMARK  1 active torsions:
REMARK  status: ('A' for Active; 'I' for Inactive)
REMARK    1  A    between atoms: C9_11  and  O1_12 
ROOT
HETATM    1  C1  UNL     1     -41.190 -53.888  68.904  1.00  0.00     0.144 C 
HETATM    2  N1  UNL     1     -41.127 -55.047  68.066  1.00  0.00    -0.404 N 
HETATM    3  C2  UNL     1     -42.134 -55.960  68.210  1.00  0.00     0.120 C 
HETATM    4  C3  UNL     1     -42.891 -56.065  66.872  1.00  0.00     0.149 C 
HETATM    5  N2  UNL     1     -41.996 -57.138  66.600  1.00  0.00    -0.384 N 
HETATM    6  C4  UNL     1     -41.364 -57.249  65.413  1.00  0.00     0.064 C 
HETATM    7  C5  UNL     1     -39.926 -57.179  65.686  1.00  0.00     0.038 A 
HETATM    8  C6  UNL     1     -39.878 -55.819  66.056  1.00  0.00     0.026 A 
HETATM    9  C7  UNL     1     -39.916 -55.287  67.426  1.00  0.00     0.092 C 
HETATM   10  C8  UNL     1     -39.002 -56.096  68.268  1.00  0.00     0.052 C 
HETATM   11  C9  UNL     1     -38.089 -56.708  67.251  1.00  0.00     0.069 C 
HETATM   12  C10 UNL     1     -38.199 -58.153  67.585  1.00  0.00     0.044 C 
HETATM   13  C11 UNL     1     -39.400 -58.486  68.350  1.00  0.00     0.004 A 
HETATM   14  C12 UNL     1     -40.681 -57.952  68.668  1.00  0.00     0.024 A 
HETATM   15  C13 UNL     1     -41.787 -57.424  67.895  1.00  0.00     0.112 C 
HETATM   16  C14 UNL     1     -39.562 -57.156  69.114  1.00  0.00    -0.025 A 
HETATM   17  C15 UNL     1     -38.925 -57.279  70.509  1.00  0.00     0.016 C 
HETATM   18  C16 UNL     1     -38.718 -56.484  65.861  1.00  0.00     0.036 A 
ENDROOT
BRANCH  11  19
HETATM   19  O1  UNL     1     -36.807 -56.202  67.265  1.00  0.00    -0.389 OA
ATOM     20  H1  UNL     1     -36.134 -56.839  67.057  1.00  0.00     0.210 HD
ENDBRANCH  11  19
TORSDOF 1
ENDMDL
MODEL 3
REMARK VINA RESULT: -5.326765623      1.646      2.888
REMARK  1 active torsions:
REMARK  status: ('A' for Active; 'I' for Inactive)
REMARK    1  A    between atoms: C9_11  and  O1_12 
ROOT
HETATM    1  C1  UNL     1     -39.536 -53.550  68.742  1.00  0.00     0.144 C 
HETATM    2  N1  UNL     1     -39.836 -54.948  68.674  1.00  0.00    -0.404 N 
HETATM    3  C2  UNL     1     -38.998 -55.785  69.356  1.00  0.00     0.120 C 
HETATM    4  C3  UNL     1     -39.816 -56.517  70.437  1.00  0.00     0.149 C 
HETATM    5  N2  UNL     1     -39.975 -57.528  69.448  1.00  0.00    -0.384 N 
HETATM    6  C4  UNL     1     -41.176 -58.089  69.196  1.00  0.00     0.064 C 
HETATM    7  C5  UNL     1     -41.502 -57.795  67.798  1.00  0.00     0.038 A 
HETATM    8  C6  UNL     1     -41.717 -56.409  67.951  1.00  0.00     0.026 A 
HETATM    9  C7  UNL     1     -40.737 -55.343  67.692  1.00  0.00     0.092 C 
HETATM   10  C8  UNL     1     -40.056 -55.635  66.408  1.00  0.00     0.052 C 
HETATM   11  C9  UNL     1     -41.028 -56.551  65.731  1.00  0.00     0.069 C 
HETATM   12  C10 UNL     1     -40.161 -57.714  65.404  1.00  0.00     0.044 C 
HETATM   13  C11 UNL     1     -38.942 -57.778  66.208  1.00  0.00     0.004 A 
HETATM   14  C12 UNL     1     -38.398 -57.263  67.419  1.00  0.00     0.024 A 
HETATM   15  C13 UNL     1     -38.845 -57.209  68.798  1.00  0.00     0.112 C 
HETATM   16  C14 UNL     1     -38.732 -56.266  66.430  1.00  0.00    -0.025 A 
HETATM   17  C15 UNL     1     -37.736 -55.724  65.390  1.00  0.00     0.016 C 
HETATM   18  C16 UNL     1     -42.062 -56.999  66.785  1.00  0.00     0.036 A 
ENDROOT
BRANCH  11  19
HETATM   19  O1  UNL     1     -41.681 -55.989  64.655  1.00  0.00    -0.389 OA
ATOM     20  H1  UNL     1     -42.382 -55.393  64.891  1.00  0.00     0.210 HD
ENDBRANCH  11  19
TORSDOF 1
ENDMDL
MODEL 4
REMARK VINA RESULT: -5.215417730      1.388      3.423
REMARK  1 active torsions:
REMARK  status: ('A' for Active; 'I' for Inactive)
REMARK    1  A    between atoms: C9_11  and  O1_12 
ROOT
HETATM    1  C1  UNL     1     -38.222 -58.748  69.832  1.00  0.00     0.144 C 
HETATM    2  N1  UNL     1     -38.376 -57.840  68.737  1.00  0.00    -0.404 N 
HETATM    3  C2  UNL     1     -37.530 -56.767  68.710  1.00  0.00     0.120 C 
HETATM    4  C3  UNL     1     -36.678 -56.851  67.428  1.00  0.00     0.149 C 
HETATM    5  N2  UNL     1     -37.691 -56.031  66.857  1.00  0.00    -0.384 N 
HETATM    6  C4  UNL     1     -38.222 -56.302  65.647  1.00  0.00     0.064 C 
HETATM    7  C5  UNL     1     -39.653 -56.540  65.851  1.00  0.00     0.038 A 
HETATM    8  C6  UNL     1     -39.537 -57.768  66.535  1.00  0.00     0.026 A 
HETATM    9  C7  UNL     1     -39.546 -57.955  67.994  1.00  0.00     0.092 C 
HETATM   10  C8  UNL     1     -40.641 -57.133  68.564  1.00  0.00     0.052 C 
HETATM   11  C9  UNL     1     -41.537 -56.930  67.382  1.00  0.00     0.069 C 
HETATM   12  C10 UNL     1     -41.669 -55.449  67.361  1.00  0.00     0.044 C 
HETATM   13  C11 UNL     1     -40.604 -54.757  68.087  1.00  0.00     0.004 A 
HETATM   14  C12 UNL     1     -39.293 -54.987  68.593  1.00  0.00     0.024 A 
HETATM   15  C13 UNL     1     -38.056 -55.492  68.031  1.00  0.00     0.112 C 
HETATM   16  C14 UNL     1     -40.320 -55.831  69.157  1.00  0.00    -0.025 A 
HETATM   17  C15 UNL     1     -41.092 -55.494  70.445  1.00  0.00     0.016 C 
HETATM   18  C16 UNL     1     -40.758 -57.364  66.123  1.00  0.00     0.036 A 
ENDROOT
BRANCH  11  19
HETATM   19  O1  UNL     1     -42.728 -57.621  67.449  1.00  0.00    -0.389 OA
ATOM     20  H1  UNL     1     -43.157 -57.577  68.295  1.00  0.00     0.210 HD
ENDBRANCH  11  19
TORSDOF 1
ENDMDL
MODEL 5
REMARK VINA RESULT: -5.194040743      1.982      3.861
REMARK  1 active torsions:
REMARK  status: ('A' for Active; 'I' for Inactive)
REMARK    1  A    between atoms: C9_11  and  O1_12 
ROOT
HETATM    1  C1  UNL     1     -39.161 -53.124  67.431  1.00  0.00     0.144 C 
HETATM    2  N1  UNL     1     -39.848 -54.373  67.553  1.00  0.00    -0.404 N 
HETATM    3  C2  UNL     1     -40.347 -54.677  68.789  1.00  0.00     0.120 C 
HETATM    4  C3  UNL     1     -41.879 -54.802  68.678  1.00  0.00     0.149 C 
HETATM    5  N2  UNL     1     -41.621 -56.187  68.472  1.00  0.00    -0.384 N 
HETATM    6  C4  UNL     1     -42.225 -56.880  67.485  1.00  0.00     0.064 C 
HETATM    7  C5  UNL     1     -41.167 -57.374  66.599  1.00  0.00     0.038 A 
HETATM    8  C6  UNL     1     -40.789 -56.127  66.057  1.00  0.00     0.026 A 
HETATM    9  C7  UNL     1     -39.676 -55.281  66.514  1.00  0.00     0.092 C 
HETATM   10  C8  UNL     1     -38.490 -56.145  66.731  1.00  0.00     0.052 C 
HETATM   11  C9  UNL     1     -38.811 -57.345  65.895  1.00  0.00     0.069 C 
HETATM   12  C10 UNL     1     -38.656 -58.445  66.883  1.00  0.00     0.044 C 
HETATM   13  C11 UNL     1     -38.740 -57.999  68.273  1.00  0.00     0.004 A 
HETATM   14  C12 UNL     1     -39.204 -56.896  69.045  1.00  0.00     0.024 A 
HETATM   15  C13 UNL     1     -40.456 -56.170  69.139  1.00  0.00     0.112 C 
HETATM   16  C14 UNL     1     -38.164 -56.579  68.094  1.00  0.00    -0.025 A 
HETATM   17  C15 UNL     1     -36.664 -56.582  68.434  1.00  0.00     0.016 C 
HETATM   18  C16 UNL     1     -40.300 -57.257  65.500  1.00  0.00     0.036 A 
ENDROOT
BRANCH  11  19
HETATM   19  O1  UNL     1     -38.039 -57.466  64.760  1.00  0.00    -0.389 OA
ATOM     20  H1  UNL     1     -37.154 -57.769  64.921  1.00  0.00     0.210 HD
ENDBRANCH  11  19
TORSDOF 1
ENDMDL
