MODEL 1
REMARK VINA RESULT: -5.313733830      0.000      0.000
REMARK  3 active torsions:
REMARK  status: ('A' for Active; 'I' for Inactive)
REMARK    1  A    between atoms: N2_11  and  C9_12 
REMARK    2  A    between atoms: C9_12  and  O2_13 
REMARK    3  A    between atoms: C9_12  and  C10_15 
ROOT
HETATM    1  C1  UNL     1     -34.956 -57.771  67.383  1.00  0.00     0.310 C 
HETATM    2  N1  UNL     1     -36.013 -57.449  66.477  1.00  0.00     0.086 N 
HETATM    3  C2  UNL     1     -36.383 -56.049  66.483  1.00  0.00     0.298 C 
HETATM    4  C3  UNL     1     -37.274 -55.809  65.299  1.00  0.00     0.199 C 
HETATM    5  O1  UNL     1     -38.327 -56.646  65.162  1.00  0.00    -0.377 OA
HETATM    6  C4  UNL     1     -39.136 -56.832  66.285  1.00  0.00     0.078 C 
HETATM    7  C5  UNL     1     -39.654 -55.559  66.817  1.00  0.00     0.040 C 
HETATM    8  C6  UNL     1     -40.112 -55.493  68.218  1.00  0.00     0.004 C 
HETATM    9  C7  UNL     1     -41.243 -56.273  68.685  1.00  0.00     0.020 C 
HETATM   10  C8  UNL     1     -41.788 -57.348  67.812  1.00  0.00     0.125 C 
HETATM   11  N2  UNL     1     -41.555 -57.222  66.422  1.00  0.00    -0.358 N 
HETATM   12  C11 UNL     1     -40.291 -57.670  65.788  1.00  0.00     0.163 C 
HETATM   13  C12 UNL     1     -38.334 -57.659  67.262  1.00  0.00     0.070 C 
HETATM   14  C13 UNL     1     -37.147 -58.327  66.552  1.00  0.00     0.275 C 
ENDROOT
BRANCH  11  15
HETATM   15  C9  UNL     1     -42.496 -56.661  65.550  1.00  0.00     0.151 C 
BRANCH  15  16
HETATM   16  O2  UNL     1     -42.014 -56.444  64.344  1.00  0.00    -0.345 OA
ATOM     17  H2  UNL     1     -42.605 -55.943  63.793  1.00  0.00     0.219 HD
ENDBRANCH  15  16
BRANCH  15  18
HETATM   18  C10 UNL     1     -43.889 -56.281  65.740  1.00  0.00     0.155 C 
HETATM   19  N3  UNL     1     -44.795 -56.342  64.672  1.00  0.00    -0.111 NA
ENDBRANCH  15  18
ENDBRANCH  11  15
TORSDOF 3
ENDMDL
MODEL 2
REMARK VINA RESULT: -5.229178086      1.031      1.031
REMARK  3 active torsions:
REMARK  status: ('A' for Active; 'I' for Inactive)
REMARK    1  A    between atoms: N2_11  and  C9_12 
REMARK    2  A    between atoms: C9_12  and  O2_13 
REMARK    3  A    between atoms: C9_12  and  C10_15 
ROOT
HETATM    1  C1  UNL     1     -35.144 -58.147  66.438  1.00  0.00     0.310 C 
HETATM    2  N1  UNL     1     -36.314 -57.546  65.880  1.00  0.00     0.086 N 
HETATM    3  C2  UNL     1     -36.580 -56.212  66.374  1.00  0.00     0.298 C 
HETATM    4  C3  UNL     1     -37.639 -55.605  65.500  1.00  0.00     0.199 C 
HETATM    5  O1  UNL     1     -38.756 -56.345  65.312  1.00  0.00    -0.377 OA
HETATM    6  C4  UNL     1     -39.374 -56.856  66.455  1.00  0.00     0.078 C 
HETATM    7  C5  UNL     1     -39.705 -55.803  67.430  1.00  0.00     0.040 C 
HETATM    8  C6  UNL     1     -39.913 -56.165  68.846  1.00  0.00     0.004 C 
HETATM    9  C7  UNL     1     -41.000 -57.035  69.255  1.00  0.00     0.020 C 
HETATM   10  C8  UNL     1     -41.759 -57.782  68.214  1.00  0.00     0.125 C 
HETATM   11  N2  UNL     1     -41.756 -57.236  66.908  1.00  0.00    -0.358 N 
HETATM   12  C11 UNL     1     -40.652 -57.485  65.949  1.00  0.00     0.163 C 
HETATM   13  C12 UNL     1     -38.477 -57.956  66.975  1.00  0.00     0.070 C 
HETATM   14  C13 UNL     1     -37.477 -58.389  65.892  1.00  0.00     0.275 C 
ENDROOT
BRANCH  11  15
HETATM   15  C9  UNL     1     -42.790 -56.420  66.432  1.00  0.00     0.151 C 
BRANCH  15  16
HETATM   16  O2  UNL     1     -43.307 -55.648  67.365  1.00  0.00    -0.345 OA
ATOM     17  H2  UNL     1     -43.494 -54.770  67.057  1.00  0.00     0.219 HD
ENDBRANCH  15  16
BRANCH  15  18
HETATM   18  C10 UNL     1     -43.383 -56.279  65.110  1.00  0.00     0.155 C 
HETATM   19  N3  UNL     1     -44.776 -56.280  64.952  1.00  0.00    -0.111 NA
ENDBRANCH  15  18
ENDBRANCH  11  15
TORSDOF 3
ENDMDL
MODEL 3
REMARK VINA RESULT: -5.002614174      1.037      1.135
REMARK  3 active torsions:
REMARK  status: ('A' for Active; 'I' for Inactive)
REMARK    1  A    between atoms: N2_11  and  C9_12 
REMARK    2  A    between atoms: C9_12  and  O2_13 
REMARK    3  A    between atoms: C9_12  and  C10_15 
ROOT
HETATM    1  C1  UNL     1     -34.814 -57.196  67.522  1.00  0.00     0.310 C 
HETATM    2  N1  UNL     1     -35.954 -57.294  66.665  1.00  0.00     0.086 N 
HETATM    3  C2  UNL     1     -36.300 -56.052  66.006  1.00  0.00     0.298 C 
HETATM    4  C3  UNL     1     -37.304 -56.368  64.937  1.00  0.00     0.199 C 
HETATM    5  O1  UNL     1     -38.379 -57.096  65.320  1.00  0.00    -0.377 OA
HETATM    6  C4  UNL     1     -39.070 -56.652  66.449  1.00  0.00     0.078 C 
HETATM    7  C5  UNL     1     -39.512 -55.252  66.320  1.00  0.00     0.040 C 
HETATM    8  C6  UNL     1     -39.821 -54.475  67.536  1.00  0.00     0.004 C 
HETATM    9  C7  UNL     1     -40.909 -54.849  68.420  1.00  0.00     0.020 C 
HETATM   10  C8  UNL     1     -41.558 -56.178  68.244  1.00  0.00     0.125 C 
HETATM   11  N2  UNL     1     -41.468 -56.767  66.959  1.00  0.00    -0.358 N 
HETATM   12  C11 UNL     1     -40.283 -57.550  66.531  1.00  0.00     0.163 C 
HETATM   13  C12 UNL     1     -38.184 -56.941  67.639  1.00  0.00     0.070 C 
HETATM   14  C13 UNL     1     -37.087 -57.946  67.259  1.00  0.00     0.275 C 
ENDROOT
BRANCH  11  15
HETATM   15  C9  UNL     1     -42.485 -56.649  66.004  1.00  0.00     0.151 C 
BRANCH  15  16
HETATM   16  O2  UNL     1     -43.679 -56.509  66.541  1.00  0.00    -0.345 OA
ATOM     17  H2  UNL     1     -43.867 -55.614  66.799  1.00  0.00     0.219 HD
ENDBRANCH  15  16
BRANCH  15  18
HETATM   18  C10 UNL     1     -42.454 -56.655  64.549  1.00  0.00     0.155 C 
HETATM   19  N3  UNL     1     -43.586 -56.281  63.812  1.00  0.00    -0.111 NA
ENDBRANCH  15  18
ENDBRANCH  11  15
TORSDOF 3
ENDMDL
MODEL 4
REMARK VINA RESULT: -4.895160884      2.699      3.580
REMARK  3 active torsions:
REMARK  status: ('A' for Active; 'I' for Inactive)
REMARK    1  A    between atoms: N2_11  and  C9_12 
REMARK    2  A    between atoms: C9_12  and  O2_13 
REMARK    3  A    between atoms: C9_12  and  C10_15 
ROOT
HETATM    1  C1  UNL     1     -36.980 -58.208  71.576  1.00  0.00     0.310 C 
HETATM    2  N1  UNL     1     -38.269 -58.421  70.997  1.00  0.00     0.086 N 
HETATM    3  C2  UNL     1     -38.255 -59.303  69.848  1.00  0.00     0.298 C 
HETATM    4  C3  UNL     1     -39.678 -59.665  69.536  1.00  0.00     0.199 C 
HETATM    5  O1  UNL     1     -40.547 -58.634  69.417  1.00  0.00    -0.377 OA
HETATM    6  C4  UNL     1     -40.169 -57.585  68.575  1.00  0.00     0.078 C 
HETATM    7  C5  UNL     1     -39.849 -58.049  67.214  1.00  0.00     0.040 C 
HETATM    8  C6  UNL     1     -39.003 -57.209  66.344  1.00  0.00     0.004 C 
HETATM    9  C7  UNL     1     -39.430 -55.892  65.911  1.00  0.00     0.020 C 
HETATM   10  C8  UNL     1     -40.617 -55.269  66.559  1.00  0.00     0.125 C 
HETATM   11  N2  UNL     1     -41.556 -56.148  67.151  1.00  0.00    -0.358 N 
HETATM   12  C11 UNL     1     -41.381 -56.684  68.522  1.00  0.00     0.163 C 
HETATM   13  C12 UNL     1     -39.057 -56.845  69.282  1.00  0.00     0.070 C 
HETATM   14  C13 UNL     1     -39.024 -57.221  70.771  1.00  0.00     0.275 C 
ENDROOT
BRANCH  11  15
HETATM   15  C9  UNL     1     -42.711 -56.575  66.483  1.00  0.00     0.151 C 
BRANCH  15  16
HETATM   16  O2  UNL     1     -43.440 -57.405  67.198  1.00  0.00    -0.345 OA
ATOM     17  H2  UNL     1     -43.343 -58.311  66.928  1.00  0.00     0.219 HD
ENDBRANCH  15  16
BRANCH  15  18
HETATM   18  C10 UNL     1     -43.235 -56.268  65.160  1.00  0.00     0.155 C 
HETATM   19  N3  UNL     1     -44.613 -56.322  64.911  1.00  0.00    -0.111 NA
ENDBRANCH  15  18
ENDBRANCH  11  15
TORSDOF 3
ENDMDL
MODEL 5
REMARK VINA RESULT: -4.869274103      1.759      2.073
REMARK  3 active torsions:
REMARK  status: ('A' for Active; 'I' for Inactive)
REMARK    1  A    between atoms: N2_11  and  C9_12 
REMARK    2  A    between atoms: C9_12  and  O2_13 
REMARK    3  A    between atoms: C9_12  and  C10_15 
ROOT
HETATM    1  C1  UNL     1     -36.209 -58.418  69.940  1.00  0.00     0.310 C 
HETATM    2  N1  UNL     1     -37.123 -58.493  68.844  1.00  0.00     0.086 N 
HETATM    3  C2  UNL     1     -36.881 -57.508  67.812  1.00  0.00     0.298 C 
HETATM    4  C3  UNL     1     -37.706 -57.889  66.617  1.00  0.00     0.199 C 
HETATM    5  O1  UNL     1     -39.019 -58.124  66.845  1.00  0.00    -0.377 OA
HETATM    6  C4  UNL     1     -39.718 -57.152  67.564  1.00  0.00     0.078 C 
HETATM    7  C5  UNL     1     -39.611 -55.817  66.949  1.00  0.00     0.040 C 
HETATM    8  C6  UNL     1     -39.861 -54.619  67.773  1.00  0.00     0.004 C 
HETATM    9  C7  UNL     1     -41.160 -54.361  68.364  1.00  0.00     0.020 C 
HETATM   10  C8  UNL     1     -42.183 -55.443  68.360  1.00  0.00     0.125 C 
HETATM   11  N2  UNL     1     -42.056 -56.437  67.361  1.00  0.00    -0.358 N 
HETATM   12  C11 UNL     1     -41.158 -57.607  67.519  1.00  0.00     0.163 C 
HETATM   13  C12 UNL     1     -39.235 -57.243  68.993  1.00  0.00     0.070 C 
HETATM   14  C13 UNL     1     -38.504 -58.574  69.229  1.00  0.00     0.275 C 
ENDROOT
BRANCH  11  15
HETATM   15  C9  UNL     1     -42.764 -56.384  66.153  1.00  0.00     0.151 C 
BRANCH  15  16
HETATM   16  O2  UNL     1     -44.027 -56.051  66.313  1.00  0.00    -0.345 OA
ATOM     17  H2  UNL     1     -44.450 -55.800  65.500  1.00  0.00     0.219 HD
ENDBRANCH  15  16
BRANCH  15  18
HETATM   18  C10 UNL     1     -42.355 -56.630  64.778  1.00  0.00     0.155 C 
HETATM   19  N3  UNL     1     -43.213 -56.320  63.714  1.00  0.00    -0.111 NA
ENDBRANCH  15  18
ENDBRANCH  11  15
TORSDOF 3
ENDMDL
