MODEL 1
REMARK VINA RESULT: -6.196938114      0.000      0.000
REMARK  3 active torsions:
REMARK  status: ('A' for Active; 'I' for Inactive)
REMARK    1  A    between atoms: C3_3  and  C5_5 
REMARK    2  A    between atoms: C7_8  and  C8_9 
REMARK    3  A    between atoms: C8_9  and  O2_10 
ROOT
HETATM    1  C1  UNL     1      15.633  12.947  52.225  1.00  0.00     0.097 C 
HETATM    2  C2  UNL     1      15.024  13.311  51.222  1.00  0.00    -0.182 C 
HETATM    3  C3  UNL     1      14.293  13.709  50.027  1.00  0.00     0.059 C 
HETATM    4  C4  UNL     1      12.824  13.394  50.152  1.00  0.00     0.023 C 
ENDROOT
BRANCH   3   5
HETATM    5  C5  UNL     1      14.611  15.073  49.600  1.00  0.00     0.087 C 
HETATM    6  C6  UNL     1      16.005  15.468  49.252  1.00  0.00     0.268 C 
HETATM    7  O1  UNL     1      15.883  16.817  48.871  1.00  0.00    -0.351 OA
HETATM    8  O3  UNL     1      15.846  14.736  48.077  1.00  0.00    -0.352 OA
HETATM    9  C7  UNL     1      14.865  16.708  47.891  1.00  0.00     0.177 C 
HETATM   10  C9  UNL     1      14.531  15.255  48.109  1.00  0.00     0.165 C 
BRANCH   9  11
HETATM   11  C8  UNL     1      13.720  17.634  48.184  1.00  0.00     0.198 C 
BRANCH  11  12
HETATM   12  O2  UNL     1      12.608  17.135  47.467  1.00  0.00    -0.398 OA
ATOM     13  H2  UNL     1      11.856  17.224  48.040  1.00  0.00     0.209 HD
ENDBRANCH  11  12
ENDBRANCH   9  11
ENDBRANCH   3   5
TORSDOF 3
ENDMDL
MODEL 2
REMARK VINA RESULT: -5.977021730      6.294      8.297
REMARK  3 active torsions:
REMARK  status: ('A' for Active; 'I' for Inactive)
REMARK    1  A    between atoms: C3_3  and  C5_5 
REMARK    2  A    between atoms: C7_8  and  C8_9 
REMARK    3  A    between atoms: C8_9  and  O2_10 
ROOT
HETATM    1  C1  UNL     1      16.759   8.703  53.461  1.00  0.00     0.097 C 
HETATM    2  C2  UNL     1      17.132   9.873  53.463  1.00  0.00    -0.182 C 
HETATM    3  C3  UNL     1      17.554  11.268  53.438  1.00  0.00     0.059 C 
HETATM    4  C4  UNL     1      16.392  12.196  53.678  1.00  0.00     0.023 C 
ENDROOT
BRANCH   3   5
HETATM    5  C5  UNL     1      18.738  11.514  54.262  1.00  0.00     0.087 C 
HETATM    6  C6  UNL     1      20.064  11.801  53.645  1.00  0.00     0.268 C 
HETATM    7  O1  UNL     1      20.908  12.005  54.751  1.00  0.00    -0.351 OA
HETATM    8  O3  UNL     1      19.563  13.062  53.324  1.00  0.00    -0.352 OA
HETATM    9  C7  UNL     1      20.172  12.995  55.448  1.00  0.00     0.177 C 
HETATM   10  C9  UNL     1      18.936  12.968  54.587  1.00  0.00     0.165 C 
BRANCH   9  11
HETATM   11  C8  UNL     1      19.918  12.591  56.870  1.00  0.00     0.198 C 
BRANCH  11  12
HETATM   12  O2  UNL     1      21.169  12.212  57.410  1.00  0.00    -0.398 OA
ATOM     13  H2  UNL     1      21.028  12.059  58.337  1.00  0.00     0.209 HD
ENDBRANCH  11  12
ENDBRANCH   9  11
ENDBRANCH   3   5
TORSDOF 3
ENDMDL
MODEL 3
REMARK VINA RESULT: -5.971520600      5.608      8.037
REMARK  3 active torsions:
REMARK  status: ('A' for Active; 'I' for Inactive)
REMARK    1  A    between atoms: C3_3  and  C5_5 
REMARK    2  A    between atoms: C7_8  and  C8_9 
REMARK    3  A    between atoms: C8_9  and  O2_10 
ROOT
HETATM    1  C1  UNL     1      21.681  14.608  55.897  1.00  0.00     0.097 C 
HETATM    2  C2  UNL     1      20.916  13.648  55.956  1.00  0.00    -0.182 C 
HETATM    3  C3  UNL     1      20.027  12.498  56.055  1.00  0.00     0.059 C 
HETATM    4  C4  UNL     1      19.281  12.493  57.364  1.00  0.00     0.023 C 
ENDROOT
BRANCH   3   5
HETATM    5  C5  UNL     1      19.202  12.320  54.859  1.00  0.00     0.087 C 
HETATM    6  C6  UNL     1      19.551  11.307  53.823  1.00  0.00     0.268 C 
HETATM    7  O1  UNL     1      18.517  11.427  52.878  1.00  0.00    -0.351 OA
HETATM    8  O3  UNL     1      19.118  10.337  54.725  1.00  0.00    -0.352 OA
HETATM    9  C7  UNL     1      17.389  11.281  53.723  1.00  0.00     0.177 C 
HETATM   10  C9  UNL     1      18.122  11.289  55.039  1.00  0.00     0.165 C 
BRANCH   9  11
HETATM   11  C8  UNL     1      16.432  12.427  53.566  1.00  0.00     0.198 C 
BRANCH  11  12
HETATM   12  O2  UNL     1      15.974  12.386  52.228  1.00  0.00    -0.398 OA
ATOM     13  H2  UNL     1      15.965  11.471  51.974  1.00  0.00     0.209 HD
ENDBRANCH  11  12
ENDBRANCH   9  11
ENDBRANCH   3   5
TORSDOF 3
ENDMDL
MODEL 4
REMARK VINA RESULT: -5.881595733      6.970      8.494
REMARK  3 active torsions:
REMARK  status: ('A' for Active; 'I' for Inactive)
REMARK    1  A    between atoms: C3_3  and  C5_5 
REMARK    2  A    between atoms: C7_8  and  C8_9 
REMARK    3  A    between atoms: C8_9  and  O2_10 
ROOT
HETATM    1  C1  UNL     1      22.052  14.189  57.052  1.00  0.00     0.097 C 
HETATM    2  C2  UNL     1      21.366  14.124  56.034  1.00  0.00    -0.182 C 
HETATM    3  C3  UNL     1      20.551  14.084  54.827  1.00  0.00     0.059 C 
HETATM    4  C4  UNL     1      21.238  14.776  53.678  1.00  0.00     0.023 C 
ENDROOT
BRANCH   3   5
HETATM    5  C5  UNL     1      20.037  12.744  54.539  1.00  0.00     0.087 C 
HETATM    6  C6  UNL     1      19.398  11.916  55.601  1.00  0.00     0.268 C 
HETATM    7  O1  UNL     1      19.022  10.742  54.925  1.00  0.00    -0.351 OA
HETATM    8  O3  UNL     1      18.299  12.767  55.505  1.00  0.00    -0.352 OA
HETATM    9  C7  UNL     1      18.278  11.297  53.855  1.00  0.00     0.177 C 
HETATM   10  C9  UNL     1      18.593  12.746  54.123  1.00  0.00     0.165 C 
BRANCH   9  11
HETATM   11  C8  UNL     1      18.781  10.813  52.526  1.00  0.00     0.198 C 
BRANCH  11  12
HETATM   12  O2  UNL     1      17.646  10.395  51.795  1.00  0.00    -0.398 OA
ATOM     13  H2  UNL     1      17.944   9.718  51.199  1.00  0.00     0.209 HD
ENDBRANCH  11  12
ENDBRANCH   9  11
ENDBRANCH   3   5
TORSDOF 3
ENDMDL
MODEL 5
REMARK VINA RESULT: -5.713603935      6.189      7.946
REMARK  3 active torsions:
REMARK  status: ('A' for Active; 'I' for Inactive)
REMARK    1  A    between atoms: C3_3  and  C5_5 
REMARK    2  A    between atoms: C7_8  and  C8_9 
REMARK    3  A    between atoms: C8_9  and  O2_10 
ROOT
HETATM    1  C1  UNL     1      21.813  15.259  55.127  1.00  0.00     0.097 C 
HETATM    2  C2  UNL     1      21.183  14.223  55.325  1.00  0.00    -0.182 C 
HETATM    3  C3  UNL     1      20.466  12.979  55.573  1.00  0.00     0.059 C 
HETATM    4  C4  UNL     1      20.459  12.634  57.040  1.00  0.00     0.023 C 
ENDROOT
BRANCH   3   5
HETATM    5  C5  UNL     1      19.161  12.939  54.910  1.00  0.00     0.087 C 
HETATM    6  C6  UNL     1      18.870  13.794  53.725  1.00  0.00     0.268 C 
HETATM    7  O1  UNL     1      17.554  13.443  53.376  1.00  0.00    -0.351 OA
HETATM    8  O3  UNL     1      19.689  12.937  52.992  1.00  0.00    -0.352 OA
HETATM    9  C7  UNL     1      17.690  12.036  53.274  1.00  0.00     0.177 C 
HETATM   10  C9  UNL     1      19.100  11.933  53.795  1.00  0.00     0.165 C 
BRANCH   9  11
HETATM   11  C8  UNL     1      16.684  11.323  54.130  1.00  0.00     0.198 C 
BRANCH  11  12
HETATM   12  O2  UNL     1      16.658   9.981  53.685  1.00  0.00    -0.398 OA
ATOM     13  H2  UNL     1      15.766   9.804  53.413  1.00  0.00     0.209 HD
ENDBRANCH  11  12
ENDBRANCH   9  11
ENDBRANCH   3   5
TORSDOF 3
ENDMDL
