MODEL 1
REMARK VINA RESULT: -6.298000030      0.000      0.000
REMARK  3 active torsions:
REMARK  status: ('A' for Active; 'I' for Inactive)
REMARK    1  A    between atoms: O1_1  and  C1_3 
REMARK    2  A    between atoms: C1_3  and  C2_4 
REMARK    3  A    between atoms: N1_7  and  C5_8 
ROOT
HETATM    1  C2  UNL     1      12.906  12.516  49.943  1.00  0.00     0.012 C 
HETATM    2  C3  UNL     1      13.638  13.339  50.971  1.00  0.00     0.026 C 
HETATM    3  C4  UNL     1      14.845  13.959  50.257  1.00  0.00     0.118 C 
HETATM    4  N1  UNL     1      14.371  14.826  49.284  1.00  0.00    -0.404 N 
HETATM    5  C8  UNL     1      12.975  14.847  49.004  1.00  0.00     0.118 C 
HETATM    6  C9  UNL     1      12.395  13.452  48.872  1.00  0.00     0.026 C 
ENDROOT
BRANCH   4   7
HETATM    7  C5  UNL     1      15.071  15.943  48.847  1.00  0.00     0.126 C 
HETATM    8  C6  UNL     1      14.384  17.024  48.078  1.00  0.00     0.194 C 
HETATM    9  O2  UNL     1      15.526  17.138  47.288  1.00  0.00    -0.387 OA
HETATM   10  C7  UNL     1      15.961  15.865  47.654  1.00  0.00     0.194 C 
ENDBRANCH   4   7
BRANCH   1  11
HETATM   11  C1  UNL     1      11.708  11.799  50.523  1.00  0.00     0.168 C 
BRANCH  11  12
HETATM   12  O1  UNL     1      11.706  10.438  50.324  1.00  0.00    -0.400 OA
ATOM     13  H1  UNL     1      11.673  10.173  49.413  1.00  0.00     0.209 HD
ENDBRANCH  11  12
ENDBRANCH   1  11
TORSDOF 3
ENDMDL
MODEL 2
REMARK VINA RESULT: -6.118202007      0.482      1.484
REMARK  3 active torsions:
REMARK  status: ('A' for Active; 'I' for Inactive)
REMARK    1  A    between atoms: O1_1  and  C1_3 
REMARK    2  A    between atoms: C1_3  and  C2_4 
REMARK    3  A    between atoms: N1_7  and  C5_8 
ROOT
HETATM    1  C2  UNL     1      12.222  13.046  50.294  1.00  0.00     0.012 C 
HETATM    2  C3  UNL     1      12.329  13.368  48.826  1.00  0.00     0.026 C 
HETATM    3  C4  UNL     1      12.718  14.848  48.728  1.00  0.00     0.118 C 
HETATM    4  N1  UNL     1      13.979  15.000  49.285  1.00  0.00    -0.404 N 
HETATM    5  C8  UNL     1      14.566  13.895  49.966  1.00  0.00     0.118 C 
HETATM    6  C9  UNL     1      13.592  13.220  50.911  1.00  0.00     0.026 C 
ENDROOT
BRANCH   4   7
HETATM    7  C5  UNL     1      14.874  15.988  48.897  1.00  0.00     0.126 C 
HETATM    8  C6  UNL     1      14.446  17.091  47.984  1.00  0.00     0.194 C 
HETATM    9  O2  UNL     1      15.689  17.008  47.360  1.00  0.00    -0.387 OA
HETATM   10  C7  UNL     1      15.897  15.718  47.847  1.00  0.00     0.194 C 
ENDBRANCH   4   7
BRANCH   1  11
HETATM   11  C1  UNL     1      11.794  11.619  50.543  1.00  0.00     0.168 C 
BRANCH  11  12
HETATM   12  O1  UNL     1      11.385  10.941  49.419  1.00  0.00    -0.400 OA
ATOM     13  H1  UNL     1      11.637  11.349  48.599  1.00  0.00     0.209 HD
ENDBRANCH  11  12
ENDBRANCH   1  11
TORSDOF 3
ENDMDL
MODEL 3
REMARK VINA RESULT: -6.069078063      2.284      3.083
REMARK  3 active torsions:
REMARK  status: ('A' for Active; 'I' for Inactive)
REMARK    1  A    between atoms: O1_1  and  C1_3 
REMARK    2  A    between atoms: C1_3  and  C2_4 
REMARK    3  A    between atoms: N1_7  and  C5_8 
ROOT
HETATM    1  C2  UNL     1      14.824  13.531  51.322  1.00  0.00     0.012 C 
HETATM    2  C3  UNL     1      13.910  12.884  50.315  1.00  0.00     0.026 C 
HETATM    3  C4  UNL     1      13.045  14.005  49.724  1.00  0.00     0.118 C 
HETATM    4  N1  UNL     1      13.879  14.875  49.038  1.00  0.00    -0.404 N 
HETATM    5  C8  UNL     1      15.289  14.708  49.149  1.00  0.00     0.118 C 
HETATM    6  C9  UNL     1      15.729  14.491  50.584  1.00  0.00     0.026 C 
ENDROOT
BRANCH   4   7
HETATM    7  C5  UNL     1      13.465  15.634  47.950  1.00  0.00     0.126 C 
HETATM    8  C6  UNL     1      13.668  17.114  47.928  1.00  0.00     0.194 C 
HETATM    9  O2  UNL     1      12.421  17.239  47.320  1.00  0.00    -0.387 OA
HETATM   10  C7  UNL     1      12.027  15.978  47.765  1.00  0.00     0.194 C 
ENDBRANCH   4   7
BRANCH   1  11
HETATM   11  C1  UNL     1      15.709  12.530  52.027  1.00  0.00     0.168 C 
BRANCH  11  12
HETATM   12  O1  UNL     1      16.121  12.915  53.281  1.00  0.00    -0.400 OA
ATOM     13  H1  UNL     1      16.672  12.283  53.726  1.00  0.00     0.209 HD
ENDBRANCH  11  12
ENDBRANCH   1  11
TORSDOF 3
ENDMDL
MODEL 4
REMARK VINA RESULT: -5.890230597      7.599      9.308
REMARK  3 active torsions:
REMARK  status: ('A' for Active; 'I' for Inactive)
REMARK    1  A    between atoms: O1_1  and  C1_3 
REMARK    2  A    between atoms: C1_3  and  C2_4 
REMARK    3  A    between atoms: N1_7  and  C5_8 
ROOT
HETATM    1  C2  UNL     1      20.529  13.150  55.799  1.00  0.00     0.012 C 
HETATM    2  C3  UNL     1      19.574  12.237  56.523  1.00  0.00     0.026 C 
HETATM    3  C4  UNL     1      18.239  12.313  55.772  1.00  0.00     0.118 C 
HETATM    4  N1  UNL     1      18.431  11.798  54.499  1.00  0.00    -0.404 N 
HETATM    5  C8  UNL     1      19.756  11.492  54.074  1.00  0.00     0.118 C 
HETATM    6  C9  UNL     1      20.735  12.601  54.405  1.00  0.00     0.026 C 
ENDROOT
BRANCH   4   7
HETATM    7  C5  UNL     1      17.426  11.187  53.762  1.00  0.00     0.126 C 
HETATM    8  C6  UNL     1      16.773   9.934  54.248  1.00  0.00     0.194 C 
HETATM    9  O2  UNL     1      16.752   9.476  52.933  1.00  0.00    -0.387 OA
HETATM   10  C7  UNL     1      17.754  10.370  52.559  1.00  0.00     0.194 C 
ENDBRANCH   4   7
BRANCH   1  11
HETATM   11  C1  UNL     1      21.885  13.213  56.463  1.00  0.00     0.168 C 
BRANCH  11  12
HETATM   12  O1  UNL     1      22.102  12.240  57.410  1.00  0.00    -0.400 OA
ATOM     13  H1  UNL     1      21.322  11.960  57.873  1.00  0.00     0.209 HD
ENDBRANCH  11  12
ENDBRANCH   1  11
TORSDOF 3
ENDMDL
MODEL 5
REMARK VINA RESULT: -5.804171119      7.643      9.506
REMARK  3 active torsions:
REMARK  status: ('A' for Active; 'I' for Inactive)
REMARK    1  A    between atoms: O1_1  and  C1_3 
REMARK    2  A    between atoms: C1_3  and  C2_4 
REMARK    3  A    between atoms: N1_7  and  C5_8 
ROOT
HETATM    1  C2  UNL     1      21.199  12.884  56.117  1.00  0.00     0.012 C 
HETATM    2  C3  UNL     1      20.765  13.204  54.710  1.00  0.00     0.026 C 
HETATM    3  C4  UNL     1      20.267  11.890  54.095  1.00  0.00     0.118 C 
HETATM    4  N1  UNL     1      19.143  11.484  54.799  1.00  0.00    -0.404 N 
HETATM    5  C8  UNL     1      18.787  12.185  55.987  1.00  0.00     0.118 C 
HETATM    6  C9  UNL     1      19.980  12.430  56.889  1.00  0.00     0.026 C 
ENDROOT
BRANCH   4   7
HETATM    7  C5  UNL     1      18.123  10.724  54.242  1.00  0.00     0.126 C 
HETATM    8  C6  UNL     1      18.032  10.533  52.763  1.00  0.00     0.194 C 
HETATM    9  O2  UNL     1      16.647  10.640  52.870  1.00  0.00    -0.387 OA
HETATM   10  C7  UNL     1      16.748  11.282  54.104  1.00  0.00     0.194 C 
ENDBRANCH   4   7
BRANCH   1  11
HETATM   11  C1  UNL     1      21.764  14.087  56.835  1.00  0.00     0.168 C 
BRANCH  11  12
HETATM   12  O1  UNL     1      21.954  15.191  56.037  1.00  0.00    -0.400 OA
ATOM     13  H1  UNL     1      22.332  15.939  56.483  1.00  0.00     0.209 HD
ENDBRANCH  11  12
ENDBRANCH   1  11
TORSDOF 3
ENDMDL
