MODEL 1
REMARK VINA RESULT: -6.452183778      0.000      0.000
REMARK  4 active torsions:
REMARK  status: ('A' for Active; 'I' for Inactive)
REMARK    1  A    between atoms: N1_3  and  O1_4 
REMARK    2  A    between atoms: N1_3  and  C3_6 
REMARK    3  A    between atoms: C3_6  and  C4_7 
REMARK    4  A    between atoms: C8_12  and  O3_13 
ROOT
HETATM    1  C1  UNL     1      22.139  14.525  56.836  1.00  0.00     0.125 C 
HETATM    2  C2  UNL     1      21.296  13.551  56.606  1.00  0.00    -0.050 C 
HETATM    3  N1  UNL     1      20.480  12.615  56.345  1.00  0.00    -0.229 N 
ENDROOT
BRANCH   3   4
HETATM    4  O1  UNL     1      20.091  11.890  57.409  1.00  0.00    -0.281 OA
ATOM      5  H1  UNL     1      19.713  12.394  58.120  1.00  0.00     0.245 HD
ENDBRANCH   3   4
BRANCH   3   6
HETATM    6  C3  UNL     1      20.100  12.463  54.991  1.00  0.00     0.172 C 
BRANCH   6   7
HETATM    7  C4  UNL     1      18.605  12.243  54.921  1.00  0.00     0.039 C 
HETATM    8  C5  UNL     1      18.066  12.591  53.537  1.00  0.00     0.035 C 
HETATM    9  C6  UNL     1      16.554  12.376  53.664  1.00  0.00     0.168 C 
HETATM   10  O2  UNL     1      16.350  11.022  53.751  1.00  0.00    -0.389 OA
HETATM   11  C7  UNL     1      16.891  10.411  54.844  1.00  0.00     0.199 C 
HETATM   12  C8  UNL     1      18.309  10.792  55.146  1.00  0.00     0.147 C 
BRANCH  12  13
HETATM   13  O3  UNL     1      19.206  10.017  54.404  1.00  0.00    -0.393 OA
ATOM     14  H3  UNL     1      19.096   9.102  54.635  1.00  0.00     0.210 HD
ENDBRANCH  12  13
ENDBRANCH   6   7
ENDBRANCH   3   6
TORSDOF 4
ENDMDL
MODEL 2
REMARK VINA RESULT: -5.978243711      1.524      2.266
REMARK  4 active torsions:
REMARK  status: ('A' for Active; 'I' for Inactive)
REMARK    1  A    between atoms: N1_3  and  O1_4 
REMARK    2  A    between atoms: N1_3  and  C3_6 
REMARK    3  A    between atoms: C3_6  and  C4_7 
REMARK    4  A    between atoms: C8_12  and  O3_13 
ROOT
HETATM    1  C1  UNL     1      21.228  14.032  55.344  1.00  0.00     0.125 C 
HETATM    2  C2  UNL     1      20.306  13.168  55.685  1.00  0.00    -0.050 C 
HETATM    3  N1  UNL     1      19.391  12.343  55.987  1.00  0.00    -0.229 N 
ENDROOT
BRANCH   3   4
HETATM    4  O1  UNL     1      19.672  11.542  57.031  1.00  0.00    -0.281 OA
ATOM      5  H1  UNL     1      18.963  10.970  57.298  1.00  0.00     0.245 HD
ENDBRANCH   3   4
BRANCH   3   6
HETATM    6  C3  UNL     1      18.219  12.376  55.196  1.00  0.00     0.172 C 
BRANCH   6   7
HETATM    7  C4  UNL     1      18.095  11.071  54.443  1.00  0.00     0.039 C 
HETATM    8  C5  UNL     1      16.779  10.373  54.774  1.00  0.00     0.035 C 
HETATM    9  C6  UNL     1      16.850   9.058  53.988  1.00  0.00     0.168 C 
HETATM   10  O2  UNL     1      16.714   9.380  52.661  1.00  0.00    -0.389 OA
HETATM   11  C7  UNL     1      17.699  10.163  52.137  1.00  0.00     0.199 C 
HETATM   12  C8  UNL     1      18.077  11.349  52.971  1.00  0.00     0.147 C 
BRANCH  12  13
HETATM   13  O3  UNL     1      17.230  12.433  52.716  1.00  0.00    -0.393 OA
ATOM     14  H3  UNL     1      17.578  12.939  51.992  1.00  0.00     0.210 HD
ENDBRANCH  12  13
ENDBRANCH   6   7
ENDBRANCH   3   6
TORSDOF 4
ENDMDL
MODEL 3
REMARK VINA RESULT: -5.968426896      2.067      2.206
REMARK  4 active torsions:
REMARK  status: ('A' for Active; 'I' for Inactive)
REMARK    1  A    between atoms: N1_3  and  O1_4 
REMARK    2  A    between atoms: N1_3  and  C3_6 
REMARK    3  A    between atoms: C3_6  and  C4_7 
REMARK    4  A    between atoms: C8_12  and  O3_13 
ROOT
HETATM    1  C1  UNL     1      22.097  14.494  56.989  1.00  0.00     0.125 C 
HETATM    2  C2  UNL     1      21.668  14.705  55.771  1.00  0.00    -0.050 C 
HETATM    3  N1  UNL     1      21.244  14.873  54.587  1.00  0.00    -0.229 N 
ENDROOT
BRANCH   3   4
HETATM    4  O1  UNL     1      21.255  16.147  54.156  1.00  0.00    -0.281 OA
ATOM      5  H1  UNL     1      21.889  16.709  54.586  1.00  0.00     0.245 HD
ENDBRANCH   3   4
BRANCH   3   6
HETATM    6  C3  UNL     1      20.822  13.714  53.894  1.00  0.00     0.172 C 
BRANCH   6   7
HETATM    7  C4  UNL     1      19.505  13.246  54.471  1.00  0.00     0.039 C 
HETATM    8  C5  UNL     1      18.449  13.105  53.378  1.00  0.00     0.035 C 
HETATM    9  C6  UNL     1      17.183  12.693  54.138  1.00  0.00     0.168 C 
HETATM   10  O2  UNL     1      17.375  11.403  54.563  1.00  0.00    -0.389 OA
HETATM   11  C7  UNL     1      18.398  11.215  55.445  1.00  0.00     0.199 C 
HETATM   12  C8  UNL     1      19.685  11.887  55.075  1.00  0.00     0.147 C 
BRANCH  12  13
HETATM   13  O3  UNL     1      20.435  11.091  54.204  1.00  0.00    -0.393 OA
ATOM     14  H3  UNL     1      21.300  10.954  54.570  1.00  0.00     0.210 HD
ENDBRANCH  12  13
ENDBRANCH   6   7
ENDBRANCH   3   6
TORSDOF 4
ENDMDL
MODEL 4
REMARK VINA RESULT: -5.919334859      2.221      3.207
REMARK  4 active torsions:
REMARK  status: ('A' for Active; 'I' for Inactive)
REMARK    1  A    between atoms: N1_3  and  O1_4 
REMARK    2  A    between atoms: N1_3  and  C3_6 
REMARK    3  A    between atoms: C3_6  and  C4_7 
REMARK    4  A    between atoms: C8_12  and  O3_13 
ROOT
HETATM    1  C1  UNL     1      19.383  12.484  57.170  1.00  0.00     0.125 C 
HETATM    2  C2  UNL     1      19.387  12.007  55.952  1.00  0.00    -0.050 C 
HETATM    3  N1  UNL     1      19.355  11.554  54.767  1.00  0.00    -0.229 N 
ENDROOT
BRANCH   3   4
HETATM    4  O1  UNL     1      20.534  11.101  54.302  1.00  0.00    -0.281 OA
ATOM      5  H1  UNL     1      20.908  11.612  53.594  1.00  0.00     0.245 HD
ENDBRANCH   3   4
BRANCH   3   6
HETATM    6  C3  UNL     1      18.105  11.589  54.107  1.00  0.00     0.172 C 
BRANCH   6   7
HETATM    7  C4  UNL     1      17.832  10.233  53.496  1.00  0.00     0.039 C 
HETATM    8  C5  UNL     1      16.698   9.522  54.230  1.00  0.00     0.035 C 
HETATM    9  C6  UNL     1      16.603   8.161  53.532  1.00  0.00     0.168 C 
HETATM   10  O2  UNL     1      16.079   8.388  52.285  1.00  0.00    -0.389 OA
HETATM   11  C7  UNL     1      16.838   9.162  51.456  1.00  0.00     0.199 C 
HETATM   12  C8  UNL     1      17.382  10.412  52.078  1.00  0.00     0.147 C 
BRANCH  12  13
HETATM   13  O3  UNL     1      16.449  11.451  52.018  1.00  0.00    -0.393 OA
ATOM     14  H3  UNL     1      16.596  11.959  51.228  1.00  0.00     0.210 HD
ENDBRANCH  12  13
ENDBRANCH   6   7
ENDBRANCH   3   6
TORSDOF 4
ENDMDL
MODEL 5
REMARK VINA RESULT: -5.917276822      2.189      4.806
REMARK  4 active torsions:
REMARK  status: ('A' for Active; 'I' for Inactive)
REMARK    1  A    between atoms: N1_3  and  O1_4 
REMARK    2  A    between atoms: N1_3  and  C3_6 
REMARK    3  A    between atoms: C3_6  and  C4_7 
REMARK    4  A    between atoms: C8_12  and  O3_13 
ROOT
HETATM    1  C1  UNL     1      16.682   8.439  53.305  1.00  0.00     0.125 C 
HETATM    2  C2  UNL     1      17.407   9.525  53.219  1.00  0.00    -0.050 C 
HETATM    3  N1  UNL     1      18.098  10.588  53.171  1.00  0.00    -0.229 N 
ENDROOT
BRANCH   3   4
HETATM    4  O1  UNL     1      18.840  10.731  52.057  1.00  0.00    -0.281 OA
ATOM      5  H1  UNL     1      19.103   9.917  51.645  1.00  0.00     0.245 HD
ENDBRANCH   3   4
BRANCH   3   6
HETATM    6  C3  UNL     1      17.998  11.462  54.278  1.00  0.00     0.172 C 
BRANCH   6   7
HETATM    7  C4  UNL     1      19.328  12.151  54.484  1.00  0.00     0.039 C 
HETATM    8  C5  UNL     1      19.219  13.646  54.194  1.00  0.00     0.035 C 
HETATM    9  C6  UNL     1      20.648  14.165  54.387  1.00  0.00     0.168 C 
HETATM   10  O2  UNL     1      20.910  14.122  55.732  1.00  0.00    -0.389 OA
HETATM   11  C7  UNL     1      20.902  12.880  56.298  1.00  0.00     0.199 C 
HETATM   12  C8  UNL     1      19.735  12.020  55.920  1.00  0.00     0.147 C 
BRANCH  12  13
HETATM   13  O3  UNL     1      18.631  12.282  56.739  1.00  0.00    -0.393 OA
ATOM     14  H3  UNL     1      18.902  12.252  57.649  1.00  0.00     0.210 HD
ENDBRANCH  12  13
ENDBRANCH   6   7
ENDBRANCH   3   6
TORSDOF 4
ENDMDL
