MODEL 1
REMARK VINA RESULT: -5.818065817      0.000      0.000
REMARK  2 active torsions:
REMARK  status: ('A' for Active; 'I' for Inactive)
REMARK    1  A    between atoms: C2_2  and  C3_3 
REMARK    2  A    between atoms: C5_6  and  N1_7 
ROOT
HETATM    1  N1  UNL     1      13.440  14.930  49.350  1.00  0.00     0.101 N 
HETATM    2  C6  UNL     1      12.188  14.219  49.024  1.00  0.00     0.300 C 
HETATM    3  C7  UNL     1      11.591  13.599  50.249  1.00  0.00     0.262 C 
HETATM    4  N2  UNL     1      12.395  12.450  50.646  1.00  0.00    -0.072 N 
ATOM      5  H21 UNL     1      11.975  11.564  50.367  1.00  0.00     0.277 HD
ATOM      6  H22 UNL     1      12.387  12.298  51.655  1.00  0.00     0.277 HD
HETATM    7  C8  UNL     1      13.728  12.616  50.125  1.00  0.00     0.262 C 
HETATM    8  C9  UNL     1      14.159  14.087  50.213  1.00  0.00     0.300 C 
ENDROOT
BRANCH   1   9
HETATM    9  C5  UNL     1      13.996  15.346  48.129  1.00  0.00     0.279 C 
HETATM   10  C3  UNL     1      14.860  16.521  47.983  1.00  0.00     0.179 C 
HETATM   11  O1  UNL     1      13.760  17.328  48.271  1.00  0.00    -0.378 OA
HETATM   12  C4  UNL     1      13.034  16.380  47.503  1.00  0.00     0.207 C 
BRANCH  10  13
HETATM   13  C2  UNL     1      16.064  16.717  48.748  1.00  0.00    -0.003 C 
HETATM   14  C1  UNL     1      16.930  15.734  48.930  1.00  0.00     0.009 C 
ENDBRANCH  10  13
ENDBRANCH   1   9
TORSDOF 2
ENDMDL
MODEL 2
REMARK VINA RESULT: -5.691143940      7.386      8.460
REMARK  2 active torsions:
REMARK  status: ('A' for Active; 'I' for Inactive)
REMARK    1  A    between atoms: C2_2  and  C3_3 
REMARK    2  A    between atoms: C5_6  and  N1_7 
ROOT
HETATM    1  N1  UNL     1      18.891  12.636  54.768  1.00  0.00     0.101 N 
HETATM    2  C6  UNL     1      18.159  12.659  53.487  1.00  0.00     0.300 C 
HETATM    3  C7  UNL     1      16.694  12.439  53.704  1.00  0.00     0.262 C 
HETATM    4  N2  UNL     1      16.465  11.044  54.058  1.00  0.00    -0.072 N 
ATOM      5  H21 UNL     1      16.118  10.494  53.272  1.00  0.00     0.277 HD
ATOM      6  H22 UNL     1      15.664  10.925  54.678  1.00  0.00     0.277 HD
HETATM    7  C8  UNL     1      17.678  10.503  54.616  1.00  0.00     0.262 C 
HETATM    8  C9  UNL     1      18.377  11.549  55.496  1.00  0.00     0.300 C 
ENDROOT
BRANCH   1   9
HETATM    9  C5  UNL     1      20.259  12.701  54.452  1.00  0.00     0.279 C 
HETATM   10  C3  UNL     1      21.220  13.556  55.153  1.00  0.00     0.179 C 
HETATM   11  O1  UNL     1      20.581  14.669  54.609  1.00  0.00    -0.378 OA
HETATM   12  C4  UNL     1      20.453  13.860  53.449  1.00  0.00     0.207 C 
BRANCH  10  13
HETATM   13  C2  UNL     1      21.418  13.518  56.578  1.00  0.00    -0.003 C 
HETATM   14  C1  UNL     1      22.123  14.450  57.199  1.00  0.00     0.009 C 
ENDBRANCH  10  13
ENDBRANCH   1   9
TORSDOF 2
ENDMDL
MODEL 3
REMARK VINA RESULT: -5.537328837      6.684      8.407
REMARK  2 active torsions:
REMARK  status: ('A' for Active; 'I' for Inactive)
REMARK    1  A    between atoms: C2_2  and  C3_3 
REMARK    2  A    between atoms: C5_6  and  N1_7 
ROOT
HETATM    1  N1  UNL     1      18.817  12.190  53.716  1.00  0.00     0.101 N 
HETATM    2  C6  UNL     1      18.962  13.654  53.834  1.00  0.00     0.300 C 
HETATM    3  C7  UNL     1      20.325  14.094  53.399  1.00  0.00     0.262 C 
HETATM    4  N2  UNL     1      21.301  13.699  54.407  1.00  0.00    -0.072 N 
ATOM      5  H21 UNL     1      21.578  14.475  55.008  1.00  0.00     0.277 HD
ATOM      6  H22 UNL     1      22.217  13.497  54.006  1.00  0.00     0.277 HD
HETATM    7  C8  UNL     1      20.770  12.587  55.155  1.00  0.00     0.262 C 
HETATM    8  C9  UNL     1      20.003  11.635  54.227  1.00  0.00     0.300 C 
ENDROOT
BRANCH   1   9
HETATM    9  C5  UNL     1      17.573  11.861  54.281  1.00  0.00     0.279 C 
HETATM   10  C3  UNL     1      16.765  10.711  53.865  1.00  0.00     0.179 C 
HETATM   11  O1  UNL     1      16.549  11.343  52.642  1.00  0.00    -0.378 OA
HETATM   12  C4  UNL     1      16.477  12.529  53.420  1.00  0.00     0.207 C 
BRANCH  10  13
HETATM   13  C2  UNL     1      17.263   9.360  53.851  1.00  0.00    -0.003 C 
HETATM   14  C1  UNL     1      16.759   8.451  53.033  1.00  0.00     0.009 C 
ENDBRANCH  10  13
ENDBRANCH   1   9
TORSDOF 2
ENDMDL
MODEL 4
REMARK VINA RESULT: -5.436161133      2.091      4.589
REMARK  2 active torsions:
REMARK  status: ('A' for Active; 'I' for Inactive)
REMARK    1  A    between atoms: C2_2  and  C3_3 
REMARK    2  A    between atoms: C5_6  and  N1_7 
ROOT
HETATM    1  N1  UNL     1      13.363  14.973  49.274  1.00  0.00     0.101 N 
HETATM    2  C6  UNL     1      14.305  15.730  48.426  1.00  0.00     0.300 C 
HETATM    3  C7  UNL     1      13.786  17.107  48.148  1.00  0.00     0.262 C 
HETATM    4  N2  UNL     1      12.673  17.019  47.210  1.00  0.00    -0.072 N 
ATOM      5  H21 UNL     1      12.945  17.262  46.258  1.00  0.00     0.277 HD
ATOM      6  H22 UNL     1      11.985  17.758  47.353  1.00  0.00     0.277 HD
HETATM    7  C8  UNL     1      12.095  15.703  47.299  1.00  0.00     0.262 C 
HETATM    8  C9  UNL     1      12.080  15.220  48.757  1.00  0.00     0.300 C 
ENDROOT
BRANCH   1   9
HETATM    9  C5  UNL     1      13.860  13.661  49.356  1.00  0.00     0.279 C 
HETATM   10  C3  UNL     1      13.322  12.638  50.256  1.00  0.00     0.179 C 
HETATM   11  O1  UNL     1      13.814  13.371  51.335  1.00  0.00    -0.378 OA
HETATM   12  C4  UNL     1      14.918  13.630  50.481  1.00  0.00     0.207 C 
BRANCH  10  13
HETATM   13  C2  UNL     1      11.935  12.253  50.275  1.00  0.00    -0.003 C 
HETATM   14  C1  UNL     1      11.557  11.027  49.951  1.00  0.00     0.009 C 
ENDBRANCH  10  13
ENDBRANCH   1   9
TORSDOF 2
ENDMDL
MODEL 5
REMARK VINA RESULT: -5.434906466      7.448      8.602
REMARK  2 active torsions:
REMARK  status: ('A' for Active; 'I' for Inactive)
REMARK    1  A    between atoms: C2_2  and  C3_3 
REMARK    2  A    between atoms: C5_6  and  N1_7 
ROOT
HETATM    1  N1  UNL     1      19.080  12.080  54.469  1.00  0.00     0.101 N 
HETATM    2  C6  UNL     1      18.275  11.024  55.113  1.00  0.00     0.300 C 
HETATM    3  C7  UNL     1      17.769  10.045  54.099  1.00  0.00     0.262 C 
HETATM    4  N2  UNL     1      16.714  10.671  53.312  1.00  0.00    -0.072 N 
ATOM      5  H21 UNL     1      15.783  10.380  53.606  1.00  0.00     0.277 HD
ATOM      6  H22 UNL     1      16.678  10.315  52.356  1.00  0.00     0.277 HD
HETATM    7  C8  UNL     1      16.886  12.100  53.362  1.00  0.00     0.262 C 
HETATM    8  C9  UNL     1      18.377  12.464  53.315  1.00  0.00     0.300 C 
ENDROOT
BRANCH   1   9
HETATM    9  C5  UNL     1      19.382  13.021  55.468  1.00  0.00     0.279 C 
HETATM   10  C3  UNL     1      20.638  13.774  55.530  1.00  0.00     0.179 C 
HETATM   11  O1  UNL     1      21.301  12.583  55.822  1.00  0.00    -0.378 OA
HETATM   12  C4  UNL     1      20.145  12.285  56.591  1.00  0.00     0.207 C 
BRANCH  10  13
HETATM   13  C2  UNL     1      21.133  14.576  54.442  1.00  0.00    -0.003 C 
HETATM   14  C1  UNL     1      21.852  15.664  54.662  1.00  0.00     0.009 C 
ENDBRANCH  10  13
ENDBRANCH   1   9
TORSDOF 2
ENDMDL
