MODEL 1
REMARK VINA RESULT: -5.352747819      0.000      0.000
REMARK  2 active torsions:
REMARK  status: ('A' for Active; 'I' for Inactive)
REMARK    1  A    between atoms: C3_5  and  C4_6 
REMARK    2  A    between atoms: C4_6  and  O2_7 
ROOT
HETATM    1  C1  UNL     1      18.983  12.169  57.152  1.00  0.00     0.357 C 
HETATM    2  N1  UNL     1      19.172  12.199  55.715  1.00  0.00     0.017 N 
HETATM    3  O1  UNL     1      20.521  12.360  55.510  1.00  0.00    -0.064 OA
HETATM    4  C2  UNL     1      18.835  10.927  55.104  1.00  0.00     0.352 C 
HETATM    5  C3  UNL     1      18.453  11.359  53.702  1.00  0.00     0.116 C 
HETATM    6  C5  UNL     1      17.482  12.490  54.071  1.00  0.00     0.085 C 
HETATM    7  C6  UNL     1      18.400  13.219  55.067  1.00  0.00     0.259 C 
HETATM    8  C7  UNL     1      19.364  13.974  54.140  1.00  0.00     0.068 C 
HETATM    9  C8  UNL     1      19.701  13.160  52.943  1.00  0.00     0.171 C 
HETATM   10  O3  UNL     1      19.572  11.809  53.080  1.00  0.00    -0.376 OA
ENDROOT
BRANCH   5  11
HETATM   11  C4  UNL     1      17.698  10.303  52.950  1.00  0.00     0.204 C 
BRANCH  11  12
HETATM   12  O2  UNL     1      18.289  10.048  51.727  1.00  0.00    -0.398 OA
ATOM     13  H2  UNL     1      18.706   9.194  51.722  1.00  0.00     0.209 HD
ENDBRANCH  11  12
ENDBRANCH   5  11
TORSDOF 2
ENDMDL
MODEL 2
REMARK VINA RESULT: -5.297345630      1.548      3.407
REMARK  2 active torsions:
REMARK  status: ('A' for Active; 'I' for Inactive)
REMARK    1  A    between atoms: C3_5  and  C4_6 
REMARK    2  A    between atoms: C4_6  and  O2_7 
ROOT
HETATM    1  C1  UNL     1      17.730  10.550  53.225  1.00  0.00     0.357 C 
HETATM    2  N1  UNL     1      18.672  11.273  54.056  1.00  0.00     0.017 N 
HETATM    3  O1  UNL     1      19.351  10.324  54.780  1.00  0.00    -0.064 OA
HETATM    4  C2  UNL     1      19.679  11.949  53.260  1.00  0.00     0.352 C 
HETATM    5  C3  UNL     1      20.068  13.093  54.176  1.00  0.00     0.116 C 
HETATM    6  C5  UNL     1      18.660  13.605  54.509  1.00  0.00     0.085 C 
HETATM    7  C6  UNL     1      18.046  12.251  54.898  1.00  0.00     0.259 C 
HETATM    8  C7  UNL     1      18.600  12.027  56.313  1.00  0.00     0.068 C 
HETATM    9  C8  UNL     1      20.000  12.512  56.420  1.00  0.00     0.171 C 
HETATM   10  O3  UNL     1      20.706  12.571  55.254  1.00  0.00    -0.376 OA
ENDROOT
BRANCH   5  11
HETATM   11  C4  UNL     1      20.821  14.180  53.466  1.00  0.00     0.204 C 
BRANCH  11  12
HETATM   12  O2  UNL     1      21.130  15.213  54.331  1.00  0.00    -0.398 OA
ATOM     13  H2  UNL     1      21.827  14.962  54.925  1.00  0.00     0.209 HD
ENDBRANCH  11  12
ENDBRANCH   5  11
TORSDOF 2
ENDMDL
MODEL 3
REMARK VINA RESULT: -5.237408549      1.742      2.370
REMARK  2 active torsions:
REMARK  status: ('A' for Active; 'I' for Inactive)
REMARK    1  A    between atoms: C3_5  and  C4_6 
REMARK    2  A    between atoms: C4_6  and  O2_7 
ROOT
HETATM    1  C1  UNL     1      20.578  12.076  54.239  1.00  0.00     0.357 C 
HETATM    2  N1  UNL     1      19.198  11.941  53.814  1.00  0.00     0.017 N 
HETATM    3  O1  UNL     1      18.957  12.988  52.959  1.00  0.00    -0.064 OA
HETATM    4  C2  UNL     1      18.997  10.740  53.024  1.00  0.00     0.352 C 
HETATM    5  C3  UNL     1      17.529  10.457  53.278  1.00  0.00     0.116 C 
HETATM    6  C5  UNL     1      17.539  10.561  54.809  1.00  0.00     0.085 C 
HETATM    7  C6  UNL     1      18.272  11.909  54.908  1.00  0.00     0.259 C 
HETATM    8  C7  UNL     1      17.163  12.917  54.570  1.00  0.00     0.068 C 
HETATM    9  C8  UNL     1      16.266  12.388  53.510  1.00  0.00     0.171 C 
HETATM   10  O3  UNL     1      16.803  11.440  52.688  1.00  0.00    -0.376 OA
ENDROOT
BRANCH   5  11
HETATM   11  C4  UNL     1      17.128   9.063  52.893  1.00  0.00     0.204 C 
BRANCH  11  12
HETATM   12  O2  UNL     1      17.982   8.550  51.934  1.00  0.00    -0.398 OA
ATOM     13  H2  UNL     1      17.902   9.029  51.117  1.00  0.00     0.209 HD
ENDBRANCH  11  12
ENDBRANCH   5  11
TORSDOF 2
ENDMDL
MODEL 4
REMARK VINA RESULT: -5.119442993      1.663      2.727
REMARK  2 active torsions:
REMARK  status: ('A' for Active; 'I' for Inactive)
REMARK    1  A    between atoms: C3_5  and  C4_6 
REMARK    2  A    between atoms: C4_6  and  O2_7 
ROOT
HETATM    1  C1  UNL     1      20.833  14.170  53.584  1.00  0.00     0.357 C 
HETATM    2  N1  UNL     1      19.809  13.285  54.106  1.00  0.00     0.017 N 
HETATM    3  O1  UNL     1      19.860  13.406  55.473  1.00  0.00    -0.064 OA
HETATM    4  C2  UNL     1      18.480  13.724  53.726  1.00  0.00     0.352 C 
HETATM    5  C3  UNL     1      17.714  12.415  53.754  1.00  0.00     0.116 C 
HETATM    6  C5  UNL     1      18.680  11.569  52.913  1.00  0.00     0.085 C 
HETATM    7  C6  UNL     1      19.967  11.927  53.675  1.00  0.00     0.259 C 
HETATM    8  C7  UNL     1      19.861  11.054  54.935  1.00  0.00     0.068 C 
HETATM    9  C8  UNL     1      18.455  10.972  55.410  1.00  0.00     0.171 C 
HETATM   10  O3  UNL     1      17.636  12.000  55.043  1.00  0.00    -0.376 OA
ENDROOT
BRANCH   5  11
HETATM   11  C4  UNL     1      16.396  12.495  53.039  1.00  0.00     0.204 C 
BRANCH  11  12
HETATM   12  O2  UNL     1      16.320  11.545  52.037  1.00  0.00    -0.398 OA
ATOM     13  H2  UNL     1      15.526  11.029  52.118  1.00  0.00     0.209 HD
ENDBRANCH  11  12
ENDBRANCH   5  11
TORSDOF 2
ENDMDL
MODEL 5
REMARK VINA RESULT: -5.091326784      1.695      3.422
REMARK  2 active torsions:
REMARK  status: ('A' for Active; 'I' for Inactive)
REMARK    1  A    between atoms: C3_5  and  C4_6 
REMARK    2  A    between atoms: C4_6  and  O2_7 
ROOT
HETATM    1  C1  UNL     1      17.498   9.519  53.652  1.00  0.00     0.357 C 
HETATM    2  N1  UNL     1      17.850  10.869  54.048  1.00  0.00     0.017 N 
HETATM    3  O1  UNL     1      16.763  11.652  53.746  1.00  0.00    -0.064 OA
HETATM    4  C2  UNL     1      18.020  10.978  55.485  1.00  0.00     0.352 C 
HETATM    5  C3  UNL     1      18.981  12.147  55.585  1.00  0.00     0.116 C 
HETATM    6  C5  UNL     1      20.026  11.668  54.567  1.00  0.00     0.085 C 
HETATM    7  C6  UNL     1      19.051  11.343  53.424  1.00  0.00     0.259 C 
HETATM    8  C7  UNL     1      18.728  12.733  52.856  1.00  0.00     0.068 C 
HETATM    9  C8  UNL     1      18.631  13.744  53.940  1.00  0.00     0.171 C 
HETATM   10  O3  UNL     1      18.327  13.265  55.182  1.00  0.00    -0.376 OA
ENDROOT
BRANCH   5  11
HETATM   11  C4  UNL     1      19.634  12.252  56.932  1.00  0.00     0.204 C 
BRANCH  11  12
HETATM   12  O2  UNL     1      21.012  12.243  56.816  1.00  0.00    -0.398 OA
ATOM     13  H2  UNL     1      21.306  11.485  56.324  1.00  0.00     0.209 HD
ENDBRANCH  11  12
ENDBRANCH   5  11
TORSDOF 2
ENDMDL
