MODEL 1
REMARK VINA RESULT: -9.160598857      0.000      0.000
REMARK  13 active torsions:
REMARK  status: ('A' for Active; 'I' for Inactive)
REMARK    1  A    between atoms: C2_2  and  C5_5 
REMARK    2  A    between atoms: C5_5  and  N1_6 
REMARK    3  A    between atoms: N1_6  and  C6_8 
REMARK    4  A    between atoms: C7_11  and  N3_12 
REMARK    5  A    between atoms: C8_17  and  N5_18 
REMARK    6  A    between atoms: N5_18  and  C9_20 
REMARK    7  A    between atoms: C9_20  and  C10_21 
REMARK    8  A    between atoms: C9_20  and  C17_30 
REMARK    9  A    between atoms: C10_21  and  C11_22 
REMARK   10  A    between atoms: C11_22  and  C12_23 
REMARK   11  A    between atoms: C12_23  and  C13_24 
REMARK   12  A    between atoms: C18_33  and  C19_34 
REMARK   13  A    between atoms: C19_34  and  C20_35 
REMARK       I    between atoms: C20_35  and  N7_37 
ROOT
HETATM    1  C9  UNL     1      -9.018 -16.272  -6.018  1.00  0.00     0.157 C 
ENDROOT
BRANCH   1   2
HETATM    2  N5  UNL     1      -8.770 -17.620  -5.744  1.00  0.00    -0.214 N 
ATOM      3  H5  UNL     1      -9.427 -18.043  -5.088  1.00  0.00     0.178 HD
BRANCH   2   4
HETATM    4  C8  UNL     1      -7.874 -18.411  -6.167  1.00  0.00     0.707 A 
HETATM    5  N4  UNL     1      -8.085 -19.289  -7.149  1.00  0.00    -0.022 N 
HETATM    6  C7  UNL     1      -7.098 -20.119  -7.594  1.00  0.00     0.705 A 
ATOM      7  H4  UNL     1      -9.009 -19.341  -7.579  1.00  0.00     0.203 HD
HETATM    8  N2  UNL     1      -5.885 -20.053  -7.034  1.00  0.00    -0.022 N 
HETATM    9  C6  UNL     1      -5.646 -19.164  -6.029  1.00  0.00     0.707 A 
ATOM     10  H2  UNL     1      -5.139 -20.668  -7.360  1.00  0.00     0.203 HD
HETATM   11  N8  UNL     1      -6.640 -18.370  -5.624  1.00  0.00    -0.021 N 
ATOM     12  H8  UNL     1      -6.458 -17.706  -4.872  1.00  0.00     0.203 HD
BRANCH   6  13
HETATM   13  N3  UNL     1      -7.293 -20.971  -8.543  1.00  0.00    -0.234 N 
ATOM     14  H32 UNL     1      -6.786 -20.924  -9.427  1.00  0.00     0.174 HD
ATOM     15  H31 UNL     1      -7.976 -21.713  -8.396  1.00  0.00     0.174 HD
ENDBRANCH   6  13
BRANCH   9  16
HETATM   16  N1  UNL     1      -4.451 -19.167  -5.566  1.00  0.00    -0.224 N 
ATOM     17  H1  UNL     1      -4.335 -19.559  -4.632  1.00  0.00     0.177 HD
BRANCH  16  18
HETATM   18  C5  UNL     1      -3.263 -18.691  -6.198  1.00  0.00     0.146 C 
BRANCH  18  19
HETATM   19  C2  UNL     1      -2.643 -17.520  -5.437  1.00  0.00    -0.035 C 
HETATM   20  C1  UNL     1      -2.958 -16.232  -6.128  1.00  0.00     0.016 C 
HETATM   21  C3  UNL     1      -3.077 -17.518  -3.991  1.00  0.00     0.016 C 
HETATM   22  C4  UNL     1      -1.127 -17.707  -5.457  1.00  0.00     0.016 C 
ENDBRANCH  18  19
ENDBRANCH  16  18
ENDBRANCH   9  16
ENDBRANCH   2   4
ENDBRANCH   1   2
BRANCH   1  23
HETATM   23  C10 UNL     1      -9.813 -15.461  -5.056  1.00  0.00     0.033 C 
BRANCH  23  24
HETATM   24  C11 UNL     1     -10.660 -16.153  -4.075  1.00  0.00     0.009 C 
BRANCH  24  25
HETATM   25  C12 UNL     1     -12.133 -15.962  -4.148  1.00  0.00     0.065 C 
BRANCH  25  26
HETATM   26  C13 UNL     1     -12.688 -15.258  -2.950  1.00  0.00     0.054 A 
HETATM   27  C14 UNL     1     -13.398 -15.690  -1.869  1.00  0.00     0.036 A 
HETATM   28  C15 UNL     1     -13.666 -14.631  -1.046  1.00  0.00     0.048 A 
HETATM   29  C16 UNL     1     -13.087 -13.539  -1.675  1.00  0.00     0.121 A 
HETATM   30 BR1  UNL     1     -13.172 -11.779  -0.929  1.00  0.00    -0.023 Br
HETATM   31  O1  UNL     1     -12.534 -13.943  -2.767  1.00  0.00    -0.308 OA
ENDBRANCH  25  26
ENDBRANCH  24  25
ENDBRANCH  23  24
ENDBRANCH   1  23
BRANCH   1  32
HETATM   32  C17 UNL     1      -9.579 -16.080  -7.429  1.00  0.00     0.074 A 
HETATM   33  N6  UNL     1     -10.503 -16.813  -8.026  1.00  0.00    -0.355 N 
HETATM   34  C18 UNL     1     -10.874 -16.527  -9.232  1.00  0.00     0.025 A 
ATOM     35  H6  UNL     1     -10.922 -17.604  -7.536  1.00  0.00     0.166 HD
HETATM   36  C26 UNL     1     -10.273 -15.452  -9.841  1.00  0.00     0.077 A 
HETATM   37  S1  UNL     1      -9.201 -14.921  -8.616  1.00  0.00    -0.085 SA
BRANCH  34  38
HETATM   38  C19 UNL     1     -11.935 -17.327  -9.961  1.00  0.00     0.160 C 
BRANCH  38  39
HETATM   39  C20 UNL     1     -13.271 -17.133  -9.371  1.00  0.00     0.225 C 
HETATM   40  O2  UNL     1     -13.437 -16.703  -8.194  1.00  0.00    -0.273 OA
HETATM   41  N7  UNL     1     -14.432 -17.428 -10.118  1.00  0.00    -0.352 N 
HETATM   42  C21 UNL     1     -15.782 -17.266  -9.632  1.00  0.00     0.125 C 
HETATM   43  C25 UNL     1     -14.296 -17.931 -11.468  1.00  0.00     0.125 C 
HETATM   44  C22 UNL     1     -16.417 -18.624  -9.531  1.00  0.00     0.020 C 
HETATM   45  C23 UNL     1     -16.207 -19.403 -10.780  1.00  0.00     0.003 C 
HETATM   46  C24 UNL     1     -15.535 -18.684 -11.901  1.00  0.00     0.020 C 
ENDBRANCH  38  39
ENDBRANCH  34  38
ENDBRANCH   1  32
TORSDOF 13
ENDMDL
MODEL 2
REMARK VINA RESULT: -8.954578536      2.749      6.129
REMARK  13 active torsions:
REMARK  status: ('A' for Active; 'I' for Inactive)
REMARK    1  A    between atoms: C2_2  and  C5_5 
REMARK    2  A    between atoms: C5_5  and  N1_6 
REMARK    3  A    between atoms: N1_6  and  C6_8 
REMARK    4  A    between atoms: C7_11  and  N3_12 
REMARK    5  A    between atoms: C8_17  and  N5_18 
REMARK    6  A    between atoms: N5_18  and  C9_20 
REMARK    7  A    between atoms: C9_20  and  C10_21 
REMARK    8  A    between atoms: C9_20  and  C17_30 
REMARK    9  A    between atoms: C10_21  and  C11_22 
REMARK   10  A    between atoms: C11_22  and  C12_23 
REMARK   11  A    between atoms: C12_23  and  C13_24 
REMARK   12  A    between atoms: C18_33  and  C19_34 
REMARK   13  A    between atoms: C19_34  and  C20_35 
REMARK       I    between atoms: C20_35  and  N7_37 
ROOT
HETATM    1  C9  UNL     1      -9.334 -17.640  -9.306  1.00  0.00     0.157 C 
ENDROOT
BRANCH   1   2
HETATM    2  N5  UNL     1      -7.982 -17.978  -9.423  1.00  0.00    -0.214 N 
ATOM      3  H5  UNL     1      -7.425 -17.307  -9.951  1.00  0.00     0.178 HD
BRANCH   2   4
HETATM    4  C8  UNL     1      -7.326 -18.972  -8.989  1.00  0.00     0.707 A 
HETATM    5  N4  UNL     1      -7.444 -20.199  -9.500  1.00  0.00    -0.022 N 
HETATM    6  C7  UNL     1      -6.715 -21.248  -9.022  1.00  0.00     0.705 A 
ATOM      7  H4  UNL     1      -8.096 -20.356 -10.269  1.00  0.00     0.203 HD
HETATM    8  N2  UNL     1      -5.859 -21.047  -8.016  1.00  0.00    -0.022 N 
HETATM    9  C6  UNL     1      -5.722 -19.803  -7.477  1.00  0.00     0.707 A 
ATOM     10  H2  UNL     1      -5.308 -21.825  -7.651  1.00  0.00     0.203 HD
HETATM   11  N8  UNL     1      -6.454 -18.803  -7.974  1.00  0.00    -0.021 N 
ATOM     12  H8  UNL     1      -6.349 -17.873  -7.569  1.00  0.00     0.203 HD
BRANCH   6  13
HETATM   13  N3  UNL     1      -6.823 -22.438  -9.511  1.00  0.00    -0.234 N 
ATOM     14  H32 UNL     1      -6.471 -23.260  -9.019  1.00  0.00     0.174 HD
ATOM     15  H31 UNL     1      -7.275 -22.553 -10.417  1.00  0.00     0.174 HD
ENDBRANCH   6  13
BRANCH   9  16
HETATM   16  N1  UNL     1      -4.868 -19.708  -6.526  1.00  0.00    -0.224 N 
ATOM     17  H1  UNL     1      -4.173 -20.453  -6.473  1.00  0.00     0.177 HD
BRANCH  16  18
HETATM   18  C5  UNL     1      -4.770 -18.688  -5.532  1.00  0.00     0.146 C 
BRANCH  18  19
HETATM   19  C2  UNL     1      -3.406 -18.002  -5.551  1.00  0.00    -0.035 C 
HETATM   20  C1  UNL     1      -2.341 -18.985  -5.921  1.00  0.00     0.016 C 
HETATM   21  C3  UNL     1      -3.413 -16.795  -6.459  1.00  0.00     0.016 C 
HETATM   22  C4  UNL     1      -3.117 -17.505  -4.135  1.00  0.00     0.016 C 
ENDBRANCH  18  19
ENDBRANCH  16  18
ENDBRANCH   9  16
ENDBRANCH   2   4
ENDBRANCH   1   2
BRANCH   1  23
HETATM   23  C10 UNL     1     -10.038 -17.021 -10.463  1.00  0.00     0.033 C 
BRANCH  23  24
HETATM   24  C11 UNL     1     -11.388 -17.490 -10.803  1.00  0.00     0.009 C 
BRANCH  24  25
HETATM   25  C12 UNL     1     -12.525 -16.541 -10.667  1.00  0.00     0.065 C 
BRANCH  25  26
HETATM   26  C13 UNL     1     -13.762 -17.187 -10.129  1.00  0.00     0.054 A 
HETATM   27  C14 UNL     1     -14.347 -17.185  -8.897  1.00  0.00     0.036 A 
HETATM   28  C15 UNL     1     -15.483 -17.946  -8.930  1.00  0.00     0.048 A 
HETATM   29  C16 UNL     1     -15.560 -18.410 -10.235  1.00  0.00     0.121 A 
HETATM   30 BR1  UNL     1     -16.988 -19.539 -10.824  1.00  0.00    -0.023 Br
HETATM   31  O1  UNL     1     -14.551 -17.950 -10.892  1.00  0.00    -0.308 OA
ENDBRANCH  25  26
ENDBRANCH  24  25
ENDBRANCH  23  24
ENDBRANCH   1  23
BRANCH   1  32
HETATM   32  C17 UNL     1      -9.598 -16.811  -8.048  1.00  0.00     0.074 A 
HETATM   33  N6  UNL     1     -10.756 -16.643  -7.433  1.00  0.00    -0.355 N 
HETATM   34  C18 UNL     1     -10.822 -15.904  -6.372  1.00  0.00     0.025 A 
ATOM     35  H6  UNL     1     -11.596 -17.095  -7.794  1.00  0.00     0.166 HD
HETATM   36  C26 UNL     1      -9.659 -15.319  -5.935  1.00  0.00     0.077 A 
HETATM   37  S1  UNL     1      -8.535 -15.884  -7.096  1.00  0.00    -0.085 SA
BRANCH  34  38
HETATM   38  C19 UNL     1     -12.120 -15.684  -5.622  1.00  0.00     0.160 C 
BRANCH  38  39
HETATM   39  C20 UNL     1     -12.072 -16.253  -4.264  1.00  0.00     0.225 C 
HETATM   40  O2  UNL     1     -12.058 -17.498  -4.050  1.00  0.00    -0.273 OA
HETATM   41  N7  UNL     1     -12.040 -15.405  -3.135  1.00  0.00    -0.352 N 
HETATM   42  C21 UNL     1     -11.988 -15.865  -1.768  1.00  0.00     0.125 C 
HETATM   43  C25 UNL     1     -12.064 -13.971  -3.326  1.00  0.00     0.125 C 
HETATM   44  C22 UNL     1     -13.267 -15.474  -1.084  1.00  0.00     0.020 C 
HETATM   45  C23 UNL     1     -13.587 -14.043  -1.334  1.00  0.00     0.003 C 
HETATM   46  C24 UNL     1     -12.565 -13.260  -2.088  1.00  0.00     0.020 C 
ENDBRANCH  38  39
ENDBRANCH  34  38
ENDBRANCH   1  32
TORSDOF 13
ENDMDL
MODEL 3
REMARK VINA RESULT: -8.662244872      1.974      2.422
REMARK  13 active torsions:
REMARK  status: ('A' for Active; 'I' for Inactive)
REMARK    1  A    between atoms: C2_2  and  C5_5 
REMARK    2  A    between atoms: C5_5  and  N1_6 
REMARK    3  A    between atoms: N1_6  and  C6_8 
REMARK    4  A    between atoms: C7_11  and  N3_12 
REMARK    5  A    between atoms: C8_17  and  N5_18 
REMARK    6  A    between atoms: N5_18  and  C9_20 
REMARK    7  A    between atoms: C9_20  and  C10_21 
REMARK    8  A    between atoms: C9_20  and  C17_30 
REMARK    9  A    between atoms: C10_21  and  C11_22 
REMARK   10  A    between atoms: C11_22  and  C12_23 
REMARK   11  A    between atoms: C12_23  and  C13_24 
REMARK   12  A    between atoms: C18_33  and  C19_34 
REMARK   13  A    between atoms: C19_34  and  C20_35 
REMARK       I    between atoms: C20_35  and  N7_37 
ROOT
HETATM    1  C9  UNL     1      -9.118 -16.571  -5.424  1.00  0.00     0.157 C 
ENDROOT
BRANCH   1   2
HETATM    2  N5  UNL     1      -8.545 -17.842  -5.317  1.00  0.00    -0.214 N 
ATOM      3  H5  UNL     1      -8.871 -18.384  -4.517  1.00  0.00     0.178 HD
BRANCH   2   4
HETATM    4  C8  UNL     1      -7.692 -18.440  -6.039  1.00  0.00     0.707 A 
HETATM    5  N4  UNL     1      -8.024 -19.374  -6.934  1.00  0.00    -0.022 N 
HETATM    6  C7  UNL     1      -7.086 -19.992  -7.707  1.00  0.00     0.705 A 
ATOM      7  H4  UNL     1      -9.006 -19.631  -7.041  1.00  0.00     0.203 HD
HETATM    8  N2  UNL     1      -5.799 -19.657  -7.570  1.00  0.00    -0.022 N 
HETATM    9  C6  UNL     1      -5.436 -18.707  -6.663  1.00  0.00     0.707 A 
ATOM     10  H2  UNL     1      -5.089 -20.112  -8.145  1.00  0.00     0.203 HD
HETATM   11  N8  UNL     1      -6.385 -18.126  -5.926  1.00  0.00    -0.021 N 
ATOM     12  H8  UNL     1      -6.110 -17.415  -5.248  1.00  0.00     0.203 HD
BRANCH   6  13
HETATM   13  N3  UNL     1      -7.399 -20.895  -8.574  1.00  0.00    -0.234 N 
ATOM     14  H32 UNL     1      -8.086 -20.727  -9.309  1.00  0.00     0.174 HD
ATOM     15  H31 UNL     1      -6.939 -21.804  -8.516  1.00  0.00     0.174 HD
ENDBRANCH   6  13
BRANCH   9  16
HETATM   16  N1  UNL     1      -4.182 -18.446  -6.614  1.00  0.00    -0.224 N 
ATOM     17  H1  UNL     1      -3.795 -17.959  -7.423  1.00  0.00     0.177 HD
BRANCH  16  18
HETATM   18  C5  UNL     1      -3.261 -18.754  -5.568  1.00  0.00     0.146 C 
BRANCH  18  19
HETATM   19  C2  UNL     1      -2.546 -17.506  -5.053  1.00  0.00    -0.035 C 
HETATM   20  C1  UNL     1      -2.885 -16.328  -5.910  1.00  0.00     0.016 C 
HETATM   21  C3  UNL     1      -2.853 -17.263  -3.595  1.00  0.00     0.016 C 
HETATM   22  C4  UNL     1      -1.042 -17.754  -5.167  1.00  0.00     0.016 C 
ENDBRANCH  18  19
ENDBRANCH  16  18
ENDBRANCH   9  16
ENDBRANCH   2   4
ENDBRANCH   1   2
BRANCH   1  23
HETATM   23  C10 UNL     1     -10.211 -16.178  -4.493  1.00  0.00     0.033 C 
BRANCH  23  24
HETATM   24  C11 UNL     1     -10.350 -14.764  -4.120  1.00  0.00     0.009 C 
BRANCH  24  25
HETATM   25  C12 UNL     1     -11.689 -14.127  -4.238  1.00  0.00     0.065 C 
BRANCH  25  26
HETATM   26  C13 UNL     1     -11.926 -13.516  -5.583  1.00  0.00     0.054 A 
HETATM   27  C14 UNL     1     -11.272 -12.551  -6.290  1.00  0.00     0.036 A 
HETATM   28  C15 UNL     1     -11.904 -12.355  -7.488  1.00  0.00     0.048 A 
HETATM   29  C16 UNL     1     -12.969 -13.244  -7.475  1.00  0.00     0.121 A 
HETATM   30 BR1  UNL     1     -14.192 -13.378  -8.940  1.00  0.00    -0.023 Br
HETATM   31  O1  UNL     1     -12.945 -13.893  -6.362  1.00  0.00    -0.308 OA
ENDBRANCH  25  26
ENDBRANCH  24  25
ENDBRANCH  23  24
ENDBRANCH   1  23
BRANCH   1  32
HETATM   32  C17 UNL     1      -9.541 -16.265  -6.862  1.00  0.00     0.074 A 
HETATM   33  N6  UNL     1     -10.441 -16.912  -7.583  1.00  0.00    -0.355 N 
HETATM   34  C18 UNL     1     -10.690 -16.535  -8.795  1.00  0.00     0.025 A 
ATOM     35  H6  UNL     1     -10.938 -17.709  -7.183  1.00  0.00     0.166 HD
HETATM   36  C26 UNL     1      -9.988 -15.458  -9.279  1.00  0.00     0.077 A 
HETATM   37  S1  UNL     1      -9.006 -15.058  -7.934  1.00  0.00    -0.085 SA
BRANCH  34  38
HETATM   38  C19 UNL     1     -11.717 -17.233  -9.663  1.00  0.00     0.160 C 
BRANCH  38  39
HETATM   39  C20 UNL     1     -13.081 -17.086  -9.125  1.00  0.00     0.225 C 
HETATM   40  O2  UNL     1     -13.306 -16.724  -7.936  1.00  0.00    -0.273 OA
HETATM   41  N7  UNL     1     -14.203 -17.351  -9.941  1.00  0.00    -0.352 N 
HETATM   42  C21 UNL     1     -15.575 -17.231  -9.509  1.00  0.00     0.125 C 
HETATM   43  C25 UNL     1     -13.999 -17.778 -11.308  1.00  0.00     0.125 C 
HETATM   44  C22 UNL     1     -16.197 -18.599  -9.512  1.00  0.00     0.020 C 
HETATM   45  C23 UNL     1     -15.920 -19.305 -10.791  1.00  0.00     0.003 C 
HETATM   46  C24 UNL     1     -15.207 -18.519 -11.839  1.00  0.00     0.020 C 
ENDBRANCH  38  39
ENDBRANCH  34  38
ENDBRANCH   1  32
TORSDOF 13
ENDMDL
MODEL 4
REMARK VINA RESULT: -8.453836256      2.158      8.543
REMARK  13 active torsions:
REMARK  status: ('A' for Active; 'I' for Inactive)
REMARK    1  A    between atoms: C2_2  and  C5_5 
REMARK    2  A    between atoms: C5_5  and  N1_6 
REMARK    3  A    between atoms: N1_6  and  C6_8 
REMARK    4  A    between atoms: C7_11  and  N3_12 
REMARK    5  A    between atoms: C8_17  and  N5_18 
REMARK    6  A    between atoms: N5_18  and  C9_20 
REMARK    7  A    between atoms: C9_20  and  C10_21 
REMARK    8  A    between atoms: C9_20  and  C17_30 
REMARK    9  A    between atoms: C10_21  and  C11_22 
REMARK   10  A    between atoms: C11_22  and  C12_23 
REMARK   11  A    between atoms: C12_23  and  C13_24 
REMARK   12  A    between atoms: C18_33  and  C19_34 
REMARK   13  A    between atoms: C19_34  and  C20_35 
REMARK       I    between atoms: C20_35  and  N7_37 
ROOT
HETATM    1  C9  UNL     1     -11.516 -16.723  -7.171  1.00  0.00     0.157 C 
ENDROOT
BRANCH   1   2
HETATM    2  N5  UNL     1     -12.161 -16.433  -8.377  1.00  0.00    -0.214 N 
ATOM      3  H5  UNL     1     -11.789 -15.620  -8.868  1.00  0.00     0.178 HD
BRANCH   2   4
HETATM    4  C8  UNL     1     -13.127 -17.003  -8.969  1.00  0.00     0.707 A 
HETATM    5  N4  UNL     1     -14.263 -17.334  -8.352  1.00  0.00    -0.022 N 
HETATM    6  C7  UNL     1     -15.292 -17.933  -9.017  1.00  0.00     0.705 A 
ATOM      7  H4  UNL     1     -14.364 -17.133  -7.357  1.00  0.00     0.203 HD
HETATM    8  N2  UNL     1     -15.164 -18.198 -10.321  1.00  0.00    -0.022 N 
HETATM    9  C6  UNL     1     -14.012 -17.869 -10.973  1.00  0.00     0.707 A 
ATOM     10  H2  UNL     1     -15.928 -18.645 -10.829  1.00  0.00     0.203 HD
HETATM   11  N8  UNL     1     -13.029 -17.283 -10.285  1.00  0.00    -0.021 N 
ATOM     12  H8  UNL     1     -12.169 -17.038 -10.775  1.00  0.00     0.203 HD
BRANCH   6  13
HETATM   13  N3  UNL     1     -16.393 -18.257  -8.429  1.00  0.00    -0.234 N 
ATOM     14  H32 UNL     1     -17.241 -18.483  -8.950  1.00  0.00     0.174 HD
ATOM     15  H31 UNL     1     -16.410 -18.286  -7.410  1.00  0.00     0.174 HD
ENDBRANCH   6  13
BRANCH   9  16
HETATM   16  N1  UNL     1     -13.990 -18.150 -12.223  1.00  0.00    -0.224 N 
ATOM     17  H1  UNL     1     -14.046 -19.141 -12.459  1.00  0.00     0.177 HD
BRANCH  16  18
HETATM   18  C5  UNL     1     -13.896 -17.248 -13.325  1.00  0.00     0.146 C 
BRANCH  18  19
HETATM   19  C2  UNL     1     -12.605 -17.449 -14.117  1.00  0.00    -0.035 C 
HETATM   20  C1  UNL     1     -11.520 -16.582 -13.562  1.00  0.00     0.016 C 
HETATM   21  C3  UNL     1     -12.211 -18.906 -14.160  1.00  0.00     0.016 C 
HETATM   22  C4  UNL     1     -12.872 -17.006 -15.555  1.00  0.00     0.016 C 
ENDBRANCH  18  19
ENDBRANCH  16  18
ENDBRANCH   9  16
ENDBRANCH   2   4
ENDBRANCH   1   2
BRANCH   1  23
HETATM   23  C10 UNL     1     -11.996 -16.092  -5.911  1.00  0.00     0.033 C 
BRANCH  23  24
HETATM   24  C11 UNL     1     -11.542 -16.639  -4.626  1.00  0.00     0.009 C 
BRANCH  24  25
HETATM   25  C12 UNL     1     -10.919 -15.714  -3.641  1.00  0.00     0.065 C 
BRANCH  25  26
HETATM   26  C13 UNL     1     -11.918 -15.079  -2.726  1.00  0.00     0.054 A 
HETATM   27  C14 UNL     1     -12.980 -15.574  -2.030  1.00  0.00     0.036 A 
HETATM   28  C15 UNL     1     -13.580 -14.561  -1.332  1.00  0.00     0.048 A 
HETATM   29  C16 UNL     1     -12.833 -13.432  -1.637  1.00  0.00     0.121 A 
HETATM   30 BR1  UNL     1     -13.255 -11.714  -0.909  1.00  0.00    -0.023 Br
HETATM   31  O1  UNL     1     -11.886 -13.774  -2.442  1.00  0.00    -0.308 OA
ENDBRANCH  25  26
ENDBRANCH  24  25
ENDBRANCH  23  24
ENDBRANCH   1  23
BRANCH   1  32
HETATM   32  C17 UNL     1     -10.001 -16.539  -7.286  1.00  0.00     0.074 A 
HETATM   33  N6  UNL     1      -9.089 -17.489  -7.393  1.00  0.00    -0.355 N 
HETATM   34  C18 UNL     1      -7.836 -17.175  -7.479  1.00  0.00     0.025 A 
ATOM     35  H6  UNL     1      -9.372 -18.469  -7.407  1.00  0.00     0.166 HD
HETATM   36  C26 UNL     1      -7.516 -15.840  -7.452  1.00  0.00     0.077 A 
HETATM   37  S1  UNL     1      -9.063 -15.120  -7.305  1.00  0.00    -0.085 SA
BRANCH  34  38
HETATM   38  C19 UNL     1      -6.749 -18.222  -7.613  1.00  0.00     0.160 C 
BRANCH  38  39
HETATM   39  C20 UNL     1      -6.090 -18.497  -6.324  1.00  0.00     0.225 C 
HETATM   40  O2  UNL     1      -6.736 -18.826  -5.289  1.00  0.00    -0.273 OA
HETATM   41  N7  UNL     1      -4.687 -18.399  -6.204  1.00  0.00    -0.352 N 
HETATM   42  C21 UNL     1      -3.950 -18.653  -4.988  1.00  0.00     0.125 C 
HETATM   43  C25 UNL     1      -3.902 -18.018  -7.358  1.00  0.00     0.125 C 
HETATM   44  C22 UNL     1      -3.322 -17.367  -4.535  1.00  0.00     0.020 C 
HETATM   45  C23 UNL     1      -2.616 -16.695  -5.659  1.00  0.00     0.003 C 
HETATM   46  C24 UNL     1      -2.563 -17.444  -6.948  1.00  0.00     0.020 C 
ENDBRANCH  38  39
ENDBRANCH  34  38
ENDBRANCH   1  32
TORSDOF 13
ENDMDL
MODEL 5
REMARK VINA RESULT: -8.416336053      2.826      8.255
REMARK  13 active torsions:
REMARK  status: ('A' for Active; 'I' for Inactive)
REMARK    1  A    between atoms: C2_2  and  C5_5 
REMARK    2  A    between atoms: C5_5  and  N1_6 
REMARK    3  A    between atoms: N1_6  and  C6_8 
REMARK    4  A    between atoms: C7_11  and  N3_12 
REMARK    5  A    between atoms: C8_17  and  N5_18 
REMARK    6  A    between atoms: N5_18  and  C9_20 
REMARK    7  A    between atoms: C9_20  and  C10_21 
REMARK    8  A    between atoms: C9_20  and  C17_30 
REMARK    9  A    between atoms: C10_21  and  C11_22 
REMARK   10  A    between atoms: C11_22  and  C12_23 
REMARK   11  A    between atoms: C12_23  and  C13_24 
REMARK   12  A    between atoms: C18_33  and  C19_34 
REMARK   13  A    between atoms: C19_34  and  C20_35 
REMARK       I    between atoms: C20_35  and  N7_37 
ROOT
HETATM    1  C9  UNL     1     -12.924 -16.089  -7.726  1.00  0.00     0.157 C 
ENDROOT
BRANCH   1   2
HETATM    2  N5  UNL     1     -13.053 -17.229  -8.525  1.00  0.00    -0.214 N 
ATOM      3  H5  UNL     1     -12.227 -17.828  -8.539  1.00  0.00     0.178 HD
BRANCH   2   4
HETATM    4  C8  UNL     1     -14.014 -17.650  -9.236  1.00  0.00     0.707 A 
HETATM    5  N4  UNL     1     -15.222 -17.919  -8.737  1.00  0.00    -0.022 N 
HETATM    6  C7  UNL     1     -16.243 -18.358  -9.528  1.00  0.00     0.705 A 
ATOM      7  H4  UNL     1     -15.387 -17.793  -7.738  1.00  0.00     0.203 HD
HETATM    8  N2  UNL     1     -16.033 -18.524 -10.838  1.00  0.00    -0.022 N 
HETATM    9  C6  UNL     1     -14.807 -18.255 -11.370  1.00  0.00     0.707 A 
ATOM     10  H2  UNL     1     -16.790 -18.850 -11.440  1.00  0.00     0.203 HD
HETATM   11  N8  UNL     1     -13.835 -17.828 -10.561  1.00  0.00    -0.021 N 
ATOM     12  H8  UNL     1     -12.919 -17.627 -10.962  1.00  0.00     0.203 HD
BRANCH   6  13
HETATM   13  N3  UNL     1     -17.414 -18.621  -9.055  1.00  0.00    -0.234 N 
ATOM     14  H32 UNL     1     -18.260 -18.191  -9.430  1.00  0.00     0.174 HD
ATOM     15  H31 UNL     1     -17.489 -19.281  -8.281  1.00  0.00     0.174 HD
ENDBRANCH   6  13
BRANCH   9  16
HETATM   16  N1  UNL     1     -14.707 -18.432 -12.635  1.00  0.00    -0.224 N 
ATOM     17  H1  UNL     1     -14.837 -19.389 -12.965  1.00  0.00     0.177 HD
BRANCH  16  18
HETATM   18  C5  UNL     1     -14.437 -17.456 -13.640  1.00  0.00     0.146 C 
BRANCH  18  19
HETATM   19  C2  UNL     1     -13.000 -17.547 -14.152  1.00  0.00    -0.035 C 
HETATM   20  C1  UNL     1     -12.463 -18.926 -13.935  1.00  0.00     0.016 C 
HETATM   21  C3  UNL     1     -12.906 -17.115 -15.596  1.00  0.00     0.016 C 
HETATM   22  C4  UNL     1     -12.153 -16.577 -13.330  1.00  0.00     0.016 C 
ENDBRANCH  18  19
ENDBRANCH  16  18
ENDBRANCH   9  16
ENDBRANCH   2   4
ENDBRANCH   1   2
BRANCH   1  23
HETATM   23  C10 UNL     1     -12.767 -14.755  -8.369  1.00  0.00     0.033 C 
BRANCH  23  24
HETATM   24  C11 UNL     1     -13.067 -13.550  -7.585  1.00  0.00     0.009 C 
BRANCH  24  25
HETATM   25  C12 UNL     1     -11.953 -12.622  -7.253  1.00  0.00     0.065 C 
BRANCH  25  26
HETATM   26  C13 UNL     1     -11.468 -12.775  -5.846  1.00  0.00     0.054 A 
HETATM   27  C14 UNL     1     -10.221 -12.873  -5.302  1.00  0.00     0.036 A 
HETATM   28  C15 UNL     1     -10.325 -12.999  -3.944  1.00  0.00     0.048 A 
HETATM   29  C16 UNL     1     -11.688 -12.973  -3.690  1.00  0.00     0.121 A 
HETATM   30 BR1  UNL     1     -12.388 -13.117  -1.915  1.00  0.00    -0.023 Br
HETATM   31  O1  UNL     1     -12.310 -12.842  -4.811  1.00  0.00    -0.308 OA
ENDBRANCH  25  26
ENDBRANCH  24  25
ENDBRANCH  23  24
ENDBRANCH   1  23
BRANCH   1  32
HETATM   32  C17 UNL     1     -11.840 -16.269  -6.661  1.00  0.00     0.074 A 
HETATM   33  N6  UNL     1     -10.538 -16.378  -6.860  1.00  0.00    -0.355 N 
HETATM   34  C18 UNL     1      -9.741 -16.532  -5.852  1.00  0.00     0.025 A 
ATOM     35  H6  UNL     1     -10.162 -16.342  -7.808  1.00  0.00     0.166 HD
HETATM   36  C26 UNL     1     -10.307 -16.575  -4.600  1.00  0.00     0.077 A 
HETATM   37  S1  UNL     1     -11.968 -16.388  -4.969  1.00  0.00    -0.085 SA
BRANCH  34  38
HETATM   38  C19 UNL     1      -8.241 -16.652  -6.020  1.00  0.00     0.160 C 
BRANCH  38  39
HETATM   39  C20 UNL     1      -7.814 -18.056  -6.154  1.00  0.00     0.225 C 
HETATM   40  O2  UNL     1      -7.642 -18.811  -5.155  1.00  0.00    -0.273 OA
HETATM   41  N7  UNL     1      -7.579 -18.613  -7.430  1.00  0.00    -0.352 N 
HETATM   42  C21 UNL     1      -7.165 -19.976  -7.664  1.00  0.00     0.125 C 
HETATM   43  C25 UNL     1      -7.753 -17.788  -8.606  1.00  0.00     0.125 C 
HETATM   44  C22 UNL     1      -5.781 -19.959  -8.249  1.00  0.00     0.020 C 
HETATM   45  C23 UNL     1      -5.693 -18.993  -9.376  1.00  0.00     0.003 C 
HETATM   46  C24 UNL     1      -6.967 -18.329  -9.779  1.00  0.00     0.020 C 
ENDBRANCH  38  39
ENDBRANCH  34  38
ENDBRANCH   1  32
TORSDOF 13
ENDMDL
