MODEL 1
REMARK VINA RESULT: -7.536923804      0.000      0.000
REMARK  13 active torsions:
REMARK  status: ('A' for Active; 'I' for Inactive)
REMARK    1  A    between atoms: C2_2  and  C5_6 
REMARK    2  A    between atoms: C3_3  and  C4_4 
REMARK    3  A    between atoms: C5_6  and  C6_7 
REMARK    4  A    between atoms: C6_7  and  C7_8 
REMARK    5  A    between atoms: C8_9  and  C10_11 
REMARK    6  A    between atoms: C10_11  and  C11_12 
REMARK    7  A    between atoms: C11_12  and  C12_13 
REMARK    8  A    between atoms: C12_13  and  C13_15 
REMARK    9  A    between atoms: C13_15  and  C14_17 
REMARK   10  A    between atoms: C15_18  and  O3_19 
REMARK   11  A    between atoms: C16_21  and  O4_22 
REMARK   12  A    between atoms: C20_27  and  O5_28 
REMARK   13  A    between atoms: C21_30  and  O6_31 
ROOT
HETATM    1  C14 UNL     1      -9.774 -12.893  -7.563  1.00  0.00     0.010 C 
HETATM    2  C15 UNL     1      -9.887 -11.736  -6.670  1.00  0.00     0.180 C 
HETATM    3  C16 UNL     1      -9.976 -12.047  -5.214  1.00  0.00     0.152 C 
HETATM    4  C17 UNL     1     -10.290 -13.453  -4.921  1.00  0.00     0.047 C 
HETATM    5  C18 UNL     1     -11.137 -14.200  -5.931  1.00  0.00    -0.005 C 
HETATM    6  C19 UNL     1     -12.488 -13.443  -6.108  1.00  0.00     0.019 C 
HETATM    7  C20 UNL     1     -11.559 -15.412  -5.235  1.00  0.00     0.155 C 
HETATM    8  C21 UNL     1     -11.283 -16.762  -5.715  1.00  0.00     0.148 C 
HETATM    9  C22 UNL     1      -9.784 -16.903  -5.775  1.00  0.00     0.040 C 
HETATM   10  C23 UNL     1      -9.480 -16.605  -7.176  1.00  0.00     0.005 C 
HETATM   11  C24 UNL     1      -9.664 -15.291  -7.744  1.00  0.00     0.003 C 
HETATM   12  C25 UNL     1     -10.062 -15.677  -9.194  1.00  0.00     0.033 C 
HETATM   13  C26 UNL     1      -8.904 -16.485  -9.747  1.00  0.00    -0.022 C 
HETATM   14  C27 UNL     1      -8.050 -17.166  -9.047  1.00  0.00    -0.068 C 
HETATM   15  C28 UNL     1      -6.917 -17.947  -9.637  1.00  0.00     0.113 C 
HETATM   16  C29 UNL     1      -5.694 -17.636  -8.812  1.00  0.00     0.130 C 
HETATM   17  O7  UNL     1      -4.626 -17.600  -9.420  1.00  0.00    -0.298 OA
HETATM   18  C30 UNL     1      -5.764 -17.386  -7.351  1.00  0.00     0.079 C 
HETATM   19  C31 UNL     1      -6.943 -16.430  -7.087  1.00  0.00     0.021 C 
HETATM   20  C32 UNL     1      -8.159 -17.191  -7.570  1.00  0.00    -0.016 C 
HETATM   21  C33 UNL     1      -8.105 -18.639  -7.115  1.00  0.00     0.020 C 
HETATM   22  C34 UNL     1     -10.505 -14.199  -7.263  1.00  0.00     0.037 C 
ENDROOT
BRANCH   1  23
HETATM   23  C13 UNL     1      -9.783 -12.440  -8.966  1.00  0.00     0.222 C 
HETATM   24  O2  UNL     1      -8.716 -12.372  -9.690  1.00  0.00    -0.284 OA
BRANCH  23  25
HETATM   25  C12 UNL     1     -10.924 -12.006  -9.747  1.00  0.00     0.199 C 
HETATM   26  O1  UNL     1     -11.269 -10.809  -9.661  1.00  0.00    -0.289 OA
BRANCH  25  27
HETATM   27  C11 UNL     1     -11.737 -12.844 -10.650  1.00  0.00     0.091 C 
BRANCH  27  28
HETATM   28  C10 UNL     1     -13.189 -12.459 -10.456  1.00  0.00     0.041 C 
BRANCH  28  29
HETATM   29  C8  UNL     1     -13.903 -13.410  -9.541  1.00  0.00    -0.087 C 
HETATM   30  C7  UNL     1     -13.404 -14.615  -9.423  1.00  0.00    -0.024 C 
HETATM   31  C9  UNL     1     -15.121 -12.913  -8.891  1.00  0.00     0.043 C 
BRANCH  30  32
HETATM   32  C6  UNL     1     -13.800 -15.803  -8.710  1.00  0.00     0.031 C 
BRANCH  32  33
HETATM   33  C5  UNL     1     -13.589 -17.152  -9.287  1.00  0.00     0.037 C 
BRANCH  33  34
HETATM   34  C2  UNL     1     -14.824 -17.854  -9.728  1.00  0.00    -0.086 C 
HETATM   35  C1  UNL     1     -16.052 -17.621  -8.899  1.00  0.00     0.043 C 
HETATM   36  C3  UNL     1     -14.935 -18.665 -10.761  1.00  0.00    -0.010 C 
BRANCH  36  37
HETATM   37  C4  UNL     1     -16.211 -19.333 -11.106  1.00  0.00     0.142 C 
HETATM   38 CL1  UNL     1     -16.574 -19.056 -12.830  1.00  0.00    -0.126 Cl
ENDBRANCH  36  37
ENDBRANCH  33  34
ENDBRANCH  32  33
ENDBRANCH  30  32
ENDBRANCH  28  29
ENDBRANCH  27  28
ENDBRANCH  25  27
ENDBRANCH  23  25
ENDBRANCH   1  23
BRANCH   2  39
HETATM   39  O3  UNL     1      -8.747 -10.886  -6.791  1.00  0.00    -0.388 OA
ATOM     40  H3  UNL     1      -8.295 -11.040  -7.612  1.00  0.00     0.210 HD
ENDBRANCH   2  39
BRANCH   3  41
HETATM   41  O4  UNL     1     -10.899 -11.212  -4.608  1.00  0.00    -0.393 OA
ATOM     42  H4  UNL     1     -11.623 -11.723  -4.267  1.00  0.00     0.210 HD
ENDBRANCH   3  41
BRANCH   7  43
HETATM   43  O5  UNL     1     -11.209 -15.431  -3.837  1.00  0.00    -0.392 OA
ATOM     44  H5  UNL     1     -11.409 -14.622  -3.381  1.00  0.00     0.210 HD
ENDBRANCH   7  43
BRANCH   8  45
HETATM   45  O6  UNL     1     -11.806 -17.724  -4.845  1.00  0.00    -0.393 OA
ATOM     46  H6  UNL     1     -11.158 -17.999  -4.208  1.00  0.00     0.210 HD
ENDBRANCH   8  45
TORSDOF 13
ENDMDL
MODEL 2
REMARK VINA RESULT: -7.518260411      1.312      1.936
REMARK  13 active torsions:
REMARK  status: ('A' for Active; 'I' for Inactive)
REMARK    1  A    between atoms: C2_2  and  C5_6 
REMARK    2  A    between atoms: C3_3  and  C4_4 
REMARK    3  A    between atoms: C5_6  and  C6_7 
REMARK    4  A    between atoms: C6_7  and  C7_8 
REMARK    5  A    between atoms: C8_9  and  C10_11 
REMARK    6  A    between atoms: C10_11  and  C11_12 
REMARK    7  A    between atoms: C11_12  and  C12_13 
REMARK    8  A    between atoms: C12_13  and  C13_15 
REMARK    9  A    between atoms: C13_15  and  C14_17 
REMARK   10  A    between atoms: C15_18  and  O3_19 
REMARK   11  A    between atoms: C16_21  and  O4_22 
REMARK   12  A    between atoms: C20_27  and  O5_28 
REMARK   13  A    between atoms: C21_30  and  O6_31 
ROOT
HETATM    1  C14 UNL     1     -10.184 -13.577  -7.892  1.00  0.00     0.010 C 
HETATM    2  C15 UNL     1     -10.375 -12.208  -7.405  1.00  0.00     0.180 C 
HETATM    3  C16 UNL     1     -10.142 -12.000  -5.947  1.00  0.00     0.152 C 
HETATM    4  C17 UNL     1     -10.102 -13.244  -5.164  1.00  0.00     0.047 C 
HETATM    5  C18 UNL     1     -10.940 -14.404  -5.662  1.00  0.00    -0.005 C 
HETATM    6  C19 UNL     1     -12.428 -13.947  -5.744  1.00  0.00     0.019 C 
HETATM    7  C20 UNL     1     -10.974 -15.342  -4.543  1.00  0.00     0.155 C 
HETATM    8  C21 UNL     1     -10.514 -16.724  -4.629  1.00  0.00     0.148 C 
HETATM    9  C22 UNL     1      -9.052 -16.673  -4.991  1.00  0.00     0.040 C 
HETATM   10  C23 UNL     1      -9.066 -16.844  -6.445  1.00  0.00     0.005 C 
HETATM   11  C24 UNL     1      -9.615 -15.849  -7.335  1.00  0.00     0.003 C 
HETATM   12  C25 UNL     1     -10.172 -16.767  -8.456  1.00  0.00     0.033 C 
HETATM   13  C26 UNL     1      -8.987 -17.552  -8.985  1.00  0.00    -0.022 C 
HETATM   14  C27 UNL     1      -7.902 -17.824  -8.327  1.00  0.00    -0.068 C 
HETATM   15  C28 UNL     1      -6.754 -18.601  -8.893  1.00  0.00     0.113 C 
HETATM   16  C29 UNL     1      -5.495 -17.858  -8.518  1.00  0.00     0.130 C 
HETATM   17  O7  UNL     1      -4.582 -17.893  -9.339  1.00  0.00    -0.298 OA
HETATM   18  C30 UNL     1      -5.359 -17.126  -7.235  1.00  0.00     0.079 C 
HETATM   19  C31 UNL     1      -6.645 -16.307  -7.014  1.00  0.00     0.021 C 
HETATM   20  C32 UNL     1      -7.743 -17.346  -6.935  1.00  0.00    -0.016 C 
HETATM   21  C33 UNL     1      -7.312 -18.523  -6.077  1.00  0.00     0.020 C 
HETATM   22  C34 UNL     1     -10.565 -14.783  -7.036  1.00  0.00     0.037 C 
ENDROOT
BRANCH   1  23
HETATM   23  C13 UNL     1     -10.533 -13.648  -9.323  1.00  0.00     0.222 C 
HETATM   24  O2  UNL     1      -9.647 -13.750 -10.258  1.00  0.00    -0.284 OA
BRANCH  23  25
HETATM   25  C12 UNL     1     -11.856 -13.613  -9.913  1.00  0.00     0.199 C 
HETATM   26  O1  UNL     1     -12.349 -12.496 -10.174  1.00  0.00    -0.289 OA
BRANCH  25  27
HETATM   27  C11 UNL     1     -12.698 -14.779 -10.244  1.00  0.00     0.091 C 
BRANCH  27  28
HETATM   28  C10 UNL     1     -13.833 -14.828  -9.243  1.00  0.00     0.041 C 
BRANCH  28  29
HETATM   29  C8  UNL     1     -14.266 -16.236  -8.956  1.00  0.00    -0.087 C 
HETATM   30  C7  UNL     1     -15.447 -16.600  -9.391  1.00  0.00    -0.024 C 
HETATM   31  C9  UNL     1     -13.340 -17.066  -8.177  1.00  0.00     0.043 C 
BRANCH  30  32
HETATM   32  C6  UNL     1     -16.230 -17.805  -9.287  1.00  0.00     0.031 C 
BRANCH  32  33
HETATM   33  C5  UNL     1     -15.880 -19.019 -10.062  1.00  0.00     0.037 C 
BRANCH  33  34
HETATM   34  C2  UNL     1     -15.496 -18.778 -11.479  1.00  0.00    -0.086 C 
HETATM   35  C1  UNL     1     -16.547 -19.067 -12.510  1.00  0.00     0.043 C 
HETATM   36  C3  UNL     1     -14.325 -18.353 -11.910  1.00  0.00    -0.010 C 
BRANCH  36  37
HETATM   37  C4  UNL     1     -14.036 -18.163 -13.350  1.00  0.00     0.142 C 
HETATM   38 CL1  UNL     1     -12.477 -18.934 -13.746  1.00  0.00    -0.126 Cl
ENDBRANCH  36  37
ENDBRANCH  33  34
ENDBRANCH  32  33
ENDBRANCH  30  32
ENDBRANCH  28  29
ENDBRANCH  27  28
ENDBRANCH  25  27
ENDBRANCH  23  25
ENDBRANCH   1  23
BRANCH   2  39
HETATM   39  O3  UNL     1      -9.475 -11.307  -8.049  1.00  0.00    -0.388 OA
ATOM     40  H3  UNL     1      -8.578 -11.480  -7.787  1.00  0.00     0.210 HD
ENDBRANCH   2  39
BRANCH   3  41
HETATM   41  O4  UNL     1     -11.097 -11.139  -5.433  1.00  0.00    -0.393 OA
ATOM     42  H4  UNL     1     -11.966 -11.479  -5.607  1.00  0.00     0.210 HD
ENDBRANCH   3  41
BRANCH   7  43
HETATM   43  O5  UNL     1     -10.388 -14.824  -3.332  1.00  0.00    -0.392 OA
ATOM     44  H5  UNL     1     -10.522 -15.380  -2.574  1.00  0.00     0.210 HD
ENDBRANCH   7  43
BRANCH   8  45
HETATM   45  O6  UNL     1     -10.666 -17.383  -3.404  1.00  0.00    -0.393 OA
ATOM     46  H6  UNL     1     -10.559 -18.321  -3.504  1.00  0.00     0.210 HD
ENDBRANCH   8  45
TORSDOF 13
ENDMDL
MODEL 3
REMARK VINA RESULT: -7.398815881      2.202      5.505
REMARK  13 active torsions:
REMARK  status: ('A' for Active; 'I' for Inactive)
REMARK    1  A    between atoms: C2_2  and  C5_6 
REMARK    2  A    between atoms: C3_3  and  C4_4 
REMARK    3  A    between atoms: C5_6  and  C6_7 
REMARK    4  A    between atoms: C6_7  and  C7_8 
REMARK    5  A    between atoms: C8_9  and  C10_11 
REMARK    6  A    between atoms: C10_11  and  C11_12 
REMARK    7  A    between atoms: C11_12  and  C12_13 
REMARK    8  A    between atoms: C12_13  and  C13_15 
REMARK    9  A    between atoms: C13_15  and  C14_17 
REMARK   10  A    between atoms: C15_18  and  O3_19 
REMARK   11  A    between atoms: C16_21  and  O4_22 
REMARK   12  A    between atoms: C20_27  and  O5_28 
REMARK   13  A    between atoms: C21_30  and  O6_31 
ROOT
HETATM    1  C14 UNL     1      -8.232 -17.405 -10.376  1.00  0.00     0.010 C 
HETATM    2  C15 UNL     1      -8.193 -18.617 -11.200  1.00  0.00     0.180 C 
HETATM    3  C16 UNL     1      -8.018 -19.899 -10.459  1.00  0.00     0.152 C 
HETATM    4  C17 UNL     1      -7.561 -19.731  -9.072  1.00  0.00     0.047 C 
HETATM    5  C18 UNL     1      -6.689 -18.530  -8.770  1.00  0.00    -0.005 C 
HETATM    6  C19 UNL     1      -5.422 -18.590  -9.677  1.00  0.00     0.019 C 
HETATM    7  C20 UNL     1      -6.127 -18.804  -7.450  1.00  0.00     0.155 C 
HETATM    8  C21 UNL     1      -6.293 -17.924  -6.298  1.00  0.00     0.148 C 
HETATM    9  C22 UNL     1      -7.773 -17.834  -6.031  1.00  0.00     0.040 C 
HETATM   10  C23 UNL     1      -8.159 -16.602  -6.720  1.00  0.00     0.005 C 
HETATM   11  C24 UNL     1      -8.122 -16.477  -8.158  1.00  0.00     0.003 C 
HETATM   12  C25 UNL     1      -7.748 -14.976  -8.289  1.00  0.00     0.033 C 
HETATM   13  C26 UNL     1      -8.846 -14.205  -7.582  1.00  0.00    -0.022 C 
HETATM   14  C27 UNL     1      -9.603 -14.661  -6.631  1.00  0.00    -0.068 C 
HETATM   15  C28 UNL     1     -10.679 -13.863  -5.965  1.00  0.00     0.113 C 
HETATM   16  C29 UNL     1     -11.893 -14.753  -5.875  1.00  0.00     0.130 C 
HETATM   17  O7  UNL     1     -12.983 -14.196  -5.990  1.00  0.00    -0.298 OA
HETATM   18  C30 UNL     1     -11.789 -16.218  -5.660  1.00  0.00     0.079 C 
HETATM   19  C31 UNL     1     -10.696 -16.761  -6.599  1.00  0.00     0.021 C 
HETATM   20  C32 UNL     1      -9.434 -16.053  -6.157  1.00  0.00    -0.016 C 
HETATM   21  C33 UNL     1      -9.333 -16.027  -4.641  1.00  0.00     0.020 C 
HETATM   22  C34 UNL     1      -7.370 -17.271  -9.123  1.00  0.00     0.037 C 
ENDROOT
BRANCH   1  23
HETATM   23  C13 UNL     1      -8.321 -16.217 -11.245  1.00  0.00     0.222 C 
HETATM   24  O2  UNL     1      -7.329 -15.789 -11.952  1.00  0.00    -0.284 OA
BRANCH  23  25
HETATM   25  C12 UNL     1      -9.468 -15.357 -11.451  1.00  0.00     0.199 C 
HETATM   26  O1  UNL     1      -9.268 -14.222 -11.933  1.00  0.00    -0.289 OA
BRANCH  25  27
HETATM   27  C11 UNL     1     -10.875 -15.685 -11.147  1.00  0.00     0.091 C 
BRANCH  27  28
HETATM   28  C10 UNL     1     -11.382 -14.664 -10.150  1.00  0.00     0.041 C 
BRANCH  28  29
HETATM   29  C8  UNL     1     -12.671 -15.096  -9.513  1.00  0.00    -0.087 C 
HETATM   30  C7  UNL     1     -12.794 -16.365  -9.214  1.00  0.00    -0.024 C 
HETATM   31  C9  UNL     1     -13.691 -14.060  -9.318  1.00  0.00     0.043 C 
BRANCH  30  32
HETATM   32  C6  UNL     1     -13.851 -17.170  -8.657  1.00  0.00     0.031 C 
BRANCH  32  33
HETATM   33  C5  UNL     1     -15.143 -17.339  -9.364  1.00  0.00     0.037 C 
BRANCH  33  34
HETATM   34  C2  UNL     1     -15.061 -18.028 -10.680  1.00  0.00    -0.086 C 
HETATM   35  C1  UNL     1     -15.845 -19.299 -10.813  1.00  0.00     0.043 C 
HETATM   36  C3  UNL     1     -14.358 -17.636 -11.724  1.00  0.00    -0.010 C 
BRANCH  36  37
HETATM   37  C4  UNL     1     -14.328 -18.407 -12.989  1.00  0.00     0.142 C 
HETATM   38 CL1  UNL     1     -12.636 -18.774 -13.416  1.00  0.00    -0.126 Cl
ENDBRANCH  36  37
ENDBRANCH  33  34
ENDBRANCH  32  33
ENDBRANCH  30  32
ENDBRANCH  28  29
ENDBRANCH  27  28
ENDBRANCH  25  27
ENDBRANCH  23  25
ENDBRANCH   1  23
BRANCH   2  39
HETATM   39  O3  UNL     1      -9.413 -18.780 -11.924  1.00  0.00    -0.388 OA
ATOM     40  H3  UNL     1      -9.279 -19.317 -12.696  1.00  0.00     0.210 HD
ENDBRANCH   2  39
BRANCH   3  41
HETATM   41  O4  UNL     1      -7.154 -20.731 -11.151  1.00  0.00    -0.393 OA
ATOM     42  H4  UNL     1      -7.368 -21.639 -10.975  1.00  0.00     0.210 HD
ENDBRANCH   3  41
BRANCH   7  43
HETATM   43  O5  UNL     1      -6.418 -20.127  -6.958  1.00  0.00    -0.392 OA
ATOM     44  H5  UNL     1      -6.680 -20.147  -6.045  1.00  0.00     0.210 HD
ENDBRANCH   7  43
BRANCH   8  45
HETATM   45  O6  UNL     1      -5.647 -18.442  -5.170  1.00  0.00    -0.393 OA
ATOM     46  H6  UNL     1      -4.706 -18.464  -5.294  1.00  0.00     0.210 HD
ENDBRANCH   8  45
TORSDOF 13
ENDMDL
MODEL 4
REMARK VINA RESULT: -7.344138082      3.972      8.495
REMARK  13 active torsions:
REMARK  status: ('A' for Active; 'I' for Inactive)
REMARK    1  A    between atoms: C2_2  and  C5_6 
REMARK    2  A    between atoms: C3_3  and  C4_4 
REMARK    3  A    between atoms: C5_6  and  C6_7 
REMARK    4  A    between atoms: C6_7  and  C7_8 
REMARK    5  A    between atoms: C8_9  and  C10_11 
REMARK    6  A    between atoms: C10_11  and  C11_12 
REMARK    7  A    between atoms: C11_12  and  C12_13 
REMARK    8  A    between atoms: C12_13  and  C13_15 
REMARK    9  A    between atoms: C13_15  and  C14_17 
REMARK   10  A    between atoms: C15_18  and  O3_19 
REMARK   11  A    between atoms: C16_21  and  O4_22 
REMARK   12  A    between atoms: C20_27  and  O5_28 
REMARK   13  A    between atoms: C21_30  and  O6_31 
ROOT
HETATM    1  C14 UNL     1     -10.131 -16.209  -6.590  1.00  0.00     0.010 C 
HETATM    2  C15 UNL     1      -9.836 -15.962  -5.176  1.00  0.00     0.180 C 
HETATM    3  C16 UNL     1     -10.640 -14.889  -4.523  1.00  0.00     0.152 C 
HETATM    4  C17 UNL     1     -11.344 -14.011  -5.469  1.00  0.00     0.047 C 
HETATM    5  C18 UNL     1     -10.700 -13.791  -6.823  1.00  0.00    -0.005 C 
HETATM    6  C19 UNL     1      -9.273 -13.200  -6.607  1.00  0.00     0.019 C 
HETATM    7  C20 UNL     1     -11.414 -12.651  -7.390  1.00  0.00     0.155 C 
HETATM    8  C21 UNL     1     -12.123 -12.690  -8.665  1.00  0.00     0.148 C 
HETATM    9  C22 UNL     1     -13.197 -13.738  -8.532  1.00  0.00     0.040 C 
HETATM   10  C23 UNL     1     -12.573 -14.926  -9.120  1.00  0.00     0.005 C 
HETATM   11  C24 UNL     1     -11.449 -15.592  -8.507  1.00  0.00     0.003 C 
HETATM   12  C25 UNL     1     -10.702 -16.084  -9.777  1.00  0.00     0.033 C 
HETATM   13  C26 UNL     1     -11.678 -16.974 -10.520  1.00  0.00    -0.022 C 
HETATM   14  C27 UNL     1     -12.972 -16.912 -10.446  1.00  0.00    -0.068 C 
HETATM   15  C28 UNL     1     -13.898 -17.817 -11.197  1.00  0.00     0.113 C 
HETATM   16  C29 UNL     1     -14.954 -18.273 -10.221  1.00  0.00     0.130 C 
HETATM   17  O7  UNL     1     -15.374 -19.417 -10.374  1.00  0.00    -0.298 OA
HETATM   18  C30 UNL     1     -15.461 -17.397  -9.135  1.00  0.00     0.079 C 
HETATM   19  C31 UNL     1     -14.251 -16.722  -8.462  1.00  0.00     0.021 C 
HETATM   20  C32 UNL     1     -13.613 -15.907  -9.566  1.00  0.00    -0.016 C 
HETATM   21  C33 UNL     1     -14.669 -15.175 -10.376  1.00  0.00     0.020 C 
HETATM   22  C34 UNL     1     -10.498 -15.066  -7.533  1.00  0.00     0.037 C 
ENDROOT
BRANCH   1  23
HETATM   23  C13 UNL     1      -9.206 -17.228  -7.119  1.00  0.00     0.222 C 
HETATM   24  O2  UNL     1      -9.369 -18.494  -6.923  1.00  0.00    -0.284 OA
BRANCH  23  25
HETATM   25  C12 UNL     1      -8.009 -17.012  -7.907  1.00  0.00     0.199 C 
HETATM   26  O1  UNL     1      -7.782 -17.796  -8.852  1.00  0.00    -0.289 OA
BRANCH  25  27
HETATM   27  C11 UNL     1      -7.010 -15.943  -7.706  1.00  0.00     0.091 C 
BRANCH  27  28
HETATM   28  C10 UNL     1      -5.730 -16.373  -8.392  1.00  0.00     0.041 C 
BRANCH  28  29
HETATM   29  C8  UNL     1      -4.642 -16.681  -7.404  1.00  0.00    -0.087 C 
HETATM   30  C7  UNL     1      -4.915 -17.557  -6.469  1.00  0.00    -0.024 C 
HETATM   31  C9  UNL     1      -3.384 -15.942  -7.555  1.00  0.00     0.043 C 
BRANCH  30  32
HETATM   32  C6  UNL     1      -4.191 -18.079  -5.338  1.00  0.00     0.031 C 
BRANCH  32  33
HETATM   33  C5  UNL     1      -3.133 -19.103  -5.508  1.00  0.00     0.037 C 
BRANCH  33  34
HETATM   34  C2  UNL     1      -1.740 -18.580  -5.523  1.00  0.00    -0.086 C 
HETATM   35  C1  UNL     1      -1.474 -17.378  -4.665  1.00  0.00     0.043 C 
HETATM   36  C3  UNL     1      -0.732 -19.060  -6.224  1.00  0.00    -0.010 C 
BRANCH  36  37
HETATM   37  C4  UNL     1       0.618 -18.452  -6.183  1.00  0.00     0.142 C 
HETATM   38 CL1  UNL     1       1.612 -19.305  -4.973  1.00  0.00    -0.126 Cl
ENDBRANCH  36  37
ENDBRANCH  33  34
ENDBRANCH  32  33
ENDBRANCH  30  32
ENDBRANCH  28  29
ENDBRANCH  27  28
ENDBRANCH  25  27
ENDBRANCH  23  25
ENDBRANCH   1  23
BRANCH   2  39
HETATM   39  O3  UNL     1     -10.086 -17.130  -4.392  1.00  0.00    -0.388 OA
ATOM     40  H3  UNL     1      -9.355 -17.734  -4.442  1.00  0.00     0.210 HD
ENDBRANCH   2  39
BRANCH   3  41
HETATM   41  O4  UNL     1      -9.834 -14.141  -3.682  1.00  0.00    -0.393 OA
ATOM     42  H4  UNL     1      -9.936 -13.216  -3.874  1.00  0.00     0.210 HD
ENDBRANCH   3  41
BRANCH   7  43
HETATM   43  O5  UNL     1     -12.328 -12.021  -6.471  1.00  0.00    -0.392 OA
ATOM     44  H5  UNL     1     -13.012 -11.517  -6.896  1.00  0.00     0.210 HD
ENDBRANCH   7  43
BRANCH   8  45
HETATM   45  O6  UNL     1     -12.713 -11.454  -8.953  1.00  0.00    -0.393 OA
ATOM     46  H6  UNL     1     -12.919 -11.380  -9.877  1.00  0.00     0.210 HD
ENDBRANCH   8  45
TORSDOF 13
ENDMDL
MODEL 5
REMARK VINA RESULT: -7.316435360      0.968      1.091
REMARK  13 active torsions:
REMARK  status: ('A' for Active; 'I' for Inactive)
REMARK    1  A    between atoms: C2_2  and  C5_6 
REMARK    2  A    between atoms: C3_3  and  C4_4 
REMARK    3  A    between atoms: C5_6  and  C6_7 
REMARK    4  A    between atoms: C6_7  and  C7_8 
REMARK    5  A    between atoms: C8_9  and  C10_11 
REMARK    6  A    between atoms: C10_11  and  C11_12 
REMARK    7  A    between atoms: C11_12  and  C12_13 
REMARK    8  A    between atoms: C12_13  and  C13_15 
REMARK    9  A    between atoms: C13_15  and  C14_17 
REMARK   10  A    between atoms: C15_18  and  O3_19 
REMARK   11  A    between atoms: C16_21  and  O4_22 
REMARK   12  A    between atoms: C20_27  and  O5_28 
REMARK   13  A    between atoms: C21_30  and  O6_31 
ROOT
HETATM    1  C14 UNL     1     -10.171 -13.267  -8.156  1.00  0.00     0.010 C 
HETATM    2  C15 UNL     1     -10.404 -11.991  -7.473  1.00  0.00     0.180 C 
HETATM    3  C16 UNL     1     -10.505 -12.059  -5.987  1.00  0.00     0.152 C 
HETATM    4  C17 UNL     1     -10.709 -13.417  -5.463  1.00  0.00     0.047 C 
HETATM    5  C18 UNL     1     -11.464 -14.393  -6.342  1.00  0.00    -0.005 C 
HETATM    6  C19 UNL     1     -12.868 -13.797  -6.661  1.00  0.00     0.019 C 
HETATM    7  C20 UNL     1     -11.802 -15.503  -5.455  1.00  0.00     0.155 C 
HETATM    8  C21 UNL     1     -11.403 -16.886  -5.697  1.00  0.00     0.148 C 
HETATM    9  C22 UNL     1      -9.896 -16.906  -5.714  1.00  0.00     0.040 C 
HETATM   10  C23 UNL     1      -9.581 -16.822  -7.141  1.00  0.00     0.005 C 
HETATM   11  C24 UNL     1      -9.859 -15.642  -7.926  1.00  0.00     0.003 C 
HETATM   12  C25 UNL     1     -10.185 -16.300  -9.294  1.00  0.00     0.033 C 
HETATM   13  C26 UNL     1      -8.950 -17.086  -9.689  1.00  0.00    -0.022 C 
HETATM   14  C27 UNL     1      -8.061 -17.564  -8.873  1.00  0.00    -0.068 C 
HETATM   15  C28 UNL     1      -6.853 -18.332  -9.310  1.00  0.00     0.113 C 
HETATM   16  C29 UNL     1      -5.681 -17.783  -8.534  1.00  0.00     0.130 C 
HETATM   17  O7  UNL     1      -4.605 -17.757  -9.127  1.00  0.00    -0.298 OA
HETATM   18  C30 UNL     1      -5.810 -17.298  -7.138  1.00  0.00     0.079 C 
HETATM   19  C31 UNL     1      -7.071 -16.416  -7.054  1.00  0.00     0.021 C 
HETATM   20  C32 UNL     1      -8.206 -17.349  -7.415  1.00  0.00    -0.016 C 
HETATM   21  C33 UNL     1      -8.045 -18.691  -6.721  1.00  0.00     0.020 C 
HETATM   22  C34 UNL     1     -10.799 -14.562  -7.647  1.00  0.00     0.037 C 
ENDROOT
BRANCH   1  23
HETATM   23  C13 UNL     1     -10.182 -13.058  -9.615  1.00  0.00     0.222 C 
HETATM   24  O2  UNL     1      -9.104 -12.940 -10.316  1.00  0.00    -0.284 OA
BRANCH  23  25
HETATM   25  C12 UNL     1     -11.337 -12.947 -10.484  1.00  0.00     0.199 C 
HETATM   26  O1  UNL     1     -11.916 -11.843 -10.547  1.00  0.00    -0.289 OA
BRANCH  25  27
HETATM   27  C11 UNL     1     -11.911 -14.021 -11.318  1.00  0.00     0.091 C 
BRANCH  27  28
HETATM   28  C10 UNL     1     -13.418 -13.871 -11.291  1.00  0.00     0.041 C 
BRANCH  28  29
HETATM   29  C8  UNL     1     -14.028 -14.562 -10.106  1.00  0.00    -0.087 C 
HETATM   30  C7  UNL     1     -13.584 -15.761  -9.819  1.00  0.00    -0.024 C 
HETATM   31  C9  UNL     1     -15.096 -13.845  -9.401  1.00  0.00     0.043 C 
BRANCH  30  32
HETATM   32  C6  UNL     1     -13.926 -16.750  -8.828  1.00  0.00     0.031 C 
BRANCH  32  33
HETATM   33  C5  UNL     1     -15.121 -17.612  -8.984  1.00  0.00     0.037 C 
BRANCH  33  34
HETATM   34  C2  UNL     1     -15.316 -18.187 -10.343  1.00  0.00    -0.086 C 
HETATM   35  C1  UNL     1     -16.512 -19.074 -10.523  1.00  0.00     0.043 C 
HETATM   36  C3  UNL     1     -14.535 -18.003 -11.388  1.00  0.00    -0.010 C 
BRANCH  36  37
HETATM   37  C4  UNL     1     -14.807 -18.638 -12.698  1.00  0.00     0.142 C 
HETATM   38 CL1  UNL     1     -13.513 -18.204 -13.845  1.00  0.00    -0.126 Cl
ENDBRANCH  36  37
ENDBRANCH  33  34
ENDBRANCH  32  33
ENDBRANCH  30  32
ENDBRANCH  28  29
ENDBRANCH  27  28
ENDBRANCH  25  27
ENDBRANCH  23  25
ENDBRANCH   1  23
BRANCH   2  39
HETATM   39  O3  UNL     1      -9.335 -11.078  -7.723  1.00  0.00    -0.388 OA
ATOM     40  H3  UNL     1      -8.749 -11.029  -6.977  1.00  0.00     0.210 HD
ENDBRANCH   2  39
BRANCH   3  41
HETATM   41  O4  UNL     1     -11.509 -11.217  -5.542  1.00  0.00    -0.393 OA
ATOM     42  H4  UNL     1     -12.150 -11.711  -5.044  1.00  0.00     0.210 HD
ENDBRANCH   3  41
BRANCH   7  43
HETATM   43  O5  UNL     1     -11.488 -15.257  -4.070  1.00  0.00    -0.392 OA
ATOM     44  H5  UNL     1     -11.282 -16.043  -3.579  1.00  0.00     0.210 HD
ENDBRANCH   7  43
BRANCH   8  45
HETATM   45  O6  UNL     1     -11.867 -17.730  -4.681  1.00  0.00    -0.393 OA
ATOM     46  H6  UNL     1     -11.525 -18.610  -4.784  1.00  0.00     0.210 HD
ENDBRANCH   8  45
TORSDOF 13
ENDMDL
