MODEL 1
REMARK VINA RESULT: -8.156725990      0.000      0.000
REMARK  11 active torsions:
REMARK  status: ('A' for Active; 'I' for Inactive)
REMARK    1  A    between atoms: O1_2  and  C2_3 
REMARK    2  A    between atoms: C2_3  and  C3_4 
REMARK    3  A    between atoms: C3_4  and  C4_5 
REMARK    4  A    between atoms: C4_5  and  N1_6 
REMARK       I    between atoms: N1_6  and  C5_8 
REMARK    5  A    between atoms: C5_8  and  C6_10 
REMARK    6  A    between atoms: C9_13  and  C10_14 
REMARK    7  A    between atoms: C10_14  and  C11_16 
REMARK    8  A    between atoms: C12_17  and  O4_18 
REMARK    9  A    between atoms: C12_17  and  C13_20 
REMARK   10  A    between atoms: C13_20  and  O5_23 
REMARK   11  A    between atoms: C29_39  and  O7_40 
ROOT
HETATM    1  C6  UNL     1     -14.009 -12.640  -9.864  1.00  0.00     0.096 C 
HETATM    2  C7  UNL     1     -15.044 -13.353  -9.018  1.00  0.00     0.043 C 
HETATM    3  C8  UNL     1     -14.880 -14.782  -9.383  1.00  0.00    -0.010 C 
HETATM    4  C9  UNL     1     -13.626 -15.287  -9.439  1.00  0.00     0.014 C 
HETATM    5  C16 UNL     1     -12.478 -14.393  -9.065  1.00  0.00    -0.046 C 
HETATM    6  C17 UNL     1     -11.965 -14.528  -7.684  1.00  0.00    -0.015 C 
HETATM    7  C18 UNL     1     -10.558 -15.080  -7.752  1.00  0.00     0.020 C 
HETATM    8  C19 UNL     1     -12.749 -15.442  -6.776  1.00  0.00     0.015 C 
HETATM    9  C20 UNL     1     -12.024 -15.665  -5.451  1.00  0.00     0.018 C 
HETATM   10  C21 UNL     1     -11.526 -14.460  -4.782  1.00  0.00     0.021 C 
HETATM   11  C22 UNL     1     -10.080 -14.424  -4.388  1.00  0.00     0.024 C 
HETATM   12  C23 UNL     1     -12.214 -14.141  -3.456  1.00  0.00     0.135 C 
HETATM   13  O6  UNL     1     -12.835 -14.905  -2.785  1.00  0.00    -0.297 OA
HETATM   14  C24 UNL     1     -11.889 -12.692  -3.281  1.00  0.00     0.079 C 
HETATM   15  C25 UNL     1     -11.458 -12.181  -4.678  1.00  0.00     0.013 C 
HETATM   16  C26 UNL     1     -12.045 -13.258  -5.504  1.00  0.00     0.007 C 
HETATM   17  C27 UNL     1     -12.022 -13.204  -6.959  1.00  0.00     0.006 C 
HETATM   18  C28 UNL     1     -11.087 -12.271  -7.666  1.00  0.00     0.039 C 
HETATM   19  C29 UNL     1     -11.767 -11.953  -8.981  1.00  0.00     0.132 C 
HETATM   20  C30 UNL     1     -12.572 -13.006  -9.632  1.00  0.00     0.019 C 
HETATM   21  C31 UNL     1     -11.991 -13.108 -11.078  1.00  0.00     0.023 C 
ENDROOT
BRANCH   4  22
HETATM   22  C10 UNL     1     -13.560 -16.681  -9.813  1.00  0.00     0.184 C 
HETATM   23  O3  UNL     1     -13.137 -17.510  -8.967  1.00  0.00    -0.287 OA
BRANCH  22  24
HETATM   24  C11 UNL     1     -13.949 -17.230 -11.090  1.00  0.00     0.092 C 
HETATM   25  C12 UNL     1     -14.827 -18.125 -11.404  1.00  0.00     0.100 C 
BRANCH  25  26
HETATM   26  O4  UNL     1     -14.880 -18.368 -12.845  1.00  0.00    -0.267 OA
HETATM   27  S1  UNL     1     -13.899 -17.335 -13.860  1.00  0.00     0.099 SA
ENDBRANCH  25  26
BRANCH  25  28
HETATM   28  C13 UNL     1     -15.778 -18.960 -10.714  1.00  0.00     0.100 C 
HETATM   29  C14 UNL     1     -16.894 -19.268 -11.763  1.00  0.00     0.053 C 
HETATM   30  C15 UNL     1     -16.502 -18.181  -9.598  1.00  0.00     0.053 C 
BRANCH  28  31
HETATM   31  O5  UNL     1     -15.442 -20.154 -10.191  1.00  0.00    -0.384 OA
ATOM     32  H5  UNL     1     -15.504 -20.961 -10.687  1.00  0.00     0.211 HD
ENDBRANCH  28  31
ENDBRANCH  25  28
ENDBRANCH  22  24
ENDBRANCH   4  22
BRANCH   1  33
HETATM   33  C5  UNL     1     -14.336 -11.218  -9.846  1.00  0.00     0.223 C 
HETATM   34  N1  UNL     1     -14.757 -10.590  -8.666  1.00  0.00    -0.361 N 
ATOM     35  H1  UNL     1     -14.823 -11.173  -7.831  1.00  0.00     0.162 HD
HETATM   36  O2  UNL     1     -14.246 -10.537 -10.883  1.00  0.00    -0.273 OA
BRANCH  34  37
HETATM   37  C4  UNL     1     -15.108  -9.196  -8.518  1.00  0.00     0.124 C 
BRANCH  37  38
HETATM   38  C3  UNL     1     -16.346  -9.092  -7.670  1.00  0.00     0.046 C 
BRANCH  38  39
HETATM   39  C2  UNL     1     -17.532  -9.201  -8.601  1.00  0.00     0.168 C 
BRANCH  39  40
HETATM   40  O1  UNL     1     -17.750 -10.511  -8.949  1.00  0.00    -0.396 OA
HETATM   41  C1  UNL     1     -18.086 -10.728 -10.266  1.00  0.00     0.201 C 
ENDBRANCH  39  40
ENDBRANCH  38  39
ENDBRANCH  37  38
ENDBRANCH  34  37
ENDBRANCH   1  33
BRANCH  19  42
HETATM   42  O7  UNL     1     -10.766 -11.404  -9.767  1.00  0.00    -0.394 OA
ATOM     43  H7  UNL     1     -11.071 -11.521 -10.658  1.00  0.00     0.210 HD
ENDBRANCH  19  42
TORSDOF 11
ENDMDL
MODEL 2
REMARK VINA RESULT: -7.953904096      1.355      1.725
REMARK  11 active torsions:
REMARK  status: ('A' for Active; 'I' for Inactive)
REMARK    1  A    between atoms: O1_2  and  C2_3 
REMARK    2  A    between atoms: C2_3  and  C3_4 
REMARK    3  A    between atoms: C3_4  and  C4_5 
REMARK    4  A    between atoms: C4_5  and  N1_6 
REMARK       I    between atoms: N1_6  and  C5_8 
REMARK    5  A    between atoms: C5_8  and  C6_10 
REMARK    6  A    between atoms: C9_13  and  C10_14 
REMARK    7  A    between atoms: C10_14  and  C11_16 
REMARK    8  A    between atoms: C12_17  and  O4_18 
REMARK    9  A    between atoms: C12_17  and  C13_20 
REMARK   10  A    between atoms: C13_20  and  O5_23 
REMARK   11  A    between atoms: C29_39  and  O7_40 
ROOT
HETATM    1  C6  UNL     1     -13.480 -12.006  -9.456  1.00  0.00     0.096 C 
HETATM    2  C7  UNL     1     -14.567 -12.857  -8.832  1.00  0.00     0.043 C 
HETATM    3  C8  UNL     1     -14.283 -14.223  -9.335  1.00  0.00    -0.010 C 
HETATM    4  C9  UNL     1     -13.006 -14.668  -9.292  1.00  0.00     0.014 C 
HETATM    5  C16 UNL     1     -11.961 -13.780  -8.678  1.00  0.00    -0.046 C 
HETATM    6  C17 UNL     1     -11.609 -14.060  -7.269  1.00  0.00    -0.015 C 
HETATM    7  C18 UNL     1     -10.176 -14.542  -7.224  1.00  0.00     0.020 C 
HETATM    8  C19 UNL     1     -12.444 -15.106  -6.576  1.00  0.00     0.015 C 
HETATM    9  C20 UNL     1     -11.870 -15.459  -5.205  1.00  0.00     0.018 C 
HETATM   10  C21 UNL     1     -11.522 -14.324  -4.346  1.00  0.00     0.021 C 
HETATM   11  C22 UNL     1     -10.137 -14.277  -3.774  1.00  0.00     0.024 C 
HETATM   12  C23 UNL     1     -12.380 -14.194  -3.088  1.00  0.00     0.135 C 
HETATM   13  O6  UNL     1     -13.032 -15.058  -2.592  1.00  0.00    -0.297 OA
HETATM   14  C24 UNL     1     -12.157 -12.765  -2.709  1.00  0.00     0.079 C 
HETATM   15  C25 UNL     1     -11.591 -12.073  -3.974  1.00  0.00     0.013 C 
HETATM   16  C26 UNL     1     -12.017 -13.065  -4.985  1.00  0.00     0.007 C 
HETATM   17  C27 UNL     1     -11.824 -12.836  -6.409  1.00  0.00     0.006 C 
HETATM   18  C28 UNL     1     -10.864 -11.787  -6.884  1.00  0.00     0.039 C 
HETATM   19  C29 UNL     1     -11.400 -11.341  -8.228  1.00  0.00     0.132 C 
HETATM   20  C30 UNL     1     -12.063 -12.339  -9.090  1.00  0.00     0.019 C 
HETATM   21  C31 UNL     1     -11.309 -12.244 -10.454  1.00  0.00     0.023 C 
ENDROOT
BRANCH   4  22
HETATM   22  C10 UNL     1     -12.820 -16.003  -9.812  1.00  0.00     0.184 C 
HETATM   23  O3  UNL     1     -11.666 -16.350 -10.175  1.00  0.00    -0.287 OA
BRANCH  22  24
HETATM   24  C11 UNL     1     -13.850 -17.004  -9.951  1.00  0.00     0.092 C 
HETATM   25  C12 UNL     1     -14.307 -17.623 -10.989  1.00  0.00     0.100 C 
BRANCH  25  26
HETATM   26  O4  UNL     1     -15.368 -18.569 -10.649  1.00  0.00    -0.267 OA
HETATM   27  S1  UNL     1     -16.416 -18.139  -9.314  1.00  0.00     0.099 SA
ENDBRANCH  25  26
BRANCH  25  28
HETATM   28  C13 UNL     1     -14.054 -17.635 -12.408  1.00  0.00     0.100 C 
HETATM   29  C14 UNL     1     -15.197 -18.502 -13.025  1.00  0.00     0.053 C 
HETATM   30  C15 UNL     1     -12.762 -18.408 -12.741  1.00  0.00     0.053 C 
BRANCH  28  31
HETATM   31  O5  UNL     1     -14.026 -16.508 -13.144  1.00  0.00    -0.384 OA
ATOM     32  H5  UNL     1     -14.018 -16.522 -14.094  1.00  0.00     0.211 HD
ENDBRANCH  28  31
ENDBRANCH  25  28
ENDBRANCH  22  24
ENDBRANCH   4  22
BRANCH   1  33
HETATM   33  C5  UNL     1     -13.883 -10.611  -9.316  1.00  0.00     0.223 C 
HETATM   34  N1  UNL     1     -14.613 -10.180  -8.198  1.00  0.00    -0.361 N 
ATOM     35  H1  UNL     1     -14.844 -10.885  -7.498  1.00  0.00     0.162 HD
HETATM   36  O2  UNL     1     -13.586  -9.778 -10.189  1.00  0.00    -0.273 OA
BRANCH  34  37
HETATM   37  C4  UNL     1     -15.069  -8.833  -7.945  1.00  0.00     0.124 C 
BRANCH  37  38
HETATM   38  C3  UNL     1     -16.465  -8.889  -7.386  1.00  0.00     0.046 C 
BRANCH  38  39
HETATM   39  C2  UNL     1     -17.401  -9.097  -8.555  1.00  0.00     0.168 C 
BRANCH  39  40
HETATM   40  O1  UNL     1     -17.512 -10.434  -8.849  1.00  0.00    -0.396 OA
HETATM   41  C1  UNL     1     -17.576 -10.744 -10.188  1.00  0.00     0.201 C 
ENDBRANCH  39  40
ENDBRANCH  38  39
ENDBRANCH  37  38
ENDBRANCH  34  37
ENDBRANCH   1  33
BRANCH  19  42
HETATM   42  O7  UNL     1     -10.343 -10.661  -8.815  1.00  0.00    -0.394 OA
ATOM     43  H7  UNL     1     -10.470  -9.756  -8.557  1.00  0.00     0.210 HD
ENDBRANCH  19  42
TORSDOF 11
ENDMDL
MODEL 3
REMARK VINA RESULT: -7.739265270      1.440      1.723
REMARK  11 active torsions:
REMARK  status: ('A' for Active; 'I' for Inactive)
REMARK    1  A    between atoms: O1_2  and  C2_3 
REMARK    2  A    between atoms: C2_3  and  C3_4 
REMARK    3  A    between atoms: C3_4  and  C4_5 
REMARK    4  A    between atoms: C4_5  and  N1_6 
REMARK       I    between atoms: N1_6  and  C5_8 
REMARK    5  A    between atoms: C5_8  and  C6_10 
REMARK    6  A    between atoms: C9_13  and  C10_14 
REMARK    7  A    between atoms: C10_14  and  C11_16 
REMARK    8  A    between atoms: C12_17  and  O4_18 
REMARK    9  A    between atoms: C12_17  and  C13_20 
REMARK   10  A    between atoms: C13_20  and  O5_23 
REMARK   11  A    between atoms: C29_39  and  O7_40 
ROOT
HETATM    1  C6  UNL     1     -14.072 -12.172  -9.845  1.00  0.00     0.096 C 
HETATM    2  C7  UNL     1     -15.105 -12.932  -9.039  1.00  0.00     0.043 C 
HETATM    3  C8  UNL     1     -14.988 -14.325  -9.533  1.00  0.00    -0.010 C 
HETATM    4  C9  UNL     1     -13.749 -14.855  -9.665  1.00  0.00     0.014 C 
HETATM    5  C16 UNL     1     -12.570 -14.026  -9.243  1.00  0.00    -0.046 C 
HETATM    6  C17 UNL     1     -12.029 -14.296  -7.893  1.00  0.00    -0.015 C 
HETATM    7  C18 UNL     1     -10.639 -14.873  -8.045  1.00  0.00     0.020 C 
HETATM    8  C19 UNL     1     -12.815 -15.267  -7.050  1.00  0.00     0.015 C 
HETATM    9  C20 UNL     1     -12.066 -15.625  -5.768  1.00  0.00     0.018 C 
HETATM   10  C21 UNL     1     -11.520 -14.497  -5.009  1.00  0.00     0.021 C 
HETATM   11  C22 UNL     1     -10.065 -14.531  -4.649  1.00  0.00     0.024 C 
HETATM   12  C23 UNL     1     -12.169 -14.280  -3.642  1.00  0.00     0.135 C 
HETATM   13  O6  UNL     1     -12.794 -15.085  -3.026  1.00  0.00    -0.297 OA
HETATM   14  C24 UNL     1     -11.802 -12.861  -3.348  1.00  0.00     0.079 C 
HETATM   15  C25 UNL     1     -11.390 -12.238  -4.705  1.00  0.00     0.013 C 
HETATM   16  C26 UNL     1     -12.025 -13.222  -5.608  1.00  0.00     0.007 C 
HETATM   17  C27 UNL     1     -12.033 -13.040  -7.053  1.00  0.00     0.006 C 
HETATM   18  C28 UNL     1     -11.091 -12.071  -7.699  1.00  0.00     0.039 C 
HETATM   19  C29 UNL     1     -11.793 -11.620  -8.962  1.00  0.00     0.132 C 
HETATM   20  C30 UNL     1     -12.640 -12.591  -9.683  1.00  0.00     0.019 C 
HETATM   21  C31 UNL     1     -12.096 -12.579 -11.146  1.00  0.00     0.023 C 
ENDROOT
BRANCH   4  22
HETATM   22  C10 UNL     1     -13.729 -16.211 -10.162  1.00  0.00     0.184 C 
HETATM   23  O3  UNL     1     -14.740 -16.935  -9.971  1.00  0.00    -0.287 OA
BRANCH  22  24
HETATM   24  C11 UNL     1     -12.641 -16.829 -10.882  1.00  0.00     0.092 C 
HETATM   25  C12 UNL     1     -12.621 -17.520 -11.974  1.00  0.00     0.100 C 
BRANCH  25  26
HETATM   26  O4  UNL     1     -11.270 -17.949 -12.333  1.00  0.00    -0.267 OA
HETATM   27  S1  UNL     1     -10.158 -18.253 -11.017  1.00  0.00     0.099 SA
ENDBRANCH  25  26
BRANCH  25  28
HETATM   28  C13 UNL     1     -13.577 -17.991 -12.944  1.00  0.00     0.100 C 
HETATM   29  C14 UNL     1     -12.743 -18.795 -13.990  1.00  0.00     0.053 C 
HETATM   30  C15 UNL     1     -14.181 -16.823 -13.748  1.00  0.00     0.053 C 
BRANCH  28  31
HETATM   31  O5  UNL     1     -14.603 -18.797 -12.611  1.00  0.00    -0.384 OA
ATOM     32  H5  UNL     1     -15.510 -18.533 -12.712  1.00  0.00     0.211 HD
ENDBRANCH  28  31
ENDBRANCH  25  28
ENDBRANCH  22  24
ENDBRANCH   4  22
BRANCH   1  33
HETATM   33  C5  UNL     1     -14.360 -10.749  -9.693  1.00  0.00     0.223 C 
HETATM   34  N1  UNL     1     -14.735 -10.218  -8.451  1.00  0.00    -0.361 N 
ATOM     35  H1  UNL     1     -14.795 -10.871  -7.669  1.00  0.00     0.162 HD
HETATM   36  O2  UNL     1     -14.278  -9.982 -10.668  1.00  0.00    -0.273 OA
BRANCH  34  37
HETATM   37  C4  UNL     1     -15.044  -8.835  -8.172  1.00  0.00     0.124 C 
BRANCH  37  38
HETATM   38  C3  UNL     1     -16.340  -8.769  -7.410  1.00  0.00     0.046 C 
BRANCH  38  39
HETATM   39  C2  UNL     1     -17.452  -9.010  -8.404  1.00  0.00     0.168 C 
BRANCH  39  40
HETATM   40  O1  UNL     1     -17.747 -10.349  -8.481  1.00  0.00    -0.396 OA
HETATM   41  C1  UNL     1     -18.170 -10.795  -9.712  1.00  0.00     0.201 C 
ENDBRANCH  39  40
ENDBRANCH  38  39
ENDBRANCH  37  38
ENDBRANCH  34  37
ENDBRANCH   1  33
BRANCH  19  42
HETATM   42  O7  UNL     1     -10.795 -11.028  -9.722  1.00  0.00    -0.394 OA
ATOM     43  H7  UNL     1     -11.257 -10.622 -10.446  1.00  0.00     0.210 HD
ENDBRANCH  19  42
TORSDOF 11
ENDMDL
MODEL 4
REMARK VINA RESULT: -7.717578265      4.426      8.612
REMARK  11 active torsions:
REMARK  status: ('A' for Active; 'I' for Inactive)
REMARK    1  A    between atoms: O1_2  and  C2_3 
REMARK    2  A    between atoms: C2_3  and  C3_4 
REMARK    3  A    between atoms: C3_4  and  C4_5 
REMARK    4  A    between atoms: C4_5  and  N1_6 
REMARK       I    between atoms: N1_6  and  C5_8 
REMARK    5  A    between atoms: C5_8  and  C6_10 
REMARK    6  A    between atoms: C9_13  and  C10_14 
REMARK    7  A    between atoms: C10_14  and  C11_16 
REMARK    8  A    between atoms: C12_17  and  O4_18 
REMARK    9  A    between atoms: C12_17  and  C13_20 
REMARK   10  A    between atoms: C13_20  and  O5_23 
REMARK   11  A    between atoms: C29_39  and  O7_40 
ROOT
HETATM    1  C6  UNL     1      -7.650 -18.368  -9.694  1.00  0.00     0.096 C 
HETATM    2  C7  UNL     1      -8.447 -19.372  -8.888  1.00  0.00     0.043 C 
HETATM    3  C8  UNL     1      -8.459 -18.801  -7.519  1.00  0.00    -0.010 C 
HETATM    4  C9  UNL     1      -8.741 -17.484  -7.378  1.00  0.00     0.014 C 
HETATM    5  C16 UNL     1      -9.089 -16.693  -8.607  1.00  0.00    -0.046 C 
HETATM    6  C17 UNL     1     -10.531 -16.492  -8.870  1.00  0.00    -0.015 C 
HETATM    7  C18 UNL     1     -10.838 -15.018  -8.726  1.00  0.00     0.020 C 
HETATM    8  C19 UNL     1     -11.477 -17.226  -7.955  1.00  0.00     0.015 C 
HETATM    9  C20 UNL     1     -12.923 -16.791  -8.184  1.00  0.00     0.018 C 
HETATM   10  C21 UNL     1     -13.367 -16.753  -9.580  1.00  0.00     0.021 C 
HETATM   11  C22 UNL     1     -13.986 -15.485 -10.085  1.00  0.00     0.024 C 
HETATM   12  C23 UNL     1     -14.442 -17.781  -9.930  1.00  0.00     0.135 C 
HETATM   13  O6  UNL     1     -15.155 -18.342  -9.158  1.00  0.00    -0.297 OA
HETATM   14  C24 UNL     1     -14.328 -17.851 -11.419  1.00  0.00     0.079 C 
HETATM   15  C25 UNL     1     -12.946 -17.245 -11.768  1.00  0.00     0.013 C 
HETATM   16  C26 UNL     1     -12.305 -17.361 -10.441  1.00  0.00     0.007 C 
HETATM   17  C27 UNL     1     -10.905 -17.019 -10.236  1.00  0.00     0.006 C 
HETATM   18  C28 UNL     1     -10.172 -16.192 -11.247  1.00  0.00     0.039 C 
HETATM   19  C29 UNL     1      -8.722 -16.610 -11.122  1.00  0.00     0.132 C 
HETATM   20  C30 UNL     1      -8.206 -16.976  -9.788  1.00  0.00     0.019 C 
HETATM   21  C31 UNL     1      -6.947 -16.074  -9.591  1.00  0.00     0.023 C 
ENDROOT
BRANCH   4  22
HETATM   22  C10 UNL     1      -8.720 -17.011  -6.013  1.00  0.00     0.184 C 
HETATM   23  O3  UNL     1      -8.090 -17.682  -5.156  1.00  0.00    -0.287 OA
BRANCH  22  24
HETATM   24  C11 UNL     1      -9.360 -15.812  -5.527  1.00  0.00     0.092 C 
HETATM   25  C12 UNL     1     -10.228 -15.626  -4.588  1.00  0.00     0.100 C 
BRANCH  25  26
HETATM   26  O4  UNL     1     -10.596 -14.219  -4.445  1.00  0.00    -0.267 OA
HETATM   27  S1  UNL     1      -9.901 -13.096  -5.592  1.00  0.00     0.099 SA
ENDBRANCH  25  26
BRANCH  25  28
HETATM   28  C13 UNL     1     -10.941 -16.436  -3.633  1.00  0.00     0.100 C 
HETATM   29  C14 UNL     1     -12.157 -17.024  -4.416  1.00  0.00     0.053 C 
HETATM   30  C15 UNL     1     -11.576 -15.571  -2.527  1.00  0.00     0.053 C 
BRANCH  28  31
HETATM   31  O5  UNL     1     -10.373 -17.490  -3.016  1.00  0.00    -0.384 OA
ATOM     32  H5  UNL     1     -10.874 -18.248  -2.741  1.00  0.00     0.211 HD
ENDBRANCH  28  31
ENDBRANCH  25  28
ENDBRANCH  22  24
ENDBRANCH   4  22
BRANCH   1  33
HETATM   33  C5  UNL     1      -7.278 -19.012 -10.949  1.00  0.00     0.223 C 
HETATM   34  N1  UNL     1      -8.194 -19.812 -11.648  1.00  0.00    -0.361 N 
ATOM     35  H1  UNL     1      -9.122 -19.918 -11.237  1.00  0.00     0.162 HD
HETATM   36  O2  UNL     1      -6.138 -18.863 -11.422  1.00  0.00    -0.273 OA
BRANCH  34  37
HETATM   37  C4  UNL     1      -7.949 -20.500 -12.894  1.00  0.00     0.124 C 
BRANCH  37  38
HETATM   38  C3  UNL     1      -9.089 -20.222 -13.836  1.00  0.00     0.046 C 
BRANCH  38  39
HETATM   39  C2  UNL     1     -10.293 -19.884 -12.987  1.00  0.00     0.168 C 
BRANCH  39  40
HETATM   40  O1  UNL     1     -11.389 -20.600 -13.401  1.00  0.00    -0.396 OA
HETATM   41  C1  UNL     1     -11.116 -21.743 -14.118  1.00  0.00     0.201 C 
ENDBRANCH  39  40
ENDBRANCH  38  39
ENDBRANCH  37  38
ENDBRANCH  34  37
ENDBRANCH   1  33
BRANCH  19  42
HETATM   42  O7  UNL     1      -8.015 -15.612 -11.775  1.00  0.00    -0.394 OA
ATOM     43  H7  UNL     1      -7.108 -15.773 -11.545  1.00  0.00     0.210 HD
ENDBRANCH  19  42
TORSDOF 11
ENDMDL
MODEL 5
REMARK VINA RESULT: -7.671900818      1.678      2.195
REMARK  11 active torsions:
REMARK  status: ('A' for Active; 'I' for Inactive)
REMARK    1  A    between atoms: O1_2  and  C2_3 
REMARK    2  A    between atoms: C2_3  and  C3_4 
REMARK    3  A    between atoms: C3_4  and  C4_5 
REMARK    4  A    between atoms: C4_5  and  N1_6 
REMARK       I    between atoms: N1_6  and  C5_8 
REMARK    5  A    between atoms: C5_8  and  C6_10 
REMARK    6  A    between atoms: C9_13  and  C10_14 
REMARK    7  A    between atoms: C10_14  and  C11_16 
REMARK    8  A    between atoms: C12_17  and  O4_18 
REMARK    9  A    between atoms: C12_17  and  C13_20 
REMARK   10  A    between atoms: C13_20  and  O5_23 
REMARK   11  A    between atoms: C29_39  and  O7_40 
ROOT
HETATM    1  C6  UNL     1     -13.121 -12.475  -9.608  1.00  0.00     0.096 C 
HETATM    2  C7  UNL     1     -14.306 -13.160  -8.961  1.00  0.00     0.043 C 
HETATM    3  C8  UNL     1     -14.145 -14.585  -9.341  1.00  0.00    -0.010 C 
HETATM    4  C9  UNL     1     -12.920 -15.147  -9.211  1.00  0.00     0.014 C 
HETATM    5  C16 UNL     1     -11.812 -14.316  -8.630  1.00  0.00    -0.046 C 
HETATM    6  C17 UNL     1     -11.534 -14.508  -7.190  1.00  0.00    -0.015 C 
HETATM    7  C18 UNL     1     -10.159 -15.122  -7.050  1.00  0.00     0.020 C 
HETATM    8  C19 UNL     1     -12.490 -15.407  -6.449  1.00  0.00     0.015 C 
HETATM    9  C20 UNL     1     -11.998 -15.696  -5.032  1.00  0.00     0.018 C 
HETATM   10  C21 UNL     1     -11.564 -14.532  -4.255  1.00  0.00     0.021 C 
HETATM   11  C22 UNL     1     -10.201 -14.572  -3.634  1.00  0.00     0.024 C 
HETATM   12  C23 UNL     1     -12.444 -14.214  -3.046  1.00  0.00     0.135 C 
HETATM   13  O6  UNL     1     -13.195 -14.965  -2.508  1.00  0.00    -0.297 OA
HETATM   14  C24 UNL     1     -12.091 -12.786  -2.776  1.00  0.00     0.079 C 
HETATM   15  C25 UNL     1     -11.420 -12.262  -4.069  1.00  0.00     0.013 C 
HETATM   16  C26 UNL     1     -11.911 -13.289  -5.013  1.00  0.00     0.007 C 
HETATM   17  C27 UNL     1     -11.651 -13.201  -6.442  1.00  0.00     0.006 C 
HETATM   18  C28 UNL     1     -10.577 -12.295  -6.962  1.00  0.00     0.039 C 
HETATM   19  C29 UNL     1     -11.023 -11.913  -8.358  1.00  0.00     0.132 C 
HETATM   20  C30 UNL     1     -11.756 -12.912  -9.161  1.00  0.00     0.019 C 
HETATM   21  C31 UNL     1     -10.955 -13.006 -10.498  1.00  0.00     0.023 C 
ENDROOT
BRANCH   4  22
HETATM   22  C10 UNL     1     -12.853 -16.532  -9.614  1.00  0.00     0.184 C 
HETATM   23  O3  UNL     1     -11.724 -17.034  -9.853  1.00  0.00    -0.287 OA
BRANCH  22  24
HETATM   24  C11 UNL     1     -13.980 -17.423  -9.763  1.00  0.00     0.092 C 
HETATM   25  C12 UNL     1     -14.460 -18.028 -10.798  1.00  0.00     0.100 C 
BRANCH  25  26
HETATM   26  O4  UNL     1     -15.630 -18.841 -10.472  1.00  0.00    -0.267 OA
HETATM   27  S1  UNL     1     -16.717 -18.213  -9.253  1.00  0.00     0.099 SA
ENDBRANCH  25  26
BRANCH  25  28
HETATM   28  C13 UNL     1     -14.154 -18.122 -12.204  1.00  0.00     0.100 C 
HETATM   29  C14 UNL     1     -13.952 -16.649 -12.682  1.00  0.00     0.053 C 
HETATM   30  C15 UNL     1     -15.367 -18.626 -13.010  1.00  0.00     0.053 C 
BRANCH  28  31
HETATM   31  O5  UNL     1     -13.082 -18.795 -12.664  1.00  0.00    -0.384 OA
ATOM     32  H5  UNL     1     -12.991 -19.041 -13.577  1.00  0.00     0.211 HD
ENDBRANCH  28  31
ENDBRANCH  25  28
ENDBRANCH  22  24
ENDBRANCH   4  22
BRANCH   1  33
HETATM   33  C5  UNL     1     -13.386 -11.041  -9.598  1.00  0.00     0.223 C 
HETATM   34  N1  UNL     1     -13.924 -10.415  -8.464  1.00  0.00    -0.361 N 
ATOM     35  H1  UNL     1     -14.117 -11.009  -7.657  1.00  0.00     0.162 HD
HETATM   36  O2  UNL     1     -13.140 -10.346 -10.599  1.00  0.00    -0.273 OA
BRANCH  34  37
HETATM   37  C4  UNL     1     -14.231  -9.010  -8.329  1.00  0.00     0.124 C 
BRANCH  37  38
HETATM   38  C3  UNL     1     -15.665  -8.864  -7.898  1.00  0.00     0.046 C 
BRANCH  38  39
HETATM   39  C2  UNL     1     -15.842  -7.439  -7.424  1.00  0.00     0.168 C 
BRANCH  39  40
HETATM   40  O1  UNL     1     -14.623  -6.872  -7.142  1.00  0.00    -0.396 OA
HETATM   41  C1  UNL     1     -14.661  -5.566  -6.710  1.00  0.00     0.201 C 
ENDBRANCH  39  40
ENDBRANCH  38  39
ENDBRANCH  37  38
ENDBRANCH  34  37
ENDBRANCH   1  33
BRANCH  19  42
HETATM   42  O7  UNL     1      -9.886 -11.392  -8.956  1.00  0.00    -0.394 OA
ATOM     43  H7  UNL     1      -9.513 -10.819  -8.297  1.00  0.00     0.210 HD
ENDBRANCH  19  42
TORSDOF 11
ENDMDL
