MODEL 1
REMARK VINA RESULT: -8.786029730      0.000      0.000
REMARK  11 active torsions:
REMARK  status: ('A' for Active; 'I' for Inactive)
REMARK       I    between atoms: N1_5  and  C5_7 
REMARK    1  A    between atoms: C5_7  and  C6_9 
REMARK    2  A    between atoms: C6_9  and  N2_10 
REMARK    3  A    between atoms: C6_9  and  C24_45 
REMARK       I    between atoms: N2_10  and  C7_12 
REMARK    4  A    between atoms: C7_12  and  C8_14 
REMARK    5  A    between atoms: C8_14  and  C9_15 
REMARK    6  A    between atoms: C8_14  and  C13_19 
REMARK    7  A    between atoms: C9_15  and  C10_16 
REMARK    8  A    between atoms: C14_23  and  C15_24 
REMARK    9  A    between atoms: C18_28  and  C19_29 
REMARK   10  A    between atoms: N5_35  and  C23_37 
REMARK   11  A    between atoms: C23_37  and  O3_41 
ROOT
HETATM    1  C8  UNL     1     -13.787 -16.281  -9.109  1.00  0.00     0.168 C 
ENDROOT
BRANCH   1   2
HETATM    2  C7  UNL     1     -12.921 -15.673  -8.119  1.00  0.00     0.233 C 
HETATM    3  N2  UNL     1     -12.435 -16.333  -6.969  1.00  0.00    -0.346 N 
ATOM      4  H2  UNL     1     -12.673 -17.316  -6.839  1.00  0.00     0.163 HD
HETATM    5  O2  UNL     1     -12.599 -14.448  -8.312  1.00  0.00    -0.272 OA
BRANCH   3   6
HETATM    6  C6  UNL     1     -11.617 -15.690  -5.967  1.00  0.00     0.181 C 
BRANCH   6   7
HETATM    7  C5  UNL     1     -10.221 -16.153  -5.885  1.00  0.00     0.246 C 
HETATM    8  N1  UNL     1      -9.788 -17.405  -6.327  1.00  0.00    -0.310 N 
HETATM    9  C4  UNL     1      -8.619 -17.826  -6.535  1.00  0.00     0.130 A 
ATOM     10  H1  UNL     1     -10.531 -18.081  -6.509  1.00  0.00     0.170 HD
HETATM   11  C3  UNL     1      -7.372 -17.253  -6.412  1.00  0.00     0.084 A 
HETATM   12  N8  UNL     1      -8.380 -19.097  -6.980  1.00  0.00    -0.245 N 
HETATM   13  C2  UNL     1      -6.427 -18.194  -6.787  1.00  0.00     0.076 A 
HETATM   14  C1  UNL     1      -4.957 -18.073  -6.828  1.00  0.00     0.079 C 
HETATM   15  O4  UNL     1      -7.105 -19.266  -7.112  1.00  0.00    -0.241 OA
ATOM     16  H8  UNL     1      -9.093 -19.799  -7.178  1.00  0.00     0.196 HD
HETATM   17  O1  UNL     1      -9.357 -15.394  -5.394  1.00  0.00    -0.271 OA
ENDBRANCH   6   7
BRANCH   6  18
HETATM   18  C24 UNL     1     -12.281 -15.581  -4.638  1.00  0.00     0.018 C 
HETATM   19  C25 UNL     1     -12.059 -16.821  -3.850  1.00  0.00     0.007 C 
HETATM   20  C26 UNL     1     -11.783 -16.507  -2.365  1.00  0.00     0.000 C 
HETATM   21  C27 UNL     1     -12.889 -15.577  -1.953  1.00  0.00     0.000 C 
HETATM   22  C28 UNL     1     -12.574 -14.228  -2.544  1.00  0.00     0.000 C 
HETATM   23  C29 UNL     1     -11.975 -14.304  -3.915  1.00  0.00     0.007 C 
ENDBRANCH   6  18
ENDBRANCH   3   6
ENDBRANCH   1   2
BRANCH   1  24
HETATM   24  C9  UNL     1     -14.485 -17.541  -8.939  1.00  0.00    -0.003 C 
BRANCH  24  25
HETATM   25  C10 UNL     1     -15.688 -17.934  -9.678  1.00  0.00    -0.090 C 
HETATM   26  C11 UNL     1     -16.979 -17.961  -8.895  1.00  0.00     0.042 C 
HETATM   27  C12 UNL     1     -15.509 -19.065 -10.595  1.00  0.00     0.042 C 
ENDBRANCH  24  25
ENDBRANCH   1  24
BRANCH   1  28
HETATM   28  C13 UNL     1     -12.969 -16.423 -10.429  1.00  0.00     0.105 A 
HETATM   29  N3  UNL     1     -12.822 -15.348 -11.205  1.00  0.00    -0.313 N 
HETATM   30  S1  UNL     1     -11.908 -15.948 -12.490  1.00  0.00     0.006 SA
ATOM     31  H3  UNL     1     -13.173 -14.402 -11.059  1.00  0.00     0.175 HD
HETATM   32  C14 UNL     1     -11.762 -17.582 -11.951  1.00  0.00     0.109 A 
HETATM   33  N7  UNL     1     -12.440 -17.533 -10.803  1.00  0.00    -0.337 N 
ATOM     34  H7  UNL     1     -12.539 -18.370 -10.228  1.00  0.00     0.168 HD
BRANCH  32  35
HETATM   35  C15 UNL     1     -11.080 -18.712 -12.571  1.00  0.00     0.082 A 
HETATM   36  C16 UNL     1     -11.586 -19.326 -13.677  1.00  0.00     0.135 A 
HETATM   37  F1  UNL     1     -12.723 -18.925 -14.296  1.00  0.00    -0.205 F 
HETATM   38  C17 UNL     1     -10.917 -20.422 -14.215  1.00  0.00     0.068 A 
HETATM   39  C18 UNL     1      -9.744 -20.881 -13.629  1.00  0.00     0.018 A 
HETATM   40  N4  UNL     1      -9.296 -20.241 -12.552  1.00  0.00    -0.345 N 
HETATM   41  C22 UNL     1      -9.921 -19.175 -12.002  1.00  0.00     0.124 A 
ATOM     42  H4  UNL     1      -8.435 -20.571 -12.118  1.00  0.00     0.167 HD
HETATM   43  N5  UNL     1      -9.396 -18.629 -10.955  1.00  0.00    -0.308 N 
ATOM     44  H5  UNL     1      -9.863 -17.823 -10.540  1.00  0.00     0.171 HD
BRANCH  39  45
HETATM   45  C19 UNL     1      -9.021 -22.035 -14.182  1.00  0.00     0.036 A 
HETATM   46  C20 UNL     1      -7.570 -22.197 -13.854  1.00  0.00     0.011 A 
HETATM   47  C21 UNL     1      -7.984 -21.838 -15.246  1.00  0.00     0.011 A 
ENDBRANCH  39  45
BRANCH  43  48
HETATM   48  C23 UNL     1      -8.207 -19.096 -10.361  1.00  0.00     0.216 C 
HETATM   49  N6  UNL     1      -7.191 -18.308 -10.283  1.00  0.00    -0.365 N 
ATOM     50  H62 UNL     1      -7.286 -17.365 -10.660  1.00  0.00     0.159 HD
ATOM     51  H61 UNL     1      -6.330 -18.646  -9.853  1.00  0.00     0.159 HD
BRANCH  48  52
HETATM   52  O3  UNL     1      -8.079 -20.382  -9.846  1.00  0.00    -0.333 OA
ATOM     53  H3  UNL     1      -7.345 -20.646  -9.304  1.00  0.00     0.220 HD
ENDBRANCH  48  52
ENDBRANCH  43  48
ENDBRANCH  32  35
ENDBRANCH   1  28
TORSDOF 11
ENDMDL
MODEL 2
REMARK VINA RESULT: -8.710396047      1.579      2.065
REMARK  11 active torsions:
REMARK  status: ('A' for Active; 'I' for Inactive)
REMARK       I    between atoms: N1_5  and  C5_7 
REMARK    1  A    between atoms: C5_7  and  C6_9 
REMARK    2  A    between atoms: C6_9  and  N2_10 
REMARK    3  A    between atoms: C6_9  and  C24_45 
REMARK       I    between atoms: N2_10  and  C7_12 
REMARK    4  A    between atoms: C7_12  and  C8_14 
REMARK    5  A    between atoms: C8_14  and  C9_15 
REMARK    6  A    between atoms: C8_14  and  C13_19 
REMARK    7  A    between atoms: C9_15  and  C10_16 
REMARK    8  A    between atoms: C14_23  and  C15_24 
REMARK    9  A    between atoms: C18_28  and  C19_29 
REMARK   10  A    between atoms: N5_35  and  C23_37 
REMARK   11  A    between atoms: C23_37  and  O3_41 
ROOT
HETATM    1  C8  UNL     1     -12.402 -15.878  -8.600  1.00  0.00     0.168 C 
ENDROOT
BRANCH   1   2
HETATM    2  C7  UNL     1     -11.384 -15.580  -7.613  1.00  0.00     0.233 C 
HETATM    3  N2  UNL     1     -10.777 -16.541  -6.775  1.00  0.00    -0.346 N 
ATOM      4  H2  UNL     1     -11.040 -17.520  -6.894  1.00  0.00     0.163 HD
HETATM    5  O2  UNL     1     -11.035 -14.352  -7.499  1.00  0.00    -0.272 OA
BRANCH   3   6
HETATM    6  C6  UNL     1      -9.804 -16.214  -5.760  1.00  0.00     0.181 C 
BRANCH   6   7
HETATM    7  C5  UNL     1      -8.578 -17.031  -5.759  1.00  0.00     0.246 C 
HETATM    8  N1  UNL     1      -7.525 -16.857  -6.660  1.00  0.00    -0.310 N 
HETATM    9  C4  UNL     1      -6.350 -17.309  -6.622  1.00  0.00     0.130 A 
ATOM     10  H1  UNL     1      -7.740 -16.276  -7.470  1.00  0.00     0.170 HD
HETATM   11  C3  UNL     1      -5.674 -18.113  -5.730  1.00  0.00     0.084 A 
HETATM   12  N8  UNL     1      -5.437 -17.025  -7.601  1.00  0.00    -0.245 N 
HETATM   13  C2  UNL     1      -4.382 -18.285  -6.199  1.00  0.00     0.076 A 
HETATM   14  C1  UNL     1      -3.273 -19.059  -5.611  1.00  0.00     0.079 C 
HETATM   15  O4  UNL     1      -4.318 -17.607  -7.318  1.00  0.00    -0.241 OA
ATOM     16  H8  UNL     1      -5.612 -16.446  -8.422  1.00  0.00     0.196 HD
HETATM   17  O1  UNL     1      -8.454 -17.940  -4.910  1.00  0.00    -0.271 OA
ENDBRANCH   6   7
BRANCH   6  18
HETATM   18  C24 UNL     1     -10.395 -16.036  -4.404  1.00  0.00     0.018 C 
HETATM   19  C25 UNL     1     -10.265 -14.621  -3.969  1.00  0.00     0.007 C 
HETATM   20  C26 UNL     1     -11.534 -14.134  -3.240  1.00  0.00     0.000 C 
HETATM   21  C27 UNL     1     -11.815 -15.185  -2.204  1.00  0.00     0.000 C 
HETATM   22  C28 UNL     1     -12.397 -16.371  -2.928  1.00  0.00     0.000 C 
HETATM   23  C29 UNL     1     -11.769 -16.621  -4.264  1.00  0.00     0.007 C 
ENDBRANCH   6  18
ENDBRANCH   3   6
ENDBRANCH   1   2
BRANCH   1  24
HETATM   24  C9  UNL     1     -13.409 -16.913  -8.468  1.00  0.00    -0.003 C 
BRANCH  24  25
HETATM   25  C10 UNL     1     -14.749 -16.853  -9.057  1.00  0.00    -0.090 C 
HETATM   26  C11 UNL     1     -15.201 -18.072  -9.826  1.00  0.00     0.042 C 
HETATM   27  C12 UNL     1     -15.090 -15.574  -9.689  1.00  0.00     0.042 C 
ENDBRANCH  24  25
ENDBRANCH   1  24
BRANCH   1  28
HETATM   28  C13 UNL     1     -11.680 -16.157  -9.954  1.00  0.00     0.105 A 
HETATM   29  N3  UNL     1     -11.075 -15.143 -10.574  1.00  0.00    -0.313 N 
HETATM   30  S1  UNL     1     -10.458 -15.879 -11.961  1.00  0.00     0.006 SA
ATOM     31  H3  UNL     1     -11.003 -14.169 -10.283  1.00  0.00     0.175 HD
HETATM   32  C14 UNL     1     -11.024 -17.483 -11.664  1.00  0.00     0.109 A 
HETATM   33  N7  UNL     1     -11.653 -17.321 -10.500  1.00  0.00    -0.337 N 
ATOM     34  H7  UNL     1     -12.108 -18.113 -10.046  1.00  0.00     0.168 HD
BRANCH  32  35
HETATM   35  C15 UNL     1     -10.859 -18.693 -12.462  1.00  0.00     0.082 A 
HETATM   36  C16 UNL     1     -11.742 -19.020 -13.446  1.00  0.00     0.135 A 
HETATM   37  F1  UNL     1     -12.805 -18.248 -13.779  1.00  0.00    -0.205 F 
HETATM   38  C17 UNL     1     -11.561 -20.203 -14.160  1.00  0.00     0.068 A 
HETATM   39  C18 UNL     1     -10.489 -21.037 -13.869  1.00  0.00     0.018 A 
HETATM   40  N4  UNL     1      -9.658 -20.665 -12.899  1.00  0.00    -0.345 N 
HETATM   41  C22 UNL     1      -9.805 -19.526 -12.185  1.00  0.00     0.124 A 
ATOM     42  H4  UNL     1      -8.868 -21.272 -12.682  1.00  0.00     0.167 HD
HETATM   43  N5  UNL     1      -8.937 -19.263 -11.264  1.00  0.00    -0.308 N 
ATOM     44  H5  UNL     1      -9.042 -18.403 -10.726  1.00  0.00     0.171 HD
BRANCH  39  45
HETATM   45  C19 UNL     1     -10.279 -22.289 -14.610  1.00  0.00     0.036 A 
HETATM   46  C20 UNL     1     -11.450 -22.925 -15.289  1.00  0.00     0.011 A 
HETATM   47  C21 UNL     1     -10.837 -23.578 -14.090  1.00  0.00     0.011 A 
ENDBRANCH  39  45
BRANCH  43  48
HETATM   48  C23 UNL     1      -7.851 -20.110 -10.969  1.00  0.00     0.216 C 
HETATM   49  N6  UNL     1      -7.724 -20.580  -9.776  1.00  0.00    -0.365 N 
ATOM     50  H62 UNL     1      -8.422 -20.317  -9.081  1.00  0.00     0.159 HD
ATOM     51  H61 UNL     1      -6.938 -21.194  -9.563  1.00  0.00     0.159 HD
BRANCH  48  52
HETATM   52  O3  UNL     1      -6.899 -20.470 -11.918  1.00  0.00    -0.333 OA
ATOM     53  H3  UNL     1      -6.068 -20.867 -11.686  1.00  0.00     0.220 HD
ENDBRANCH  48  52
ENDBRANCH  43  48
ENDBRANCH  32  35
ENDBRANCH   1  28
TORSDOF 11
ENDMDL
MODEL 3
REMARK VINA RESULT: -8.538273553      1.965      4.424
REMARK  11 active torsions:
REMARK  status: ('A' for Active; 'I' for Inactive)
REMARK       I    between atoms: N1_5  and  C5_7 
REMARK    1  A    between atoms: C5_7  and  C6_9 
REMARK    2  A    between atoms: C6_9  and  N2_10 
REMARK    3  A    between atoms: C6_9  and  C24_45 
REMARK       I    between atoms: N2_10  and  C7_12 
REMARK    4  A    between atoms: C7_12  and  C8_14 
REMARK    5  A    between atoms: C8_14  and  C9_15 
REMARK    6  A    between atoms: C8_14  and  C13_19 
REMARK    7  A    between atoms: C9_15  and  C10_16 
REMARK    8  A    between atoms: C14_23  and  C15_24 
REMARK    9  A    between atoms: C18_28  and  C19_29 
REMARK   10  A    between atoms: N5_35  and  C23_37 
REMARK   11  A    between atoms: C23_37  and  O3_41 
ROOT
HETATM    1  C8  UNL     1     -12.613 -15.303  -9.365  1.00  0.00     0.168 C 
ENDROOT
BRANCH   1   2
HETATM    2  C7  UNL     1     -12.029 -16.098  -8.303  1.00  0.00     0.233 C 
HETATM    3  N2  UNL     1     -10.835 -15.772  -7.624  1.00  0.00    -0.346 N 
ATOM      4  H2  UNL     1     -10.365 -14.899  -7.866  1.00  0.00     0.163 HD
HETATM    5  O2  UNL     1     -12.648 -17.173  -7.983  1.00  0.00    -0.272 OA
BRANCH   3   6
HETATM    6  C6  UNL     1     -10.243 -16.607  -6.606  1.00  0.00     0.181 C 
BRANCH   6   7
HETATM    7  C5  UNL     1     -10.875 -16.545  -5.277  1.00  0.00     0.246 C 
HETATM    8  N1  UNL     1     -10.810 -15.432  -4.435  1.00  0.00    -0.310 N 
HETATM    9  C4  UNL     1     -11.485 -15.159  -3.408  1.00  0.00     0.130 A 
ATOM     10  H1  UNL     1     -10.110 -14.735  -4.692  1.00  0.00     0.170 HD
HETATM   11  C3  UNL     1     -12.497 -15.813  -2.740  1.00  0.00     0.084 A 
HETATM   12  N8  UNL     1     -11.288 -14.003  -2.703  1.00  0.00    -0.245 N 
HETATM   13  C2  UNL     1     -12.874 -15.033  -1.659  1.00  0.00     0.076 A 
HETATM   14  C1  UNL     1     -13.908 -15.292  -0.639  1.00  0.00     0.079 C 
HETATM   15  O4  UNL     1     -12.108 -13.972  -1.704  1.00  0.00    -0.241 OA
ATOM     16  H8  UNL     1     -10.603 -13.282  -2.929  1.00  0.00     0.196 HD
HETATM   17  O1  UNL     1     -11.511 -17.536  -4.859  1.00  0.00    -0.271 OA
ENDBRANCH   6   7
BRANCH   6  18
HETATM   18  C24 UNL     1      -8.756 -16.522  -6.557  1.00  0.00     0.018 C 
HETATM   19  C25 UNL     1      -8.206 -17.618  -5.718  1.00  0.00     0.007 C 
HETATM   20  C26 UNL     1      -6.924 -18.213  -6.333  1.00  0.00     0.000 C 
HETATM   21  C27 UNL     1      -6.051 -17.029  -6.636  1.00  0.00     0.000 C 
HETATM   22  C28 UNL     1      -6.619 -16.366  -7.864  1.00  0.00     0.000 C 
HETATM   23  C29 UNL     1      -8.116 -16.370  -7.905  1.00  0.00     0.007 C 
ENDBRANCH   6  18
ENDBRANCH   3   6
ENDBRANCH   1   2
BRANCH   1  24
HETATM   24  C9  UNL     1     -14.030 -15.230  -9.664  1.00  0.00    -0.003 C 
BRANCH  24  25
HETATM   25  C10 UNL     1     -14.784 -13.985  -9.832  1.00  0.00    -0.090 C 
HETATM   26  C11 UNL     1     -14.807 -13.396 -11.223  1.00  0.00     0.042 C 
HETATM   27  C12 UNL     1     -14.603 -13.002  -8.758  1.00  0.00     0.042 C 
ENDBRANCH  24  25
ENDBRANCH   1  24
BRANCH   1  28
HETATM   28  C13 UNL     1     -11.918 -15.712 -10.699  1.00  0.00     0.105 A 
HETATM   29  N3  UNL     1     -11.403 -14.752 -11.469  1.00  0.00    -0.313 N 
HETATM   30  S1  UNL     1     -10.783 -15.624 -12.773  1.00  0.00     0.006 SA
ATOM     31  H3  UNL     1     -11.389 -13.745 -11.310  1.00  0.00     0.175 HD
HETATM   32  C14 UNL     1     -11.227 -17.208 -12.249  1.00  0.00     0.109 A 
HETATM   33  N7  UNL     1     -11.828 -16.933 -11.090  1.00  0.00    -0.337 N 
ATOM     34  H7  UNL     1     -12.213 -17.686 -10.519  1.00  0.00     0.168 HD
BRANCH  32  35
HETATM   35  C15 UNL     1     -11.005 -18.499 -12.889  1.00  0.00     0.082 A 
HETATM   36  C16 UNL     1     -11.844 -18.966 -13.855  1.00  0.00     0.135 A 
HETATM   37  F1  UNL     1     -12.912 -18.268 -14.314  1.00  0.00    -0.205 F 
HETATM   38  C17 UNL     1     -11.610 -20.220 -14.415  1.00  0.00     0.068 A 
HETATM   39  C18 UNL     1     -10.531 -20.984 -13.990  1.00  0.00     0.018 A 
HETATM   40  N4  UNL     1      -9.744 -20.476 -13.045  1.00  0.00    -0.345 N 
HETATM   41  C22 UNL     1      -9.943 -19.264 -12.478  1.00  0.00     0.124 A 
ATOM     42  H4  UNL     1      -8.949 -21.031 -12.730  1.00  0.00     0.167 HD
HETATM   43  N5  UNL     1      -9.115 -18.869 -11.568  1.00  0.00    -0.308 N 
ATOM     44  H5  UNL     1      -9.260 -17.954 -11.141  1.00  0.00     0.171 HD
BRANCH  39  45
HETATM   45  C19 UNL     1     -10.265 -22.308 -14.568  1.00  0.00     0.036 A 
HETATM   46  C20 UNL     1     -11.420 -23.121 -15.061  1.00  0.00     0.011 A 
HETATM   47  C21 UNL     1     -10.676 -23.549 -13.835  1.00  0.00     0.011 A 
ENDBRANCH  39  45
BRANCH  43  48
HETATM   48  C23 UNL     1      -8.021 -19.645 -11.137  1.00  0.00     0.216 C 
HETATM   49  N6  UNL     1      -8.034 -20.148  -9.951  1.00  0.00    -0.365 N 
ATOM     50  H62 UNL     1      -8.844 -19.962  -9.361  1.00  0.00     0.159 HD
ATOM     51  H61 UNL     1      -7.242 -20.710  -9.640  1.00  0.00     0.159 HD
BRANCH  48  52
HETATM   52  O3  UNL     1      -6.916 -19.899 -11.943  1.00  0.00    -0.333 OA
ATOM     53  H3  UNL     1      -6.032 -19.658 -11.693  1.00  0.00     0.220 HD
ENDBRANCH  48  52
ENDBRANCH  43  48
ENDBRANCH  32  35
ENDBRANCH   1  28
TORSDOF 11
ENDMDL
MODEL 4
REMARK VINA RESULT: -8.520428151      5.676      9.349
REMARK  11 active torsions:
REMARK  status: ('A' for Active; 'I' for Inactive)
REMARK       I    between atoms: N1_5  and  C5_7 
REMARK    1  A    between atoms: C5_7  and  C6_9 
REMARK    2  A    between atoms: C6_9  and  N2_10 
REMARK    3  A    between atoms: C6_9  and  C24_45 
REMARK       I    between atoms: N2_10  and  C7_12 
REMARK    4  A    between atoms: C7_12  and  C8_14 
REMARK    5  A    between atoms: C8_14  and  C9_15 
REMARK    6  A    between atoms: C8_14  and  C13_19 
REMARK    7  A    between atoms: C9_15  and  C10_16 
REMARK    8  A    between atoms: C14_23  and  C15_24 
REMARK    9  A    between atoms: C18_28  and  C19_29 
REMARK   10  A    between atoms: N5_35  and  C23_37 
REMARK   11  A    between atoms: C23_37  and  O3_41 
ROOT
HETATM    1  C8  UNL     1     -14.330 -14.388  -8.692  1.00  0.00     0.168 C 
ENDROOT
BRANCH   1   2
HETATM    2  C7  UNL     1     -12.985 -14.241  -8.170  1.00  0.00     0.233 C 
HETATM    3  N2  UNL     1     -12.397 -15.109  -7.224  1.00  0.00    -0.346 N 
ATOM      4  H2  UNL     1     -12.933 -15.918  -6.911  1.00  0.00     0.163 HD
HETATM    5  O2  UNL     1     -12.308 -13.242  -8.598  1.00  0.00    -0.272 OA
BRANCH   3   6
HETATM    6  C6  UNL     1     -11.075 -14.912  -6.677  1.00  0.00     0.181 C 
BRANCH   6   7
HETATM    7  C5  UNL     1     -10.051 -15.880  -7.109  1.00  0.00     0.246 C 
HETATM    8  N1  UNL     1      -9.348 -16.712  -6.235  1.00  0.00    -0.310 N 
HETATM    9  C4  UNL     1      -8.642 -17.725  -6.480  1.00  0.00     0.130 A 
ATOM     10  H1  UNL     1      -9.418 -16.462  -5.248  1.00  0.00     0.170 HD
HETATM   11  C3  UNL     1      -8.297 -18.378  -7.644  1.00  0.00     0.084 A 
HETATM   12  N8  UNL     1      -8.026 -18.433  -5.485  1.00  0.00    -0.245 N 
HETATM   13  C2  UNL     1      -7.488 -19.453  -7.312  1.00  0.00     0.076 A 
HETATM   14  C1  UNL     1      -6.859 -20.453  -8.195  1.00  0.00     0.079 C 
HETATM   15  O4  UNL     1      -7.373 -19.419  -6.008  1.00  0.00    -0.241 OA
ATOM     16  H8  UNL     1      -8.074 -18.218  -4.489  1.00  0.00     0.196 HD
HETATM   17  O1  UNL     1      -9.781 -15.976  -8.325  1.00  0.00    -0.271 OA
ENDBRANCH   6   7
BRANCH   6  18
HETATM   18  C24 UNL     1     -11.070 -14.665  -5.208  1.00  0.00     0.018 C 
HETATM   19  C25 UNL     1     -10.856 -13.222  -4.930  1.00  0.00     0.007 C 
HETATM   20  C26 UNL     1     -11.742 -12.731  -3.767  1.00  0.00     0.000 C 
HETATM   21  C27 UNL     1     -11.515 -13.720  -2.660  1.00  0.00     0.000 C 
HETATM   22  C28 UNL     1     -12.271 -14.971  -3.025  1.00  0.00     0.000 C 
HETATM   23  C29 UNL     1     -12.230 -15.286  -4.488  1.00  0.00     0.007 C 
ENDBRANCH   6  18
ENDBRANCH   3   6
ENDBRANCH   1   2
BRANCH   1  24
HETATM   24  C9  UNL     1     -14.740 -15.390  -9.657  1.00  0.00    -0.003 C 
BRANCH  24  25
HETATM   25  C10 UNL     1     -14.597 -16.836  -9.469  1.00  0.00    -0.090 C 
HETATM   26  C11 UNL     1     -13.597 -17.534 -10.360  1.00  0.00     0.042 C 
HETATM   27  C12 UNL     1     -15.857 -17.564  -9.283  1.00  0.00     0.042 C 
ENDBRANCH  24  25
ENDBRANCH   1  24
BRANCH   1  28
HETATM   28  C13 UNL     1     -14.754 -13.015  -9.298  1.00  0.00     0.105 A 
HETATM   29  N3  UNL     1     -14.561 -12.809 -10.601  1.00  0.00    -0.313 N 
HETATM   30  S1  UNL     1     -15.136 -11.236 -10.811  1.00  0.00     0.006 SA
ATOM     31  H3  UNL     1     -14.166 -13.442 -11.297  1.00  0.00     0.175 HD
HETATM   32  C14 UNL     1     -15.601 -10.922  -9.178  1.00  0.00     0.109 A 
HETATM   33  N7  UNL     1     -15.272 -12.074  -8.593  1.00  0.00    -0.337 N 
ATOM     34  H7  UNL     1     -15.429 -12.207  -7.593  1.00  0.00     0.168 HD
BRANCH  32  35
HETATM   35  C15 UNL     1     -16.199  -9.728  -8.592  1.00  0.00     0.082 A 
HETATM   36  C16 UNL     1     -15.444  -8.814  -7.919  1.00  0.00     0.135 A 
HETATM   37  F1  UNL     1     -14.101  -8.923  -7.772  1.00  0.00    -0.205 F 
HETATM   38  C17 UNL     1     -16.063  -7.705  -7.348  1.00  0.00     0.068 A 
HETATM   39  C18 UNL     1     -17.437  -7.535  -7.466  1.00  0.00     0.018 A 
HETATM   40  N4  UNL     1     -18.122  -8.458  -8.135  1.00  0.00    -0.345 N 
HETATM   41  C22 UNL     1     -17.554  -9.547  -8.700  1.00  0.00     0.124 A 
ATOM     42  H4  UNL     1     -19.130  -8.338  -8.227  1.00  0.00     0.167 HD
HETATM   43  N5  UNL     1     -18.316 -10.381  -9.329  1.00  0.00    -0.308 N 
ATOM     44  H5  UNL     1     -17.890 -11.201  -9.759  1.00  0.00     0.171 HD
BRANCH  39  45
HETATM   45  C19 UNL     1     -18.111  -6.371  -6.872  1.00  0.00     0.036 A 
HETATM   46  C20 UNL     1     -19.584  -6.445  -6.623  1.00  0.00     0.011 A 
HETATM   47  C21 UNL     1     -19.053  -5.544  -7.693  1.00  0.00     0.011 A 
ENDBRANCH  39  45
BRANCH  43  48
HETATM   48  C23 UNL     1     -19.709 -10.207  -9.447  1.00  0.00     0.216 C 
HETATM   49  N6  UNL     1     -20.491 -11.200  -9.194  1.00  0.00    -0.365 N 
ATOM     50  H62 UNL     1     -20.067 -12.084  -8.916  1.00  0.00     0.159 HD
ATOM     51  H61 UNL     1     -21.499 -11.074  -9.279  1.00  0.00     0.159 HD
BRANCH  48  52
HETATM   52  O3  UNL     1     -20.287  -9.000  -9.826  1.00  0.00    -0.333 OA
ATOM     53  H3  UNL     1     -21.184  -8.772  -9.615  1.00  0.00     0.220 HD
ENDBRANCH  48  52
ENDBRANCH  43  48
ENDBRANCH  32  35
ENDBRANCH   1  28
TORSDOF 11
ENDMDL
MODEL 5
REMARK VINA RESULT: -8.513785597      2.307      6.825
REMARK  11 active torsions:
REMARK  status: ('A' for Active; 'I' for Inactive)
REMARK       I    between atoms: N1_5  and  C5_7 
REMARK    1  A    between atoms: C5_7  and  C6_9 
REMARK    2  A    between atoms: C6_9  and  N2_10 
REMARK    3  A    between atoms: C6_9  and  C24_45 
REMARK       I    between atoms: N2_10  and  C7_12 
REMARK    4  A    between atoms: C7_12  and  C8_14 
REMARK    5  A    between atoms: C8_14  and  C9_15 
REMARK    6  A    between atoms: C8_14  and  C13_19 
REMARK    7  A    between atoms: C9_15  and  C10_16 
REMARK    8  A    between atoms: C14_23  and  C15_24 
REMARK    9  A    between atoms: C18_28  and  C19_29 
REMARK   10  A    between atoms: N5_35  and  C23_37 
REMARK   11  A    between atoms: C23_37  and  O3_41 
ROOT
HETATM    1  C8  UNL     1      -6.677 -18.291 -10.766  1.00  0.00     0.168 C 
ENDROOT
BRANCH   1   2
HETATM    2  C7  UNL     1      -6.935 -18.453  -9.349  1.00  0.00     0.233 C 
HETATM    3  N2  UNL     1      -6.984 -17.392  -8.419  1.00  0.00    -0.346 N 
ATOM      4  H2  UNL     1      -6.869 -16.440  -8.766  1.00  0.00     0.163 HD
HETATM    5  O2  UNL     1      -7.114 -19.651  -8.931  1.00  0.00    -0.272 OA
BRANCH   3   6
HETATM    6  C6  UNL     1      -7.188 -17.582  -7.003  1.00  0.00     0.181 C 
BRANCH   6   7
HETATM    7  C5  UNL     1      -8.261 -16.777  -6.395  1.00  0.00     0.246 C 
HETATM    8  N1  UNL     1      -9.035 -17.201  -5.312  1.00  0.00    -0.310 N 
HETATM    9  C4  UNL     1      -9.799 -16.539  -4.560  1.00  0.00     0.130 A 
ATOM     10  H1  UNL     1      -8.972 -18.196  -5.098  1.00  0.00     0.170 HD
HETATM   11  C3  UNL     1     -10.158 -15.210  -4.511  1.00  0.00     0.084 A 
HETATM   12  N8  UNL     1     -10.481 -17.126  -3.530  1.00  0.00    -0.245 N 
HETATM   13  C2  UNL     1     -11.041 -15.041  -3.457  1.00  0.00     0.076 A 
HETATM   14  C1  UNL     1     -11.713 -13.813  -2.991  1.00  0.00     0.079 C 
HETATM   15  O4  UNL     1     -11.184 -16.228  -2.921  1.00  0.00    -0.241 OA
ATOM     16  H8  UNL     1     -10.441 -18.115  -3.282  1.00  0.00     0.196 HD
HETATM   17  O1  UNL     1      -8.510 -15.644  -6.862  1.00  0.00    -0.271 OA
ENDBRANCH   6   7
BRANCH   6  18
HETATM   18  C24 UNL     1      -5.925 -17.573  -6.213  1.00  0.00     0.018 C 
HETATM   19  C25 UNL     1      -5.494 -18.963  -5.916  1.00  0.00     0.007 C 
HETATM   20  C26 UNL     1      -3.965 -19.123  -6.047  1.00  0.00     0.000 C 
HETATM   21  C27 UNL     1      -3.385 -17.999  -5.237  1.00  0.00     0.000 C 
HETATM   22  C28 UNL     1      -3.563 -16.738  -6.042  1.00  0.00     0.000 C 
HETATM   23  C29 UNL     1      -4.860 -16.686  -6.789  1.00  0.00     0.007 C 
ENDBRANCH   6  18
ENDBRANCH   3   6
ENDBRANCH   1   2
BRANCH   1  24
HETATM   24  C9  UNL     1      -5.548 -17.575 -11.328  1.00  0.00    -0.003 C 
BRANCH  24  25
HETATM   25  C10 UNL     1      -4.692 -16.650 -10.581  1.00  0.00    -0.090 C 
HETATM   26  C11 UNL     1      -5.141 -15.209 -10.533  1.00  0.00     0.042 C 
HETATM   27  C12 UNL     1      -3.252 -16.832 -10.791  1.00  0.00     0.042 C 
ENDBRANCH  24  25
ENDBRANCH   1  24
BRANCH   1  28
HETATM   28  C13 UNL     1      -7.947 -17.652 -11.408  1.00  0.00     0.105 A 
HETATM   29  N3  UNL     1      -7.787 -16.792 -12.414  1.00  0.00    -0.313 N 
HETATM   30  S1  UNL     1      -9.376 -16.355 -12.777  1.00  0.00     0.006 SA
ATOM     31  H3  UNL     1      -6.922 -16.476 -12.853  1.00  0.00     0.175 HD
HETATM   32  C14 UNL     1     -10.177 -17.322 -11.591  1.00  0.00     0.109 A 
HETATM   33  N7  UNL     1      -9.138 -17.914 -11.001  1.00  0.00    -0.337 N 
ATOM     34  H7  UNL     1      -9.287 -18.569 -10.233  1.00  0.00     0.168 HD
BRANCH  32  35
HETATM   35  C15 UNL     1     -11.601 -17.463 -11.310  1.00  0.00     0.082 A 
HETATM   36  C16 UNL     1     -12.463 -17.957 -12.242  1.00  0.00     0.135 A 
HETATM   37  F1  UNL     1     -12.070 -18.380 -13.469  1.00  0.00    -0.205 F 
HETATM   38  C17 UNL     1     -13.819 -18.043 -11.940  1.00  0.00     0.068 A 
HETATM   39  C18 UNL     1     -14.285 -17.628 -10.698  1.00  0.00     0.018 A 
HETATM   40  N4  UNL     1     -13.398 -17.156  -9.827  1.00  0.00    -0.345 N 
HETATM   41  C22 UNL     1     -12.074 -17.057 -10.088  1.00  0.00     0.124 A 
ATOM     42  H4  UNL     1     -13.733 -16.853  -8.914  1.00  0.00     0.167 HD
HETATM   43  N5  UNL     1     -11.301 -16.584  -9.167  1.00  0.00    -0.308 N 
ATOM     44  H5  UNL     1     -10.302 -16.511  -9.360  1.00  0.00     0.171 HD
BRANCH  39  45
HETATM   45  C19 UNL     1     -15.713 -17.712 -10.357  1.00  0.00     0.036 A 
HETATM   46  C20 UNL     1     -16.096 -18.072  -8.957  1.00  0.00     0.011 A 
HETATM   47  C21 UNL     1     -16.345 -19.040 -10.071  1.00  0.00     0.011 A 
ENDBRANCH  39  45
BRANCH  43  48
HETATM   48  C23 UNL     1     -11.775 -16.163  -7.909  1.00  0.00     0.216 C 
HETATM   49  N6  UNL     1     -11.645 -14.927  -7.568  1.00  0.00    -0.365 N 
ATOM     50  H62 UNL     1     -11.197 -14.293  -8.229  1.00  0.00     0.159 HD
ATOM     51  H61 UNL     1     -11.988 -14.623  -6.658  1.00  0.00     0.159 HD
BRANCH  48  52
HETATM   52  O3  UNL     1     -12.386 -17.029  -7.008  1.00  0.00    -0.333 OA
ATOM     53  H3  UNL     1     -12.203 -17.013  -6.076  1.00  0.00     0.220 HD
ENDBRANCH  48  52
ENDBRANCH  43  48
ENDBRANCH  32  35
ENDBRANCH   1  28
TORSDOF 11
ENDMDL
