MODEL 1
REMARK VINA RESULT: -7.160455442      0.000      0.000
REMARK  13 active torsions:
REMARK  status: ('A' for Active; 'I' for Inactive)
REMARK    1  A    between atoms: O1_2  and  C2_3 
REMARK    2  A    between atoms: C17_20  and  C18_21 
REMARK    3  A    between atoms: C18_21  and  C20_23 
REMARK    4  A    between atoms: C20_23  and  C21_24 
REMARK    5  A    between atoms: C21_24  and  C22_25 
REMARK    6  A    between atoms: C22_25  and  C23_26 
REMARK    7  A    between atoms: C23_26  and  C24_27 
REMARK    8  A    between atoms: C24_27  and  C25_28 
REMARK    9  A    between atoms: C25_28  and  C26_30 
REMARK   10  A    between atoms: C26_30  and  N1_31 
REMARK   11  A    between atoms: C29_37  and  O4_38 
REMARK   12  A    between atoms: C32_42  and  O5_43 
REMARK   13  A    between atoms: C34_46  and  O6_48 
ROOT
HETATM    1  C2  UNL     1     -20.442  -9.011 -10.598  1.00  0.00     0.096 C 
HETATM    2  C3  UNL     1     -19.593  -7.837 -10.883  1.00  0.00     0.082 C 
HETATM    3  C4  UNL     1     -19.311  -7.765  -9.498  1.00  0.00     0.097 A 
HETATM    4  C5  UNL     1     -20.744  -8.274  -9.276  1.00  0.00     0.082 C 
HETATM    5  O2  UNL     1     -18.904  -6.526  -9.038  1.00  0.00    -0.365 OA
HETATM    6  C6  UNL     1     -18.612  -7.715  -8.440  1.00  0.00     0.180 A 
HETATM    7  C7  UNL     1     -17.242  -8.145  -8.112  1.00  0.00     0.012 C 
HETATM    8  C8  UNL     1     -16.359  -8.939  -8.633  1.00  0.00    -0.063 C 
HETATM    9  C9  UNL     1     -15.037  -9.014  -7.823  1.00  0.00     0.113 C 
HETATM   10  C10 UNL     1     -13.878  -9.216  -8.662  1.00  0.00     0.138 C 
HETATM   11  O3  UNL     1     -12.859  -8.510  -8.651  1.00  0.00    -0.297 OA
HETATM   12  C11 UNL     1     -13.865 -10.344  -9.624  1.00  0.00     0.096 C 
HETATM   13  C12 UNL     1     -15.247 -10.875  -9.741  1.00  0.00     0.015 C 
HETATM   14  C13 UNL     1     -15.624 -11.965  -8.821  1.00  0.00     0.007 C 
HETATM   15  C14 UNL     1     -14.474 -12.665  -8.142  1.00  0.00     0.013 C 
HETATM   16  C15 UNL     1     -13.242 -12.742  -9.074  1.00  0.00    -0.008 C 
HETATM   17  C16 UNL     1     -13.678 -13.523 -10.251  1.00  0.00     0.019 C 
HETATM   18  C17 UNL     1     -12.165 -13.409  -8.254  1.00  0.00     0.000 C 
HETATM   19  C27 UNL     1     -11.928 -12.339  -7.209  1.00  0.00     0.009 C 
HETATM   20  C28 UNL     1     -12.244 -11.021  -7.879  1.00  0.00     0.040 C 
HETATM   21  C29 UNL     1     -12.826 -11.344  -9.247  1.00  0.00     0.076 C 
HETATM   22  C30 UNL     1     -16.322  -9.771  -9.837  1.00  0.00     0.010 C 
HETATM   23  C31 UNL     1     -15.706  -8.917 -10.997  1.00  0.00     0.023 C 
HETATM   24  C32 UNL     1     -17.499 -10.390 -10.408  1.00  0.00     0.134 C 
HETATM   25  C33 UNL     1     -18.724 -10.751  -9.699  1.00  0.00     0.073 C 
HETATM   26  C34 UNL     1     -19.938 -10.347 -10.427  1.00  0.00     0.088 C 
HETATM   27  C35 UNL     1     -21.108 -11.167  -9.827  1.00  0.00     0.049 C 
ENDROOT
BRANCH  18  28
HETATM   28  C18 UNL     1     -10.908 -13.727  -8.867  1.00  0.00    -0.014 C 
HETATM   29  C19 UNL     1     -10.700 -15.026  -9.563  1.00  0.00     0.010 C 
BRANCH  28  30
HETATM   30  C20 UNL     1      -9.787 -13.680  -7.794  1.00  0.00     0.005 C 
BRANCH  30  31
HETATM   31  C21 UNL     1      -9.347 -14.997  -7.325  1.00  0.00     0.000 C 
BRANCH  31  32
HETATM   32  C22 UNL     1      -9.505 -15.271  -5.892  1.00  0.00     0.000 C 
BRANCH  32  33
HETATM   33  C23 UNL     1      -9.975 -14.278  -4.905  1.00  0.00     0.003 C 
BRANCH  33  34
HETATM   34  C24 UNL     1     -10.629 -14.740  -3.658  1.00  0.00     0.039 C 
BRANCH  34  35
HETATM   35  C25 UNL     1     -12.088 -15.078  -3.760  1.00  0.00     0.195 C 
HETATM   36  F1  UNL     1     -12.518 -14.918  -5.092  1.00  0.00    -0.248 F 
BRANCH  35  37
HETATM   37  C26 UNL     1     -12.494 -16.415  -3.301  1.00  0.00     0.266 C 
BRANCH  37  38
HETATM   38  N1  UNL     1     -12.119 -17.539  -4.114  1.00  0.00    -0.077 N 
ATOM     39  H13 UNL     1     -12.800 -17.656  -4.864  1.00  0.00     0.274 HD
ATOM     40  H12 UNL     1     -11.282 -17.304  -4.648  1.00  0.00     0.274 HD
ATOM     41  H11 UNL     1     -11.979 -18.434  -3.645  1.00  0.00     0.274 HD
ENDBRANCH  37  38
ENDBRANCH  35  37
ENDBRANCH  34  35
ENDBRANCH  33  34
ENDBRANCH  32  33
ENDBRANCH  31  32
ENDBRANCH  30  31
ENDBRANCH  28  30
ENDBRANCH  18  28
BRANCH  21  42
HETATM   42  O4  UNL     1     -11.757 -11.175 -10.161  1.00  0.00    -0.388 OA
ATOM     43  H4  UNL     1     -11.050 -10.767  -9.675  1.00  0.00     0.210 HD
ENDBRANCH  21  42
BRANCH  24  44
HETATM   44  O5  UNL     1     -17.086 -11.534 -11.180  1.00  0.00    -0.394 OA
ATOM     45  H5  UNL     1     -17.440 -11.451 -12.058  1.00  0.00     0.210 HD
ENDBRANCH  24  44
BRANCH  26  46
HETATM   46  O6  UNL     1     -19.812 -10.909 -11.728  1.00  0.00    -0.387 OA
ATOM     47  H6  UNL     1     -20.063 -10.233 -12.346  1.00  0.00     0.210 HD
ENDBRANCH  26  46
BRANCH   1  48
HETATM   48  O1  UNL     1     -21.560  -9.088 -11.430  1.00  0.00    -0.382 OA
HETATM   49  C1  UNL     1     -21.603  -8.259 -12.494  1.00  0.00     0.202 C 
ENDBRANCH   1  48
TORSDOF 13
ENDMDL
MODEL 2
REMARK VINA RESULT: -6.990697513      5.937      9.299
REMARK  13 active torsions:
REMARK  status: ('A' for Active; 'I' for Inactive)
REMARK    1  A    between atoms: O1_2  and  C2_3 
REMARK    2  A    between atoms: C17_20  and  C18_21 
REMARK    3  A    between atoms: C18_21  and  C20_23 
REMARK    4  A    between atoms: C20_23  and  C21_24 
REMARK    5  A    between atoms: C21_24  and  C22_25 
REMARK    6  A    between atoms: C22_25  and  C23_26 
REMARK    7  A    between atoms: C23_26  and  C24_27 
REMARK    8  A    between atoms: C24_27  and  C25_28 
REMARK    9  A    between atoms: C25_28  and  C26_30 
REMARK   10  A    between atoms: C26_30  and  N1_31 
REMARK   11  A    between atoms: C29_37  and  O4_38 
REMARK   12  A    between atoms: C32_42  and  O5_43 
REMARK   13  A    between atoms: C34_46  and  O6_48 
ROOT
HETATM    1  C2  UNL     1     -11.536 -14.532  -3.512  1.00  0.00     0.096 C 
HETATM    2  C3  UNL     1     -12.087 -13.239  -3.962  1.00  0.00     0.082 C 
HETATM    3  C4  UNL     1     -10.850 -12.989  -4.602  1.00  0.00     0.097 A 
HETATM    4  C5  UNL     1     -10.201 -13.759  -3.441  1.00  0.00     0.082 C 
HETATM    5  O2  UNL     1     -10.562 -11.656  -4.838  1.00  0.00    -0.365 OA
HETATM    6  C6  UNL     1     -10.048 -12.703  -5.544  1.00  0.00     0.180 A 
HETATM    7  C7  UNL     1     -10.129 -12.813  -7.010  1.00  0.00     0.012 C 
HETATM    8  C8  UNL     1     -10.869 -13.453  -7.862  1.00  0.00    -0.063 C 
HETATM    9  C9  UNL     1     -10.485 -13.183  -9.342  1.00  0.00     0.113 C 
HETATM   10  C10 UNL     1     -11.624 -13.217 -10.230  1.00  0.00     0.138 C 
HETATM   11  O3  UNL     1     -11.933 -12.319 -11.028  1.00  0.00    -0.297 OA
HETATM   12  C11 UNL     1     -12.519 -14.400 -10.220  1.00  0.00     0.096 C 
HETATM   13  C12 UNL     1     -12.209 -15.210  -9.015  1.00  0.00     0.015 C 
HETATM   14  C13 UNL     1     -11.192 -16.268  -9.165  1.00  0.00     0.007 C 
HETATM   15  C14 UNL     1     -10.867 -16.655 -10.586  1.00  0.00     0.013 C 
HETATM   16  C15 UNL     1     -12.119 -16.560 -11.488  1.00  0.00    -0.008 C 
HETATM   17  C16 UNL     1     -13.095 -17.515 -10.921  1.00  0.00     0.019 C 
HETATM   18  C17 UNL     1     -11.640 -16.918 -12.874  1.00  0.00     0.000 C 
HETATM   19  C27 UNL     1     -10.737 -15.733 -13.153  1.00  0.00     0.009 C 
HETATM   20  C28 UNL     1     -11.317 -14.573 -12.377  1.00  0.00     0.040 C 
HETATM   21  C29 UNL     1     -12.442 -15.128 -11.518  1.00  0.00     0.076 C 
HETATM   22  C30 UNL     1     -12.009 -14.362  -7.740  1.00  0.00     0.010 C 
HETATM   23  C31 UNL     1     -13.320 -13.507  -7.797  1.00  0.00     0.023 C 
HETATM   24  C32 UNL     1     -12.191 -15.257  -6.617  1.00  0.00     0.134 C 
HETATM   25  C33 UNL     1     -11.142 -15.797  -5.756  1.00  0.00     0.073 C 
HETATM   26  C34 UNL     1     -11.488 -15.716  -4.326  1.00  0.00     0.088 C 
HETATM   27  C35 UNL     1     -10.549 -16.702  -3.587  1.00  0.00     0.049 C 
ENDROOT
BRANCH  18  28
HETATM   28  C18 UNL     1     -12.589 -17.025 -13.943  1.00  0.00    -0.014 C 
HETATM   29  C19 UNL     1     -13.551 -18.159 -14.006  1.00  0.00     0.010 C 
BRANCH  28  30
HETATM   30  C20 UNL     1     -11.832 -17.085 -15.297  1.00  0.00     0.005 C 
BRANCH  30  31
HETATM   31  C21 UNL     1     -11.564 -18.444 -15.777  1.00  0.00     0.000 C 
BRANCH  31  32
HETATM   32  C22 UNL     1     -10.193 -18.942 -15.608  1.00  0.00     0.000 C 
BRANCH  32  33
HETATM   33  C23 UNL     1      -9.717 -19.672 -14.416  1.00  0.00     0.003 C 
BRANCH  33  34
HETATM   34  C24 UNL     1     -10.688 -20.409 -13.575  1.00  0.00     0.039 C 
BRANCH  34  35
HETATM   35  C25 UNL     1     -10.996 -21.818 -13.995  1.00  0.00     0.195 C 
HETATM   36  F1  UNL     1     -11.848 -21.800 -15.117  1.00  0.00    -0.248 F 
BRANCH  35  37
HETATM   37  C26 UNL     1      -9.850 -22.686 -14.300  1.00  0.00     0.266 C 
BRANCH  37  38
HETATM   38  N1  UNL     1      -8.981 -23.048 -13.214  1.00  0.00    -0.077 N 
ATOM     39  H13 UNL     1      -8.163 -23.533 -13.583  1.00  0.00     0.274 HD
ATOM     40  H12 UNL     1      -8.549 -22.206 -12.833  1.00  0.00     0.274 HD
ATOM     41  H11 UNL     1      -9.380 -23.596 -12.452  1.00  0.00     0.274 HD
ENDBRANCH  37  38
ENDBRANCH  35  37
ENDBRANCH  34  35
ENDBRANCH  33  34
ENDBRANCH  32  33
ENDBRANCH  31  32
ENDBRANCH  30  31
ENDBRANCH  28  30
ENDBRANCH  18  28
BRANCH  21  42
HETATM   42  O4  UNL     1     -13.635 -14.825 -12.218  1.00  0.00    -0.388 OA
ATOM     43  H4  UNL     1     -13.633 -15.365 -13.000  1.00  0.00     0.210 HD
ENDBRANCH  21  42
BRANCH  24  44
HETATM   44  O5  UNL     1     -13.023 -16.356  -7.037  1.00  0.00    -0.394 OA
ATOM     45  H5  UNL     1     -12.667 -17.160  -6.676  1.00  0.00     0.210 HD
ENDBRANCH  24  44
BRANCH  26  46
HETATM   46  O6  UNL     1     -12.754 -16.354  -4.200  1.00  0.00    -0.387 OA
ATOM     47  H6  UNL     1     -12.720 -17.140  -4.732  1.00  0.00     0.210 HD
ENDBRANCH  26  46
BRANCH   1  48
HETATM   48  O1  UNL     1     -11.997 -14.910  -2.250  1.00  0.00    -0.382 OA
HETATM   49  C1  UNL     1     -12.853 -14.076  -1.624  1.00  0.00     0.202 C 
ENDBRANCH   1  48
TORSDOF 13
ENDMDL
MODEL 3
REMARK VINA RESULT: -6.915409946      1.983      2.441
REMARK  13 active torsions:
REMARK  status: ('A' for Active; 'I' for Inactive)
REMARK    1  A    between atoms: O1_2  and  C2_3 
REMARK    2  A    between atoms: C17_20  and  C18_21 
REMARK    3  A    between atoms: C18_21  and  C20_23 
REMARK    4  A    between atoms: C20_23  and  C21_24 
REMARK    5  A    between atoms: C21_24  and  C22_25 
REMARK    6  A    between atoms: C22_25  and  C23_26 
REMARK    7  A    between atoms: C23_26  and  C24_27 
REMARK    8  A    between atoms: C24_27  and  C25_28 
REMARK    9  A    between atoms: C25_28  and  C26_30 
REMARK   10  A    between atoms: C26_30  and  N1_31 
REMARK   11  A    between atoms: C29_37  and  O4_38 
REMARK   12  A    between atoms: C32_42  and  O5_43 
REMARK   13  A    between atoms: C34_46  and  O6_48 
ROOT
HETATM    1  C2  UNL     1     -20.503  -8.992 -10.633  1.00  0.00     0.096 C 
HETATM    2  C3  UNL     1     -19.652  -7.817 -10.907  1.00  0.00     0.082 C 
HETATM    3  C4  UNL     1     -19.316  -7.801  -9.532  1.00  0.00     0.097 A 
HETATM    4  C5  UNL     1     -20.745  -8.303  -9.273  1.00  0.00     0.082 C 
HETATM    5  O2  UNL     1     -18.875  -6.584  -9.042  1.00  0.00    -0.365 OA
HETATM    6  C6  UNL     1     -18.574  -7.798  -8.502  1.00  0.00     0.180 A 
HETATM    7  C7  UNL     1     -17.199  -8.256  -8.244  1.00  0.00     0.012 C 
HETATM    8  C8  UNL     1     -16.347  -9.039  -8.829  1.00  0.00    -0.063 C 
HETATM    9  C9  UNL     1     -14.995  -9.159  -8.075  1.00  0.00     0.113 C 
HETATM   10  C10 UNL     1     -13.871  -9.340  -8.966  1.00  0.00     0.138 C 
HETATM   11  O3  UNL     1     -12.844  -8.646  -8.969  1.00  0.00    -0.297 OA
HETATM   12  C11 UNL     1     -13.910 -10.432  -9.970  1.00  0.00     0.096 C 
HETATM   13  C12 UNL     1     -15.302 -10.943 -10.052  1.00  0.00     0.015 C 
HETATM   14  C13 UNL     1     -15.656 -12.063  -9.160  1.00  0.00     0.007 C 
HETATM   15  C14 UNL     1     -14.489 -12.800  -8.554  1.00  0.00     0.013 C 
HETATM   16  C15 UNL     1     -13.295 -12.855  -9.535  1.00  0.00    -0.008 C 
HETATM   17  C16 UNL     1     -13.786 -13.586 -10.723  1.00  0.00     0.019 C 
HETATM   18  C17 UNL     1     -12.195 -13.564  -8.785  1.00  0.00     0.000 C 
HETATM   19  C27 UNL     1     -11.905 -12.537  -7.710  1.00  0.00     0.009 C 
HETATM   20  C28 UNL     1     -12.230 -11.191  -8.318  1.00  0.00     0.040 C 
HETATM   21  C29 UNL     1     -12.869 -11.456  -9.672  1.00  0.00     0.076 C 
HETATM   22  C30 UNL     1     -16.367  -9.824 -10.064  1.00  0.00     0.010 C 
HETATM   23  C31 UNL     1     -15.786  -8.934 -11.215  1.00  0.00     0.023 C 
HETATM   24  C32 UNL     1     -17.572 -10.409 -10.612  1.00  0.00     0.134 C 
HETATM   25  C33 UNL     1     -18.772 -10.784  -9.868  1.00  0.00     0.073 C 
HETATM   26  C34 UNL     1     -20.010 -10.338 -10.532  1.00  0.00     0.088 C 
HETATM   27  C35 UNL     1     -21.164 -11.169  -9.918  1.00  0.00     0.049 C 
ENDROOT
BRANCH  18  28
HETATM   28  C18 UNL     1     -10.967 -13.873  -9.459  1.00  0.00    -0.014 C 
HETATM   29  C19 UNL     1     -10.966 -14.567 -10.775  1.00  0.00     0.010 C 
BRANCH  28  30
HETATM   30  C20 UNL     1     -10.093 -14.774  -8.545  1.00  0.00     0.005 C 
BRANCH  30  31
HETATM   31  C21 UNL     1     -10.371 -16.207  -8.671  1.00  0.00     0.000 C 
BRANCH  31  32
HETATM   32  C22 UNL     1     -11.272 -16.792  -7.670  1.00  0.00     0.000 C 
BRANCH  32  33
HETATM   33  C23 UNL     1     -12.746 -16.734  -7.746  1.00  0.00     0.003 C 
BRANCH  33  34
HETATM   34  C24 UNL     1     -13.429 -17.142  -8.995  1.00  0.00     0.039 C 
BRANCH  34  35
HETATM   35  C25 UNL     1     -14.928 -17.210  -8.940  1.00  0.00     0.195 C 
HETATM   36  F1  UNL     1     -15.474 -16.006  -9.430  1.00  0.00    -0.248 F 
BRANCH  35  37
HETATM   37  C26 UNL     1     -15.569 -18.328  -9.647  1.00  0.00     0.266 C 
BRANCH  37  38
HETATM   38  N1  UNL     1     -16.916 -18.665  -9.276  1.00  0.00    -0.077 N 
ATOM     39  H13 UNL     1     -16.964 -18.802  -8.267  1.00  0.00     0.274 HD
ATOM     40  H12 UNL     1     -17.511 -17.843  -9.388  1.00  0.00     0.274 HD
ATOM     41  H11 UNL     1     -17.350 -19.461  -9.745  1.00  0.00     0.274 HD
ENDBRANCH  37  38
ENDBRANCH  35  37
ENDBRANCH  34  35
ENDBRANCH  33  34
ENDBRANCH  32  33
ENDBRANCH  31  32
ENDBRANCH  30  31
ENDBRANCH  28  30
ENDBRANCH  18  28
BRANCH  21  42
HETATM   42  O4  UNL     1     -11.835 -11.263 -10.621  1.00  0.00    -0.388 OA
ATOM     43  H4  UNL     1     -11.023 -11.219 -10.128  1.00  0.00     0.210 HD
ENDBRANCH  21  42
BRANCH  24  44
HETATM   44  O5  UNL     1     -17.204 -11.527 -11.442  1.00  0.00    -0.394 OA
ATOM     45  H5  UNL     1     -17.665 -12.298 -11.133  1.00  0.00     0.210 HD
ENDBRANCH  24  44
BRANCH  26  46
HETATM   46  O6  UNL     1     -19.941 -10.852 -11.858  1.00  0.00    -0.387 OA
ATOM     47  H6  UNL     1     -19.421 -11.647 -11.818  1.00  0.00     0.210 HD
ENDBRANCH  26  46
BRANCH   1  48
HETATM   48  O1  UNL     1     -21.653  -9.025 -11.422  1.00  0.00    -0.382 OA
HETATM   49  C1  UNL     1     -21.716  -8.176 -12.469  1.00  0.00     0.202 C 
ENDBRANCH   1  48
TORSDOF 13
ENDMDL
MODEL 4
REMARK VINA RESULT: -6.850984584      4.471     10.790
REMARK  13 active torsions:
REMARK  status: ('A' for Active; 'I' for Inactive)
REMARK    1  A    between atoms: O1_2  and  C2_3 
REMARK    2  A    between atoms: C17_20  and  C18_21 
REMARK    3  A    between atoms: C18_21  and  C20_23 
REMARK    4  A    between atoms: C20_23  and  C21_24 
REMARK    5  A    between atoms: C21_24  and  C22_25 
REMARK    6  A    between atoms: C22_25  and  C23_26 
REMARK    7  A    between atoms: C23_26  and  C24_27 
REMARK    8  A    between atoms: C24_27  and  C25_28 
REMARK    9  A    between atoms: C25_28  and  C26_30 
REMARK   10  A    between atoms: C26_30  and  N1_31 
REMARK   11  A    between atoms: C29_37  and  O4_38 
REMARK   12  A    between atoms: C32_42  and  O5_43 
REMARK   13  A    between atoms: C34_46  and  O6_48 
ROOT
HETATM    1  C2  UNL     1      -7.702 -18.950  -8.682  1.00  0.00     0.096 C 
HETATM    2  C3  UNL     1      -8.346 -18.905  -7.353  1.00  0.00     0.082 C 
HETATM    3  C4  UNL     1      -7.853 -17.585  -7.213  1.00  0.00     0.097 A 
HETATM    4  C5  UNL     1      -6.632 -18.056  -8.019  1.00  0.00     0.082 C 
HETATM    5  O2  UNL     1      -7.731 -17.132  -5.912  1.00  0.00    -0.365 OA
HETATM    6  C6  UNL     1      -7.883 -16.334  -7.005  1.00  0.00     0.180 A 
HETATM    7  C7  UNL     1      -8.937 -15.313  -7.126  1.00  0.00     0.012 C 
HETATM    8  C8  UNL     1     -10.089 -15.221  -7.714  1.00  0.00    -0.063 C 
HETATM    9  C9  UNL     1     -10.791 -13.854  -7.495  1.00  0.00     0.113 C 
HETATM   10  C10 UNL     1     -12.231 -13.965  -7.447  1.00  0.00     0.138 C 
HETATM   11  O3  UNL     1     -12.949 -13.526  -6.537  1.00  0.00    -0.297 OA
HETATM   12  C11 UNL     1     -12.944 -14.650  -8.553  1.00  0.00     0.096 C 
HETATM   13  C12 UNL     1     -11.945 -15.383  -9.371  1.00  0.00     0.015 C 
HETATM   14  C13 UNL     1     -11.352 -14.657 -10.510  1.00  0.00     0.007 C 
HETATM   15  C14 UNL     1     -12.092 -13.415 -10.940  1.00  0.00     0.013 C 
HETATM   16  C15 UNL     1     -13.617 -13.583 -10.754  1.00  0.00    -0.008 C 
HETATM   17  C16 UNL     1     -14.003 -14.719 -11.619  1.00  0.00     0.019 C 
HETATM   18  C17 UNL     1     -14.217 -12.261 -11.167  1.00  0.00     0.000 C 
HETATM   19  C27 UNL     1     -13.679 -11.373 -10.064  1.00  0.00     0.009 C 
HETATM   20  C28 UNL     1     -13.522 -12.261  -8.850  1.00  0.00     0.040 C 
HETATM   21  C29 UNL     1     -13.800 -13.687  -9.301  1.00  0.00     0.076 C 
HETATM   22  C30 UNL     1     -10.894 -16.136  -8.526  1.00  0.00     0.010 C 
HETATM   23  C31 UNL     1     -11.853 -16.919  -7.567  1.00  0.00     0.023 C 
HETATM   24  C32 UNL     1     -10.317 -17.144  -9.389  1.00  0.00     0.134 C 
HETATM   25  C33 UNL     1      -8.992 -17.110 -10.003  1.00  0.00     0.073 C 
HETATM   26  C34 UNL     1      -8.278 -18.393  -9.875  1.00  0.00     0.088 C 
HETATM   27  C35 UNL     1      -7.139 -18.371 -10.925  1.00  0.00     0.049 C 
ENDROOT
BRANCH  18  28
HETATM   28  C18 UNL     1     -15.643 -12.116 -11.210  1.00  0.00    -0.014 C 
HETATM   29  C19 UNL     1     -16.359 -11.949 -12.503  1.00  0.00     0.010 C 
BRANCH  28  30
HETATM   30  C20 UNL     1     -16.058 -10.875 -10.374  1.00  0.00     0.005 C 
BRANCH  30  31
HETATM   31  C21 UNL     1     -17.096 -11.143  -9.375  1.00  0.00     0.000 C 
BRANCH  31  32
HETATM   32  C22 UNL     1     -17.976 -10.021  -9.026  1.00  0.00     0.000 C 
BRANCH  32  33
HETATM   33  C23 UNL     1     -19.343  -9.844  -9.556  1.00  0.00     0.003 C 
BRANCH  33  34
HETATM   34  C24 UNL     1     -20.325 -10.945  -9.427  1.00  0.00     0.039 C 
BRANCH  34  35
HETATM   35  C25 UNL     1     -20.971 -11.411 -10.700  1.00  0.00     0.195 C 
HETATM   36  F1  UNL     1     -22.034 -10.547 -11.033  1.00  0.00    -0.248 F 
BRANCH  35  37
HETATM   37  C26 UNL     1     -20.101 -11.547 -11.877  1.00  0.00     0.266 C 
BRANCH  37  38
HETATM   38  N1  UNL     1     -20.492 -12.489 -12.889  1.00  0.00    -0.077 N 
ATOM     39  H13 UNL     1     -21.060 -12.014 -13.591  1.00  0.00     0.274 HD
ATOM     40  H12 UNL     1     -19.675 -12.745 -13.444  1.00  0.00     0.274 HD
ATOM     41  H11 UNL     1     -20.973 -13.336 -12.585  1.00  0.00     0.274 HD
ENDBRANCH  37  38
ENDBRANCH  35  37
ENDBRANCH  34  35
ENDBRANCH  33  34
ENDBRANCH  32  33
ENDBRANCH  31  32
ENDBRANCH  30  31
ENDBRANCH  28  30
ENDBRANCH  18  28
BRANCH  21  42
HETATM   42  O4  UNL     1     -15.136 -13.951  -8.910  1.00  0.00    -0.388 OA
ATOM     43  H4  UNL     1     -15.386 -13.252  -8.317  1.00  0.00     0.210 HD
ENDBRANCH  21  42
BRANCH  24  44
HETATM   44  O5  UNL     1     -11.270 -17.463 -10.422  1.00  0.00    -0.394 OA
ATOM     45  H5  UNL     1     -11.254 -16.771 -11.073  1.00  0.00     0.210 HD
ENDBRANCH  24  44
BRANCH  26  46
HETATM   46  O6  UNL     1      -9.159 -19.377 -10.406  1.00  0.00    -0.387 OA
ATOM     47  H6  UNL     1      -9.764 -18.923 -10.980  1.00  0.00     0.210 HD
ENDBRANCH  26  46
BRANCH   1  48
HETATM   48  O1  UNL     1      -7.211 -20.215  -9.005  1.00  0.00    -0.382 OA
HETATM   49  C1  UNL     1      -6.175 -20.685  -8.279  1.00  0.00     0.202 C 
ENDBRANCH   1  48
TORSDOF 13
ENDMDL
MODEL 5
REMARK VINA RESULT: -6.835008417      2.672      4.422
REMARK  13 active torsions:
REMARK  status: ('A' for Active; 'I' for Inactive)
REMARK    1  A    between atoms: O1_2  and  C2_3 
REMARK    2  A    between atoms: C17_20  and  C18_21 
REMARK    3  A    between atoms: C18_21  and  C20_23 
REMARK    4  A    between atoms: C20_23  and  C21_24 
REMARK    5  A    between atoms: C21_24  and  C22_25 
REMARK    6  A    between atoms: C22_25  and  C23_26 
REMARK    7  A    between atoms: C23_26  and  C24_27 
REMARK    8  A    between atoms: C24_27  and  C25_28 
REMARK    9  A    between atoms: C25_28  and  C26_30 
REMARK   10  A    between atoms: C26_30  and  N1_31 
REMARK   11  A    between atoms: C29_37  and  O4_38 
REMARK   12  A    between atoms: C32_42  and  O5_43 
REMARK   13  A    between atoms: C34_46  and  O6_48 
ROOT
HETATM    1  C2  UNL     1     -16.866  -8.895 -12.941  1.00  0.00     0.096 C 
HETATM    2  C3  UNL     1     -17.791  -9.954 -12.492  1.00  0.00     0.082 C 
HETATM    3  C4  UNL     1     -16.980 -10.888 -13.181  1.00  0.00     0.097 A 
HETATM    4  C5  UNL     1     -16.729  -9.769 -14.205  1.00  0.00     0.082 C 
HETATM    5  O2  UNL     1     -17.605 -12.069 -13.537  1.00  0.00    -0.365 OA
HETATM    6  C6  UNL     1     -16.262 -11.920 -13.357  1.00  0.00     0.180 A 
HETATM    7  C7  UNL     1     -15.465 -12.763 -12.451  1.00  0.00     0.012 C 
HETATM    8  C8  UNL     1     -14.974 -12.652 -11.256  1.00  0.00    -0.063 C 
HETATM    9  C9  UNL     1     -14.182 -13.904 -10.791  1.00  0.00     0.113 C 
HETATM   10  C10 UNL     1     -14.290 -14.137  -9.369  1.00  0.00     0.138 C 
HETATM   11  O3  UNL     1     -14.640 -15.206  -8.847  1.00  0.00    -0.297 OA
HETATM   12  C11 UNL     1     -13.965 -13.039  -8.426  1.00  0.00     0.096 C 
HETATM   13  C12 UNL     1     -13.885 -11.771  -9.194  1.00  0.00     0.015 C 
HETATM   14  C13 UNL     1     -12.563 -11.395  -9.728  1.00  0.00     0.007 C 
HETATM   15  C14 UNL     1     -11.390 -12.124  -9.122  1.00  0.00     0.013 C 
HETATM   16  C15 UNL     1     -11.636 -12.427  -7.626  1.00  0.00    -0.008 C 
HETATM   17  C16 UNL     1     -11.798 -11.110  -6.972  1.00  0.00     0.019 C 
HETATM   18  C17 UNL     1     -10.421 -13.197  -7.171  1.00  0.00     0.000 C 
HETATM   19  C27 UNL     1     -10.602 -14.471  -7.970  1.00  0.00     0.009 C 
HETATM   20  C28 UNL     1     -12.093 -14.638  -8.158  1.00  0.00     0.040 C 
HETATM   21  C29 UNL     1     -12.755 -13.378  -7.623  1.00  0.00     0.076 C 
HETATM   22  C30 UNL     1     -15.019 -11.609 -10.230  1.00  0.00     0.010 C 
HETATM   23  C31 UNL     1     -16.251 -11.893  -9.304  1.00  0.00     0.023 C 
HETATM   24  C32 UNL     1     -15.097 -10.197 -10.538  1.00  0.00     0.134 C 
HETATM   25  C33 UNL     1     -14.636  -9.547 -11.762  1.00  0.00     0.073 C 
HETATM   26  C34 UNL     1     -15.618  -8.588 -12.297  1.00  0.00     0.088 C 
HETATM   27  C35 UNL     1     -14.849  -7.669 -13.279  1.00  0.00     0.049 C 
ENDROOT
BRANCH  18  28
HETATM   28  C18 UNL     1     -10.285 -13.547  -5.787  1.00  0.00    -0.014 C 
HETATM   29  C19 UNL     1      -9.471 -12.714  -4.860  1.00  0.00     0.010 C 
BRANCH  28  30
HETATM   30  C20 UNL     1      -9.667 -14.967  -5.675  1.00  0.00     0.005 C 
BRANCH  30  31
HETATM   31  C21 UNL     1     -10.112 -15.726  -4.503  1.00  0.00     0.000 C 
BRANCH  31  32
HETATM   32  C22 UNL     1     -11.546 -16.030  -4.423  1.00  0.00     0.000 C 
BRANCH  32  33
HETATM   33  C23 UNL     1     -12.456 -15.477  -3.400  1.00  0.00     0.003 C 
BRANCH  33  34
HETATM   34  C24 UNL     1     -11.892 -14.755  -2.236  1.00  0.00     0.039 C 
BRANCH  34  35
HETATM   35  C25 UNL     1     -12.167 -13.280  -2.172  1.00  0.00     0.195 C 
HETATM   36  F1  UNL     1     -12.468 -12.800  -3.463  1.00  0.00    -0.248 F 
BRANCH  35  37
HETATM   37  C26 UNL     1     -13.230 -12.840  -1.257  1.00  0.00     0.266 C 
BRANCH  37  38
HETATM   38  N1  UNL     1     -12.900 -11.828  -0.291  1.00  0.00    -0.077 N 
ATOM     39  H13 UNL     1     -12.986 -12.218   0.648  1.00  0.00     0.274 HD
ATOM     40  H12 UNL     1     -11.898 -11.640  -0.330  1.00  0.00     0.274 HD
ATOM     41  H11 UNL     1     -13.411 -10.947  -0.337  1.00  0.00     0.274 HD
ENDBRANCH  37  38
ENDBRANCH  35  37
ENDBRANCH  34  35
ENDBRANCH  33  34
ENDBRANCH  32  33
ENDBRANCH  31  32
ENDBRANCH  30  31
ENDBRANCH  28  30
ENDBRANCH  18  28
BRANCH  21  42
HETATM   42  O4  UNL     1     -13.216 -13.715  -6.327  1.00  0.00    -0.388 OA
ATOM     43  H4  UNL     1     -13.170 -14.662  -6.264  1.00  0.00     0.210 HD
ENDBRANCH  21  42
BRANCH  24  44
HETATM   44  O5  UNL     1     -14.570  -9.454  -9.422  1.00  0.00    -0.394 OA
ATOM     45  H5  UNL     1     -15.154  -9.566  -8.681  1.00  0.00     0.210 HD
ENDBRANCH  24  44
BRANCH  26  46
HETATM   46  O6  UNL     1     -15.915  -7.702 -11.224  1.00  0.00    -0.387 OA
ATOM     47  H6  UNL     1     -16.256  -6.905 -11.611  1.00  0.00     0.210 HD
ENDBRANCH  26  46
BRANCH   1  48
HETATM   48  O1  UNL     1     -17.512  -7.685 -13.201  1.00  0.00    -0.382 OA
HETATM   49  C1  UNL     1     -18.859  -7.701 -13.277  1.00  0.00     0.202 C 
ENDBRANCH   1  48
TORSDOF 13
ENDMDL
