MODEL 1
REMARK VINA RESULT: -7.119662154      0.000      0.000
REMARK  5 active torsions:
REMARK  status: ('A' for Active; 'I' for Inactive)
REMARK    1  A    between atoms: C2_2  and  C4_4 
REMARK    2  A    between atoms: C4_4  and  C5_5 
REMARK    3  A    between atoms: C5_5  and  N1_6 
REMARK       I    between atoms: N1_6  and  C6_8 
REMARK    4  A    between atoms: C6_8  and  C7_10 
REMARK    5  A    between atoms: C9_14  and  C10_15 
ROOT
HETATM    1  C7  UNL     1      17.269 224.996  38.080  1.00  0.00     0.070 C 
HETATM    2  C8  UNL     1      18.158 225.198  39.152  1.00  0.00     0.107 C 
HETATM    3  N2  UNL     1      17.848 225.430  40.455  1.00  0.00    -0.366 N 
ATOM      4  H2  UNL     1      18.591 225.844  41.019  1.00  0.00     0.165 HD
HETATM    5  C9  UNL     1      16.681 225.184  41.110  1.00  0.00     0.042 C 
HETATM    6  C16 UNL     1      15.418 225.104  40.569  1.00  0.00     0.084 A 
HETATM    7  N3  UNL     1      14.421 224.980  41.435  1.00  0.00    -0.361 N 
ATOM      8  H3  UNL     1      14.645 224.946  42.430  1.00  0.00     0.165 HD
HETATM    9  C17 UNL     1      13.138 224.897  41.068  1.00  0.00     0.105 A 
HETATM   10  C18 UNL     1      12.789 224.938  39.735  1.00  0.00     0.105 A 
HETATM   11  N4  UNL     1      13.785 225.064  38.825  1.00  0.00    -0.361 N 
ATOM     12  H4  UNL     1      13.560 225.096  37.831  1.00  0.00     0.165 HD
HETATM   13  C19 UNL     1      15.064 225.146  39.216  1.00  0.00     0.083 A 
HETATM   14  C20 UNL     1      15.934 225.279  38.152  1.00  0.00     0.077 C 
HETATM   15  S1  UNL     1      15.291 225.881  36.777  1.00  0.00    -0.077 SA
ENDROOT
BRANCH   1  16
HETATM   16  C6  UNL     1      17.837 224.445  36.892  1.00  0.00     0.254 C 
HETATM   17  N1  UNL     1      17.266 223.617  35.921  1.00  0.00    -0.357 N 
ATOM     18  H1  UNL     1      16.296 223.329  36.046  1.00  0.00     0.162 HD
HETATM   19  O1  UNL     1      19.074 224.753  36.674  1.00  0.00    -0.268 OA
BRANCH  17  20
HETATM   20  C5  UNL     1      17.973 223.142  34.743  1.00  0.00     0.123 C 
BRANCH  20  21
HETATM   21  C4  UNL     1      17.392 223.592  33.448  1.00  0.00     0.023 C 
BRANCH  21  22
HETATM   22  C2  UNL     1      17.742 222.508  32.417  1.00  0.00    -0.021 C 
HETATM   23  C1  UNL     1      16.507 222.016  31.713  1.00  0.00     0.009 C 
HETATM   24  C3  UNL     1      18.716 223.055  31.408  1.00  0.00     0.009 C 
ENDBRANCH  21  22
ENDBRANCH  20  21
ENDBRANCH  17  20
ENDBRANCH   1  16
BRANCH   5  25
HETATM   25  C10 UNL     1      16.760 224.970  42.556  1.00  0.00     0.038 C 
HETATM   26  C11 UNL     1      17.611 226.054  43.233  1.00  0.00     0.011 C 
HETATM   27  C12 UNL     1      18.631 225.480  44.177  1.00  0.00     0.001 C 
HETATM   28  C13 UNL     1      17.983 224.578  45.196  1.00  0.00     0.000 C 
HETATM   29  C14 UNL     1      17.211 223.528  44.465  1.00  0.00     0.001 C 
HETATM   30  C15 UNL     1      17.415 223.658  42.955  1.00  0.00     0.011 C 
ENDBRANCH   5  25
TORSDOF 5
ENDMDL
MODEL 2
REMARK VINA RESULT: -7.027504458      1.176      1.288
REMARK  5 active torsions:
REMARK  status: ('A' for Active; 'I' for Inactive)
REMARK    1  A    between atoms: C2_2  and  C4_4 
REMARK    2  A    between atoms: C4_4  and  C5_5 
REMARK    3  A    between atoms: C5_5  and  N1_6 
REMARK       I    between atoms: N1_6  and  C6_8 
REMARK    4  A    between atoms: C6_8  and  C7_10 
REMARK    5  A    between atoms: C9_14  and  C10_15 
ROOT
HETATM    1  C7  UNL     1      16.377 224.726  37.823  1.00  0.00     0.070 C 
HETATM    2  C8  UNL     1      17.542 225.178  38.469  1.00  0.00     0.107 C 
HETATM    3  N2  UNL     1      17.635 225.794  39.678  1.00  0.00    -0.366 N 
ATOM      4  H2  UNL     1      18.498 226.311  39.845  1.00  0.00     0.165 HD
HETATM    5  C9  UNL     1      16.731 225.813  40.695  1.00  0.00     0.042 C 
HETATM    6  C16 UNL     1      15.367 225.652  40.608  1.00  0.00     0.084 A 
HETATM    7  N3  UNL     1      14.687 225.839  41.731  1.00  0.00    -0.361 N 
ATOM      8  H3  UNL     1      15.203 226.082  42.576  1.00  0.00     0.165 HD
HETATM    9  C17 UNL     1      13.356 225.726  41.807  1.00  0.00     0.105 A 
HETATM   10  C18 UNL     1      12.617 225.399  40.690  1.00  0.00     0.105 A 
HETATM   11  N4  UNL     1      13.284 225.201  39.528  1.00  0.00    -0.361 N 
ATOM     12  H4  UNL     1      12.766 224.957  38.684  1.00  0.00     0.165 HD
HETATM   13  C19 UNL     1      14.617 225.321  39.475  1.00  0.00     0.083 A 
HETATM   14  C20 UNL     1      15.117 225.092  38.208  1.00  0.00     0.077 C 
HETATM   15  S1  UNL     1      14.065 225.305  36.977  1.00  0.00    -0.077 SA
ENDROOT
BRANCH   1  16
HETATM   16  C6  UNL     1      16.576 223.823  36.734  1.00  0.00     0.254 C 
HETATM   17  N1  UNL     1      17.286 223.993  35.542  1.00  0.00    -0.357 N 
ATOM     18  H1  UNL     1      17.740 224.891  35.378  1.00  0.00     0.162 HD
HETATM   19  O1  UNL     1      16.013 222.666  36.864  1.00  0.00    -0.268 OA
BRANCH  17  20
HETATM   20  C5  UNL     1      17.415 222.965  34.522  1.00  0.00     0.123 C 
BRANCH  20  21
HETATM   21  C4  UNL     1      18.499 223.208  33.532  1.00  0.00     0.023 C 
BRANCH  21  22
HETATM   22  C2  UNL     1      18.125 222.406  32.276  1.00  0.00    -0.021 C 
HETATM   23  C1  UNL     1      16.636 222.406  32.061  1.00  0.00     0.009 C 
HETATM   24  C3  UNL     1      18.811 222.992  31.070  1.00  0.00     0.009 C 
ENDBRANCH  21  22
ENDBRANCH  20  21
ENDBRANCH  17  20
ENDBRANCH   1  16
BRANCH   5  25
HETATM   25  C10 UNL     1      17.254 226.022  42.047  1.00  0.00     0.038 C 
HETATM   26  C11 UNL     1      18.735 226.425  42.014  1.00  0.00     0.011 C 
HETATM   27  C12 UNL     1      19.572 225.627  42.975  1.00  0.00     0.001 C 
HETATM   28  C13 UNL     1      19.016 225.701  44.374  1.00  0.00     0.000 C 
HETATM   29  C14 UNL     1      17.590 225.255  44.333  1.00  0.00     0.001 C 
HETATM   30  C15 UNL     1      17.210 224.785  42.928  1.00  0.00     0.011 C 
ENDBRANCH   5  25
TORSDOF 5
ENDMDL
MODEL 3
REMARK VINA RESULT: -6.993426834      3.838      8.860
REMARK  5 active torsions:
REMARK  status: ('A' for Active; 'I' for Inactive)
REMARK    1  A    between atoms: C2_2  and  C4_4 
REMARK    2  A    between atoms: C4_4  and  C5_5 
REMARK    3  A    between atoms: C5_5  and  N1_6 
REMARK       I    between atoms: N1_6  and  C6_8 
REMARK    4  A    between atoms: C6_8  and  C7_10 
REMARK    5  A    between atoms: C9_14  and  C10_15 
ROOT
HETATM    1  C7  UNL     1      16.677 223.638  43.786  1.00  0.00     0.070 C 
HETATM    2  C8  UNL     1      15.472 223.684  43.060  1.00  0.00     0.107 C 
HETATM    3  N2  UNL     1      15.194 224.431  41.958  1.00  0.00    -0.366 N 
ATOM      4  H2  UNL     1      14.204 224.565  41.754  1.00  0.00     0.165 HD
HETATM    5  C9  UNL     1      16.060 225.024  41.092  1.00  0.00     0.042 C 
HETATM    6  C16 UNL     1      17.351 225.429  41.342  1.00  0.00     0.084 A 
HETATM    7  N3  UNL     1      17.949 226.100  40.367  1.00  0.00    -0.361 N 
ATOM      8  H3  UNL     1      17.430 226.268  39.505  1.00  0.00     0.165 HD
HETATM    9  C17 UNL     1      19.199 226.567  40.460  1.00  0.00     0.105 A 
HETATM   10  C18 UNL     1      19.938 226.362  41.606  1.00  0.00     0.105 A 
HETATM   11  N4  UNL     1      19.354 225.680  42.620  1.00  0.00    -0.361 N 
ATOM     12  H4  UNL     1      19.874 225.512  43.481  1.00  0.00     0.165 HD
HETATM   13  C19 UNL     1      18.100 225.223  42.505  1.00  0.00     0.083 A 
HETATM   14  C20 UNL     1      17.673 224.562  43.641  1.00  0.00     0.077 C 
HETATM   15  S1  UNL     1      18.452 224.945  45.024  1.00  0.00    -0.077 SA
ENDROOT
BRANCH   1  16
HETATM   16  C6  UNL     1      16.823 222.539  44.686  1.00  0.00     0.254 C 
HETATM   17  N1  UNL     1      16.029 222.149  45.768  1.00  0.00    -0.357 N 
ATOM     18  H1  UNL     1      15.211 222.716  45.992  1.00  0.00     0.162 HD
HETATM   19  O1  UNL     1      17.850 221.783  44.473  1.00  0.00    -0.268 OA
BRANCH  17  20
HETATM   20  C5  UNL     1      16.299 220.983  46.593  1.00  0.00     0.123 C 
BRANCH  20  21
HETATM   21  C4  UNL     1      16.746 221.294  47.978  1.00  0.00     0.023 C 
BRANCH  21  22
HETATM   22  C2  UNL     1      16.872 222.823  48.059  1.00  0.00    -0.021 C 
HETATM   23  C1  UNL     1      16.476 223.325  49.421  1.00  0.00     0.009 C 
HETATM   24  C3  UNL     1      18.288 223.237  47.759  1.00  0.00     0.009 C 
ENDBRANCH  21  22
ENDBRANCH  20  21
ENDBRANCH  17  20
ENDBRANCH   1  16
BRANCH   5  25
HETATM   25  C10 UNL     1      15.581 225.259  39.728  1.00  0.00     0.038 C 
HETATM   26  C11 UNL     1      14.078 225.574  39.714  1.00  0.00     0.011 C 
HETATM   27  C12 UNL     1      13.330 224.770  38.686  1.00  0.00     0.001 C 
HETATM   28  C13 UNL     1      13.937 224.936  37.317  1.00  0.00     0.000 C 
HETATM   29  C14 UNL     1      15.384 224.572  37.402  1.00  0.00     0.001 C 
HETATM   30  C15 UNL     1      15.734 224.065  38.801  1.00  0.00     0.011 C 
ENDBRANCH   5  25
TORSDOF 5
ENDMDL
MODEL 4
REMARK VINA RESULT: -6.978986564      3.854      9.033
REMARK  5 active torsions:
REMARK  status: ('A' for Active; 'I' for Inactive)
REMARK    1  A    between atoms: C2_2  and  C4_4 
REMARK    2  A    between atoms: C4_4  and  C5_5 
REMARK    3  A    between atoms: C5_5  and  N1_6 
REMARK       I    between atoms: N1_6  and  C6_8 
REMARK    4  A    between atoms: C6_8  and  C7_10 
REMARK    5  A    between atoms: C9_14  and  C10_15 
ROOT
HETATM    1  C7  UNL     1      16.992 224.782  43.733  1.00  0.00     0.070 C 
HETATM    2  C8  UNL     1      15.642 224.831  43.339  1.00  0.00     0.107 C 
HETATM    3  N2  UNL     1      15.141 225.241  42.143  1.00  0.00    -0.366 N 
ATOM      4  H2  UNL     1      14.152 225.492  42.142  1.00  0.00     0.165 HD
HETATM    5  C9  UNL     1      15.780 225.359  40.948  1.00  0.00     0.042 C 
HETATM    6  C16 UNL     1      17.123 225.566  40.733  1.00  0.00     0.084 A 
HETATM    7  N3  UNL     1      17.485 225.775  39.474  1.00  0.00    -0.361 N 
ATOM      8  H3  UNL     1      16.763 225.765  38.754  1.00  0.00     0.165 HD
HETATM    9  C17 UNL     1      18.752 225.999  39.104  1.00  0.00     0.105 A 
HETATM   10  C18 UNL     1      19.760 226.020  40.044  1.00  0.00     0.105 A 
HETATM   11  N4  UNL     1      19.422 225.810  41.338  1.00  0.00    -0.361 N 
ATOM     12  H4  UNL     1      20.145 225.819  42.057  1.00  0.00     0.165 HD
HETATM   13  C19 UNL     1      18.147 225.589  41.686  1.00  0.00     0.083 A 
HETATM   14  C20 UNL     1      17.995 225.406  43.046  1.00  0.00     0.077 C 
HETATM   15  S1  UNL     1      19.170 226.041  43.987  1.00  0.00    -0.077 SA
ENDROOT
BRANCH   1  16
HETATM   16  C6  UNL     1      17.274 224.008  44.899  1.00  0.00     0.254 C 
HETATM   17  N1  UNL     1      17.724 224.410  46.160  1.00  0.00    -0.357 N 
ATOM     18  H1  UNL     1      17.901 225.403  46.312  1.00  0.00     0.162 HD
HETATM   19  O1  UNL     1      17.089 222.734  44.777  1.00  0.00    -0.268 OA
BRANCH  17  20
HETATM   20  C5  UNL     1      17.955 223.497  47.268  1.00  0.00     0.123 C 
BRANCH  20  21
HETATM   21  C4  UNL     1      17.657 224.065  48.611  1.00  0.00     0.023 C 
BRANCH  21  22
HETATM   22  C2  UNL     1      16.780 223.031  49.333  1.00  0.00    -0.021 C 
HETATM   23  C1  UNL     1      15.534 223.672  49.881  1.00  0.00     0.009 C 
HETATM   24  C3  UNL     1      16.405 221.925  48.383  1.00  0.00     0.009 C 
ENDBRANCH  21  22
ENDBRANCH  20  21
ENDBRANCH  17  20
ENDBRANCH   1  16
BRANCH   5  25
HETATM   25  C10 UNL     1      14.960 225.250  39.740  1.00  0.00     0.038 C 
HETATM   26  C11 UNL     1      13.479 225.044  40.090  1.00  0.00     0.011 C 
HETATM   27  C12 UNL     1      12.856 223.915  39.316  1.00  0.00     0.001 C 
HETATM   28  C13 UNL     1      13.046 224.099  37.833  1.00  0.00     0.000 C 
HETATM   29  C14 UNL     1      14.509 224.250  37.566  1.00  0.00     0.001 C 
HETATM   30  C15 UNL     1      15.316 224.068  38.853  1.00  0.00     0.011 C 
ENDBRANCH   5  25
TORSDOF 5
ENDMDL
MODEL 5
REMARK VINA RESULT: -6.401096470      3.860      8.622
REMARK  5 active torsions:
REMARK  status: ('A' for Active; 'I' for Inactive)
REMARK    1  A    between atoms: C2_2  and  C4_4 
REMARK    2  A    between atoms: C4_4  and  C5_5 
REMARK    3  A    between atoms: C5_5  and  N1_6 
REMARK       I    between atoms: N1_6  and  C6_8 
REMARK    4  A    between atoms: C6_8  and  C7_10 
REMARK    5  A    between atoms: C9_14  and  C10_15 
ROOT
HETATM    1  C7  UNL     1      16.928 224.783  43.771  1.00  0.00     0.070 C 
HETATM    2  C8  UNL     1      15.593 224.851  43.332  1.00  0.00     0.107 C 
HETATM    3  N2  UNL     1      15.136 225.284  42.127  1.00  0.00    -0.366 N 
ATOM      4  H2  UNL     1      14.150 225.544  42.096  1.00  0.00     0.165 HD
HETATM    5  C9  UNL     1      15.817 225.417  40.956  1.00  0.00     0.042 C 
HETATM    6  C16 UNL     1      17.169 225.616  40.791  1.00  0.00     0.084 A 
HETATM    7  N3  UNL     1      17.575 225.843  39.549  1.00  0.00    -0.361 N 
ATOM      8  H3  UNL     1      16.878 225.851  38.804  1.00  0.00     0.165 HD
HETATM    9  C17 UNL     1      18.855 226.062  39.226  1.00  0.00     0.105 A 
HETATM   10  C18 UNL     1      19.831 226.060  40.199  1.00  0.00     0.105 A 
HETATM   11  N4  UNL     1      19.447 225.830  41.478  1.00  0.00    -0.361 N 
ATOM     12  H4  UNL     1      20.146 225.822  42.221  1.00  0.00     0.165 HD
HETATM   13  C19 UNL     1      18.159 225.615  41.778  1.00  0.00     0.083 A 
HETATM   14  C20 UNL     1      17.960 225.411  43.129  1.00  0.00     0.077 C 
HETATM   15  S1  UNL     1      19.106 226.019  44.120  1.00  0.00    -0.077 SA
ENDROOT
BRANCH   1  16
HETATM   16  C6  UNL     1      17.165 223.987  44.932  1.00  0.00     0.254 C 
HETATM   17  N1  UNL     1      17.742 224.332  46.158  1.00  0.00    -0.357 N 
ATOM     18  H1  UNL     1      18.068 225.290  46.283  1.00  0.00     0.162 HD
HETATM   19  O1  UNL     1      16.791 222.753  44.844  1.00  0.00    -0.268 OA
BRANCH  17  20
HETATM   20  C5  UNL     1      17.903 223.406  47.267  1.00  0.00     0.123 C 
BRANCH  20  21
HETATM   21  C4  UNL     1      18.267 222.019  46.868  1.00  0.00     0.023 C 
BRANCH  21  22
HETATM   22  C2  UNL     1      17.364 221.083  47.687  1.00  0.00    -0.021 C 
HETATM   23  C1  UNL     1      16.330 221.865  48.450  1.00  0.00     0.009 C 
HETATM   24  C3  UNL     1      16.685 220.098  46.775  1.00  0.00     0.009 C 
ENDBRANCH  21  22
ENDBRANCH  20  21
ENDBRANCH  17  20
ENDBRANCH   1  16
BRANCH   5  25
HETATM   25  C10 UNL     1      15.038 225.335  39.719  1.00  0.00     0.038 C 
HETATM   26  C11 UNL     1      13.544 225.141  40.015  1.00  0.00     0.011 C 
HETATM   27  C12 UNL     1      12.934 224.031  39.204  1.00  0.00     0.001 C 
HETATM   28  C13 UNL     1      13.178 224.235  37.731  1.00  0.00     0.000 C 
HETATM   29  C14 UNL     1      14.651 224.372  37.517  1.00  0.00     0.001 C 
HETATM   30  C15 UNL     1      15.410 224.162  38.828  1.00  0.00     0.011 C 
ENDBRANCH   5  25
TORSDOF 5
ENDMDL
