MODEL 1
REMARK VINA RESULT: -8.670442407      0.000      0.000
REMARK  5 active torsions:
REMARK  status: ('A' for Active; 'I' for Inactive)
REMARK    1  A    between atoms: C4_5  and  C5_6 
REMARK    2  A    between atoms: C7_9  and  C8_10 
REMARK    3  A    between atoms: C11_13  and  C12_14 
REMARK    4  A    between atoms: C16_20  and  O1_21 
REMARK    5  A    between atoms: O1_21  and  C17_22 
ROOT
HETATM    1  N1  UNL     1      20.180 226.948  44.839  1.00  0.00    -0.191 NA
HETATM    2  C1  UNL     1      19.278 226.249  44.576  1.00  0.00     0.102 C 
HETATM    3  C2  UNL     1      18.163 225.371  44.256  1.00  0.00     0.081 A 
HETATM    4  C3  UNL     1      17.433 225.629  43.091  1.00  0.00     0.056 A 
HETATM    5  C4  UNL     1      16.390 224.840  42.749  1.00  0.00     0.044 A 
HETATM    6  N2  UNL     1      16.138 223.814  43.616  1.00  0.00    -0.362 N 
ATOM      7  H2  UNL     1      15.355 223.205  43.378  1.00  0.00     0.165 HD
HETATM    8  C15 UNL     1      16.790 223.518  44.727  1.00  0.00     0.126 A 
HETATM    9  C16 UNL     1      17.856 224.332  45.069  1.00  0.00     0.105 A 
ENDROOT
BRANCH   9  10
HETATM   10  O1  UNL     1      18.619 224.113  46.209  1.00  0.00    -0.343 OA
BRANCH  10  11
HETATM   11  C17 UNL     1      18.253 223.271  47.237  1.00  0.00     0.132 C 
HETATM   12  C18 UNL     1      17.395 222.126  46.643  1.00  0.00     0.060 C 
HETATM   13  C19 UNL     1      16.903 221.258  47.799  1.00  0.00     0.235 C 
HETATM   14  N3  UNL     1      16.011 222.086  48.587  1.00  0.00    -0.075 N 
HETATM   15  C20 UNL     1      16.842 223.068  49.275  1.00  0.00     0.235 C 
ATOM     16  H32 UNL     1      15.263 222.508  48.035  1.00  0.00     0.277 HD
ATOM     17  H31 UNL     1      15.417 221.549  49.218  1.00  0.00     0.277 HD
HETATM   18  C21 UNL     1      17.383 224.031  48.228  1.00  0.00     0.060 C 
ENDBRANCH  10  11
ENDBRANCH   9  10
BRANCH   5  19
HETATM   19  C5  UNL     1      15.507 224.976  41.554  1.00  0.00     0.005 A 
HETATM   20  C6  UNL     1      14.150 225.170  41.823  1.00  0.00     0.064 A 
HETATM   21  S1  UNL     1      13.451 225.464  40.333  1.00  0.00    -0.105 SA
HETATM   22  C7  UNL     1      14.855 225.345  39.340  1.00  0.00    -0.006 A 
HETATM   23  C11 UNL     1      15.851 225.071  40.244  1.00  0.00    -0.028 A 
BRANCH  22  24
HETATM   24  C8  UNL     1      14.844 225.463  37.838  1.00  0.00     0.026 A 
HETATM   25  C9  UNL     1      14.539 224.090  37.146  1.00  0.00     0.010 A 
HETATM   26  C10 UNL     1      13.562 225.168  37.079  1.00  0.00     0.010 A 
ENDBRANCH  22  24
BRANCH  23  27
HETATM   27  C12 UNL     1      17.240 224.694  39.767  1.00  0.00     0.021 A 
HETATM   28  C13 UNL     1      18.293 225.787  39.846  1.00  0.00     0.010 A 
HETATM   29  C14 UNL     1      17.818 225.287  38.536  1.00  0.00     0.010 A 
ENDBRANCH  23  27
ENDBRANCH   5  19
TORSDOF 5
ENDMDL
MODEL 2
REMARK VINA RESULT: -8.387508135      1.634      3.021
REMARK  5 active torsions:
REMARK  status: ('A' for Active; 'I' for Inactive)
REMARK    1  A    between atoms: C4_5  and  C5_6 
REMARK    2  A    between atoms: C7_9  and  C8_10 
REMARK    3  A    between atoms: C11_13  and  C12_14 
REMARK    4  A    between atoms: C16_20  and  O1_21 
REMARK    5  A    between atoms: O1_21  and  C17_22 
ROOT
HETATM    1  N1  UNL     1      17.159 220.781  45.533  1.00  0.00    -0.191 NA
HETATM    2  C1  UNL     1      17.329 221.854  45.095  1.00  0.00     0.102 C 
HETATM    3  C2  UNL     1      17.538 223.192  44.564  1.00  0.00     0.081 A 
HETATM    4  C3  UNL     1      17.271 223.412  43.208  1.00  0.00     0.056 A 
HETATM    5  C4  UNL     1      17.447 224.638  42.667  1.00  0.00     0.044 A 
HETATM    6  N2  UNL     1      17.889 225.593  43.540  1.00  0.00    -0.362 N 
ATOM      7  H2  UNL     1      18.029 226.526  43.154  1.00  0.00     0.165 HD
HETATM    8  C15 UNL     1      18.156 225.448  44.827  1.00  0.00     0.126 A 
HETATM    9  C16 UNL     1      17.973 224.189  45.371  1.00  0.00     0.105 A 
ENDROOT
BRANCH   9  10
HETATM   10  O1  UNL     1      18.214 223.919  46.712  1.00  0.00    -0.343 OA
BRANCH  10  11
HETATM   11  C17 UNL     1      17.227 223.761  47.661  1.00  0.00     0.132 C 
HETATM   12  C18 UNL     1      17.440 224.827  48.765  1.00  0.00     0.060 C 
HETATM   13  C19 UNL     1      16.411 224.578  49.864  1.00  0.00     0.235 C 
HETATM   14  N3  UNL     1      16.738 223.295  50.453  1.00  0.00    -0.075 N 
HETATM   15  C20 UNL     1      16.386 222.276  49.470  1.00  0.00     0.235 C 
ATOM     16  H32 UNL     1      17.707 223.232  50.767  1.00  0.00     0.277 HD
ATOM     17  H31 UNL     1      16.299 223.146  51.361  1.00  0.00     0.277 HD
HETATM   18  C21 UNL     1      17.365 222.392  48.312  1.00  0.00     0.060 C 
ENDBRANCH  10  11
ENDBRANCH   9  10
BRANCH   5  19
HETATM   19  C5  UNL     1      17.218 225.043  41.249  1.00  0.00     0.005 A 
HETATM   20  C6  UNL     1      18.369 225.254  40.486  1.00  0.00     0.064 A 
HETATM   21  S1  UNL     1      17.815 225.512  38.929  1.00  0.00    -0.105 SA
HETATM   22  C7  UNL     1      16.120 225.362  39.210  1.00  0.00    -0.006 A 
HETATM   23  C11 UNL     1      16.051 225.106  40.557  1.00  0.00    -0.028 A 
BRANCH  22  24
HETATM   24  C8  UNL     1      15.066 225.558  38.152  1.00  0.00     0.026 A 
HETATM   25  C9  UNL     1      15.050 224.381  37.117  1.00  0.00     0.010 A 
HETATM   26  C10 UNL     1      13.933 224.554  38.036  1.00  0.00     0.010 A 
ENDBRANCH  22  24
BRANCH  23  27
HETATM   27  C12 UNL     1      14.713 225.095  41.270  1.00  0.00     0.021 A 
HETATM   28  C13 UNL     1      13.955 226.412  41.286  1.00  0.00     0.010 A 
HETATM   29  C14 UNL     1      14.511 225.844  42.535  1.00  0.00     0.010 A 
ENDBRANCH  23  27
ENDBRANCH   5  19
TORSDOF 5
ENDMDL
MODEL 3
REMARK VINA RESULT: -8.272931203      1.581      2.573
REMARK  5 active torsions:
REMARK  status: ('A' for Active; 'I' for Inactive)
REMARK    1  A    between atoms: C4_5  and  C5_6 
REMARK    2  A    between atoms: C7_9  and  C8_10 
REMARK    3  A    between atoms: C11_13  and  C12_14 
REMARK    4  A    between atoms: C16_20  and  O1_21 
REMARK    5  A    between atoms: O1_21  and  C17_22 
ROOT
HETATM    1  N1  UNL     1      17.285 220.644  45.702  1.00  0.00    -0.191 NA
HETATM    2  C1  UNL     1      17.241 221.721  45.244  1.00  0.00     0.102 C 
HETATM    3  C2  UNL     1      17.185 223.064  44.688  1.00  0.00     0.081 A 
HETATM    4  C3  UNL     1      16.753 223.213  43.366  1.00  0.00     0.056 A 
HETATM    5  C4  UNL     1      16.680 224.440  42.805  1.00  0.00     0.044 A 
HETATM    6  N2  UNL     1      17.052 225.470  43.624  1.00  0.00    -0.362 N 
ATOM      7  H2  UNL     1      17.006 226.406  43.221  1.00  0.00     0.165 HD
HETATM    8  C15 UNL     1      17.466 225.394  44.877  1.00  0.00     0.126 A 
HETATM    9  C16 UNL     1      17.537 224.133  45.443  1.00  0.00     0.105 A 
ENDROOT
BRANCH   9  10
HETATM   10  O1  UNL     1      17.950 223.931  46.754  1.00  0.00    -0.343 OA
BRANCH  10  11
HETATM   11  C17 UNL     1      17.092 223.758  47.819  1.00  0.00     0.132 C 
HETATM   12  C18 UNL     1      17.438 224.816  48.896  1.00  0.00     0.060 C 
HETATM   13  C19 UNL     1      16.559 224.550  50.116  1.00  0.00     0.235 C 
HETATM   14  N3  UNL     1      16.966 223.264  50.646  1.00  0.00    -0.075 N 
HETATM   15  C20 UNL     1      16.497 222.252  49.706  1.00  0.00     0.235 C 
ATOM     16  H32 UNL     1      17.967 223.205  50.834  1.00  0.00     0.277 HD
ATOM     17  H31 UNL     1      16.647 223.104  51.601  1.00  0.00     0.277 HD
HETATM   18  C21 UNL     1      17.321 222.384  48.434  1.00  0.00     0.060 C 
ENDBRANCH  10  11
ENDBRANCH   9  10
BRANCH   5  19
HETATM   19  C5  UNL     1      16.250 224.776  41.415  1.00  0.00     0.005 A 
HETATM   20  C6  UNL     1      14.871 224.781  41.193  1.00  0.00     0.064 A 
HETATM   21  S1  UNL     1      14.687 225.355  39.633  1.00  0.00    -0.105 SA
HETATM   22  C7  UNL     1      16.346 225.597  39.229  1.00  0.00    -0.006 A 
HETATM   23  C11 UNL     1      17.002 225.207  40.370  1.00  0.00    -0.028 A 
BRANCH  22  24
HETATM   24  C8  UNL     1      16.830 226.065  37.882  1.00  0.00     0.026 A 
HETATM   25  C9  UNL     1      17.202 224.863  36.945  1.00  0.00     0.010 A 
HETATM   26  C10 UNL     1      16.042 225.690  36.638  1.00  0.00     0.010 A 
ENDBRANCH  22  24
BRANCH  23  27
HETATM   27  C12 UNL     1      18.512 225.076  40.382  1.00  0.00     0.021 A 
HETATM   28  C13 UNL     1      19.264 226.093  41.223  1.00  0.00     0.010 A 
HETATM   29  C14 UNL     1      19.378 226.101  39.747  1.00  0.00     0.010 A 
ENDBRANCH  23  27
ENDBRANCH   5  19
TORSDOF 5
ENDMDL
MODEL 4
REMARK VINA RESULT: -8.083514611      1.361      2.303
REMARK  5 active torsions:
REMARK  status: ('A' for Active; 'I' for Inactive)
REMARK    1  A    between atoms: C4_5  and  C5_6 
REMARK    2  A    between atoms: C7_9  and  C8_10 
REMARK    3  A    between atoms: C11_13  and  C12_14 
REMARK    4  A    between atoms: C16_20  and  O1_21 
REMARK    5  A    between atoms: O1_21  and  C17_22 
ROOT
HETATM    1  N1  UNL     1      20.185 226.867  45.173  1.00  0.00    -0.191 NA
HETATM    2  C1  UNL     1      19.476 226.198  44.522  1.00  0.00     0.102 C 
HETATM    3  C2  UNL     1      18.600 225.357  43.722  1.00  0.00     0.081 A 
HETATM    4  C3  UNL     1      18.366 225.724  42.393  1.00  0.00     0.056 A 
HETATM    5  C4  UNL     1      17.562 224.973  41.608  1.00  0.00     0.044 A 
HETATM    6  N2  UNL     1      17.029 223.872  42.218  1.00  0.00    -0.362 N 
ATOM      7  H2  UNL     1      16.418 223.290  41.644  1.00  0.00     0.165 HD
HETATM    8  C15 UNL     1      17.213 223.472  43.464  1.00  0.00     0.126 A 
HETATM    9  C16 UNL     1      18.038 224.248  44.260  1.00  0.00     0.105 A 
ENDROOT
BRANCH   9  10
HETATM   10  O1  UNL     1      18.310 223.922  45.583  1.00  0.00    -0.343 OA
BRANCH  10  11
HETATM   11  C17 UNL     1      17.360 223.508  46.491  1.00  0.00     0.132 C 
HETATM   12  C18 UNL     1      17.747 224.064  47.884  1.00  0.00     0.060 C 
HETATM   13  C19 UNL     1      16.753 223.515  48.904  1.00  0.00     0.235 C 
HETATM   14  N3  UNL     1      16.962 222.081  48.953  1.00  0.00    -0.075 N 
HETATM   15  C20 UNL     1      16.448 221.536  47.700  1.00  0.00     0.235 C 
ATOM     16  H32 UNL     1      17.931 221.822  49.135  1.00  0.00     0.277 HD
ATOM     17  H31 UNL     1      16.554 221.643  49.779  1.00  0.00     0.277 HD
HETATM   18  C21 UNL     1      17.375 221.989  46.583  1.00  0.00     0.060 C 
ENDBRANCH  10  11
ENDBRANCH   9  10
BRANCH   5  19
HETATM   19  C5  UNL     1      17.202 225.222  40.181  1.00  0.00     0.005 A 
HETATM   20  C6  UNL     1      18.270 225.231  39.280  1.00  0.00     0.064 A 
HETATM   21  S1  UNL     1      17.561 225.348  37.770  1.00  0.00    -0.105 SA
HETATM   22  C7  UNL     1      15.903 225.392  38.245  1.00  0.00    -0.006 A 
HETATM   23  C11 UNL     1      15.971 225.309  39.614  1.00  0.00    -0.028 A 
BRANCH  22  24
HETATM   24  C8  UNL     1      14.752 225.556  37.288  1.00  0.00     0.026 A 
HETATM   25  C9  UNL     1      14.095 224.180  36.922  1.00  0.00     0.010 A 
HETATM   26  C10 UNL     1      13.357 225.145  37.726  1.00  0.00     0.010 A 
ENDBRANCH  22  24
BRANCH  23  27
HETATM   27  C12 UNL     1      14.729 225.511  40.459  1.00  0.00     0.021 A 
HETATM   28  C13 UNL     1      14.322 226.952  40.714  1.00  0.00     0.010 A 
HETATM   29  C14 UNL     1      14.812 226.097  41.819  1.00  0.00     0.010 A 
ENDBRANCH  23  27
ENDBRANCH   5  19
TORSDOF 5
ENDMDL
MODEL 5
REMARK VINA RESULT: -8.023181453      2.102      3.891
REMARK  5 active torsions:
REMARK  status: ('A' for Active; 'I' for Inactive)
REMARK    1  A    between atoms: C4_5  and  C5_6 
REMARK    2  A    between atoms: C7_9  and  C8_10 
REMARK    3  A    between atoms: C11_13  and  C12_14 
REMARK    4  A    between atoms: C16_20  and  O1_21 
REMARK    5  A    between atoms: O1_21  and  C17_22 
ROOT
HETATM    1  N1  UNL     1      16.731 220.237  46.744  1.00  0.00    -0.191 NA
HETATM    2  C1  UNL     1      17.009 221.342  46.472  1.00  0.00     0.102 C 
HETATM    3  C2  UNL     1      17.350 222.718  46.146  1.00  0.00     0.081 A 
HETATM    4  C3  UNL     1      17.443 223.072  44.796  1.00  0.00     0.056 A 
HETATM    5  C4  UNL     1      17.753 224.339  44.442  1.00  0.00     0.044 A 
HETATM    6  N2  UNL     1      17.956 225.195  45.488  1.00  0.00    -0.362 N 
ATOM      7  H2  UNL     1      18.192 226.157  45.244  1.00  0.00     0.165 HD
HETATM    8  C15 UNL     1      17.882 224.922  46.779  1.00  0.00     0.126 A 
HETATM    9  C16 UNL     1      17.563 223.622  47.132  1.00  0.00     0.105 A 
ENDROOT
BRANCH   9  10
HETATM   10  O1  UNL     1      17.450 223.221  48.457  1.00  0.00    -0.343 OA
BRANCH  10  11
HETATM   11  C17 UNL     1      16.945 224.012  49.466  1.00  0.00     0.132 C 
HETATM   12  C18 UNL     1      17.441 223.446  50.820  1.00  0.00     0.060 C 
HETATM   13  C19 UNL     1      16.792 224.259  51.937  1.00  0.00     0.235 C 
HETATM   14  N3  UNL     1      15.368 223.993  51.868  1.00  0.00    -0.075 N 
HETATM   15  C20 UNL     1      14.870 224.665  50.672  1.00  0.00     0.235 C 
ATOM     16  H32 UNL     1      15.144 222.998  51.893  1.00  0.00     0.277 HD
ATOM     17  H31 UNL     1      14.869 224.259  52.716  1.00  0.00     0.277 HD
HETATM   18  C21 UNL     1      15.425 223.928  49.463  1.00  0.00     0.060 C 
ENDBRANCH  10  11
ENDBRANCH   9  10
BRANCH   5  19
HETATM   19  C5  UNL     1      17.898 224.882  43.059  1.00  0.00     0.005 A 
HETATM   20  C6  UNL     1      19.202 225.191  42.663  1.00  0.00     0.064 A 
HETATM   21  S1  UNL     1      19.079 225.596  41.046  1.00  0.00    -0.105 SA
HETATM   22  C7  UNL     1      17.380 225.388  40.836  1.00  0.00    -0.006 A 
HETATM   23  C11 UNL     1      16.961 224.994  42.083  1.00  0.00    -0.028 A 
BRANCH  22  24
HETATM   24  C8  UNL     1      16.643 225.672  39.554  1.00  0.00     0.026 A 
HETATM   25  C9  UNL     1      17.392 225.085  38.307  1.00  0.00     0.010 A 
HETATM   26  C10 UNL     1      16.120 224.512  38.725  1.00  0.00     0.010 A 
ENDBRANCH  22  24
BRANCH  23  27
HETATM   27  C12 UNL     1      15.482 224.887  42.398  1.00  0.00     0.021 A 
HETATM   28  C13 UNL     1      14.588 225.946  41.776  1.00  0.00     0.010 A 
HETATM   29  C14 UNL     1      14.799 225.901  43.240  1.00  0.00     0.010 A 
ENDBRANCH  23  27
ENDBRANCH   5  19
TORSDOF 5
ENDMDL
