MODEL 1
REMARK VINA RESULT: -8.308397897      0.000      0.000
REMARK  5 active torsions:
REMARK  status: ('A' for Active; 'I' for Inactive)
REMARK    1  A    between atoms: C2_2  and  N1_3 
REMARK    2  A    between atoms: C3_4  and  S1_5 
REMARK    3  A    between atoms: S1_5  and  C4_6 
REMARK    4  A    between atoms: C4_6  and  C5_7 
REMARK       I    between atoms: C5_7  and  N2_9 
REMARK    5  A    between atoms: N2_9  and  C6_11 
ROOT
HETATM    1  S1  UNL     1      15.452 225.296  42.773  1.00  0.00    -0.103 SA
ENDROOT
BRANCH   1   2
HETATM    2  C3  UNL     1      15.808 225.105  41.045  1.00  0.00     0.075 A 
HETATM    3  N1  UNL     1      14.691 224.811  40.289  1.00  0.00    -0.308 N 
HETATM    4  C18 UNL     1      14.870 224.695  38.976  1.00  0.00     0.266 A 
HETATM    5  C17 UNL     1      16.127 224.865  38.406  1.00  0.00     0.083 A 
HETATM    6  O2  UNL     1      13.883 224.426  38.227  1.00  0.00    -0.266 OA
HETATM    7  C14 UNL     1      17.246 225.157  39.127  1.00  0.00    -0.010 A 
HETATM    8  S2  UNL     1      16.692 224.804  36.806  1.00  0.00    -0.096 SA
HETATM    9  C13 UNL     1      17.046 225.275  40.525  1.00  0.00     0.050 A 
HETATM   10  C15 UNL     1      18.402 225.305  38.436  1.00  0.00     0.020 A 
HETATM   11  C16 UNL     1      18.341 225.149  37.077  1.00  0.00     0.051 A 
BRANCH   3  12
HETATM   12  C2  UNL     1      13.400 224.651  40.934  1.00  0.00     0.128 C 
HETATM   13  C1  UNL     1      12.572 225.895  40.804  1.00  0.00     0.027 C 
ENDBRANCH   3  12
ENDBRANCH   1   2
BRANCH   1  14
HETATM   14  C4  UNL     1      16.946 225.573  43.707  1.00  0.00     0.183 C 
BRANCH  14  15
HETATM   15  C5  UNL     1      17.659 224.344  44.146  1.00  0.00     0.227 C 
HETATM   16  O1  UNL     1      18.598 223.913  43.459  1.00  0.00    -0.273 OA
HETATM   17  N2  UNL     1      17.213 223.757  45.350  1.00  0.00    -0.356 N 
ATOM     18  H2  UNL     1      16.409 224.162  45.830  1.00  0.00     0.162 HD
BRANCH  17  19
HETATM   19  C6  UNL     1      17.868 222.587  45.928  1.00  0.00     0.084 C 
HETATM   20  C7  UNL     1      18.503 223.155  47.211  1.00  0.00     0.025 C 
HETATM   21  C8  UNL     1      17.494 223.896  48.003  1.00  0.00     0.002 C 
HETATM   22  C9  UNL     1      16.836 223.036  49.069  1.00  0.00     0.000 C 
HETATM   23  C10 UNL     1      16.017 221.940  48.443  1.00  0.00     0.000 C 
HETATM   24  C11 UNL     1      16.863 221.000  47.621  1.00  0.00     0.002 C 
HETATM   25  C12 UNL     1      16.955 221.467  46.190  1.00  0.00     0.025 C 
ENDBRANCH  17  19
ENDBRANCH  14  15
ENDBRANCH   1  14
TORSDOF 5
ENDMDL
MODEL 2
REMARK VINA RESULT: -8.017174460      1.693      2.763
REMARK  5 active torsions:
REMARK  status: ('A' for Active; 'I' for Inactive)
REMARK    1  A    between atoms: C2_2  and  N1_3 
REMARK    2  A    between atoms: C3_4  and  S1_5 
REMARK    3  A    between atoms: S1_5  and  C4_6 
REMARK    4  A    between atoms: C4_6  and  C5_7 
REMARK       I    between atoms: C5_7  and  N2_9 
REMARK    5  A    between atoms: N2_9  and  C6_11 
ROOT
HETATM    1  S1  UNL     1      16.771 225.433  42.564  1.00  0.00    -0.103 SA
ENDROOT
BRANCH   1   2
HETATM    2  C3  UNL     1      16.464 225.440  40.815  1.00  0.00     0.075 A 
HETATM    3  N1  UNL     1      17.620 225.389  40.061  1.00  0.00    -0.308 N 
HETATM    4  C18 UNL     1      17.471 225.347  38.740  1.00  0.00     0.266 A 
HETATM    5  C17 UNL     1      16.206 225.354  38.161  1.00  0.00     0.083 A 
HETATM    6  O2  UNL     1      18.493 225.300  37.992  1.00  0.00    -0.266 OA
HETATM    7  C14 UNL     1      15.050 225.403  38.880  1.00  0.00    -0.010 A 
HETATM    8  S2  UNL     1      15.669 225.296  36.551  1.00  0.00    -0.096 SA
HETATM    9  C13 UNL     1      15.219 225.450  40.286  1.00  0.00     0.050 A 
HETATM   10  C15 UNL     1      13.889 225.393  38.181  1.00  0.00     0.020 A 
HETATM   11  C16 UNL     1      13.984 225.334  36.816  1.00  0.00     0.051 A 
BRANCH   3  12
HETATM   12  C2  UNL     1      18.915 225.376  40.718  1.00  0.00     0.128 C 
HETATM   13  C1  UNL     1      19.512 226.752  40.762  1.00  0.00     0.027 C 
ENDBRANCH   3  12
ENDBRANCH   1   2
BRANCH   1  14
HETATM   14  C4  UNL     1      15.975 224.042  43.347  1.00  0.00     0.183 C 
BRANCH  14  15
HETATM   15  C5  UNL     1      16.893 223.046  43.958  1.00  0.00     0.227 C 
HETATM   16  O1  UNL     1      17.872 222.647  43.307  1.00  0.00    -0.273 OA
HETATM   17  N2  UNL     1      16.585 222.632  45.272  1.00  0.00    -0.356 N 
ATOM     18  H2  UNL     1      15.739 222.988  45.718  1.00  0.00     0.162 HD
BRANCH  17  19
HETATM   19  C6  UNL     1      17.441 221.709  46.013  1.00  0.00     0.084 C 
HETATM   20  C7  UNL     1      18.281 222.658  46.889  1.00  0.00     0.025 C 
HETATM   21  C8  UNL     1      17.402 223.595  47.627  1.00  0.00     0.002 C 
HETATM   22  C9  UNL     1      17.055 223.101  49.020  1.00  0.00     0.000 C 
HETATM   23  C10 UNL     1      16.216 221.854  48.954  1.00  0.00     0.000 C 
HETATM   24  C11 UNL     1      16.947 220.716  48.286  1.00  0.00     0.002 C 
HETATM   25  C12 UNL     1      16.699 220.714  46.798  1.00  0.00     0.025 C 
ENDBRANCH  17  19
ENDBRANCH  14  15
ENDBRANCH   1  14
TORSDOF 5
ENDMDL
MODEL 3
REMARK VINA RESULT: -7.800817143      1.240      1.352
REMARK  5 active torsions:
REMARK  status: ('A' for Active; 'I' for Inactive)
REMARK    1  A    between atoms: C2_2  and  N1_3 
REMARK    2  A    between atoms: C3_4  and  S1_5 
REMARK    3  A    between atoms: S1_5  and  C4_6 
REMARK    4  A    between atoms: C4_6  and  C5_7 
REMARK       I    between atoms: C5_7  and  N2_9 
REMARK    5  A    between atoms: N2_9  and  C6_11 
ROOT
HETATM    1  S1  UNL     1      17.860 226.313  42.414  1.00  0.00    -0.103 SA
ENDROOT
BRANCH   1   2
HETATM    2  C3  UNL     1      17.189 225.877  40.830  1.00  0.00     0.075 A 
HETATM    3  N1  UNL     1      15.823 226.059  40.750  1.00  0.00    -0.308 N 
HETATM    4  C18 UNL     1      15.251 225.794  39.578  1.00  0.00     0.266 A 
HETATM    5  C17 UNL     1      16.006 225.357  38.496  1.00  0.00     0.083 A 
HETATM    6  O2  UNL     1      14.000 225.941  39.441  1.00  0.00    -0.266 OA
HETATM    7  C14 UNL     1      17.355 225.170  38.545  1.00  0.00    -0.010 A 
HETATM    8  S2  UNL     1      15.609 224.953  36.895  1.00  0.00    -0.096 SA
HETATM    9  C13 UNL     1      17.954 225.452  39.798  1.00  0.00     0.050 A 
HETATM   10  C15 UNL     1      17.961 224.750  37.408  1.00  0.00     0.020 A 
HETATM   11  C16 UNL     1      17.162 224.553  36.313  1.00  0.00     0.051 A 
BRANCH   3  12
HETATM   12  C2  UNL     1      15.084 226.525  41.910  1.00  0.00     0.128 C 
HETATM   13  C1  UNL     1      14.875 228.010  41.858  1.00  0.00     0.027 C 
ENDBRANCH   3  12
ENDBRANCH   1   2
BRANCH   1  14
HETATM   14  C4  UNL     1      17.051 225.407  43.721  1.00  0.00     0.183 C 
BRANCH  14  15
HETATM   15  C5  UNL     1      17.806 224.238  44.245  1.00  0.00     0.227 C 
HETATM   16  O1  UNL     1      18.920 223.975  43.766  1.00  0.00    -0.273 OA
HETATM   17  N2  UNL     1      17.190 223.509  45.285  1.00  0.00    -0.356 N 
ATOM     18  H2  UNL     1      16.256 223.779  45.593  1.00  0.00     0.162 HD
BRANCH  17  19
HETATM   19  C6  UNL     1      17.852 222.380  45.934  1.00  0.00     0.084 C 
HETATM   20  C7  UNL     1      18.516 223.037  47.159  1.00  0.00     0.025 C 
HETATM   21  C8  UNL     1      17.526 223.839  47.915  1.00  0.00     0.002 C 
HETATM   22  C9  UNL     1      16.886 223.064  49.053  1.00  0.00     0.000 C 
HETATM   23  C10 UNL     1      16.049 221.931  48.526  1.00  0.00     0.000 C 
HETATM   24  C11 UNL     1      16.874 220.928  47.759  1.00  0.00     0.002 C 
HETATM   25  C12 UNL     1      16.939 221.288  46.296  1.00  0.00     0.025 C 
ENDBRANCH  17  19
ENDBRANCH  14  15
ENDBRANCH   1  14
TORSDOF 5
ENDMDL
MODEL 4
REMARK VINA RESULT: -7.328278101      1.180      1.303
REMARK  5 active torsions:
REMARK  status: ('A' for Active; 'I' for Inactive)
REMARK    1  A    between atoms: C2_2  and  N1_3 
REMARK    2  A    between atoms: C3_4  and  S1_5 
REMARK    3  A    between atoms: S1_5  and  C4_6 
REMARK    4  A    between atoms: C4_6  and  C5_7 
REMARK       I    between atoms: C5_7  and  N2_9 
REMARK    5  A    between atoms: N2_9  and  C6_11 
ROOT
HETATM    1  S1  UNL     1      16.440 225.755  43.121  1.00  0.00    -0.103 SA
ENDROOT
BRANCH   1   2
HETATM    2  C3  UNL     1      15.903 225.431  41.461  1.00  0.00     0.075 A 
HETATM    3  N1  UNL     1      14.563 225.108  41.378  1.00  0.00    -0.308 N 
HETATM    4  C18 UNL     1      14.073 224.893  40.159  1.00  0.00     0.266 A 
HETATM    5  C17 UNL     1      14.884 224.993  39.034  1.00  0.00     0.083 A 
HETATM    6  O2  UNL     1      12.851 224.592  40.016  1.00  0.00    -0.266 OA
HETATM    7  C14 UNL     1      16.208 225.311  39.085  1.00  0.00    -0.010 A 
HETATM    8  S2  UNL     1      14.588 224.803  37.373  1.00  0.00    -0.096 SA
HETATM    9  C13 UNL     1      16.720 225.536  40.388  1.00  0.00     0.050 A 
HETATM   10  C15 UNL     1      16.871 225.383  37.907  1.00  0.00     0.020 A 
HETATM   11  C16 UNL     1      16.150 225.130  36.770  1.00  0.00     0.051 A 
BRANCH   3  12
HETATM   12  C2  UNL     1      13.760 225.024  42.585  1.00  0.00     0.128 C 
HETATM   13  C1  UNL     1      13.331 226.387  43.045  1.00  0.00     0.027 C 
ENDBRANCH   3  12
ENDBRANCH   1   2
BRANCH   1  14
HETATM   14  C4  UNL     1      18.099 225.152  43.384  1.00  0.00     0.183 C 
BRANCH  14  15
HETATM   15  C5  UNL     1      18.196 223.740  43.840  1.00  0.00     0.227 C 
HETATM   16  O1  UNL     1      18.841 222.928  43.156  1.00  0.00    -0.273 OA
HETATM   17  N2  UNL     1      17.549 223.426  45.054  1.00  0.00    -0.356 N 
ATOM     18  H2  UNL     1      17.013 224.151  45.531  1.00  0.00     0.162 HD
BRANCH  17  19
HETATM   19  C6  UNL     1      17.623 222.094  45.648  1.00  0.00     0.084 C 
HETATM   20  C7  UNL     1      18.561 222.312  46.851  1.00  0.00     0.025 C 
HETATM   21  C8  UNL     1      18.093 223.455  47.670  1.00  0.00     0.002 C 
HETATM   22  C9  UNL     1      17.204 223.026  48.824  1.00  0.00     0.000 C 
HETATM   23  C10 UNL     1      15.914 222.440  48.318  1.00  0.00     0.000 C 
HETATM   24  C11 UNL     1      16.142 221.199  47.491  1.00  0.00     0.002 C 
HETATM   25  C12 UNL     1      16.317 221.545  46.034  1.00  0.00     0.025 C 
ENDBRANCH  17  19
ENDBRANCH  14  15
ENDBRANCH   1  14
TORSDOF 5
ENDMDL
MODEL 5
REMARK VINA RESULT: -7.237423701      1.387      1.789
REMARK  5 active torsions:
REMARK  status: ('A' for Active; 'I' for Inactive)
REMARK    1  A    between atoms: C2_2  and  N1_3 
REMARK    2  A    between atoms: C3_4  and  S1_5 
REMARK    3  A    between atoms: S1_5  and  C4_6 
REMARK    4  A    between atoms: C4_6  and  C5_7 
REMARK       I    between atoms: C5_7  and  N2_9 
REMARK    5  A    between atoms: N2_9  and  C6_11 
ROOT
HETATM    1  S1  UNL     1      15.224 227.550  41.494  1.00  0.00    -0.103 SA
ENDROOT
BRANCH   1   2
HETATM    2  C3  UNL     1      15.467 226.399  40.164  1.00  0.00     0.075 A 
HETATM    3  N1  UNL     1      14.336 225.663  39.871  1.00  0.00    -0.308 N 
HETATM    4  C18 UNL     1      14.426 224.807  38.856  1.00  0.00     0.266 A 
HETATM    5  C17 UNL     1      15.607 224.672  38.135  1.00  0.00     0.083 A 
HETATM    6  O2  UNL     1      13.422 224.101  38.537  1.00  0.00    -0.266 OA
HETATM    7  C14 UNL     1      16.737 225.386  38.401  1.00  0.00    -0.010 A 
HETATM    8  S2  UNL     1      16.051 223.711  36.807  1.00  0.00    -0.096 SA
HETATM    9  C13 UNL     1      16.632 226.292  39.485  1.00  0.00     0.050 A 
HETATM   10  C15 UNL     1      17.811 225.157  37.609  1.00  0.00     0.020 A 
HETATM   11  C16 UNL     1      17.664 224.230  36.611  1.00  0.00     0.051 A 
BRANCH   3  12
HETATM   12  C2  UNL     1      13.126 225.848  40.652  1.00  0.00     0.128 C 
HETATM   13  C1  UNL     1      13.042 224.847  41.766  1.00  0.00     0.027 C 
ENDBRANCH   3  12
ENDBRANCH   1   2
BRANCH   1  14
HETATM   14  C4  UNL     1      15.602 226.798  43.066  1.00  0.00     0.183 C 
BRANCH  14  15
HETATM   15  C5  UNL     1      16.666 225.759  43.035  1.00  0.00     0.227 C 
HETATM   16  O1  UNL     1      17.733 226.005  42.449  1.00  0.00    -0.273 OA
HETATM   17  N2  UNL     1      16.382 224.549  43.705  1.00  0.00    -0.356 N 
ATOM     18  H2  UNL     1      15.463 224.423  44.130  1.00  0.00     0.162 HD
BRANCH  17  19
HETATM   19  C6  UNL     1      17.364 223.473  43.807  1.00  0.00     0.084 C 
HETATM   20  C7  UNL     1      18.463 224.102  44.684  1.00  0.00     0.025 C 
HETATM   21  C8  UNL     1      17.875 224.677  45.916  1.00  0.00     0.002 C 
HETATM   22  C9  UNL     1      17.910 223.714  47.089  1.00  0.00     0.000 C 
HETATM   23  C10 UNL     1      17.024 222.524  46.833  1.00  0.00     0.000 C 
HETATM   24  C11 UNL     1      17.479 221.729  45.634  1.00  0.00     0.002 C 
HETATM   25  C12 UNL     1      16.823 222.231  44.372  1.00  0.00     0.025 C 
ENDBRANCH  17  19
ENDBRANCH  14  15
ENDBRANCH   1  14
TORSDOF 5
ENDMDL
