MODEL 1
REMARK VINA RESULT: -9.404042540      0.000      0.000
REMARK  6 active torsions:
REMARK  status: ('A' for Active; 'I' for Inactive)
REMARK    1  A    between atoms: O1_1  and  C1_3 
REMARK    2  A    between atoms: C1_3  and  C2_4 
REMARK    3  A    between atoms: C1_3  and  C15_18 
REMARK    4  A    between atoms: C1_3  and  C19_26 
REMARK    5  A    between atoms: C2_4  and  C3_5 
REMARK    6  A    between atoms: N1_9  and  C7_10 
ROOT
HETATM    1  C1  UNL     1      16.243 226.728  41.017  1.00  0.00     0.136 C 
ENDROOT
BRANCH   1   2
HETATM    2  O1  UNL     1      15.857 228.053  40.844  1.00  0.00    -0.378 OA
ATOM      3  H1  UNL     1      15.845 228.346  39.941  1.00  0.00     0.211 HD
ENDBRANCH   1   2
BRANCH   1   4
HETATM    4  C2  UNL     1      17.496 226.551  41.758  1.00  0.00     0.055 C 
BRANCH   4   5
HETATM    5  C3  UNL     1      17.741 225.331  42.556  1.00  0.00    -0.009 C 
HETATM    6  C4  UNL     1      18.276 224.130  41.868  1.00  0.00     0.006 C 
HETATM    7  C5  UNL     1      18.576 223.010  42.843  1.00  0.00     0.031 C 
HETATM    8  C6  UNL     1      17.490 222.876  43.871  1.00  0.00     0.273 C 
HETATM    9  N1  UNL     1      17.918 223.541  45.062  1.00  0.00     0.093 N 
HETATM   10  C13 UNL     1      17.714 224.952  45.020  1.00  0.00     0.273 C 
HETATM   11  C14 UNL     1      18.456 225.621  43.866  1.00  0.00     0.035 C 
BRANCH   9  12
HETATM   12  C7  UNL     1      17.325 222.991  46.238  1.00  0.00     0.223 C 
HETATM   13  C8  UNL     1      18.059 223.458  47.495  1.00  0.00     0.036 C 
HETATM   14  C9  UNL     1      17.091 223.258  48.637  1.00  0.00     0.002 C 
HETATM   15  C10 UNL     1      16.296 221.985  48.496  1.00  0.00     0.000 C 
HETATM   16  C11 UNL     1      16.947 220.964  47.610  1.00  0.00     0.002 C 
HETATM   17  C12 UNL     1      17.376 221.483  46.272  1.00  0.00     0.036 C 
ENDBRANCH   9  12
ENDBRANCH   4   5
ENDBRANCH   1   4
BRANCH   1  18
HETATM   18  C15 UNL     1      16.145 225.947  39.777  1.00  0.00     0.013 A 
HETATM   19  C16 UNL     1      17.272 225.532  39.068  1.00  0.00     0.101 A 
HETATM   20  N2  UNL     1      17.177 224.842  37.926  1.00  0.00    -0.361 N 
HETATM   21  C17 UNL     1      15.969 224.525  37.422  1.00  0.00     0.180 A 
ATOM     22  H2  UNL     1      18.023 224.555  37.435  1.00  0.00     0.166 HD
HETATM   23  N3  UNL     1      14.866 224.908  38.075  1.00  0.00    -0.361 N 
HETATM   24  C18 UNL     1      14.920 225.602  39.225  1.00  0.00     0.101 A 
ATOM     25  H3  UNL     1      13.953 224.666  37.689  1.00  0.00     0.166 HD
ENDBRANCH   1  18
BRANCH   1  26
HETATM   26  C19 UNL     1      15.138 226.149  41.915  1.00  0.00     0.091 A 
HETATM   27  C20 UNL     1      14.263 226.894  42.668  1.00  0.00     0.038 A 
HETATM   28  C21 UNL     1      13.444 226.003  43.321  1.00  0.00     0.027 A 
HETATM   29  C22 UNL     1      13.857 224.754  42.936  1.00  0.00     0.142 A 
HETATM   30  O2  UNL     1      14.862 224.889  42.104  1.00  0.00    -0.324 OA
ENDBRANCH   1  26
TORSDOF 6
ENDMDL
MODEL 2
REMARK VINA RESULT: -8.895089492      2.291      3.458
REMARK  6 active torsions:
REMARK  status: ('A' for Active; 'I' for Inactive)
REMARK    1  A    between atoms: O1_1  and  C1_3 
REMARK    2  A    between atoms: C1_3  and  C2_4 
REMARK    3  A    between atoms: C1_3  and  C15_18 
REMARK    4  A    between atoms: C1_3  and  C19_26 
REMARK    5  A    between atoms: C2_4  and  C3_5 
REMARK    6  A    between atoms: N1_9  and  C7_10 
ROOT
HETATM    1  C1  UNL     1      15.188 226.724  42.254  1.00  0.00     0.136 C 
ENDROOT
BRANCH   1   2
HETATM    2  O1  UNL     1      14.513 225.951  43.194  1.00  0.00    -0.378 OA
ATOM      3  H1  UNL     1      14.654 226.214  44.096  1.00  0.00     0.211 HD
ENDBRANCH   1   2
BRANCH   1   4
HETATM    4  C2  UNL     1      16.646 226.574  42.277  1.00  0.00     0.055 C 
BRANCH   4   5
HETATM    5  C3  UNL     1      17.276 225.356  42.830  1.00  0.00    -0.009 C 
HETATM    6  C4  UNL     1      18.076 224.498  41.922  1.00  0.00     0.006 C 
HETATM    7  C5  UNL     1      18.743 223.359  42.666  1.00  0.00     0.031 C 
HETATM    8  C6  UNL     1      17.811 222.742  43.668  1.00  0.00     0.273 C 
HETATM    9  N1  UNL     1      18.117 223.284  44.956  1.00  0.00     0.093 N 
HETATM   10  C13 UNL     1      17.524 224.563  45.181  1.00  0.00     0.273 C 
HETATM   11  C14 UNL     1      17.970 225.606  44.160  1.00  0.00     0.035 C 
BRANCH   9  12
HETATM   12  C7  UNL     1      17.783 222.391  46.018  1.00  0.00     0.223 C 
HETATM   13  C8  UNL     1      16.526 221.587  45.687  1.00  0.00     0.036 C 
HETATM   14  C9  UNL     1      16.562 220.375  46.588  1.00  0.00     0.002 C 
HETATM   15  C10 UNL     1      17.066 220.705  47.970  1.00  0.00     0.000 C 
HETATM   16  C11 UNL     1      16.928 222.155  48.330  1.00  0.00     0.002 C 
HETATM   17  C12 UNL     1      17.483 223.105  47.313  1.00  0.00     0.036 C 
ENDBRANCH   9  12
ENDBRANCH   4   5
ENDBRANCH   1   4
BRANCH   1  18
HETATM   18  C15 UNL     1      14.713 228.114  42.224  1.00  0.00     0.013 A 
HETATM   19  C16 UNL     1      14.912 228.944  41.121  1.00  0.00     0.101 A 
HETATM   20  N2  UNL     1      14.499 230.217  41.109  1.00  0.00    -0.361 N 
HETATM   21  C17 UNL     1      13.869 230.738  42.179  1.00  0.00     0.180 A 
ATOM     22  H2  UNL     1      14.662 230.794  40.284  1.00  0.00     0.166 HD
HETATM   23  N3  UNL     1      13.662 229.970  43.255  1.00  0.00    -0.361 N 
HETATM   24  C18 UNL     1      14.061 228.688  43.306  1.00  0.00     0.101 A 
ATOM     25  H3  UNL     1      13.185 230.370  44.063  1.00  0.00     0.166 HD
ENDBRANCH   1  18
BRANCH   1  26
HETATM   26  C19 UNL     1      14.725 226.138  40.911  1.00  0.00     0.091 A 
HETATM   27  C20 UNL     1      13.466 225.652  40.654  1.00  0.00     0.038 A 
HETATM   28  C21 UNL     1      13.465 225.224  39.348  1.00  0.00     0.027 A 
HETATM   29  C22 UNL     1      14.724 225.469  38.866  1.00  0.00     0.142 A 
HETATM   30  O2  UNL     1      15.436 226.010  39.826  1.00  0.00    -0.324 OA
ENDBRANCH   1  26
TORSDOF 6
ENDMDL
MODEL 3
REMARK VINA RESULT: -8.845469297      2.397      3.084
REMARK  6 active torsions:
REMARK  status: ('A' for Active; 'I' for Inactive)
REMARK    1  A    between atoms: O1_1  and  C1_3 
REMARK    2  A    between atoms: C1_3  and  C2_4 
REMARK    3  A    between atoms: C1_3  and  C15_18 
REMARK    4  A    between atoms: C1_3  and  C19_26 
REMARK    5  A    between atoms: C2_4  and  C3_5 
REMARK    6  A    between atoms: N1_9  and  C7_10 
ROOT
HETATM    1  C1  UNL     1      15.169 227.276  42.134  1.00  0.00     0.136 C 
ENDROOT
BRANCH   1   2
HETATM    2  O1  UNL     1      14.552 226.993  43.348  1.00  0.00    -0.378 OA
ATOM      3  H1  UNL     1      13.731 227.448  43.489  1.00  0.00     0.211 HD
ENDBRANCH   1   2
BRANCH   1   4
HETATM    4  C2  UNL     1      16.571 226.856  42.051  1.00  0.00     0.055 C 
BRANCH   4   5
HETATM    5  C3  UNL     1      17.026 225.598  42.679  1.00  0.00    -0.009 C 
HETATM    6  C4  UNL     1      17.613 224.545  41.814  1.00  0.00     0.006 C 
HETATM    7  C5  UNL     1      18.130 223.374  42.624  1.00  0.00     0.031 C 
HETATM    8  C6  UNL     1      17.176 223.007  43.723  1.00  0.00     0.273 C 
HETATM    9  N1  UNL     1      17.650 223.592  44.939  1.00  0.00     0.093 N 
HETATM   10  C13 UNL     1      17.292 224.967  45.077  1.00  0.00     0.273 C 
HETATM   11  C14 UNL     1      17.836 225.833  43.945  1.00  0.00     0.035 C 
BRANCH   9  12
HETATM   12  C7  UNL     1      17.243 222.858  46.093  1.00  0.00     0.223 C 
HETATM   13  C8  UNL     1      17.990 223.333  47.339  1.00  0.00     0.036 C 
HETATM   14  C9  UNL     1      17.156 222.885  48.517  1.00  0.00     0.002 C 
HETATM   15  C10 UNL     1      16.562 221.515  48.308  1.00  0.00     0.000 C 
HETATM   16  C11 UNL     1      17.294 220.690  47.290  1.00  0.00     0.002 C 
HETATM   17  C12 UNL     1      17.531 221.381  45.982  1.00  0.00     0.036 C 
ENDBRANCH   9  12
ENDBRANCH   4   5
ENDBRANCH   1   4
BRANCH   1  18
HETATM   18  C15 UNL     1      14.909 228.648  41.677  1.00  0.00     0.013 A 
HETATM   19  C16 UNL     1      15.589 229.215  40.600  1.00  0.00     0.101 A 
HETATM   20  N2  UNL     1      15.366 230.473  40.204  1.00  0.00    -0.361 N 
HETATM   21  C17 UNL     1      14.463 231.238  40.846  1.00  0.00     0.180 A 
ATOM     22  H2  UNL     1      15.883 230.854  39.412  1.00  0.00     0.166 HD
HETATM   23  N3  UNL     1      13.793 230.726  41.886  1.00  0.00    -0.361 N 
HETATM   24  C18 UNL     1      13.988 229.468  42.313  1.00  0.00     0.101 A 
ATOM     25  H3  UNL     1      13.110 231.311  42.369  1.00  0.00     0.166 HD
ENDBRANCH   1  18
BRANCH   1  26
HETATM   26  C19 UNL     1      14.406 226.395  41.132  1.00  0.00     0.091 A 
HETATM   27  C20 UNL     1      13.179 225.819  41.363  1.00  0.00     0.038 A 
HETATM   28  C21 UNL     1      12.852 225.116  40.227  1.00  0.00     0.027 A 
HETATM   29  C22 UNL     1      13.893 225.296  39.354  1.00  0.00     0.142 A 
HETATM   30  O2  UNL     1      14.790 226.059  39.933  1.00  0.00    -0.324 OA
ENDBRANCH   1  26
TORSDOF 6
ENDMDL
MODEL 4
REMARK VINA RESULT: -8.373631214      2.157      3.264
REMARK  6 active torsions:
REMARK  status: ('A' for Active; 'I' for Inactive)
REMARK    1  A    between atoms: O1_1  and  C1_3 
REMARK    2  A    between atoms: C1_3  and  C2_4 
REMARK    3  A    between atoms: C1_3  and  C15_18 
REMARK    4  A    between atoms: C1_3  and  C19_26 
REMARK    5  A    between atoms: C2_4  and  C3_5 
REMARK    6  A    between atoms: N1_9  and  C7_10 
ROOT
HETATM    1  C1  UNL     1      15.240 226.481  41.772  1.00  0.00     0.136 C 
ENDROOT
BRANCH   1   2
HETATM    2  O1  UNL     1      14.481 225.727  42.661  1.00  0.00    -0.378 OA
ATOM      3  H1  UNL     1      14.550 224.788  42.540  1.00  0.00     0.211 HD
ENDBRANCH   1   2
BRANCH   1   4
HETATM    4  C2  UNL     1      16.679 226.203  41.812  1.00  0.00     0.055 C 
BRANCH   4   5
HETATM    5  C3  UNL     1      17.216 225.093  42.627  1.00  0.00    -0.009 C 
HETATM    6  C4  UNL     1      18.114 224.107  41.978  1.00  0.00     0.006 C 
HETATM    7  C5  UNL     1      18.664 223.105  42.973  1.00  0.00     0.031 C 
HETATM    8  C6  UNL     1      17.602 222.649  43.931  1.00  0.00     0.273 C 
HETATM    9  N1  UNL     1      17.748 223.390  45.145  1.00  0.00     0.093 N 
HETATM   10  C13 UNL     1      17.149 224.684  45.086  1.00  0.00     0.273 C 
HETATM   11  C14 UNL     1      17.736 225.556  43.979  1.00  0.00     0.035 C 
BRANCH   9  12
HETATM   12  C7  UNL     1      17.268 222.676  46.283  1.00  0.00     0.223 C 
HETATM   13  C8  UNL     1      17.906 223.197  47.570  1.00  0.00     0.036 C 
HETATM   14  C9  UNL     1      16.993 222.759  48.691  1.00  0.00     0.002 C 
HETATM   15  C10 UNL     1      16.444 221.372  48.472  1.00  0.00     0.000 C 
HETATM   16  C11 UNL     1      17.270 220.539  47.536  1.00  0.00     0.002 C 
HETATM   17  C12 UNL     1      17.593 221.203  46.232  1.00  0.00     0.036 C 
ENDBRANCH   9  12
ENDBRANCH   4   5
ENDBRANCH   1   4
BRANCH   1  18
HETATM   18  C15 UNL     1      14.888 227.907  41.800  1.00  0.00     0.013 A 
HETATM   19  C16 UNL     1      14.183 228.479  42.859  1.00  0.00     0.101 A 
HETATM   20  N2  UNL     1      13.843 229.773  42.867  1.00  0.00    -0.361 N 
HETATM   21  C17 UNL     1      14.180 230.571  41.837  1.00  0.00     0.180 A 
ATOM     22  H2  UNL     1      13.327 230.156  43.659  1.00  0.00     0.166 HD
HETATM   23  N3  UNL     1      14.856 230.055  40.803  1.00  0.00    -0.361 N 
HETATM   24  C18 UNL     1      15.215 228.762  40.757  1.00  0.00     0.101 A 
ATOM     25  H3  UNL     1      15.108 230.665  40.024  1.00  0.00     0.166 HD
ENDBRANCH   1  18
BRANCH   1  26
HETATM   26  C19 UNL     1      14.758 226.001  40.394  1.00  0.00     0.091 A 
HETATM   27  C20 UNL     1      13.468 225.632  40.094  1.00  0.00     0.038 A 
HETATM   28  C21 UNL     1      13.457 225.269  38.768  1.00  0.00     0.027 A 
HETATM   29  C22 UNL     1      14.741 225.434  38.318  1.00  0.00     0.142 A 
HETATM   30  O2  UNL     1      15.476 225.868  39.314  1.00  0.00    -0.324 OA
ENDBRANCH   1  26
TORSDOF 6
ENDMDL
MODEL 5
REMARK VINA RESULT: -8.044108767      2.004      7.245
REMARK  6 active torsions:
REMARK  status: ('A' for Active; 'I' for Inactive)
REMARK    1  A    between atoms: O1_1  and  C1_3 
REMARK    2  A    between atoms: C1_3  and  C2_4 
REMARK    3  A    between atoms: C1_3  and  C15_18 
REMARK    4  A    between atoms: C1_3  and  C19_26 
REMARK    5  A    between atoms: C2_4  and  C3_5 
REMARK    6  A    between atoms: N1_9  and  C7_10 
ROOT
HETATM    1  C1  UNL     1      16.984 223.540  43.902  1.00  0.00     0.136 C 
ENDROOT
BRANCH   1   2
HETATM    2  O1  UNL     1      17.136 222.524  42.964  1.00  0.00    -0.378 OA
ATOM      3  H1  UNL     1      16.369 222.363  42.428  1.00  0.00     0.211 HD
ENDBRANCH   1   2
BRANCH   1   4
HETATM    4  C2  UNL     1      15.639 224.123  43.954  1.00  0.00     0.055 C 
BRANCH   4   5
HETATM    5  C3  UNL     1      15.021 224.715  42.750  1.00  0.00    -0.009 C 
HETATM    6  C4  UNL     1      13.553 224.932  42.741  1.00  0.00     0.006 C 
HETATM    7  C5  UNL     1      13.097 225.648  41.486  1.00  0.00     0.031 C 
HETATM    8  C6  UNL     1      13.792 225.111  40.269  1.00  0.00     0.273 C 
HETATM    9  N1  UNL     1      14.871 225.992  39.945  1.00  0.00     0.093 N 
HETATM   10  C13 UNL     1      16.041 225.755  40.726  1.00  0.00     0.273 C 
HETATM   11  C14 UNL     1      15.792 225.915  42.224  1.00  0.00     0.035 C 
BRANCH   9  12
HETATM   12  C7  UNL     1      15.193 225.973  38.555  1.00  0.00     0.223 C 
HETATM   13  C8  UNL     1      14.173 225.153  37.764  1.00  0.00     0.036 C 
HETATM   14  C9  UNL     1      14.301 225.609  36.330  1.00  0.00     0.002 C 
HETATM   15  C10 UNL     1      15.733 225.861  35.935  1.00  0.00     0.000 C 
HETATM   16  C11 UNL     1      16.731 225.146  36.798  1.00  0.00     0.002 C 
HETATM   17  C12 UNL     1      16.534 225.343  38.270  1.00  0.00     0.036 C 
ENDBRANCH   9  12
ENDBRANCH   4   5
ENDBRANCH   1   4
BRANCH   1  18
HETATM   18  C15 UNL     1      18.078 224.519  43.853  1.00  0.00     0.013 A 
HETATM   19  C16 UNL     1      18.251 225.491  44.839  1.00  0.00     0.101 A 
HETATM   20  N2  UNL     1      19.234 226.396  44.777  1.00  0.00    -0.361 N 
HETATM   21  C17 UNL     1      20.097 226.392  43.743  1.00  0.00     0.180 A 
ATOM     22  H2  UNL     1      19.330 227.092  45.516  1.00  0.00     0.166 HD
HETATM   23  N3  UNL     1      19.960 225.474  42.778  1.00  0.00    -0.361 N 
HETATM   24  C18 UNL     1      18.986 224.549  42.805  1.00  0.00     0.101 A 
ATOM     25  H3  UNL     1      20.616 225.477  41.997  1.00  0.00     0.166 HD
ENDBRANCH   1  18
BRANCH   1  26
HETATM   26  C19 UNL     1      17.182 222.820  45.245  1.00  0.00     0.091 A 
HETATM   27  C20 UNL     1      16.719 221.560  45.540  1.00  0.00     0.038 A 
HETATM   28  C21 UNL     1      17.102 221.289  46.833  1.00  0.00     0.027 A 
HETATM   29  C22 UNL     1      17.784 222.396  47.267  1.00  0.00     0.142 A 
HETATM   30  O2  UNL     1      17.806 223.276  46.295  1.00  0.00    -0.324 OA
ENDBRANCH   1  26
TORSDOF 6
ENDMDL
