MODEL 1
REMARK VINA RESULT: -8.842375786      0.000      0.000
REMARK  11 active torsions:
REMARK  status: ('A' for Active; 'I' for Inactive)
REMARK    1  A    between atoms: C2_2  and  C3_3 
REMARK    2  A    between atoms: C3_3  and  C4_4 
REMARK    3  A    between atoms: N3_8  and  C5_9 
REMARK    4  A    between atoms: C7_11  and  O1_12 
REMARK    5  A    between atoms: O1_12  and  C8_13 
REMARK    6  A    between atoms: C9_16  and  N5_17 
REMARK    7  A    between atoms: C10_22  and  N7_23 
REMARK    8  A    between atoms: C11_30  and  N10_31 
REMARK    9  A    between atoms: N10_31  and  C12_33 
REMARK   10  A    between atoms: C12_33  and  C13_34 
REMARK   11  A    between atoms: C13_34  and  O2_35 
ROOT
HETATM    1  C5  UNL     1     -43.660   0.580 -14.223  1.00  0.00     0.162 A 
HETATM    2  C6  UNL     1     -42.385   0.890 -13.782  1.00  0.00     0.109 A 
HETATM    3  C7  UNL     1     -41.408  -0.074 -13.641  1.00  0.00     0.170 A 
HETATM    4  N9  UNL     1     -41.742  -1.337 -13.951  1.00  0.00    -0.170 N 
ATOM      5  H9  UNL     1     -41.037  -2.068 -13.854  1.00  0.00     0.186 HD
HETATM    6  C11 UNL     1     -42.972  -1.676 -14.384  1.00  0.00     0.681 A 
HETATM    7  N11 UNL     1     -43.915  -0.700 -14.512  1.00  0.00    -0.173 N 
ATOM      8  H11 UNL     1     -44.847  -0.955 -14.839  1.00  0.00     0.186 HD
ENDROOT
BRANCH   3   9
HETATM    9  O1  UNL     1     -40.182   0.306 -13.202  1.00  0.00    -0.261 OA
BRANCH   9  10
HETATM   10  C8  UNL     1     -38.995   0.173 -13.905  1.00  0.00     0.259 A 
HETATM   11  N4  UNL     1     -38.240  -0.921 -13.704  1.00  0.00    -0.154 N 
HETATM   12  C9  UNL     1     -37.067  -1.115 -14.359  1.00  0.00     0.693 A 
ATOM     13  H4  UNL     1     -38.557  -1.627 -13.039  1.00  0.00     0.188 HD
HETATM   14  N6  UNL     1     -36.656  -0.181 -15.232  1.00  0.00    -0.023 N 
HETATM   15  C10 UNL     1     -37.385   0.924 -15.456  1.00  0.00     0.693 A 
ATOM     16  H6  UNL     1     -35.777  -0.313 -15.732  1.00  0.00     0.203 HD
HETATM   17  N8  UNL     1     -38.540   1.078 -14.787  1.00  0.00    -0.154 N 
ATOM     18  H8  UNL     1     -39.096   1.917 -14.957  1.00  0.00     0.188 HD
BRANCH  12  19
HETATM   19  N5  UNL     1     -36.342  -2.178 -14.158  1.00  0.00    -0.234 N 
ATOM     20  H52 UNL     1     -36.331  -2.924 -14.853  1.00  0.00     0.174 HD
ATOM     21  H51 UNL     1     -35.779  -2.288 -13.315  1.00  0.00     0.174 HD
ENDBRANCH  12  19
BRANCH  15  22
HETATM   22  N7  UNL     1     -36.971   1.807 -16.297  1.00  0.00    -0.234 N 
ATOM     23  H72 UNL     1     -36.119   1.669 -16.840  1.00  0.00     0.174 HD
ATOM     24  H71 UNL     1     -37.499   2.669 -16.432  1.00  0.00     0.174 HD
ENDBRANCH  15  22
ENDBRANCH   9  10
ENDBRANCH   3   9
BRANCH   1  25
HETATM   25  N3  UNL     1     -44.627   1.615 -14.349  1.00  0.00    -0.161 N 
HETATM   26  N2  UNL     1     -44.860   2.582 -13.466  1.00  0.00     0.004 NA
HETATM   27  N1  UNL     1     -45.827   3.365 -13.914  1.00  0.00    -0.270 N 
HETATM   28  C4  UNL     1     -46.226   2.897 -15.107  1.00  0.00     0.110 A 
ATOM     29  H1  UNL     1     -46.205   4.183 -13.435  1.00  0.00     0.185 HD
HETATM   30  N12 UNL     1     -45.454   1.813 -15.334  1.00  0.00    -0.267 N 
ATOM     31  H12 UNL     1     -45.511   1.226 -16.166  1.00  0.00     0.190 HD
BRANCH  28  32
HETATM   32  C3  UNL     1     -47.269   3.401 -16.022  1.00  0.00     0.078 C 
BRANCH  32  33
HETATM   33  C2  UNL     1     -47.878   4.648 -15.431  1.00  0.00     0.003 C 
HETATM   34  C1  UNL     1     -49.357   4.732 -15.643  1.00  0.00     0.005 C 
ENDBRANCH  32  33
ENDBRANCH  28  32
ENDBRANCH   1  25
BRANCH   6  35
HETATM   35  N10 UNL     1     -43.270  -2.906 -14.679  1.00  0.00    -0.224 N 
ATOM     36  H10 UNL     1     -43.130  -3.221 -15.639  1.00  0.00     0.177 HD
BRANCH  35  37
HETATM   37  C12 UNL     1     -43.784  -3.840 -13.726  1.00  0.00     0.164 C 
BRANCH  37  38
HETATM   38  C13 UNL     1     -42.622  -4.623 -13.154  1.00  0.00     0.184 C 
BRANCH  38  39
HETATM   39  O2  UNL     1     -41.872  -5.198 -14.182  1.00  0.00    -0.399 OA
ATOM     40  H2  UNL     1     -41.617  -4.537 -14.815  1.00  0.00     0.209 HD
ENDBRANCH  38  39
ENDBRANCH  37  38
ENDBRANCH  35  37
ENDBRANCH   6  35
TORSDOF 11
ENDMDL
MODEL 2
REMARK VINA RESULT: -8.787156886      0.507      1.608
REMARK  11 active torsions:
REMARK  status: ('A' for Active; 'I' for Inactive)
REMARK    1  A    between atoms: C2_2  and  C3_3 
REMARK    2  A    between atoms: C3_3  and  C4_4 
REMARK    3  A    between atoms: N3_8  and  C5_9 
REMARK    4  A    between atoms: C7_11  and  O1_12 
REMARK    5  A    between atoms: O1_12  and  C8_13 
REMARK    6  A    between atoms: C9_16  and  N5_17 
REMARK    7  A    between atoms: C10_22  and  N7_23 
REMARK    8  A    between atoms: C11_30  and  N10_31 
REMARK    9  A    between atoms: N10_31  and  C12_33 
REMARK   10  A    between atoms: C12_33  and  C13_34 
REMARK   11  A    between atoms: C13_34  and  O2_35 
ROOT
HETATM    1  C5  UNL     1     -43.845   0.666 -14.337  1.00  0.00     0.162 A 
HETATM    2  C6  UNL     1     -42.577   0.969 -13.869  1.00  0.00     0.109 A 
HETATM    3  C7  UNL     1     -41.628  -0.008 -13.651  1.00  0.00     0.170 A 
HETATM    4  N9  UNL     1     -41.980  -1.276 -13.911  1.00  0.00    -0.170 N 
ATOM      5  H9  UNL     1     -41.295  -2.017 -13.757  1.00  0.00     0.186 HD
HETATM    6  C11 UNL     1     -43.203  -1.610 -14.369  1.00  0.00     0.681 A 
HETATM    7  N11 UNL     1     -44.119  -0.621 -14.574  1.00  0.00    -0.173 N 
ATOM      8  H11 UNL     1     -45.046  -0.872 -14.919  1.00  0.00     0.186 HD
ENDROOT
BRANCH   3   9
HETATM    9  O1  UNL     1     -40.408   0.367 -13.190  1.00  0.00    -0.261 OA
BRANCH   9  10
HETATM   10  C8  UNL     1     -39.213   0.253 -13.881  1.00  0.00     0.259 A 
HETATM   11  N4  UNL     1     -38.840   1.250 -14.704  1.00  0.00    -0.154 N 
HETATM   12  C9  UNL     1     -37.682   1.204 -15.411  1.00  0.00     0.693 A 
ATOM     13  H4  UNL     1     -39.445   2.066 -14.801  1.00  0.00     0.188 HD
HETATM   14  N6  UNL     1     -36.891   0.127 -15.278  1.00  0.00    -0.023 N 
HETATM   15  C10 UNL     1     -37.233  -0.887 -14.466  1.00  0.00     0.693 A 
ATOM     16  H6  UNL     1     -36.017   0.078 -15.802  1.00  0.00     0.203 HD
HETATM   17  N8  UNL     1     -38.387  -0.802 -13.784  1.00  0.00    -0.154 N 
ATOM     18  H8  UNL     1     -38.648  -1.571 -13.167  1.00  0.00     0.188 HD
BRANCH  12  19
HETATM   19  N5  UNL     1     -37.329   2.174 -16.204  1.00  0.00    -0.234 N 
ATOM     20  H52 UNL     1     -37.990   2.531 -16.894  1.00  0.00     0.174 HD
ATOM     21  H51 UNL     1     -36.401   2.592 -16.155  1.00  0.00     0.174 HD
ENDBRANCH  12  19
BRANCH  15  22
HETATM   22  N7  UNL     1     -36.459  -1.909 -14.356  1.00  0.00    -0.234 N 
ATOM     23  H72 UNL     1     -36.587  -2.741 -14.932  1.00  0.00     0.174 HD
ATOM     24  H71 UNL     1     -35.696  -1.900 -13.679  1.00  0.00     0.174 HD
ENDBRANCH  15  22
ENDBRANCH   9  10
ENDBRANCH   3   9
BRANCH   1  25
HETATM   25  N3  UNL     1     -44.783   1.714 -14.544  1.00  0.00    -0.161 N 
HETATM   26  N2  UNL     1     -45.030   2.721 -13.710  1.00  0.00     0.004 NA
HETATM   27  N1  UNL     1     -45.961   3.504 -14.228  1.00  0.00    -0.270 N 
HETATM   28  C4  UNL     1     -46.323   2.995 -15.416  1.00  0.00     0.110 A 
ATOM     29  H1  UNL     1     -46.339   4.348 -13.799  1.00  0.00     0.185 HD
HETATM   30  N12 UNL     1     -45.566   1.887 -15.568  1.00  0.00    -0.267 N 
ATOM     31  H12 UNL     1     -45.604   1.267 -16.377  1.00  0.00     0.190 HD
BRANCH  28  32
HETATM   32  C3  UNL     1     -47.318   3.481 -16.392  1.00  0.00     0.078 C 
BRANCH  32  33
HETATM   33  C2  UNL     1     -48.241   4.457 -15.705  1.00  0.00     0.003 C 
HETATM   34  C1  UNL     1     -49.683   4.223 -16.030  1.00  0.00     0.005 C 
ENDBRANCH  32  33
ENDBRANCH  28  32
ENDBRANCH   1  25
BRANCH   6  35
HETATM   35  N10 UNL     1     -43.519  -2.846 -14.615  1.00  0.00    -0.224 N 
ATOM     36  H10 UNL     1     -43.906  -3.073 -15.531  1.00  0.00     0.177 HD
BRANCH  35  37
HETATM   37  C12 UNL     1     -43.353  -3.903 -13.667  1.00  0.00     0.164 C 
BRANCH  37  38
HETATM   38  C13 UNL     1     -42.059  -4.623 -13.982  1.00  0.00     0.184 C 
BRANCH  38  39
HETATM   39  O2  UNL     1     -41.020  -4.119 -13.198  1.00  0.00    -0.399 OA
ATOM     40  H2  UNL     1     -40.812  -4.724 -12.496  1.00  0.00     0.209 HD
ENDBRANCH  38  39
ENDBRANCH  37  38
ENDBRANCH  35  37
ENDBRANCH   6  35
TORSDOF 11
ENDMDL
MODEL 3
REMARK VINA RESULT: -8.690229935      1.289      1.643
REMARK  11 active torsions:
REMARK  status: ('A' for Active; 'I' for Inactive)
REMARK    1  A    between atoms: C2_2  and  C3_3 
REMARK    2  A    between atoms: C3_3  and  C4_4 
REMARK    3  A    between atoms: N3_8  and  C5_9 
REMARK    4  A    between atoms: C7_11  and  O1_12 
REMARK    5  A    between atoms: O1_12  and  C8_13 
REMARK    6  A    between atoms: C9_16  and  N5_17 
REMARK    7  A    between atoms: C10_22  and  N7_23 
REMARK    8  A    between atoms: C11_30  and  N10_31 
REMARK    9  A    between atoms: N10_31  and  C12_33 
REMARK   10  A    between atoms: C12_33  and  C13_34 
REMARK   11  A    between atoms: C13_34  and  O2_35 
ROOT
HETATM    1  C5  UNL     1     -43.581   0.140 -14.453  1.00  0.00     0.162 A 
HETATM    2  C6  UNL     1     -42.327   0.508 -13.995  1.00  0.00     0.109 A 
HETATM    3  C7  UNL     1     -41.394  -0.427 -13.597  1.00  0.00     0.170 A 
HETATM    4  N9  UNL     1     -41.748  -1.719 -13.670  1.00  0.00    -0.170 N 
ATOM      5  H9  UNL     1     -41.075  -2.429 -13.380  1.00  0.00     0.186 HD
HETATM    6  C11 UNL     1     -42.959  -2.115 -14.111  1.00  0.00     0.681 A 
HETATM    7  N11 UNL     1     -43.859  -1.167 -14.497  1.00  0.00    -0.173 N 
ATOM      8  H11 UNL     1     -44.776  -1.465 -14.831  1.00  0.00     0.186 HD
ENDROOT
BRANCH   3   9
HETATM    9  O1  UNL     1     -40.186   0.010 -13.159  1.00  0.00    -0.261 OA
BRANCH   9  10
HETATM   10  C8  UNL     1     -38.999  -0.051 -13.869  1.00  0.00     0.259 A 
HETATM   11  N4  UNL     1     -38.206  -1.128 -13.721  1.00  0.00    -0.154 N 
HETATM   12  C9  UNL     1     -37.030  -1.253 -14.387  1.00  0.00     0.693 A 
ATOM     13  H4  UNL     1     -38.498  -1.874 -13.089  1.00  0.00     0.188 HD
HETATM   14  N6  UNL     1     -36.654  -0.266 -15.216  1.00  0.00    -0.023 N 
HETATM   15  C10 UNL     1     -37.420   0.824 -15.387  1.00  0.00     0.693 A 
ATOM     16  H6  UNL     1     -35.773  -0.345 -15.724  1.00  0.00     0.203 HD
HETATM   17  N8  UNL     1     -38.577   0.908 -14.710  1.00  0.00    -0.154 N 
ATOM     18  H8  UNL     1     -39.160   1.735 -14.840  1.00  0.00     0.188 HD
BRANCH  12  19
HETATM   19  N5  UNL     1     -36.271  -2.299 -14.237  1.00  0.00    -0.234 N 
ATOM     20  H52 UNL     1     -36.545  -3.038 -13.590  1.00  0.00     0.174 HD
ATOM     21  H51 UNL     1     -35.398  -2.403 -14.754  1.00  0.00     0.174 HD
ENDBRANCH  12  19
BRANCH  15  22
HETATM   22  N7  UNL     1     -37.038   1.758 -16.188  1.00  0.00    -0.234 N 
ATOM     23  H72 UNL     1     -36.063   2.052 -16.239  1.00  0.00     0.174 HD
ATOM     24  H71 UNL     1     -37.718   2.222 -16.789  1.00  0.00     0.174 HD
ENDBRANCH  15  22
ENDBRANCH   9  10
ENDBRANCH   3   9
BRANCH   1  25
HETATM   25  N3  UNL     1     -44.503   1.147 -14.851  1.00  0.00    -0.161 N 
HETATM   26  N2  UNL     1     -45.562   1.558 -14.158  1.00  0.00     0.004 NA
HETATM   27  N1  UNL     1     -46.189   2.506 -14.833  1.00  0.00    -0.270 N 
HETATM   28  C4  UNL     1     -45.525   2.712 -15.981  1.00  0.00     0.110 A 
ATOM     29  H1  UNL     1     -47.032   2.996 -14.533  1.00  0.00     0.185 HD
HETATM   30  N12 UNL     1     -44.489   1.847 -15.947  1.00  0.00    -0.267 N 
ATOM     31  H12 UNL     1     -43.788   1.754 -16.682  1.00  0.00     0.190 HD
BRANCH  28  32
HETATM   32  C3  UNL     1     -45.806   3.654 -17.082  1.00  0.00     0.078 C 
BRANCH  32  33
HETATM   33  C2  UNL     1     -44.643   3.645 -18.044  1.00  0.00     0.003 C 
HETATM   34  C1  UNL     1     -45.072   3.654 -19.477  1.00  0.00     0.005 C 
ENDBRANCH  32  33
ENDBRANCH  28  32
ENDBRANCH   1  25
BRANCH   6  35
HETATM   35  N10 UNL     1     -43.278  -3.373 -14.174  1.00  0.00    -0.224 N 
ATOM     36  H10 UNL     1     -44.180  -3.624 -14.577  1.00  0.00     0.177 HD
BRANCH  35  37
HETATM   37  C12 UNL     1     -42.427  -4.423 -13.706  1.00  0.00     0.164 C 
BRANCH  37  38
HETATM   38  C13 UNL     1     -43.151  -5.164 -12.602  1.00  0.00     0.184 C 
BRANCH  38  39
HETATM   39  O2  UNL     1     -42.775  -6.508 -12.592  1.00  0.00    -0.399 OA
ATOM     40  H2  UNL     1     -43.278  -6.987 -11.943  1.00  0.00     0.209 HD
ENDBRANCH  38  39
ENDBRANCH  37  38
ENDBRANCH  35  37
ENDBRANCH   6  35
TORSDOF 11
ENDMDL
MODEL 4
REMARK VINA RESULT: -8.627097685      1.313      2.263
REMARK  11 active torsions:
REMARK  status: ('A' for Active; 'I' for Inactive)
REMARK    1  A    between atoms: C2_2  and  C3_3 
REMARK    2  A    between atoms: C3_3  and  C4_4 
REMARK    3  A    between atoms: N3_8  and  C5_9 
REMARK    4  A    between atoms: C7_11  and  O1_12 
REMARK    5  A    between atoms: O1_12  and  C8_13 
REMARK    6  A    between atoms: C9_16  and  N5_17 
REMARK    7  A    between atoms: C10_22  and  N7_23 
REMARK    8  A    between atoms: C11_30  and  N10_31 
REMARK    9  A    between atoms: N10_31  and  C12_33 
REMARK   10  A    between atoms: C12_33  and  C13_34 
REMARK   11  A    between atoms: C13_34  and  O2_35 
ROOT
HETATM    1  C5  UNL     1     -43.548   0.141 -14.466  1.00  0.00     0.162 A 
HETATM    2  C6  UNL     1     -42.295   0.504 -14.000  1.00  0.00     0.109 A 
HETATM    3  C7  UNL     1     -41.369  -0.435 -13.593  1.00  0.00     0.170 A 
HETATM    4  N9  UNL     1     -41.730  -1.725 -13.664  1.00  0.00    -0.170 N 
ATOM      5  H9  UNL     1     -41.063  -2.438 -13.368  1.00  0.00     0.186 HD
HETATM    6  C11 UNL     1     -42.940  -2.116 -14.112  1.00  0.00     0.681 A 
HETATM    7  N11 UNL     1     -43.832  -1.164 -14.507  1.00  0.00    -0.173 N 
ATOM      8  H11 UNL     1     -44.749  -1.459 -14.846  1.00  0.00     0.186 HD
ENDROOT
BRANCH   3   9
HETATM    9  O1  UNL     1     -40.163  -0.002 -13.149  1.00  0.00    -0.261 OA
BRANCH   9  10
HETATM   10  C8  UNL     1     -38.953  -0.167 -13.804  1.00  0.00     0.259 A 
HETATM   11  N4  UNL     1     -38.535   0.792 -14.649  1.00  0.00    -0.154 N 
HETATM   12  C9  UNL     1     -37.360   0.695 -15.323  1.00  0.00     0.693 A 
ATOM     13  H4  UNL     1     -39.118   1.618 -14.788  1.00  0.00     0.188 HD
HETATM   14  N6  UNL     1     -36.600  -0.395 -15.134  1.00  0.00    -0.023 N 
HETATM   15  C10 UNL     1     -36.987  -1.373 -14.298  1.00  0.00     0.693 A 
ATOM     16  H6  UNL     1     -35.714  -0.482 -15.633  1.00  0.00     0.203 HD
HETATM   17  N8  UNL     1     -38.156  -1.237 -13.650  1.00  0.00    -0.154 N 
ATOM     18  H8  UNL     1     -38.451  -1.979 -13.015  1.00  0.00     0.188 HD
BRANCH  12  19
HETATM   19  N5  UNL     1     -36.965   1.629 -16.138  1.00  0.00    -0.234 N 
ATOM     20  H52 UNL     1     -36.010   1.984 -16.080  1.00  0.00     0.174 HD
ATOM     21  H51 UNL     1     -37.588   2.021 -16.843  1.00  0.00     0.174 HD
ENDBRANCH  12  19
BRANCH  15  22
HETATM   22  N7  UNL     1     -36.241  -2.409 -14.134  1.00  0.00    -0.234 N 
ATOM     23  H72 UNL     1     -35.258  -2.408 -14.403  1.00  0.00     0.174 HD
ATOM     24  H71 UNL     1     -36.632  -3.258 -13.725  1.00  0.00     0.174 HD
ENDBRANCH  15  22
ENDBRANCH   9  10
ENDBRANCH   3   9
BRANCH   1  25
HETATM   25  N3  UNL     1     -44.462   1.152 -14.872  1.00  0.00    -0.161 N 
HETATM   26  N2  UNL     1     -45.538   1.552 -14.200  1.00  0.00     0.004 NA
HETATM   27  N1  UNL     1     -46.150   2.508 -14.878  1.00  0.00    -0.270 N 
HETATM   28  C4  UNL     1     -45.460   2.729 -16.007  1.00  0.00     0.110 A 
ATOM     29  H1  UNL     1     -47.001   2.993 -14.591  1.00  0.00     0.185 HD
HETATM   30  N12 UNL     1     -44.423   1.865 -15.959  1.00  0.00    -0.267 N 
ATOM     31  H12 UNL     1     -43.706   1.782 -16.679  1.00  0.00     0.190 HD
BRANCH  28  32
HETATM   32  C3  UNL     1     -45.717   3.684 -17.102  1.00  0.00     0.078 C 
BRANCH  32  33
HETATM   33  C2  UNL     1     -44.597   3.588 -18.110  1.00  0.00     0.003 C 
HETATM   34  C1  UNL     1     -45.082   3.604 -19.525  1.00  0.00     0.005 C 
ENDBRANCH  32  33
ENDBRANCH  28  32
ENDBRANCH   1  25
BRANCH   6  35
HETATM   35  N10 UNL     1     -43.265  -3.373 -14.173  1.00  0.00    -0.224 N 
ATOM     36  H10 UNL     1     -44.171  -3.619 -14.571  1.00  0.00     0.177 HD
BRANCH  35  37
HETATM   37  C12 UNL     1     -42.416  -4.427 -13.711  1.00  0.00     0.164 C 
BRANCH  37  38
HETATM   38  C13 UNL     1     -43.140  -5.169 -12.607  1.00  0.00     0.184 C 
BRANCH  38  39
HETATM   39  O2  UNL     1     -42.769  -6.514 -12.603  1.00  0.00    -0.399 OA
ATOM     40  H2  UNL     1     -42.318  -6.730 -11.795  1.00  0.00     0.209 HD
ENDBRANCH  38  39
ENDBRANCH  37  38
ENDBRANCH  35  37
ENDBRANCH   6  35
TORSDOF 11
ENDMDL
MODEL 5
REMARK VINA RESULT: -8.448987961      2.070      6.187
REMARK  11 active torsions:
REMARK  status: ('A' for Active; 'I' for Inactive)
REMARK    1  A    between atoms: C2_2  and  C3_3 
REMARK    2  A    between atoms: C3_3  and  C4_4 
REMARK    3  A    between atoms: N3_8  and  C5_9 
REMARK    4  A    between atoms: C7_11  and  O1_12 
REMARK    5  A    between atoms: O1_12  and  C8_13 
REMARK    6  A    between atoms: C9_16  and  N5_17 
REMARK    7  A    between atoms: C10_22  and  N7_23 
REMARK    8  A    between atoms: C11_30  and  N10_31 
REMARK    9  A    between atoms: N10_31  and  C12_33 
REMARK   10  A    between atoms: C12_33  and  C13_34 
REMARK   11  A    between atoms: C13_34  and  O2_35 
ROOT
HETATM    1  C5  UNL     1     -42.757  -1.576 -13.906  1.00  0.00     0.162 A 
HETATM    2  C6  UNL     1     -41.582  -0.893 -13.640  1.00  0.00     0.109 A 
HETATM    3  C7  UNL     1     -41.404   0.423 -14.012  1.00  0.00     0.170 A 
HETATM    4  N9  UNL     1     -42.420   1.025 -14.648  1.00  0.00    -0.170 N 
ATOM      5  H9  UNL     1     -42.312   1.998 -14.934  1.00  0.00     0.186 HD
HETATM    6  C11 UNL     1     -43.579   0.393 -14.925  1.00  0.00     0.681 A 
HETATM    7  N11 UNL     1     -43.723  -0.908 -14.544  1.00  0.00    -0.173 N 
ATOM      8  H11 UNL     1     -44.599  -1.388 -14.752  1.00  0.00     0.186 HD
ENDROOT
BRANCH   3   9
HETATM    9  O1  UNL     1     -40.224   1.025 -13.717  1.00  0.00    -0.261 OA
BRANCH   9  10
HETATM   10  C8  UNL     1     -39.000   0.729 -14.293  1.00  0.00     0.259 A 
HETATM   11  N4  UNL     1     -38.381  -0.417 -13.956  1.00  0.00    -0.154 N 
HETATM   12  C9  UNL     1     -37.181  -0.769 -14.483  1.00  0.00     0.693 A 
ATOM     13  H4  UNL     1     -38.828  -1.041 -13.283  1.00  0.00     0.188 HD
HETATM   14  N6  UNL     1     -36.600   0.058 -15.366  1.00  0.00    -0.023 N 
HETATM   15  C10 UNL     1     -37.188   1.211 -15.726  1.00  0.00     0.693 A 
ATOM     16  H6  UNL     1     -35.698  -0.193 -15.772  1.00  0.00     0.203 HD
HETATM   17  N8  UNL     1     -38.377   1.522 -15.181  1.00  0.00    -0.154 N 
ATOM     18  H8  UNL     1     -38.825   2.396 -15.453  1.00  0.00     0.188 HD
BRANCH  12  19
HETATM   19  N5  UNL     1     -36.591  -1.880 -14.150  1.00  0.00    -0.234 N 
ATOM     20  H52 UNL     1     -36.370  -2.066 -13.171  1.00  0.00     0.174 HD
ATOM     21  H51 UNL     1     -36.340  -2.581 -14.847  1.00  0.00     0.174 HD
ENDBRANCH  12  19
BRANCH  15  22
HETATM   22  N7  UNL     1     -36.612   1.988 -16.575  1.00  0.00    -0.234 N 
ATOM     23  H72 UNL     1     -36.567   1.756 -17.567  1.00  0.00     0.174 HD
ATOM     24  H71 UNL     1     -36.187   2.860 -16.260  1.00  0.00     0.174 HD
ENDBRANCH  15  22
ENDBRANCH   9  10
ENDBRANCH   3   9
BRANCH   1  25
HETATM   25  N3  UNL     1     -42.884  -2.933 -13.500  1.00  0.00    -0.161 N 
HETATM   26  N2  UNL     1     -43.914  -3.735 -13.756  1.00  0.00     0.004 NA
HETATM   27  N1  UNL     1     -43.689  -4.925 -13.225  1.00  0.00    -0.270 N 
HETATM   28  C4  UNL     1     -42.495  -4.892 -12.614  1.00  0.00     0.110 A 
ATOM     29  H1  UNL     1     -44.316  -5.728 -13.271  1.00  0.00     0.185 HD
HETATM   30  N12 UNL     1     -42.035  -3.638 -12.812  1.00  0.00    -0.267 N 
ATOM     31  H12 UNL     1     -41.141  -3.289 -12.467  1.00  0.00     0.190 HD
BRANCH  28  32
HETATM   32  C3  UNL     1     -41.780  -5.949 -11.873  1.00  0.00     0.078 C 
BRANCH  32  33
HETATM   33  C2  UNL     1     -40.953  -5.312 -10.784  1.00  0.00     0.003 C 
HETATM   34  C1  UNL     1     -39.483  -5.518 -10.972  1.00  0.00     0.005 C 
ENDBRANCH  32  33
ENDBRANCH  28  32
ENDBRANCH   1  25
BRANCH   6  35
HETATM   35  N10 UNL     1     -44.549   0.998 -15.540  1.00  0.00    -0.224 N 
ATOM     36  H10 UNL     1     -45.147   0.450 -16.158  1.00  0.00     0.177 HD
BRANCH  35  37
HETATM   37  C12 UNL     1     -44.821   2.395 -15.396  1.00  0.00     0.164 C 
BRANCH  37  38
HETATM   38  C13 UNL     1     -45.691   2.585 -14.172  1.00  0.00     0.184 C 
BRANCH  38  39
HETATM   39  O2  UNL     1     -45.261   3.692 -13.438  1.00  0.00    -0.399 OA
ATOM     40  H2  UNL     1     -45.436   3.563 -12.513  1.00  0.00     0.209 HD
ENDBRANCH  38  39
ENDBRANCH  37  38
ENDBRANCH  35  37
ENDBRANCH   6  35
TORSDOF 11
ENDMDL
