MODEL 1
REMARK VINA RESULT: -7.588102265      0.000      0.000
REMARK  10 active torsions:
REMARK  status: ('A' for Active; 'I' for Inactive)
REMARK    1  A    between atoms: O1_2  and  C2_3 
REMARK    2  A    between atoms: C2_3  and  C3_5 
REMARK    3  A    between atoms: N1_7  and  N2_9 
REMARK       I    between atoms: N2_9  and  C5_11 
REMARK    4  A    between atoms: C5_11  and  C6_13 
REMARK    5  A    between atoms: C7_14  and  C8_15 
REMARK    6  A    between atoms: C8_15  and  O4_16 
REMARK    7  A    between atoms: C8_15  and  O5_18 
REMARK    8  A    between atoms: C9_20  and  N3_21 
REMARK    9  A    between atoms: C10_23  and  C11_24 
REMARK   10  A    between atoms: C11_24  and  N4_25 
ROOT
HETATM    1  C6  UNL     1     -42.047  -2.230 -13.443  1.00  0.00     0.090 A 
HETATM    2  C7  UNL     1     -42.438  -0.943 -13.708  1.00  0.00     0.043 A 
HETATM    3  C9  UNL     1     -43.548  -0.703 -14.551  1.00  0.00     0.059 A 
HETATM    4  C12 UNL     1     -44.182  -1.789 -15.063  1.00  0.00     0.119 A 
HETATM    5  N5  UNL     1     -43.826  -3.035 -14.821  1.00  0.00    -0.350 N 
ATOM      6  H5  UNL     1     -44.350  -3.804 -15.240  1.00  0.00     0.166 HD
HETATM    7  C13 UNL     1     -42.754  -3.301 -14.007  1.00  0.00     0.115 A 
HETATM    8  N6  UNL     1     -42.505  -4.516 -13.774  1.00  0.00    -0.385 N 
ATOM      9  H61 UNL     1     -43.020  -5.295 -14.184  1.00  0.00     0.157 HD
ATOM     10  H62 UNL     1     -41.709  -4.714 -13.168  1.00  0.00     0.157 HD
ENDROOT
BRANCH   1  11
HETATM   11  C5  UNL     1     -40.937  -2.591 -12.598  1.00  0.00     0.274 C 
HETATM   12  N2  UNL     1     -39.593  -2.132 -12.943  1.00  0.00    -0.265 N 
ATOM     13  H2  UNL     1     -39.478  -1.564 -13.783  1.00  0.00     0.190 HD
HETATM   14  O3  UNL     1     -40.947  -3.272 -11.550  1.00  0.00    -0.266 OA
BRANCH  12  15
HETATM   15  N1  UNL     1     -38.475  -2.426 -12.196  1.00  0.00    -0.296 N 
HETATM   16  C3  UNL     1     -37.273  -2.073 -12.503  1.00  0.00     0.097 C 
HETATM   17  C4  UNL     1     -37.040  -1.296 -13.741  1.00  0.00     0.076 C 
ATOM     18  H1  UNL     1     -38.606  -2.961 -11.338  1.00  0.00     0.187 HD
BRANCH  16  19
HETATM   19  C2  UNL     1     -36.159  -2.429 -11.651  1.00  0.00     0.306 C 
HETATM   20  O2  UNL     1     -35.854  -1.685 -10.694  1.00  0.00    -0.258 OA
BRANCH  19  21
HETATM   21  O1  UNL     1     -35.418  -3.576 -11.867  1.00  0.00    -0.322 OA
HETATM   22  C1  UNL     1     -35.684  -4.777 -11.125  1.00  0.00     0.213 C 
ENDBRANCH  19  21
ENDBRANCH  16  19
ENDBRANCH  12  15
ENDBRANCH   1  11
BRANCH   2  23
HETATM   23  C8  UNL     1     -41.741   0.227 -13.139  1.00  0.00     0.291 C 
BRANCH  23  24
HETATM   24  O4  UNL     1     -41.103   1.053 -14.018  1.00  0.00    -0.367 OA
ATOM     25  H4  UNL     1     -40.464   0.653 -14.596  1.00  0.00     0.213 HD
ENDBRANCH  23  24
BRANCH  23  26
HETATM   26  O5  UNL     1     -42.580   0.934 -12.255  1.00  0.00    -0.367 OA
ATOM     27  H5  UNL     1     -42.882   0.374 -11.549  1.00  0.00     0.213 HD
ENDBRANCH  23  26
ENDBRANCH   2  23
BRANCH   3  28
HETATM   28  N3  UNL     1     -43.924   0.639 -14.805  1.00  0.00    -0.366 N 
HETATM   29  C10 UNL     1     -45.031   1.157 -14.440  1.00  0.00     0.087 C 
ATOM     30  H3  UNL     1     -43.267   1.229 -15.314  1.00  0.00     0.165 HD
BRANCH  29  31
HETATM   31  C11 UNL     1     -45.333   2.567 -14.752  1.00  0.00     0.245 C 
BRANCH  31  32
HETATM   32  N4  UNL     1     -45.241   2.795 -16.174  1.00  0.00    -0.151 N 
HETATM   33  O6  UNL     1     -46.281   2.908 -16.844  1.00  0.00    -0.536 OA
HETATM   34  O7  UNL     1     -44.036   2.896 -16.833  1.00  0.00    -0.536 OA
ENDBRANCH  31  32
ENDBRANCH  29  31
ENDBRANCH   3  28
TORSDOF 10
ENDMDL
MODEL 2
REMARK VINA RESULT: -7.544860247      7.162      9.059
REMARK  10 active torsions:
REMARK  status: ('A' for Active; 'I' for Inactive)
REMARK    1  A    between atoms: O1_2  and  C2_3 
REMARK    2  A    between atoms: C2_3  and  C3_5 
REMARK    3  A    between atoms: N1_7  and  N2_9 
REMARK       I    between atoms: N2_9  and  C5_11 
REMARK    4  A    between atoms: C5_11  and  C6_13 
REMARK    5  A    between atoms: C7_14  and  C8_15 
REMARK    6  A    between atoms: C8_15  and  O4_16 
REMARK    7  A    between atoms: C8_15  and  O5_18 
REMARK    8  A    between atoms: C9_20  and  N3_21 
REMARK    9  A    between atoms: C10_23  and  C11_24 
REMARK   10  A    between atoms: C11_24  and  N4_25 
ROOT
HETATM    1  C6  UNL     1     -40.258   5.364 -19.702  1.00  0.00     0.090 A 
HETATM    2  C7  UNL     1     -41.031   6.489 -19.569  1.00  0.00     0.043 A 
HETATM    3  C9  UNL     1     -41.134   7.405 -20.642  1.00  0.00     0.059 A 
HETATM    4  C12 UNL     1     -40.445   7.111 -21.774  1.00  0.00     0.119 A 
HETATM    5  N5  UNL     1     -39.697   6.036 -21.926  1.00  0.00    -0.350 N 
ATOM      6  H5  UNL     1     -39.206   5.878 -22.807  1.00  0.00     0.166 HD
HETATM    7  C13 UNL     1     -39.577   5.128 -20.904  1.00  0.00     0.115 A 
HETATM    8  N6  UNL     1     -38.892   4.095 -21.140  1.00  0.00    -0.385 N 
ATOM      9  H61 UNL     1     -38.397   3.923 -22.015  1.00  0.00     0.157 HD
ATOM     10  H62 UNL     1     -38.803   3.420 -20.380  1.00  0.00     0.157 HD
ENDROOT
BRANCH   1  11
HETATM   11  C5  UNL     1     -40.084   4.364 -18.680  1.00  0.00     0.274 C 
HETATM   12  N2  UNL     1     -38.772   4.193 -18.058  1.00  0.00    -0.265 N 
ATOM     13  H2  UNL     1     -38.008   4.793 -18.371  1.00  0.00     0.190 HD
HETATM   14  O3  UNL     1     -40.933   3.577 -18.210  1.00  0.00    -0.266 OA
BRANCH  12  15
HETATM   15  N1  UNL     1     -38.513   3.267 -17.074  1.00  0.00    -0.296 N 
HETATM   16  C3  UNL     1     -37.424   2.580 -16.981  1.00  0.00     0.097 C 
HETATM   17  C4  UNL     1     -36.355   2.776 -17.985  1.00  0.00     0.076 C 
ATOM     18  H1  UNL     1     -39.232   3.111 -16.369  1.00  0.00     0.187 HD
BRANCH  16  19
HETATM   19  C2  UNL     1     -37.244   1.627 -15.907  1.00  0.00     0.306 C 
HETATM   20  O2  UNL     1     -36.089   1.279 -15.580  1.00  0.00    -0.258 OA
BRANCH  19  21
HETATM   21  O1  UNL     1     -38.320   1.085 -15.228  1.00  0.00    -0.322 OA
HETATM   22  C1  UNL     1     -38.179  -0.126 -14.469  1.00  0.00     0.213 C 
ENDBRANCH  19  21
ENDBRANCH  16  19
ENDBRANCH  12  15
ENDBRANCH   1  11
BRANCH   2  23
HETATM   23  C8  UNL     1     -41.779   6.791 -18.332  1.00  0.00     0.291 C 
BRANCH  23  24
HETATM   24  O4  UNL     1     -41.500   7.977 -17.718  1.00  0.00    -0.367 OA
ATOM     25  H4  UNL     1     -40.592   8.138 -17.486  1.00  0.00     0.213 HD
ENDBRANCH  23  24
BRANCH  23  26
HETATM   26  O5  UNL     1     -43.161   6.599 -18.518  1.00  0.00    -0.367 OA
ATOM     27  H5  UNL     1     -43.660   7.008 -17.821  1.00  0.00     0.213 HD
ENDBRANCH  23  26
ENDBRANCH   2  23
BRANCH   3  28
HETATM   28  N3  UNL     1     -41.940   8.557 -20.470  1.00  0.00    -0.366 N 
HETATM   29  C10 UNL     1     -42.995   8.803 -21.143  1.00  0.00     0.087 C 
ATOM     30  H3  UNL     1     -41.657   9.234 -19.762  1.00  0.00     0.165 HD
BRANCH  29  31
HETATM   31  C11 UNL     1     -43.770  10.033 -20.890  1.00  0.00     0.245 C 
BRANCH  31  32
HETATM   32  N4  UNL     1     -43.187  10.776 -19.799  1.00  0.00    -0.151 N 
HETATM   33  O6  UNL     1     -42.584  11.836 -20.035  1.00  0.00    -0.536 OA
HETATM   34  O7  UNL     1     -43.268  10.358 -18.490  1.00  0.00    -0.536 OA
ENDBRANCH  31  32
ENDBRANCH  29  31
ENDBRANCH   3  28
TORSDOF 10
ENDMDL
MODEL 3
REMARK VINA RESULT: -7.541610252      9.262     11.814
REMARK  10 active torsions:
REMARK  status: ('A' for Active; 'I' for Inactive)
REMARK    1  A    between atoms: O1_2  and  C2_3 
REMARK    2  A    between atoms: C2_3  and  C3_5 
REMARK    3  A    between atoms: N1_7  and  N2_9 
REMARK       I    between atoms: N2_9  and  C5_11 
REMARK    4  A    between atoms: C5_11  and  C6_13 
REMARK    5  A    between atoms: C7_14  and  C8_15 
REMARK    6  A    between atoms: C8_15  and  O4_16 
REMARK    7  A    between atoms: C8_15  and  O5_18 
REMARK    8  A    between atoms: C9_20  and  N3_21 
REMARK    9  A    between atoms: C10_23  and  C11_24 
REMARK   10  A    between atoms: C11_24  and  N4_25 
ROOT
HETATM    1  C6  UNL     1     -41.830   6.135 -19.627  1.00  0.00     0.090 A 
HETATM    2  C7  UNL     1     -41.686   7.276 -20.374  1.00  0.00     0.043 A 
HETATM    3  C9  UNL     1     -41.581   8.531 -19.731  1.00  0.00     0.059 A 
HETATM    4  C12 UNL     1     -41.631   8.538 -18.375  1.00  0.00     0.119 A 
HETATM    5  N5  UNL     1     -41.767   7.455 -17.635  1.00  0.00    -0.350 N 
ATOM      6  H5  UNL     1     -41.796   7.535 -16.618  1.00  0.00     0.166 HD
HETATM    7  C13 UNL     1     -41.870   6.222 -18.228  1.00  0.00     0.115 A 
HETATM    8  N6  UNL     1     -41.941   5.225 -17.458  1.00  0.00    -0.385 N 
ATOM      9  H61 UNL     1     -41.970   5.289 -16.440  1.00  0.00     0.157 HD
ATOM     10  H62 UNL     1     -42.017   4.309 -17.899  1.00  0.00     0.157 HD
ENDROOT
BRANCH   1  11
HETATM   11  C5  UNL     1     -41.940   4.807 -20.173  1.00  0.00     0.274 C 
HETATM   12  N2  UNL     1     -43.103   4.461 -20.989  1.00  0.00    -0.265 N 
ATOM     13  H2  UNL     1     -43.811   5.178 -21.149  1.00  0.00     0.190 HD
HETATM   14  O3  UNL     1     -41.147   3.849 -20.054  1.00  0.00    -0.266 OA
BRANCH  12  15
HETATM   15  N1  UNL     1     -43.292   3.220 -21.553  1.00  0.00    -0.296 N 
HETATM   16  C3  UNL     1     -44.414   2.583 -21.566  1.00  0.00     0.097 C 
HETATM   17  C4  UNL     1     -45.604   3.199 -20.938  1.00  0.00     0.076 C 
ATOM     18  H1  UNL     1     -42.489   2.771 -21.992  1.00  0.00     0.187 HD
BRANCH  16  19
HETATM   19  C2  UNL     1     -44.514   1.278 -22.185  1.00  0.00     0.306 C 
HETATM   20  O2  UNL     1     -45.589   0.934 -22.723  1.00  0.00    -0.258 OA
BRANCH  19  21
HETATM   21  O1  UNL     1     -43.449   0.397 -22.197  1.00  0.00    -0.322 OA
HETATM   22  C1  UNL     1     -43.318  -0.586 -23.237  1.00  0.00     0.213 C 
ENDBRANCH  19  21
ENDBRANCH  16  19
ENDBRANCH  12  15
ENDBRANCH   1  11
BRANCH   2  23
HETATM   23  C8  UNL     1     -41.628   7.251 -21.849  1.00  0.00     0.291 C 
BRANCH  23  24
HETATM   24  O4  UNL     1     -42.700   7.766 -22.516  1.00  0.00    -0.367 OA
ATOM     25  H4  UNL     1     -43.172   7.175 -23.092  1.00  0.00     0.213 HD
ENDBRANCH  23  24
BRANCH  23  26
HETATM   26  O5  UNL     1     -40.407   7.775 -22.316  1.00  0.00    -0.367 OA
ATOM     27  H5  UNL     1     -40.192   7.427 -23.174  1.00  0.00     0.213 HD
ENDBRANCH  23  26
ENDBRANCH   2  23
BRANCH   3  28
HETATM   28  N3  UNL     1     -41.434   9.690 -20.534  1.00  0.00    -0.366 N 
HETATM   29  C10 UNL     1     -42.282  10.641 -20.584  1.00  0.00     0.087 C 
ATOM     30  H3  UNL     1     -40.596   9.767 -21.109  1.00  0.00     0.165 HD
BRANCH  29  31
HETATM   31  C11 UNL     1     -42.040  11.810 -21.452  1.00  0.00     0.245 C 
BRANCH  31  32
HETATM   32  N4  UNL     1     -42.184  11.441 -22.839  1.00  0.00    -0.151 N 
HETATM   33  O6  UNL     1     -41.733  10.352 -23.232  1.00  0.00    -0.536 OA
HETATM   34  O7  UNL     1     -42.809  12.249 -23.762  1.00  0.00    -0.536 OA
ENDBRANCH  31  32
ENDBRANCH  29  31
ENDBRANCH   3  28
TORSDOF 10
ENDMDL
MODEL 4
REMARK VINA RESULT: -7.363742517      2.024      7.855
REMARK  10 active torsions:
REMARK  status: ('A' for Active; 'I' for Inactive)
REMARK    1  A    between atoms: O1_2  and  C2_3 
REMARK    2  A    between atoms: C2_3  and  C3_5 
REMARK    3  A    between atoms: N1_7  and  N2_9 
REMARK       I    between atoms: N2_9  and  C5_11 
REMARK    4  A    between atoms: C5_11  and  C6_13 
REMARK    5  A    between atoms: C7_14  and  C8_15 
REMARK    6  A    between atoms: C8_15  and  O4_16 
REMARK    7  A    between atoms: C8_15  and  O5_18 
REMARK    8  A    between atoms: C9_20  and  N3_21 
REMARK    9  A    between atoms: C10_23  and  C11_24 
REMARK   10  A    between atoms: C11_24  and  N4_25 
ROOT
HETATM    1  C6  UNL     1     -43.319  -0.747 -14.093  1.00  0.00     0.090 A 
HETATM    2  C7  UNL     1     -42.149  -0.776 -13.378  1.00  0.00     0.043 A 
HETATM    3  C9  UNL     1     -41.469  -2.001 -13.187  1.00  0.00     0.059 A 
HETATM    4  C12 UNL     1     -42.026  -3.110 -13.737  1.00  0.00     0.119 A 
HETATM    5  N5  UNL     1     -43.148  -3.108 -14.429  1.00  0.00    -0.350 N 
ATOM      6  H5  UNL     1     -43.510  -3.981 -14.814  1.00  0.00     0.166 HD
HETATM    7  C13 UNL     1     -43.831  -1.935 -14.633  1.00  0.00     0.115 A 
HETATM    8  N6  UNL     1     -44.866  -1.998 -15.353  1.00  0.00    -0.385 N 
ATOM      9  H61 UNL     1     -45.239  -2.862 -15.745  1.00  0.00     0.157 HD
ATOM     10  H62 UNL     1     -45.373  -1.127 -15.505  1.00  0.00     0.157 HD
ENDROOT
BRANCH   1  11
HETATM   11  C5  UNL     1     -44.091   0.441 -14.354  1.00  0.00     0.274 C 
HETATM   12  N2  UNL     1     -43.729   1.298 -15.482  1.00  0.00    -0.265 N 
ATOM     13  H2  UNL     1     -42.931   1.029 -16.057  1.00  0.00     0.190 HD
HETATM   14  O3  UNL     1     -45.084   0.874 -13.733  1.00  0.00    -0.266 OA
BRANCH  12  15
HETATM   15  N1  UNL     1     -44.409   2.450 -15.808  1.00  0.00    -0.296 N 
HETATM   16  C3  UNL     1     -44.111   3.222 -16.797  1.00  0.00     0.097 C 
HETATM   17  C4  UNL     1     -42.963   2.878 -17.665  1.00  0.00     0.076 C 
ATOM     18  H1  UNL     1     -45.204   2.711 -15.226  1.00  0.00     0.187 HD
BRANCH  16  19
HETATM   19  C2  UNL     1     -44.888   4.415 -17.061  1.00  0.00     0.306 C 
HETATM   20  O2  UNL     1     -45.745   4.402 -17.971  1.00  0.00    -0.258 OA
BRANCH  19  21
HETATM   21  O1  UNL     1     -44.707   5.575 -16.332  1.00  0.00    -0.322 OA
HETATM   22  C1  UNL     1     -43.663   6.503 -16.670  1.00  0.00     0.213 C 
ENDBRANCH  19  21
ENDBRANCH  16  19
ENDBRANCH  12  15
ENDBRANCH   1  11
BRANCH   2  23
HETATM   23  C8  UNL     1     -41.553   0.441 -12.792  1.00  0.00     0.291 C 
BRANCH  23  24
HETATM   24  O4  UNL     1     -41.586   0.549 -11.432  1.00  0.00    -0.367 OA
ATOM     25  H4  UNL     1     -40.799   0.872 -11.008  1.00  0.00     0.213 HD
ENDBRANCH  23  24
BRANCH  23  26
HETATM   26  O5  UNL     1     -40.266   0.676 -13.314  1.00  0.00    -0.367 OA
ATOM     27  H5  UNL     1     -39.637   0.824 -12.618  1.00  0.00     0.213 HD
ENDBRANCH  23  26
ENDBRANCH   2  23
BRANCH   3  28
HETATM   28  N3  UNL     1     -40.264  -1.994 -12.442  1.00  0.00    -0.366 N 
HETATM   29  C10 UNL     1     -39.972  -2.848 -11.540  1.00  0.00     0.087 C 
ATOM     30  H3  UNL     1     -39.585  -1.259 -12.641  1.00  0.00     0.165 HD
BRANCH  29  31
HETATM   31  C11 UNL     1     -38.688  -2.759 -10.817  1.00  0.00     0.245 C 
BRANCH  31  32
HETATM   32  N4  UNL     1     -38.135  -1.432 -10.944  1.00  0.00    -0.151 N 
HETATM   33  O6  UNL     1     -36.950  -1.294 -11.291  1.00  0.00    -0.536 OA
HETATM   34  O7  UNL     1     -38.869  -0.294 -10.694  1.00  0.00    -0.536 OA
ENDBRANCH  31  32
ENDBRANCH  29  31
ENDBRANCH   3  28
TORSDOF 10
ENDMDL
MODEL 5
REMARK VINA RESULT: -7.359099504      9.328     11.066
REMARK  10 active torsions:
REMARK  status: ('A' for Active; 'I' for Inactive)
REMARK    1  A    between atoms: O1_2  and  C2_3 
REMARK    2  A    between atoms: C2_3  and  C3_5 
REMARK    3  A    between atoms: N1_7  and  N2_9 
REMARK       I    between atoms: N2_9  and  C5_11 
REMARK    4  A    between atoms: C5_11  and  C6_13 
REMARK    5  A    between atoms: C7_14  and  C8_15 
REMARK    6  A    between atoms: C8_15  and  O4_16 
REMARK    7  A    between atoms: C8_15  and  O5_18 
REMARK    8  A    between atoms: C9_20  and  N3_21 
REMARK    9  A    between atoms: C10_23  and  C11_24 
REMARK   10  A    between atoms: C11_24  and  N4_25 
ROOT
HETATM    1  C6  UNL     1     -41.396   5.709 -19.701  1.00  0.00     0.090 A 
HETATM    2  C7  UNL     1     -42.085   6.530 -18.844  1.00  0.00     0.043 A 
HETATM    3  C9  UNL     1     -41.538   7.779 -18.471  1.00  0.00     0.059 A 
HETATM    4  C12 UNL     1     -40.330   8.107 -18.997  1.00  0.00     0.119 A 
HETATM    5  N5  UNL     1     -39.650   7.338 -19.823  1.00  0.00    -0.350 N 
ATOM      6  H5  UNL     1     -38.746   7.649 -20.180  1.00  0.00     0.166 HD
HETATM    7  C13 UNL     1     -40.154   6.119 -20.204  1.00  0.00     0.115 A 
HETATM    8  N6  UNL     1     -39.476   5.461 -21.041  1.00  0.00    -0.385 N 
ATOM      9  H61 UNL     1     -38.572   5.759 -21.408  1.00  0.00     0.157 HD
ATOM     10  H62 UNL     1     -39.851   4.556 -21.325  1.00  0.00     0.157 HD
ENDROOT
BRANCH   1  11
HETATM   11  C5  UNL     1     -41.857   4.421 -20.150  1.00  0.00     0.274 C 
HETATM   12  N2  UNL     1     -42.848   4.349 -21.223  1.00  0.00    -0.265 N 
ATOM     13  H2  UNL     1     -43.188   5.222 -21.626  1.00  0.00     0.190 HD
HETATM   14  O3  UNL     1     -41.518   3.289 -19.745  1.00  0.00    -0.266 OA
BRANCH  12  15
HETATM   15  N1  UNL     1     -43.345   3.164 -21.718  1.00  0.00    -0.296 N 
HETATM   16  C3  UNL     1     -44.561   2.761 -21.572  1.00  0.00     0.097 C 
HETATM   17  C4  UNL     1     -45.520   3.604 -20.824  1.00  0.00     0.076 C 
ATOM     18  H1  UNL     1     -42.706   2.563 -22.238  1.00  0.00     0.187 HD
BRANCH  16  19
HETATM   19  C2  UNL     1     -44.991   1.497 -22.131  1.00  0.00     0.306 C 
HETATM   20  O2  UNL     1     -46.145   1.392 -22.601  1.00  0.00    -0.258 OA
BRANCH  19  21
HETATM   21  O1  UNL     1     -44.157   0.394 -22.159  1.00  0.00    -0.322 OA
HETATM   22  C1  UNL     1     -43.687  -0.143 -23.406  1.00  0.00     0.213 C 
ENDBRANCH  19  21
ENDBRANCH  16  19
ENDBRANCH  12  15
ENDBRANCH   1  11
BRANCH   2  23
HETATM   23  C8  UNL     1     -43.400   6.160 -18.285  1.00  0.00     0.291 C 
BRANCH  23  24
HETATM   24  O4  UNL     1     -43.493   6.083 -16.927  1.00  0.00    -0.367 OA
ATOM     25  H4  UNL     1     -43.718   5.236 -16.559  1.00  0.00     0.213 HD
ENDBRANCH  23  24
BRANCH  23  26
HETATM   26  O5  UNL     1     -44.426   6.946 -18.847  1.00  0.00    -0.367 OA
ATOM     27  H5  UNL     1     -45.207   6.925 -18.305  1.00  0.00     0.213 HD
ENDBRANCH  23  26
ENDBRANCH   2  23
BRANCH   3  28
HETATM   28  N3  UNL     1     -42.275   8.601 -17.584  1.00  0.00    -0.366 N 
HETATM   29  C10 UNL     1     -41.765   9.241 -16.606  1.00  0.00     0.087 C 
ATOM     30  H3  UNL     1     -43.280   8.685 -17.736  1.00  0.00     0.165 HD
BRANCH  29  31
HETATM   31  C11 UNL     1     -42.617  10.074 -15.734  1.00  0.00     0.245 C 
BRANCH  31  32
HETATM   32  N4  UNL     1     -41.885  10.476 -14.557  1.00  0.00    -0.151 N 
HETATM   33  O6  UNL     1     -40.999   9.732 -14.105  1.00  0.00    -0.536 OA
HETATM   34  O7  UNL     1     -42.127  11.662 -13.902  1.00  0.00    -0.536 OA
ENDBRANCH  31  32
ENDBRANCH  29  31
ENDBRANCH   3  28
TORSDOF 10
ENDMDL
