MODEL 1
REMARK VINA RESULT: -9.191734409      0.000      0.000
REMARK  16 active torsions:
REMARK  status: ('A' for Active; 'I' for Inactive)
REMARK    1  A    between atoms: C2_2  and  O1_3 
REMARK    2  A    between atoms: O1_3  and  C3_4 
REMARK    3  A    between atoms: C3_4  and  C4_6 
REMARK    4  A    between atoms: C4_6  and  O3_7 
REMARK    5  A    between atoms: C6_10  and  N1_11 
REMARK    6  A    between atoms: N1_11  and  C7_12 
REMARK    7  A    between atoms: N1_11  and  S1_15 
REMARK    8  A    between atoms: C7_12  and  O4_13 
REMARK    9  A    between atoms: S1_15  and  N2_16 
REMARK       I    between atoms: N2_16  and  C9_18 
REMARK       I    between atoms: C9_18  and  N3_19 
REMARK       I    between atoms: C9_18  and  N9_37 
REMARK   10  A    between atoms: N3_19  and  N4_21 
REMARK   11  A    between atoms: N4_21  and  C10_23 
REMARK   12  A    between atoms: C11_26  and  N6_27 
REMARK   13  A    between atoms: N9_37  and  N10_39 
REMARK   14  A    between atoms: C13_41  and  C14_42 
REMARK   15  A    between atoms: C16_46  and  C17_47 
REMARK   16  A    between atoms: C24_60  and  O10_61 
ROOT
HETATM    1  N2  UNL     1      40.407 -17.394  31.810  1.00  0.00    -0.142 N 
ATOM      2  H2  UNL     1      41.231 -16.862  32.091  1.00  0.00     0.194 HD
HETATM    3  C9  UNL     1      39.278 -17.360  32.662  1.00  0.00     0.718 C 
HETATM    4  N3  UNL     1      38.501 -16.322  32.746  1.00  0.00    -0.127 N 
ATOM      5  H3  UNL     1      38.705 -15.497  32.180  1.00  0.00     0.206 HD
HETATM    6  N9  UNL     1      38.959 -18.499  33.470  1.00  0.00    -0.130 N 
ATOM      7  H9  UNL     1      38.072 -18.993  33.367  1.00  0.00     0.205 HD
ENDROOT
BRANCH   1   8
HETATM    8  S1  UNL     1      40.485 -18.291  30.300  1.00  0.00     0.086 SA
BRANCH   8   9
HETATM    9  N1  UNL     1      40.793 -20.007  30.571  1.00  0.00    -0.282 N 
BRANCH   9  10
HETATM   10  C6  UNL     1      39.914 -21.027  30.126  1.00  0.00     0.053 C 
HETATM   11  C5  UNL     1      40.300 -21.938  29.252  1.00  0.00     0.052 C 
HETATM   12  C4  UNL     1      39.460 -23.035  28.731  1.00  0.00     0.194 C 
HETATM   13  C24 UNL     1      38.070 -23.075  29.325  1.00  0.00     0.198 C 
HETATM   14  C23 UNL     1      38.181 -22.594  30.720  1.00  0.00     0.192 C 
HETATM   15  C19 UNL     1      38.548 -21.101  30.631  1.00  0.00     0.207 C 
HETATM   16  O9  UNL     1      36.985 -22.455  31.400  1.00  0.00    -0.345 OA
HETATM   17  O8  UNL     1      38.391 -20.790  31.964  1.00  0.00    -0.342 OA
HETATM   18  C20 UNL     1      37.239 -21.452  32.325  1.00  0.00     0.158 C 
HETATM   19  C21 UNL     1      36.097 -20.461  32.245  1.00  0.00     0.078 C 
HETATM   20  C22 UNL     1      37.417 -21.985  33.728  1.00  0.00     0.078 C 
BRANCH  12  21
HETATM   21  C3  UNL     1      40.094 -24.357  28.983  1.00  0.00     0.300 C 
HETATM   22  O2  UNL     1      39.733 -25.405  28.346  1.00  0.00    -0.261 OA
BRANCH  21  23
HETATM   23  O1  UNL     1      41.108 -24.576  29.903  1.00  0.00    -0.319 OA
BRANCH  23  24
HETATM   24  C2  UNL     1      42.482 -24.541  29.559  1.00  0.00     0.174 C 
HETATM   25  C1  UNL     1      43.224 -23.988  30.760  1.00  0.00     0.034 C 
ENDBRANCH  23  24
ENDBRANCH  21  23
ENDBRANCH  12  21
BRANCH  12  26
HETATM   26  O3  UNL     1      39.413 -22.875  27.342  1.00  0.00    -0.373 OA
ATOM     27  H3  UNL     1      39.588 -23.729  26.965  1.00  0.00     0.211 HD
ENDBRANCH  12  26
BRANCH  13  28
HETATM   28  O10 UNL     1      37.278 -22.222  28.555  1.00  0.00    -0.389 OA
ATOM     29  H10 UNL     1      37.800 -21.450  28.374  1.00  0.00     0.210 HD
ENDBRANCH  13  28
ENDBRANCH   9  10
BRANCH   9  30
HETATM   30  C7  UNL     1      42.005 -20.364  31.284  1.00  0.00     0.306 C 
BRANCH  30  31
HETATM   31  O4  UNL     1      42.052 -19.803  32.559  1.00  0.00    -0.376 OA
HETATM   32  C8  UNL     1      43.285 -20.069  33.107  1.00  0.00     0.203 C 
ENDBRANCH  30  31
ENDBRANCH   9  30
ENDBRANCH   8   9
ENDBRANCH   1   8
BRANCH   4  33
HETATM   33  N4  UNL     1      37.394 -16.313  33.595  1.00  0.00    -0.250 N 
ATOM     34  H4  UNL     1      37.548 -16.366  34.602  1.00  0.00     0.191 HD
BRANCH  33  35
HETATM   35  C10 UNL     1      36.188 -16.239  33.161  1.00  0.00     0.261 A 
HETATM   36  N5  UNL     1      35.277 -15.552  33.865  1.00  0.00    -0.153 N 
HETATM   37  C11 UNL     1      34.015 -15.465  33.427  1.00  0.00     0.682 A 
ATOM     38  H5  UNL     1      35.546 -15.093  34.736  1.00  0.00     0.188 HD
HETATM   39  N7  UNL     1      33.710 -16.089  32.267  1.00  0.00    -0.155 N 
HETATM   40  C12 UNL     1      34.645 -16.768  31.589  1.00  0.00     0.239 A 
ATOM     41  H7  UNL     1      32.758 -16.043  31.903  1.00  0.00     0.188 HD
HETATM   42  N8  UNL     1      34.321 -17.361  30.471  1.00  0.00    -0.364 N 
HETATM   43  O5  UNL     1      35.867 -16.830  32.047  1.00  0.00    -0.245 OA
ATOM     44  H82 UNL     1      33.367 -17.312  30.113  1.00  0.00     0.159 HD
ATOM     45  H81 UNL     1      35.033 -17.878  29.955  1.00  0.00     0.159 HD
BRANCH  37  46
HETATM   46  N6  UNL     1      33.082 -14.817  34.056  1.00  0.00    -0.234 N 
ATOM     47  H62 UNL     1      32.523 -15.310  34.753  1.00  0.00     0.174 HD
ATOM     48  H61 UNL     1      32.871 -13.833  33.890  1.00  0.00     0.174 HD
ENDBRANCH  37  46
ENDBRANCH  33  35
ENDBRANCH   4  33
BRANCH   6  49
HETATM   49  N10 UNL     1      39.912 -18.902  34.406  1.00  0.00    -0.294 N 
HETATM   50  C13 UNL     1      39.881 -20.039  35.002  1.00  0.00     0.156 C 
ATOM     51  H10 UNL     1      40.673 -18.260  34.628  1.00  0.00     0.186 HD
BRANCH  50  52
HETATM   52  C14 UNL     1      40.949 -20.331  35.964  1.00  0.00     0.122 A 
HETATM   53  N11 UNL     1      41.709 -19.384  36.495  1.00  0.00    -0.350 N 
HETATM   54  C15 UNL     1      42.683 -19.704  37.381  1.00  0.00     0.109 A 
ATOM     55  H11 UNL     1      41.561 -18.408  36.236  1.00  0.00     0.166 HD
HETATM   56  C16 UNL     1      42.900 -21.010  37.743  1.00  0.00     0.071 A 
HETATM   57  C18 UNL     1      42.102 -21.984  37.182  1.00  0.00     0.109 A 
HETATM   58  N12 UNL     1      41.151 -21.625  36.311  1.00  0.00    -0.350 N 
ATOM     59  H12 UNL     1      40.561 -22.347  35.896  1.00  0.00     0.166 HD
BRANCH  56  60
HETATM   60  C17 UNL     1      43.957 -21.323  38.698  1.00  0.00     0.212 C 
HETATM   61  O6  UNL     1      45.160 -21.218  38.371  1.00  0.00    -0.644 OA
HETATM   62  O7  UNL     1      43.670 -21.745  39.996  1.00  0.00    -0.644 OA
ENDBRANCH  56  60
ENDBRANCH  50  52
ENDBRANCH   6  49
TORSDOF 16
ENDMDL
MODEL 2
REMARK VINA RESULT: -9.019299829      3.077      7.438
REMARK  16 active torsions:
REMARK  status: ('A' for Active; 'I' for Inactive)
REMARK    1  A    between atoms: C2_2  and  O1_3 
REMARK    2  A    between atoms: O1_3  and  C3_4 
REMARK    3  A    between atoms: C3_4  and  C4_6 
REMARK    4  A    between atoms: C4_6  and  O3_7 
REMARK    5  A    between atoms: C6_10  and  N1_11 
REMARK    6  A    between atoms: N1_11  and  C7_12 
REMARK    7  A    between atoms: N1_11  and  S1_15 
REMARK    8  A    between atoms: C7_12  and  O4_13 
REMARK    9  A    between atoms: S1_15  and  N2_16 
REMARK       I    between atoms: N2_16  and  C9_18 
REMARK       I    between atoms: C9_18  and  N3_19 
REMARK       I    between atoms: C9_18  and  N9_37 
REMARK   10  A    between atoms: N3_19  and  N4_21 
REMARK   11  A    between atoms: N4_21  and  C10_23 
REMARK   12  A    between atoms: C11_26  and  N6_27 
REMARK   13  A    between atoms: N9_37  and  N10_39 
REMARK   14  A    between atoms: C13_41  and  C14_42 
REMARK   15  A    between atoms: C16_46  and  C17_47 
REMARK   16  A    between atoms: C24_60  and  O10_61 
ROOT
HETATM    1  N2  UNL     1      38.803 -21.720  31.135  1.00  0.00    -0.142 N 
ATOM      2  H2  UNL     1      39.052 -22.693  31.313  1.00  0.00     0.194 HD
HETATM    3  C9  UNL     1      39.852 -20.804  30.888  1.00  0.00     0.718 C 
HETATM    4  N3  UNL     1      40.500 -20.777  29.762  1.00  0.00    -0.127 N 
ATOM      5  H3  UNL     1      40.249 -21.435  29.024  1.00  0.00     0.206 HD
HETATM    6  N9  UNL     1      40.232 -19.863  31.899  1.00  0.00    -0.130 N 
ATOM      7  H9  UNL     1      40.170 -18.857  31.740  1.00  0.00     0.205 HD
ENDROOT
BRANCH   1   8
HETATM    8  S1  UNL     1      37.097 -21.294  31.158  1.00  0.00     0.086 SA
BRANCH   8   9
HETATM    9  N1  UNL     1      36.801 -19.818  32.076  1.00  0.00    -0.282 N 
BRANCH   9  10
HETATM   10  C6  UNL     1      36.359 -18.611  31.475  1.00  0.00     0.053 C 
HETATM   11  C5  UNL     1      35.124 -18.174  31.632  1.00  0.00     0.052 C 
HETATM   12  C4  UNL     1      34.574 -16.934  31.048  1.00  0.00     0.194 C 
HETATM   13  C24 UNL     1      35.581 -16.135  30.251  1.00  0.00     0.198 C 
HETATM   14  C23 UNL     1      36.899 -16.334  30.895  1.00  0.00     0.192 C 
HETATM   15  C19 UNL     1      37.269 -17.812  30.663  1.00  0.00     0.207 C 
HETATM   16  O9  UNL     1      37.975 -15.764  30.239  1.00  0.00    -0.345 OA
HETATM   17  O8  UNL     1      38.570 -17.750  31.116  1.00  0.00    -0.342 OA
HETATM   18  C20 UNL     1      39.048 -16.572  30.591  1.00  0.00     0.158 C 
HETATM   19  C21 UNL     1      39.798 -16.907  29.319  1.00  0.00     0.078 C 
HETATM   20  C22 UNL     1      39.950 -15.926  31.617  1.00  0.00     0.078 C 
BRANCH  12  21
HETATM   21  C3  UNL     1      34.030 -16.042  32.107  1.00  0.00     0.300 C 
HETATM   22  O2  UNL     1      32.893 -15.469  31.981  1.00  0.00    -0.261 OA
BRANCH  21  23
HETATM   23  O1  UNL     1      34.680 -15.754  33.297  1.00  0.00    -0.319 OA
BRANCH  23  24
HETATM   24  C2  UNL     1      34.079 -15.012  34.344  1.00  0.00     0.174 C 
HETATM   25  C1  UNL     1      34.418 -13.554  34.102  1.00  0.00     0.034 C 
ENDBRANCH  23  24
ENDBRANCH  21  23
ENDBRANCH  12  21
BRANCH  12  26
HETATM   26  O3  UNL     1      33.488 -17.316  30.253  1.00  0.00    -0.373 OA
ATOM     27  H3  UNL     1      33.789 -17.290  29.352  1.00  0.00     0.211 HD
ENDBRANCH  12  26
BRANCH  13  28
HETATM   28  O10 UNL     1      35.567 -16.648  28.953  1.00  0.00    -0.389 OA
ATOM     29  H10 UNL     1      35.903 -15.966  28.384  1.00  0.00     0.210 HD
ENDBRANCH  13  28
ENDBRANCH   9  10
BRANCH   9  30
HETATM   30  C7  UNL     1      37.028 -19.865  33.508  1.00  0.00     0.306 C 
BRANCH  30  31
HETATM   31  O4  UNL     1      38.010 -20.790  33.858  1.00  0.00    -0.376 OA
HETATM   32  C8  UNL     1      37.582 -21.482  34.966  1.00  0.00     0.203 C 
ENDBRANCH  30  31
ENDBRANCH   9  30
ENDBRANCH   8   9
ENDBRANCH   1   8
BRANCH   4  33
HETATM   33  N4  UNL     1      41.533 -19.864  29.543  1.00  0.00    -0.250 N 
ATOM     34  H4  UNL     1      41.293 -18.907  29.284  1.00  0.00     0.191 HD
BRANCH  33  35
HETATM   35  C10 UNL     1      42.772 -20.180  29.654  1.00  0.00     0.261 A 
HETATM   36  N5  UNL     1      43.406 -19.953  30.814  1.00  0.00    -0.153 N 
HETATM   37  C11 UNL     1      44.698 -20.275  30.947  1.00  0.00     0.682 A 
ATOM     38  H5  UNL     1      42.903 -19.534  31.597  1.00  0.00     0.188 HD
HETATM   39  N7  UNL     1      45.319 -20.829  29.881  1.00  0.00    -0.155 N 
HETATM   40  C12 UNL     1      44.656 -21.041  28.737  1.00  0.00     0.239 A 
ATOM     41  H7  UNL     1      46.304 -21.088  29.948  1.00  0.00     0.188 HD
HETATM   42  N8  UNL     1      45.282 -21.577  27.723  1.00  0.00    -0.364 N 
HETATM   43  O5  UNL     1      43.394 -20.713  28.644  1.00  0.00    -0.245 OA
ATOM     44  H82 UNL     1      46.266 -21.832  27.796  1.00  0.00     0.159 HD
ATOM     45  H81 UNL     1      44.777 -21.738  26.853  1.00  0.00     0.159 HD
BRANCH  37  46
HETATM   46  N6  UNL     1      45.375 -20.085  32.039  1.00  0.00    -0.234 N 
ATOM     47  H62 UNL     1      44.889 -20.134  32.935  1.00  0.00     0.174 HD
ATOM     48  H61 UNL     1      46.375 -19.887  32.053  1.00  0.00     0.174 HD
ENDBRANCH  37  46
ENDBRANCH  33  35
ENDBRANCH   4  33
BRANCH   6  49
HETATM   49  N10 UNL     1      40.691 -20.381  33.111  1.00  0.00    -0.294 N 
HETATM   50  C13 UNL     1      41.505 -19.758  33.882  1.00  0.00     0.156 C 
ATOM     51  H10 UNL     1      40.362 -21.303  33.397  1.00  0.00     0.186 HD
BRANCH  50  52
HETATM   52  C14 UNL     1      41.905 -20.423  35.127  1.00  0.00     0.122 A 
HETATM   53  N11 UNL     1      41.058 -20.641  36.122  1.00  0.00    -0.350 N 
HETATM   54  C15 UNL     1      41.475 -21.262  37.253  1.00  0.00     0.109 A 
ATOM     55  H11 UNL     1      40.087 -20.342  36.038  1.00  0.00     0.166 HD
HETATM   56  C16 UNL     1      42.778 -21.672  37.387  1.00  0.00     0.071 A 
HETATM   57  C18 UNL     1      43.648 -21.437  36.344  1.00  0.00     0.109 A 
HETATM   58  N12 UNL     1      43.194 -20.822  35.245  1.00  0.00    -0.350 N 
ATOM     59  H12 UNL     1      43.839 -20.649  34.473  1.00  0.00     0.166 HD
BRANCH  56  60
HETATM   60  C17 UNL     1      43.197 -22.335  38.617  1.00  0.00     0.212 C 
HETATM   61  O6  UNL     1      44.332 -22.124  39.098  1.00  0.00    -0.644 OA
HETATM   62  O7  UNL     1      42.357 -23.218  39.296  1.00  0.00    -0.644 OA
ENDBRANCH  56  60
ENDBRANCH  50  52
ENDBRANCH   6  49
TORSDOF 16
ENDMDL
MODEL 3
REMARK VINA RESULT: -8.720871581      2.802      8.309
REMARK  16 active torsions:
REMARK  status: ('A' for Active; 'I' for Inactive)
REMARK    1  A    between atoms: C2_2  and  O1_3 
REMARK    2  A    between atoms: O1_3  and  C3_4 
REMARK    3  A    between atoms: C3_4  and  C4_6 
REMARK    4  A    between atoms: C4_6  and  O3_7 
REMARK    5  A    between atoms: C6_10  and  N1_11 
REMARK    6  A    between atoms: N1_11  and  C7_12 
REMARK    7  A    between atoms: N1_11  and  S1_15 
REMARK    8  A    between atoms: C7_12  and  O4_13 
REMARK    9  A    between atoms: S1_15  and  N2_16 
REMARK       I    between atoms: N2_16  and  C9_18 
REMARK       I    between atoms: C9_18  and  N3_19 
REMARK       I    between atoms: C9_18  and  N9_37 
REMARK   10  A    between atoms: N3_19  and  N4_21 
REMARK   11  A    between atoms: N4_21  and  C10_23 
REMARK   12  A    between atoms: C11_26  and  N6_27 
REMARK   13  A    between atoms: N9_37  and  N10_39 
REMARK   14  A    between atoms: C13_41  and  C14_42 
REMARK   15  A    between atoms: C16_46  and  C17_47 
REMARK   16  A    between atoms: C24_60  and  O10_61 
ROOT
HETATM    1  N2  UNL     1      38.785 -21.323  35.715  1.00  0.00    -0.142 N 
ATOM      2  H2  UNL     1      38.036 -20.640  35.825  1.00  0.00     0.194 HD
HETATM    3  C9  UNL     1      40.118 -20.864  35.817  1.00  0.00     0.718 C 
HETATM    4  N3  UNL     1      40.660 -20.549  36.956  1.00  0.00    -0.127 N 
ATOM      5  H3  UNL     1      40.111 -20.634  37.812  1.00  0.00     0.206 HD
HETATM    6  N9  UNL     1      40.922 -20.733  34.638  1.00  0.00    -0.130 N 
ATOM      7  H9  UNL     1      41.785 -21.264  34.521  1.00  0.00     0.205 HD
ENDROOT
BRANCH   1   8
HETATM    8  S1  UNL     1      38.330 -22.994  35.410  1.00  0.00     0.086 SA
BRANCH   8   9
HETATM    9  N1  UNL     1      37.243 -23.138  34.029  1.00  0.00    -0.282 N 
BRANCH   9  10
HETATM   10  C6  UNL     1      37.221 -22.201  32.964  1.00  0.00     0.053 C 
HETATM   11  C5  UNL     1      36.493 -21.101  33.027  1.00  0.00     0.052 C 
HETATM   12  C4  UNL     1      36.406 -20.070  31.973  1.00  0.00     0.194 C 
HETATM   13  C24 UNL     1      37.281 -20.350  30.772  1.00  0.00     0.198 C 
HETATM   14  C23 UNL     1      38.488 -21.048  31.267  1.00  0.00     0.192 C 
HETATM   15  C19 UNL     1      38.012 -22.428  31.761  1.00  0.00     0.207 C 
HETATM   16  O9  UNL     1      39.365 -21.488  30.293  1.00  0.00    -0.345 OA
HETATM   17  O8  UNL     1      39.254 -22.991  31.965  1.00  0.00    -0.342 OA
HETATM   18  C20 UNL     1      39.984 -22.588  30.870  1.00  0.00     0.158 C 
HETATM   19  C21 UNL     1      39.947 -23.712  29.856  1.00  0.00     0.078 C 
HETATM   20  C22 UNL     1      41.395 -22.292  31.323  1.00  0.00     0.078 C 
BRANCH  12  21
HETATM   21  C3  UNL     1      36.786 -18.733  32.503  1.00  0.00     0.300 C 
HETATM   22  O2  UNL     1      37.577 -18.609  33.500  1.00  0.00    -0.261 OA
BRANCH  21  23
HETATM   23  O1  UNL     1      36.334 -17.529  31.985  1.00  0.00    -0.319 OA
BRANCH  23  24
HETATM   24  C2  UNL     1      35.737 -16.522  32.783  1.00  0.00     0.174 C 
HETATM   25  C1  UNL     1      34.250 -16.814  32.822  1.00  0.00     0.034 C 
ENDBRANCH  23  24
ENDBRANCH  21  23
ENDBRANCH  12  21
BRANCH  12  26
HETATM   26  O3  UNL     1      35.058 -19.987  31.610  1.00  0.00    -0.373 OA
ATOM     27  H3  UNL     1      34.922 -19.107  31.278  1.00  0.00     0.211 HD
ENDBRANCH  12  26
BRANCH  13  28
HETATM   28  O10 UNL     1      36.540 -21.164  29.914  1.00  0.00    -0.389 OA
ATOM     29  H10 UNL     1      37.009 -21.986  29.840  1.00  0.00     0.210 HD
ENDBRANCH  13  28
ENDBRANCH   9  10
BRANCH   9  30
HETATM   30  C7  UNL     1      36.340 -24.273  34.004  1.00  0.00     0.306 C 
BRANCH  30  31
HETATM   31  O4  UNL     1      35.387 -24.212  35.019  1.00  0.00    -0.376 OA
HETATM   32  C8  UNL     1      34.181 -23.854  34.464  1.00  0.00     0.203 C 
ENDBRANCH  30  31
ENDBRANCH   9  30
ENDBRANCH   8   9
ENDBRANCH   1   8
BRANCH   4  33
HETATM   33  N4  UNL     1      41.978 -20.097  37.031  1.00  0.00    -0.250 N 
ATOM     34  H4  UNL     1      42.212 -19.197  36.611  1.00  0.00     0.191 HD
BRANCH  33  35
HETATM   35  C10 UNL     1      42.909 -20.767  37.607  1.00  0.00     0.261 A 
HETATM   36  N5  UNL     1      42.742 -21.162  38.878  1.00  0.00    -0.153 N 
HETATM   37  C11 UNL     1      43.703 -21.862  39.495  1.00  0.00     0.682 A 
ATOM     38  H5  UNL     1      41.883 -20.930  39.376  1.00  0.00     0.188 HD
HETATM   39  N7  UNL     1      44.822 -22.145  38.791  1.00  0.00    -0.155 N 
HETATM   40  C12 UNL     1      44.955 -21.734  37.524  1.00  0.00     0.239 A 
ATOM     41  H7  UNL     1      45.574 -22.677  39.231  1.00  0.00     0.188 HD
HETATM   42  N8  UNL     1      46.049 -22.023  36.869  1.00  0.00    -0.364 N 
HETATM   43  O5  UNL     1      43.996 -21.053  36.954  1.00  0.00    -0.245 OA
ATOM     44  H82 UNL     1      46.797 -22.554  37.313  1.00  0.00     0.159 HD
ATOM     45  H81 UNL     1      46.150 -21.710  35.903  1.00  0.00     0.159 HD
BRANCH  37  46
HETATM   46  N6  UNL     1      43.610 -22.277  40.722  1.00  0.00    -0.234 N 
ATOM     47  H62 UNL     1      42.985 -23.055  40.934  1.00  0.00     0.174 HD
ATOM     48  H61 UNL     1      44.132 -21.865  41.495  1.00  0.00     0.174 HD
ENDBRANCH  37  46
ENDBRANCH  33  35
ENDBRANCH   4  33
BRANCH   6  49
HETATM   49  N10 UNL     1      40.472 -19.847  33.658  1.00  0.00    -0.294 N 
HETATM   50  C13 UNL     1      41.222 -18.963  33.108  1.00  0.00     0.156 C 
ATOM     51  H10 UNL     1      39.498 -19.906  33.364  1.00  0.00     0.186 HD
BRANCH  50  52
HETATM   52  C14 UNL     1      40.617 -18.097  32.090  1.00  0.00     0.122 A 
HETATM   53  N11 UNL     1      39.992 -16.968  32.394  1.00  0.00    -0.350 N 
HETATM   54  C15 UNL     1      39.450 -16.201  31.418  1.00  0.00     0.109 A 
ATOM     55  H11 UNL     1      39.919 -16.675  33.369  1.00  0.00     0.166 HD
HETATM   56  C16 UNL     1      39.536 -16.578  30.101  1.00  0.00     0.071 A 
HETATM   57  C18 UNL     1      40.187 -17.755  29.800  1.00  0.00     0.109 A 
HETATM   58  N12 UNL     1      40.710 -18.483  30.795  1.00  0.00    -0.350 N 
ATOM     59  H12 UNL     1      41.192 -19.354  30.571  1.00  0.00     0.166 HD
BRANCH  56  60
HETATM   60  C17 UNL     1      38.940 -15.732  29.073  1.00  0.00     0.212 C 
HETATM   61  O6  UNL     1      38.815 -14.501  29.257  1.00  0.00    -0.644 OA
HETATM   62  O7  UNL     1      38.495 -16.257  27.859  1.00  0.00    -0.644 OA
ENDBRANCH  56  60
ENDBRANCH  50  52
ENDBRANCH   6  49
TORSDOF 16
ENDMDL
MODEL 4
REMARK VINA RESULT: -8.713177122      2.797      5.086
REMARK  16 active torsions:
REMARK  status: ('A' for Active; 'I' for Inactive)
REMARK    1  A    between atoms: C2_2  and  O1_3 
REMARK    2  A    between atoms: O1_3  and  C3_4 
REMARK    3  A    between atoms: C3_4  and  C4_6 
REMARK    4  A    between atoms: C4_6  and  O3_7 
REMARK    5  A    between atoms: C6_10  and  N1_11 
REMARK    6  A    between atoms: N1_11  and  C7_12 
REMARK    7  A    between atoms: N1_11  and  S1_15 
REMARK    8  A    between atoms: C7_12  and  O4_13 
REMARK    9  A    between atoms: S1_15  and  N2_16 
REMARK       I    between atoms: N2_16  and  C9_18 
REMARK       I    between atoms: C9_18  and  N3_19 
REMARK       I    between atoms: C9_18  and  N9_37 
REMARK   10  A    between atoms: N3_19  and  N4_21 
REMARK   11  A    between atoms: N4_21  and  C10_23 
REMARK   12  A    between atoms: C11_26  and  N6_27 
REMARK   13  A    between atoms: N9_37  and  N10_39 
REMARK   14  A    between atoms: C13_41  and  C14_42 
REMARK   15  A    between atoms: C16_46  and  C17_47 
REMARK   16  A    between atoms: C24_60  and  O10_61 
ROOT
HETATM    1  N2  UNL     1      41.422 -18.634  30.293  1.00  0.00    -0.142 N 
ATOM      2  H2  UNL     1      41.754 -18.540  31.253  1.00  0.00     0.194 HD
HETATM    3  C9  UNL     1      40.161 -18.079  29.974  1.00  0.00     0.718 C 
HETATM    4  N3  UNL     1      39.976 -16.799  29.846  1.00  0.00    -0.127 N 
ATOM      5  H3  UNL     1      40.764 -16.164  29.978  1.00  0.00     0.206 HD
HETATM    6  N9  UNL     1      39.031 -18.938  29.779  1.00  0.00    -0.130 N 
ATOM      7  H9  UNL     1      38.533 -18.969  28.889  1.00  0.00     0.205 HD
ENDROOT
BRANCH   1   8
HETATM    8  S1  UNL     1      42.457 -19.473  29.146  1.00  0.00     0.086 SA
BRANCH   8   9
HETATM    9  N1  UNL     1      42.914 -21.075  29.724  1.00  0.00    -0.282 N 
BRANCH   9  10
HETATM   10  C6  UNL     1      42.144 -21.804  30.666  1.00  0.00     0.053 C 
HETATM   11  C5  UNL     1      42.231 -21.565  31.962  1.00  0.00     0.052 C 
HETATM   12  C4  UNL     1      41.472 -22.269  33.015  1.00  0.00     0.194 C 
HETATM   13  C24 UNL     1      40.510 -23.307  32.484  1.00  0.00     0.198 C 
HETATM   14  C23 UNL     1      40.016 -22.813  31.179  1.00  0.00     0.192 C 
HETATM   15  C19 UNL     1      41.224 -22.845  30.224  1.00  0.00     0.207 C 
HETATM   16  O9  UNL     1      39.200 -23.684  30.482  1.00  0.00    -0.345 OA
HETATM   17  O8  UNL     1      40.544 -22.578  29.055  1.00  0.00    -0.342 OA
HETATM   18  C20 UNL     1      39.406 -23.345  29.152  1.00  0.00     0.158 C 
HETATM   19  C21 UNL     1      39.653 -24.629  28.389  1.00  0.00     0.078 C 
HETATM   20  C22 UNL     1      38.254 -22.562  28.565  1.00  0.00     0.078 C 
BRANCH  12  21
HETATM   21  C3  UNL     1      40.689 -21.309  33.838  1.00  0.00     0.300 C 
HETATM   22  O2  UNL     1      40.337 -21.587  35.036  1.00  0.00    -0.261 OA
BRANCH  21  23
HETATM   23  O1  UNL     1      40.277 -20.059  33.403  1.00  0.00    -0.319 OA
BRANCH  23  24
HETATM   24  C2  UNL     1      40.408 -18.887  34.189  1.00  0.00     0.174 C 
HETATM   25  C1  UNL     1      41.868 -18.480  34.135  1.00  0.00     0.034 C 
ENDBRANCH  23  24
ENDBRANCH  21  23
ENDBRANCH  12  21
BRANCH  12  26
HETATM   26  O3  UNL     1      42.419 -22.846  33.869  1.00  0.00    -0.373 OA
ATOM     27  H3  UNL     1      43.199 -22.994  33.346  1.00  0.00     0.211 HD
ENDBRANCH  12  26
BRANCH  13  28
HETATM   28  O10 UNL     1      41.233 -24.491  32.337  1.00  0.00    -0.389 OA
ATOM     29  H10 UNL     1      40.605 -25.176  32.144  1.00  0.00     0.210 HD
ENDBRANCH  13  28
ENDBRANCH   9  10
BRANCH   9  30
HETATM   30  C7  UNL     1      44.138 -21.651  29.198  1.00  0.00     0.306 C 
BRANCH  30  31
HETATM   31  O4  UNL     1      44.897 -20.723  28.487  1.00  0.00    -0.376 OA
HETATM   32  C8  UNL     1      45.859 -21.401  27.775  1.00  0.00     0.203 C 
ENDBRANCH  30  31
ENDBRANCH   9  30
ENDBRANCH   8   9
ENDBRANCH   1   8
BRANCH   4  33
HETATM   33  N4  UNL     1      38.721 -16.276  29.532  1.00  0.00    -0.250 N 
ATOM     34  H4  UNL     1      38.616 -15.740  28.671  1.00  0.00     0.191 HD
BRANCH  33  35
HETATM   35  C10 UNL     1      37.693 -16.444  30.282  1.00  0.00     0.261 A 
HETATM   36  N5  UNL     1      37.804 -16.236  31.603  1.00  0.00    -0.153 N 
HETATM   37  C11 UNL     1      36.743 -16.406  32.400  1.00  0.00     0.682 A 
ATOM     38  H5  UNL     1      38.698 -15.947  32.001  1.00  0.00     0.188 HD
HETATM   39  N7  UNL     1      35.580 -16.788  31.825  1.00  0.00    -0.155 N 
HETATM   40  C12 UNL     1      35.505 -16.987  30.503  1.00  0.00     0.239 A 
ATOM     41  H7  UNL     1      34.751 -16.926  32.403  1.00  0.00     0.188 HD
HETATM   42  N8  UNL     1      34.368 -17.356  29.974  1.00  0.00    -0.364 N 
HETATM   43  O5  UNL     1      36.562 -16.811  29.755  1.00  0.00    -0.245 OA
ATOM     44  H82 UNL     1      33.544 -17.493  30.557  1.00  0.00     0.159 HD
ATOM     45  H81 UNL     1      34.311 -17.507  28.967  1.00  0.00     0.159 HD
BRANCH  37  46
HETATM   46  N6  UNL     1      36.776 -16.223  33.686  1.00  0.00    -0.234 N 
ATOM     47  H62 UNL     1      36.283 -16.881  34.291  1.00  0.00     0.174 HD
ATOM     48  H61 UNL     1      37.271 -15.450  34.131  1.00  0.00     0.174 HD
ENDBRANCH  37  46
ENDBRANCH  33  35
ENDBRANCH   4  33
BRANCH   6  49
HETATM   49  N10 UNL     1      38.642 -19.731  30.859  1.00  0.00    -0.294 N 
HETATM   50  C13 UNL     1      37.417 -20.009  31.126  1.00  0.00     0.156 C 
ATOM     51  H10 UNL     1      39.367 -20.110  31.467  1.00  0.00     0.186 HD
BRANCH  50  52
HETATM   52  C14 UNL     1      37.152 -20.855  32.295  1.00  0.00     0.122 A 
HETATM   53  N11 UNL     1      37.154 -20.382  33.533  1.00  0.00    -0.350 N 
HETATM   54  C15 UNL     1      36.902 -21.204  34.580  1.00  0.00     0.109 A 
ATOM     55  H11 UNL     1      37.346 -19.394  33.699  1.00  0.00     0.166 HD
HETATM   56  C16 UNL     1      36.642 -22.536  34.379  1.00  0.00     0.071 A 
HETATM   57  C18 UNL     1      36.645 -23.015  33.087  1.00  0.00     0.109 A 
HETATM   58  N12 UNL     1      36.898 -22.168  32.080  1.00  0.00    -0.350 N 
ATOM     59  H12 UNL     1      36.900 -22.523  31.124  1.00  0.00     0.166 HD
BRANCH  56  60
HETATM   60  C17 UNL     1      36.376 -23.396  35.528  1.00  0.00     0.212 C 
HETATM   61  O6  UNL     1      37.245 -23.561  36.413  1.00  0.00    -0.644 OA
HETATM   62  O7  UNL     1      35.158 -24.057  35.681  1.00  0.00    -0.644 OA
ENDBRANCH  56  60
ENDBRANCH  50  52
ENDBRANCH   6  49
TORSDOF 16
ENDMDL
MODEL 5
REMARK VINA RESULT: -8.663663591      2.833      7.365
REMARK  16 active torsions:
REMARK  status: ('A' for Active; 'I' for Inactive)
REMARK    1  A    between atoms: C2_2  and  O1_3 
REMARK    2  A    between atoms: O1_3  and  C3_4 
REMARK    3  A    between atoms: C3_4  and  C4_6 
REMARK    4  A    between atoms: C4_6  and  O3_7 
REMARK    5  A    between atoms: C6_10  and  N1_11 
REMARK    6  A    between atoms: N1_11  and  C7_12 
REMARK    7  A    between atoms: N1_11  and  S1_15 
REMARK    8  A    between atoms: C7_12  and  O4_13 
REMARK    9  A    between atoms: S1_15  and  N2_16 
REMARK       I    between atoms: N2_16  and  C9_18 
REMARK       I    between atoms: C9_18  and  N3_19 
REMARK       I    between atoms: C9_18  and  N9_37 
REMARK   10  A    between atoms: N3_19  and  N4_21 
REMARK   11  A    between atoms: N4_21  and  C10_23 
REMARK   12  A    between atoms: C11_26  and  N6_27 
REMARK   13  A    between atoms: N9_37  and  N10_39 
REMARK   14  A    between atoms: C13_41  and  C14_42 
REMARK   15  A    between atoms: C16_46  and  C17_47 
REMARK   16  A    between atoms: C24_60  and  O10_61 
ROOT
HETATM    1  N2  UNL     1      38.963 -20.966  33.578  1.00  0.00    -0.142 N 
ATOM      2  H2  UNL     1      39.064 -21.963  33.766  1.00  0.00     0.194 HD
HETATM    3  C9  UNL     1      40.128 -20.236  33.247  1.00  0.00     0.718 C 
HETATM    4  N3  UNL     1      40.703 -20.332  32.086  1.00  0.00    -0.127 N 
ATOM      5  H3  UNL     1      40.306 -20.955  31.381  1.00  0.00     0.206 HD
HETATM    6  N9  UNL     1      40.714 -19.351  34.209  1.00  0.00    -0.130 N 
ATOM      7  H9  UNL     1      40.804 -18.351  34.027  1.00  0.00     0.205 HD
ENDROOT
BRANCH   1   8
HETATM    8  S1  UNL     1      37.351 -20.270  33.686  1.00  0.00     0.086 SA
BRANCH   8   9
HETATM    9  N1  UNL     1      36.595 -20.116  32.101  1.00  0.00    -0.282 N 
BRANCH   9  10
HETATM   10  C6  UNL     1      36.251 -18.865  31.528  1.00  0.00     0.053 C 
HETATM   11  C5  UNL     1      35.030 -18.372  31.629  1.00  0.00     0.052 C 
HETATM   12  C4  UNL     1      34.579 -17.082  31.068  1.00  0.00     0.194 C 
HETATM   13  C24 UNL     1      35.672 -16.304  30.370  1.00  0.00     0.198 C 
HETATM   14  C23 UNL     1      36.935 -16.597  31.083  1.00  0.00     0.192 C 
HETATM   15  C19 UNL     1      37.248 -18.080  30.809  1.00  0.00     0.207 C 
HETATM   16  O9  UNL     1      38.077 -16.056  30.520  1.00  0.00    -0.345 OA
HETATM   17  O8  UNL     1      38.518 -18.104  31.342  1.00  0.00    -0.342 OA
HETATM   18  C20 UNL     1      39.085 -16.931  30.900  1.00  0.00     0.158 C 
HETATM   19  C21 UNL     1      39.897 -17.252  29.663  1.00  0.00     0.078 C 
HETATM   20  C22 UNL     1      39.952 -16.375  32.007  1.00  0.00     0.078 C 
BRANCH  12  21
HETATM   21  C3  UNL     1      34.014 -16.208  32.130  1.00  0.00     0.300 C 
HETATM   22  O2  UNL     1      33.076 -15.374  31.882  1.00  0.00    -0.261 OA
BRANCH  21  23
HETATM   23  O1  UNL     1      34.432 -16.212  33.452  1.00  0.00    -0.319 OA
BRANCH  23  24
HETATM   24  C2  UNL     1      35.023 -15.086  34.077  1.00  0.00     0.174 C 
HETATM   25  C1  UNL     1      33.973 -14.488  34.992  1.00  0.00     0.034 C 
ENDBRANCH  23  24
ENDBRANCH  21  23
ENDBRANCH  12  21
BRANCH  12  26
HETATM   26  O3  UNL     1      33.528 -17.376  30.192  1.00  0.00    -0.373 OA
ATOM     27  H3  UNL     1      33.096 -16.551  30.003  1.00  0.00     0.211 HD
ENDBRANCH  12  26
BRANCH  13  28
HETATM   28  O10 UNL     1      35.715 -16.761  29.052  1.00  0.00    -0.389 OA
ATOM     29  H10 UNL     1      36.381 -16.253  28.606  1.00  0.00     0.210 HD
ENDBRANCH  13  28
ENDBRANCH   9  10
BRANCH   9  30
HETATM   30  C7  UNL     1      36.321 -21.339  31.370  1.00  0.00     0.306 C 
BRANCH  30  31
HETATM   31  O4  UNL     1      37.473 -22.089  31.143  1.00  0.00    -0.376 OA
HETATM   32  C8  UNL     1      38.043 -21.666  29.964  1.00  0.00     0.203 C 
ENDBRANCH  30  31
ENDBRANCH   9  30
ENDBRANCH   8   9
ENDBRANCH   1   8
BRANCH   4  33
HETATM   33  N4  UNL     1      41.853 -19.602  31.784  1.00  0.00    -0.250 N 
ATOM     34  H4  UNL     1      41.858 -18.599  31.967  1.00  0.00     0.191 HD
BRANCH  33  35
HETATM   35  C10 UNL     1      42.905 -20.141  31.284  1.00  0.00     0.261 A 
HETATM   36  N5  UNL     1      43.184 -19.956  29.985  1.00  0.00    -0.153 N 
HETATM   37  C11 UNL     1      44.276 -20.512  29.447  1.00  0.00     0.682 A 
ATOM     38  H5  UNL     1      42.563 -19.391  29.405  1.00  0.00     0.188 HD
HETATM   39  N7  UNL     1      45.067 -21.251  30.257  1.00  0.00    -0.155 N 
HETATM   40  C12 UNL     1      44.758 -21.416  31.549  1.00  0.00     0.239 A 
ATOM     41  H7  UNL     1      45.909 -21.688  29.880  1.00  0.00     0.188 HD
HETATM   42  N8  UNL     1      45.542 -22.136  32.308  1.00  0.00    -0.364 N 
HETATM   43  O5  UNL     1      43.683 -20.858  32.040  1.00  0.00    -0.245 OA
ATOM     44  H82 UNL     1      46.380 -22.571  31.926  1.00  0.00     0.159 HD
ATOM     45  H81 UNL     1      45.306 -22.261  33.292  1.00  0.00     0.159 HD
BRANCH  37  46
HETATM   46  N6  UNL     1      44.609 -20.375  28.199  1.00  0.00    -0.234 N 
ATOM     47  H62 UNL     1      43.970 -19.889  27.569  1.00  0.00     0.174 HD
ATOM     48  H61 UNL     1      45.481 -20.730  27.808  1.00  0.00     0.174 HD
ENDBRANCH  37  46
ENDBRANCH  33  35
ENDBRANCH   4  33
BRANCH   6  49
HETATM   49  N10 UNL     1      41.156 -19.916  35.406  1.00  0.00    -0.294 N 
HETATM   50  C13 UNL     1      42.152 -20.723  35.481  1.00  0.00     0.156 C 
ATOM     51  H10 UNL     1      40.663 -19.675  36.266  1.00  0.00     0.186 HD
BRANCH  50  52
HETATM   52  C14 UNL     1      42.507 -21.241  36.805  1.00  0.00     0.122 A 
HETATM   53  N11 UNL     1      42.679 -20.454  37.858  1.00  0.00    -0.350 N 
HETATM   54  C15 UNL     1      43.006 -20.982  39.062  1.00  0.00     0.109 A 
ATOM     55  H11 UNL     1      42.564 -19.445  37.761  1.00  0.00     0.166 HD
HETATM   56  C16 UNL     1      43.166 -22.336  39.214  1.00  0.00     0.071 A 
HETATM   57  C18 UNL     1      42.986 -23.143  38.111  1.00  0.00     0.109 A 
HETATM   58  N12 UNL     1      42.662 -22.581  36.940  1.00  0.00    -0.350 N 
ATOM     59  H12 UNL     1      42.529 -23.179  36.124  1.00  0.00     0.166 HD
BRANCH  56  60
HETATM   60  C17 UNL     1      43.520 -22.874  40.523  1.00  0.00     0.212 C 
HETATM   61  O6  UNL     1      44.641 -22.639  41.025  1.00  0.00    -0.644 OA
HETATM   62  O7  UNL     1      42.631 -23.659  41.257  1.00  0.00    -0.644 OA
ENDBRANCH  56  60
ENDBRANCH  50  52
ENDBRANCH   6  49
TORSDOF 16
ENDMDL
