MODEL 1
REMARK VINA RESULT: -6.635896257      0.000      0.000
REMARK  11 active torsions:
REMARK  status: ('A' for Active; 'I' for Inactive)
REMARK    1  A    between atoms: C2_2  and  N1_3 
REMARK    2  A    between atoms: C2_2  and  C9_30 
REMARK    3  A    between atoms: N1_3  and  N2_4 
REMARK    4  A    between atoms: N2_4  and  C3_6 
REMARK    5  A    between atoms: C5_11  and  N4_12 
REMARK    6  A    between atoms: N4_12  and  C6_14 
REMARK    7  A    between atoms: C6_14  and  O1_15 
REMARK    8  A    between atoms: C6_14  and  O2_17 
REMARK       I    between atoms: N5_19  and  C7_20 
REMARK       I    between atoms: C7_20  and  N6_22 
REMARK    9  A    between atoms: N6_22  and  N7_24 
REMARK   10  A    between atoms: C9_30  and  O5_32 
REMARK   11  A    between atoms: O5_32  and  N9_33 
ROOT
HETATM    1  C3  UNL     1      17.065   9.100   7.518  1.00  0.00     0.710 A 
HETATM    2  N3  UNL     1      18.135   8.246   7.412  1.00  0.00    -0.179 N 
ATOM      3  H3  UNL     1      18.739   7.912   8.162  1.00  0.00     0.185 HD
HETATM    4  C4  UNL     1      18.214   7.943   6.087  1.00  0.00     0.139 A 
HETATM    5  S1  UNL     1      19.087   7.065   4.918  1.00  0.00    -0.031 SA
HETATM    6  C5  UNL     1      18.167   7.536   3.532  1.00  0.00     0.162 A 
HETATM    7  N5  UNL     1      17.242   8.337   4.040  1.00  0.00    -0.224 N 
HETATM    8  C7  UNL     1      16.249   8.965   3.165  1.00  0.00     0.348 C 
HETATM    9  O3  UNL     1      15.346   9.721   3.679  1.00  0.00    -0.245 OA
HETATM   10  N6  UNL     1      16.186   8.819   1.798  1.00  0.00    -0.257 N 
ATOM     11  H6  UNL     1      16.857   8.240   1.292  1.00  0.00     0.191 HD
HETATM   12  C8  UNL     1      17.257   8.555   5.356  1.00  0.00     0.168 A 
HETATM   13  N8  UNL     1      16.544   9.280   6.290  1.00  0.00    -0.171 N 
ATOM     14  H8  UNL     1      15.738   9.869   6.080  1.00  0.00     0.186 HD
ENDROOT
BRANCH   1  15
HETATM   15  N2  UNL     1      16.761   9.571   8.637  1.00  0.00    -0.065 N 
ATOM     16  H2  UNL     1      17.557  10.119   8.961  1.00  0.00     0.221 HD
BRANCH  15  17
HETATM   17  N1  UNL     1      15.888   9.640   9.507  1.00  0.00    -0.310 NA
BRANCH  17  18
HETATM   18  C2  UNL     1      15.095   9.740  10.314  1.00  0.00     0.182 C 
HETATM   19  C1  UNL     1      14.100   9.865  11.324  1.00  0.00     0.094 C 
BRANCH  18  20
HETATM   20  C9  UNL     1      14.373   8.225   9.679  1.00  0.00     0.342 C 
HETATM   21  O4  UNL     1      14.970   7.316  10.157  1.00  0.00    -0.255 OA
BRANCH  20  22
HETATM   22  O5  UNL     1      13.375   8.374   8.853  1.00  0.00    -0.200 OA
BRANCH  22  23
HETATM   23  N9  UNL     1      12.307   7.423   8.971  1.00  0.00    -0.302 N 
ATOM     24  H92 UNL     1      12.463   6.508   9.394  1.00  0.00     0.184 HD
ATOM     25  H91 UNL     1      11.399   7.719   8.613  1.00  0.00     0.184 HD
ENDBRANCH  22  23
ENDBRANCH  20  22
ENDBRANCH  18  20
ENDBRANCH  17  18
ENDBRANCH  15  17
ENDBRANCH   1  15
BRANCH   6  26
HETATM   26  N4  UNL     1      18.414   7.149   2.296  1.00  0.00    -0.322 N 
ATOM     27  H4  UNL     1      18.935   7.739   1.647  1.00  0.00     0.166 HD
BRANCH  26  28
HETATM   28  C6  UNL     1      17.911   5.847   1.898  1.00  0.00     0.367 C 
BRANCH  28  29
HETATM   29  O1  UNL     1      18.914   4.919   1.719  1.00  0.00    -0.355 OA
ATOM     30  H1  UNL     1      19.665   5.076   2.280  1.00  0.00     0.214 HD
ENDBRANCH  28  29
BRANCH  28  31
HETATM   31  O2  UNL     1      17.132   5.991   0.755  1.00  0.00    -0.355 OA
ATOM     32  H2  UNL     1      16.703   5.165   0.566  1.00  0.00     0.214 HD
ENDBRANCH  28  31
ENDBRANCH  26  28
ENDBRANCH   6  26
BRANCH  10  33
HETATM   33  N7  UNL     1      15.128   9.521   1.111  1.00  0.00    -0.341 N 
ATOM     34  H72 UNL     1      14.439  10.060   1.634  1.00  0.00     0.177 HD
ATOM     35  H71 UNL     1      15.109   9.448   0.094  1.00  0.00     0.177 HD
ENDBRANCH  10  33
TORSDOF 11
ENDMDL
MODEL 2
REMARK VINA RESULT: -6.316383905      3.926      5.233
REMARK  11 active torsions:
REMARK  status: ('A' for Active; 'I' for Inactive)
REMARK    1  A    between atoms: C2_2  and  N1_3 
REMARK    2  A    between atoms: C2_2  and  C9_30 
REMARK    3  A    between atoms: N1_3  and  N2_4 
REMARK    4  A    between atoms: N2_4  and  C3_6 
REMARK    5  A    between atoms: C5_11  and  N4_12 
REMARK    6  A    between atoms: N4_12  and  C6_14 
REMARK    7  A    between atoms: C6_14  and  O1_15 
REMARK    8  A    between atoms: C6_14  and  O2_17 
REMARK       I    between atoms: N5_19  and  C7_20 
REMARK       I    between atoms: C7_20  and  N6_22 
REMARK    9  A    between atoms: N6_22  and  N7_24 
REMARK   10  A    between atoms: C9_30  and  O5_32 
REMARK   11  A    between atoms: O5_32  and  N9_33 
ROOT
HETATM    1  C3  UNL     1      12.805   7.204   9.335  1.00  0.00     0.710 A 
HETATM    2  N3  UNL     1      13.608   6.091   9.338  1.00  0.00    -0.179 N 
ATOM      3  H3  UNL     1      13.335   5.129   9.538  1.00  0.00     0.185 HD
HETATM    4  C4  UNL     1      14.849   6.550   9.017  1.00  0.00     0.139 A 
HETATM    5  S1  UNL     1      16.471   6.097   8.768  1.00  0.00    -0.031 SA
HETATM    6  C5  UNL     1      17.104   7.665   8.410  1.00  0.00     0.162 A 
HETATM    7  N5  UNL     1      16.039   8.449   8.499  1.00  0.00    -0.224 N 
HETATM    8  C7  UNL     1      16.163   9.890   8.268  1.00  0.00     0.348 C 
HETATM    9  O3  UNL     1      15.115  10.630   8.336  1.00  0.00    -0.245 OA
HETATM   10  N6  UNL     1      17.334  10.552   7.975  1.00  0.00    -0.257 N 
ATOM     11  H6  UNL     1      18.222  10.056   7.898  1.00  0.00     0.191 HD
HETATM   12  C8  UNL     1      14.872   7.886   8.812  1.00  0.00     0.168 A 
HETATM   13  N8  UNL     1      13.562   8.271   9.019  1.00  0.00    -0.171 N 
ATOM     14  H8  UNL     1      13.217   9.228   8.945  1.00  0.00     0.186 HD
ENDROOT
BRANCH   1  15
HETATM   15  N2  UNL     1      11.592   7.089   9.622  1.00  0.00    -0.065 N 
ATOM     16  H2  UNL     1      11.132   6.652   8.823  1.00  0.00     0.221 HD
BRANCH  15  17
HETATM   17  N1  UNL     1      10.728   7.290  10.480  1.00  0.00    -0.310 NA
BRANCH  17  18
HETATM   18  C2  UNL     1       9.905   7.469  11.242  1.00  0.00     0.182 C 
HETATM   19  C1  UNL     1       8.876   7.692  12.199  1.00  0.00     0.094 C 
BRANCH  18  20
HETATM   20  C9  UNL     1      11.170   8.126  12.332  1.00  0.00     0.342 C 
HETATM   21  O4  UNL     1      11.684   7.207  12.881  1.00  0.00    -0.255 OA
BRANCH  20  22
HETATM   22  O5  UNL     1      11.300   9.424  12.333  1.00  0.00    -0.200 OA
BRANCH  22  23
HETATM   23  N9  UNL     1      12.557   9.935  11.865  1.00  0.00    -0.302 N 
ATOM     24  H92 UNL     1      13.214  10.379  12.506  1.00  0.00     0.184 HD
ATOM     25  H91 UNL     1      12.745   9.826  10.869  1.00  0.00     0.184 HD
ENDBRANCH  22  23
ENDBRANCH  20  22
ENDBRANCH  18  20
ENDBRANCH  17  18
ENDBRANCH  15  17
ENDBRANCH   1  15
BRANCH   6  26
HETATM   26  N4  UNL     1      18.368   7.925   8.139  1.00  0.00    -0.322 N 
ATOM     27  H4  UNL     1      18.979   8.369   8.825  1.00  0.00     0.166 HD
BRANCH  26  28
HETATM   28  C6  UNL     1      18.853   7.552   6.823  1.00  0.00     0.367 C 
BRANCH  28  29
HETATM   29  O1  UNL     1      20.226   7.606   6.725  1.00  0.00    -0.355 OA
ATOM     30  H1  UNL     1      20.664   7.191   7.459  1.00  0.00     0.214 HD
ENDBRANCH  28  29
BRANCH  28  31
HETATM   31  O2  UNL     1      18.235   8.352   5.869  1.00  0.00    -0.355 OA
ATOM     32  H2  UNL     1      18.882   8.628   5.230  1.00  0.00     0.214 HD
ENDBRANCH  28  31
ENDBRANCH  26  28
ENDBRANCH   6  26
BRANCH  10  33
HETATM   33  N7  UNL     1      17.249  11.980   7.780  1.00  0.00    -0.341 N 
ATOM     34  H72 UNL     1      17.476  12.621   8.539  1.00  0.00     0.177 HD
ATOM     35  H71 UNL     1      16.955  12.305   6.858  1.00  0.00     0.177 HD
ENDBRANCH  10  33
TORSDOF 11
ENDMDL
MODEL 3
REMARK VINA RESULT: -6.303415149      2.995      3.982
REMARK  11 active torsions:
REMARK  status: ('A' for Active; 'I' for Inactive)
REMARK    1  A    between atoms: C2_2  and  N1_3 
REMARK    2  A    between atoms: C2_2  and  C9_30 
REMARK    3  A    between atoms: N1_3  and  N2_4 
REMARK    4  A    between atoms: N2_4  and  C3_6 
REMARK    5  A    between atoms: C5_11  and  N4_12 
REMARK    6  A    between atoms: N4_12  and  C6_14 
REMARK    7  A    between atoms: C6_14  and  O1_15 
REMARK    8  A    between atoms: C6_14  and  O2_17 
REMARK       I    between atoms: N5_19  and  C7_20 
REMARK       I    between atoms: C7_20  and  N6_22 
REMARK    9  A    between atoms: N6_22  and  N7_24 
REMARK   10  A    between atoms: C9_30  and  O5_32 
REMARK   11  A    between atoms: O5_32  and  N9_33 
ROOT
HETATM    1  C3  UNL     1      14.679   9.718   9.854  1.00  0.00     0.710 A 
HETATM    2  N3  UNL     1      15.764   8.994  10.282  1.00  0.00    -0.179 N 
ATOM      3  H3  UNL     1      16.024   8.774  11.243  1.00  0.00     0.185 HD
HETATM    4  C4  UNL     1      16.417   8.632   9.143  1.00  0.00     0.139 A 
HETATM    5  S1  UNL     1      17.772   7.804   8.529  1.00  0.00    -0.031 SA
HETATM    6  C5  UNL     1      17.482   8.088   6.848  1.00  0.00     0.162 A 
HETATM    7  N5  UNL     1      16.363   8.799   6.850  1.00  0.00    -0.224 N 
HETATM    8  C7  UNL     1      15.779   9.256   5.587  1.00  0.00     0.348 C 
HETATM    9  O3  UNL     1      14.682   9.926   5.608  1.00  0.00    -0.245 OA
HETATM   10  N6  UNL     1      16.308   9.032   4.336  1.00  0.00    -0.257 N 
ATOM     11  H6  UNL     1      17.177   8.511   4.211  1.00  0.00     0.191 HD
HETATM   12  C8  UNL     1      15.806   9.087   8.027  1.00  0.00     0.168 A 
HETATM   13  N8  UNL     1      14.708   9.770   8.510  1.00  0.00    -0.171 N 
ATOM     14  H8  UNL     1      14.016  10.247   7.930  1.00  0.00     0.186 HD
ENDROOT
BRANCH   1  15
HETATM   15  N2  UNL     1      13.894  10.208  10.697  1.00  0.00    -0.065 N 
ATOM     16  H2  UNL     1      12.953   9.909  10.445  1.00  0.00     0.221 HD
BRANCH  15  17
HETATM   17  N1  UNL     1      13.798  10.906  11.711  1.00  0.00    -0.310 NA
BRANCH  17  18
HETATM   18  C2  UNL     1      13.748  11.547  12.647  1.00  0.00     0.182 C 
HETATM   19  C1  UNL     1      13.683  12.350  13.820  1.00  0.00     0.094 C 
BRANCH  18  20
HETATM   20  C9  UNL     1      11.986  11.708  12.345  1.00  0.00     0.342 C 
HETATM   21  O4  UNL     1      11.841  12.528  11.498  1.00  0.00    -0.255 OA
BRANCH  20  22
HETATM   22  O5  UNL     1      11.214  10.941  13.064  1.00  0.00    -0.200 OA
BRANCH  22  23
HETATM   23  N9  UNL     1      10.056  10.411  12.404  1.00  0.00    -0.302 N 
ATOM     24  H92 UNL     1       9.790  10.730  11.473  1.00  0.00     0.184 HD
ATOM     25  H91 UNL     1       9.526   9.707  12.918  1.00  0.00     0.184 HD
ENDBRANCH  22  23
ENDBRANCH  20  22
ENDBRANCH  18  20
ENDBRANCH  17  18
ENDBRANCH  15  17
ENDBRANCH   1  15
BRANCH   6  26
HETATM   26  N4  UNL     1      18.257   7.668   5.867  1.00  0.00    -0.322 N 
ATOM     27  H4  UNL     1      17.877   7.449   4.946  1.00  0.00     0.166 HD
BRANCH  26  28
HETATM   28  C6  UNL     1      19.672   7.530   6.155  1.00  0.00     0.367 C 
BRANCH  28  29
HETATM   29  O1  UNL     1      20.462   8.308   5.336  1.00  0.00    -0.355 OA
ATOM     30  H1  UNL     1      20.678   9.148   5.723  1.00  0.00     0.214 HD
ENDBRANCH  28  29
BRANCH  28  31
HETATM   31  O2  UNL     1      20.021   6.186   6.084  1.00  0.00    -0.355 OA
ATOM     32  H2  UNL     1      19.933   5.891   5.185  1.00  0.00     0.214 HD
ENDBRANCH  28  31
ENDBRANCH  26  28
ENDBRANCH   6  26
BRANCH  10  33
HETATM   33  N7  UNL     1      15.580   9.565   3.210  1.00  0.00    -0.341 N 
ATOM     34  H72 UNL     1      14.820  10.230   3.352  1.00  0.00     0.177 HD
ATOM     35  H71 UNL     1      15.862   9.247   2.283  1.00  0.00     0.177 HD
ENDBRANCH  10  33
TORSDOF 11
ENDMDL
MODEL 4
REMARK VINA RESULT: -6.246232234      3.893      8.966
REMARK  11 active torsions:
REMARK  status: ('A' for Active; 'I' for Inactive)
REMARK    1  A    between atoms: C2_2  and  N1_3 
REMARK    2  A    between atoms: C2_2  and  C9_30 
REMARK    3  A    between atoms: N1_3  and  N2_4 
REMARK    4  A    between atoms: N2_4  and  C3_6 
REMARK    5  A    between atoms: C5_11  and  N4_12 
REMARK    6  A    between atoms: N4_12  and  C6_14 
REMARK    7  A    between atoms: C6_14  and  O1_15 
REMARK    8  A    between atoms: C6_14  and  O2_17 
REMARK       I    between atoms: N5_19  and  C7_20 
REMARK       I    between atoms: C7_20  and  N6_22 
REMARK    9  A    between atoms: N6_22  and  N7_24 
REMARK   10  A    between atoms: C9_30  and  O5_32 
REMARK   11  A    between atoms: O5_32  and  N9_33 
ROOT
HETATM    1  C3  UNL     1      15.685   9.392   9.744  1.00  0.00     0.710 A 
HETATM    2  N3  UNL     1      15.093   8.158   9.852  1.00  0.00    -0.179 N 
ATOM      3  H3  UNL     1      15.354   7.300   9.366  1.00  0.00     0.185 HD
HETATM    4  C4  UNL     1      14.083   8.328  10.748  1.00  0.00     0.139 A 
HETATM    5  S1  UNL     1      12.804   7.547  11.556  1.00  0.00    -0.031 SA
HETATM    6  C5  UNL     1      12.226   8.906  12.455  1.00  0.00     0.162 A 
HETATM    7  N5  UNL     1      13.046   9.881  12.090  1.00  0.00    -0.224 N 
HETATM    8  C7  UNL     1      12.878  11.230  12.638  1.00  0.00     0.348 C 
HETATM    9  O3  UNL     1      13.696  12.157  12.288  1.00  0.00    -0.245 OA
HETATM   10  N6  UNL     1      11.895  11.614  13.522  1.00  0.00    -0.257 N 
ATOM     11  H6  UNL     1      11.195  10.953  13.860  1.00  0.00     0.191 HD
HETATM   12  C8  UNL     1      14.006   9.596  11.210  1.00  0.00     0.168 A 
HETATM   13  N8  UNL     1      15.034  10.245  10.555  1.00  0.00    -0.171 N 
ATOM     14  H8  UNL     1      15.267  11.232  10.671  1.00  0.00     0.186 HD
ENDROOT
BRANCH   1  15
HETATM   15  N2  UNL     1      16.647   9.548   8.958  1.00  0.00    -0.065 N 
ATOM     16  H2  UNL     1      16.949  10.518   9.038  1.00  0.00     0.221 HD
BRANCH  15  17
HETATM   17  N1  UNL     1      17.378   9.002   8.126  1.00  0.00    -0.310 NA
BRANCH  17  18
HETATM   18  C2  UNL     1      18.072   8.487   7.390  1.00  0.00     0.182 C 
HETATM   19  C1  UNL     1      18.941   7.841   6.467  1.00  0.00     0.094 C 
BRANCH  18  20
HETATM   20  C9  UNL     1      16.604   7.910   6.535  1.00  0.00     0.342 C 
HETATM   21  O4  UNL     1      16.198   6.960   7.121  1.00  0.00    -0.255 OA
BRANCH  20  22
HETATM   22  O5  UNL     1      16.256   8.592   5.479  1.00  0.00    -0.200 OA
BRANCH  22  23
HETATM   23  N9  UNL     1      15.290   9.632   5.687  1.00  0.00    -0.302 N 
ATOM     24  H92 UNL     1      14.751   9.683   6.551  1.00  0.00     0.184 HD
ATOM     25  H91 UNL     1      15.182  10.305   4.929  1.00  0.00     0.184 HD
ENDBRANCH  22  23
ENDBRANCH  20  22
ENDBRANCH  18  20
ENDBRANCH  17  18
ENDBRANCH  15  17
ENDBRANCH   1  15
BRANCH   6  26
HETATM   26  N4  UNL     1      11.195   8.884  13.277  1.00  0.00    -0.322 N 
ATOM     27  H4  UNL     1      11.322   8.844  14.289  1.00  0.00     0.166 HD
BRANCH  26  28
HETATM   28  C6  UNL     1       9.873   8.918  12.680  1.00  0.00     0.367 C 
BRANCH  28  29
HETATM   29  O1  UNL     1       9.500  10.183  12.281  1.00  0.00    -0.355 OA
ATOM     30  H1  UNL     1       8.662  10.451  12.640  1.00  0.00     0.214 HD
ENDBRANCH  28  29
BRANCH  28  31
HETATM   31  O2  UNL     1       8.959   8.367  13.572  1.00  0.00    -0.355 OA
ATOM     32  H2  UNL     1       9.308   7.551  13.908  1.00  0.00     0.214 HD
ENDBRANCH  28  31
ENDBRANCH  26  28
ENDBRANCH   6  26
BRANCH  10  33
HETATM   33  N7  UNL     1      11.898  12.993  13.948  1.00  0.00    -0.341 N 
ATOM     34  H72 UNL     1      11.448  13.711  13.382  1.00  0.00     0.177 HD
ATOM     35  H71 UNL     1      12.367  13.204  14.829  1.00  0.00     0.177 HD
ENDBRANCH  10  33
TORSDOF 11
ENDMDL
MODEL 5
REMARK VINA RESULT: -6.179069218      3.147      7.697
REMARK  11 active torsions:
REMARK  status: ('A' for Active; 'I' for Inactive)
REMARK    1  A    between atoms: C2_2  and  N1_3 
REMARK    2  A    between atoms: C2_2  and  C9_30 
REMARK    3  A    between atoms: N1_3  and  N2_4 
REMARK    4  A    between atoms: N2_4  and  C3_6 
REMARK    5  A    between atoms: C5_11  and  N4_12 
REMARK    6  A    between atoms: N4_12  and  C6_14 
REMARK    7  A    between atoms: C6_14  and  O1_15 
REMARK    8  A    between atoms: C6_14  and  O2_17 
REMARK       I    between atoms: N5_19  and  C7_20 
REMARK       I    between atoms: C7_20  and  N6_22 
REMARK    9  A    between atoms: N6_22  and  N7_24 
REMARK   10  A    between atoms: C9_30  and  O5_32 
REMARK   11  A    between atoms: O5_32  and  N9_33 
ROOT
HETATM    1  C3  UNL     1      18.725   4.877   2.163  1.00  0.00     0.710 A 
HETATM    2  N3  UNL     1      19.078   5.066   3.476  1.00  0.00    -0.179 N 
ATOM      3  H3  UNL     1      19.661   4.463   4.055  1.00  0.00     0.185 HD
HETATM    4  C4  UNL     1      18.480   6.235   3.836  1.00  0.00     0.139 A 
HETATM    5  S1  UNL     1      18.243   7.329   5.119  1.00  0.00    -0.031 SA
HETATM    6  C5  UNL     1      17.234   8.458   4.285  1.00  0.00     0.162 A 
HETATM    7  N5  UNL     1      17.137   7.936   3.070  1.00  0.00    -0.224 N 
HETATM    8  C7  UNL     1      16.338   8.608   2.042  1.00  0.00     0.348 C 
HETATM    9  O3  UNL     1      16.273   8.098   0.864  1.00  0.00    -0.245 OA
HETATM   10  N6  UNL     1      15.625   9.772   2.220  1.00  0.00    -0.257 N 
ATOM     11  H6  UNL     1      15.610  10.255   3.118  1.00  0.00     0.191 HD
HETATM   12  C8  UNL     1      17.773   6.790   2.828  1.00  0.00     0.168 A 
HETATM   13  N8  UNL     1      17.949   5.907   1.780  1.00  0.00    -0.171 N 
ATOM     14  H8  UNL     1      17.547   6.020   0.849  1.00  0.00     0.186 HD
ENDROOT
BRANCH   1  15
HETATM   15  N2  UNL     1      19.119   3.853   1.560  1.00  0.00    -0.065 N 
ATOM     16  H2  UNL     1      19.957   3.524   2.038  1.00  0.00     0.221 HD
BRANCH  15  17
HETATM   17  N1  UNL     1      18.903   3.080   0.622  1.00  0.00    -0.310 NA
BRANCH  17  18
HETATM   18  C2  UNL     1      18.730   2.344  -0.226  1.00  0.00     0.182 C 
HETATM   19  C1  UNL     1      18.512   1.422  -1.287  1.00  0.00     0.094 C 
BRANCH  18  20
HETATM   20  C9  UNL     1      17.000   2.327   0.251  1.00  0.00     0.342 C 
HETATM   21  O4  UNL     1      16.439   3.144  -0.404  1.00  0.00    -0.255 OA
BRANCH  20  22
HETATM   22  O5  UNL     1      16.675   1.469   1.178  1.00  0.00    -0.200 OA
BRANCH  22  23
HETATM   23  N9  UNL     1      16.285   2.022   2.443  1.00  0.00    -0.302 N 
ATOM     24  H92 UNL     1      16.285   3.029   2.598  1.00  0.00     0.184 HD
ATOM     25  H91 UNL     1      16.012   1.352   3.163  1.00  0.00     0.184 HD
ENDBRANCH  22  23
ENDBRANCH  20  22
ENDBRANCH  18  20
ENDBRANCH  17  18
ENDBRANCH  15  17
ENDBRANCH   1  15
BRANCH   6  26
HETATM   26  N4  UNL     1      16.718   9.548   4.819  1.00  0.00    -0.322 N 
ATOM     27  H4  UNL     1      17.122  10.468   4.646  1.00  0.00     0.166 HD
BRANCH  26  28
HETATM   28  C6  UNL     1      15.551   9.380   5.665  1.00  0.00     0.367 C 
BRANCH  28  29
HETATM   29  O1  UNL     1      14.528  10.245   5.340  1.00  0.00    -0.355 OA
ATOM     30  H1  UNL     1      13.981  10.465   6.085  1.00  0.00     0.214 HD
ENDBRANCH  28  29
BRANCH  28  31
HETATM   31  O2  UNL     1      15.933   9.509   6.996  1.00  0.00    -0.355 OA
ATOM     32  H2  UNL     1      15.452  10.229   7.387  1.00  0.00     0.214 HD
ENDBRANCH  28  31
ENDBRANCH  26  28
ENDBRANCH   6  26
BRANCH  10  33
HETATM   33  N7  UNL     1      14.899  10.277   1.080  1.00  0.00    -0.341 N 
ATOM     34  H72 UNL     1      14.534   9.640   0.373  1.00  0.00     0.177 HD
ATOM     35  H71 UNL     1      14.775  11.289   1.021  1.00  0.00     0.177 HD
ENDBRANCH  10  33
TORSDOF 11
ENDMDL
