MODEL 1
REMARK VINA RESULT: -7.712540915      0.000      0.000
REMARK  7 active torsions:
REMARK  status: ('A' for Active; 'I' for Inactive)
REMARK    1  A    between atoms: C3_7  and  N3_8 
REMARK    2  A    between atoms: N3_8  and  N4_10 
REMARK    3  A    between atoms: C4_12  and  C5_13 
REMARK    4  A    between atoms: C6_14  and  O1_15 
REMARK    5  A    between atoms: N6_23  and  C9_24 
REMARK    6  A    between atoms: N8_27  and  N9_29 
REMARK    7  A    between atoms: C11_36  and  O4_37 
ROOT
HETATM    1  C9  UNL     1      17.896   7.267   8.056  1.00  0.00     0.215 C 
HETATM    2  C10 UNL     1      17.519   6.319   7.075  1.00  0.00     0.139 C 
HETATM    3  N7  UNL     1      17.195   5.545   6.283  1.00  0.00    -0.188 NA
HETATM    4  N8  UNL     1      19.064   7.763   8.065  1.00  0.00    -0.262 N 
ATOM      5  H8  UNL     1      19.286   8.442   8.793  1.00  0.00     0.191 HD
ENDROOT
BRANCH   1   6
HETATM    6  N6  UNL     1      16.984   7.705   9.075  1.00  0.00    -0.235 N 
HETATM    7  C5  UNL     1      16.121   8.730   8.776  1.00  0.00     0.102 A 
HETATM    8  C6  UNL     1      15.238   9.172   9.726  1.00  0.00     0.163 A 
HETATM    9  C7  UNL     1      15.284   8.520  10.981  1.00  0.00     0.285 A 
HETATM   10  O2  UNL     1      14.470   8.924  11.866  1.00  0.00    -0.265 OA
HETATM   11  N5  UNL     1      16.140   7.530  11.225  1.00  0.00    -0.273 N 
HETATM   12  C8  UNL     1      16.990   7.118  10.282  1.00  0.00     0.336 A 
ATOM     13  H5  UNL     1      16.145   7.082  12.141  1.00  0.00     0.173 HD
HETATM   14  O3  UNL     1      17.814   6.178  10.488  1.00  0.00    -0.246 OA
BRANCH   7  15
HETATM   15  C4  UNL     1      16.192   9.291   7.461  1.00  0.00     0.141 C 
HETATM   16  N4  UNL     1      15.360   9.173   6.496  1.00  0.00    -0.295 N 
ATOM     17  H4  UNL     1      14.532   8.606   6.675  1.00  0.00     0.186 HD
BRANCH  16  18
HETATM   18  N3  UNL     1      15.462   9.727   5.248  1.00  0.00    -0.131 N 
ATOM     19  H3  UNL     1      15.049  10.650   5.120  1.00  0.00     0.205 HD
BRANCH  18  20
HETATM   20  C3  UNL     1      16.021   9.205   4.232  1.00  0.00     0.713 A 
HETATM   21  N2  UNL     1      17.056   8.350   4.300  1.00  0.00    -0.130 N 
HETATM   22  N1  UNL     1      17.595   7.840   3.194  1.00  0.00    -0.287 N 
ATOM     23  H2  UNL     1      17.433   8.089   5.210  1.00  0.00     0.205 HD
HETATM   24  C2  UNL     1      17.126   8.160   1.976  1.00  0.00     0.073 A 
ATOM     25  H1  UNL     1      18.380   7.193   3.273  1.00  0.00     0.187 HD
HETATM   26  C1  UNL     1      17.693   7.617   0.721  1.00  0.00     0.074 C 
HETATM   27  C11 UNL     1      16.072   9.029   1.889  1.00  0.00     0.179 A 
HETATM   28  N11 UNL     1      15.555   9.522   3.011  1.00  0.00    -0.166 N 
ATOM     29  H11 UNL     1      14.770  10.170   2.943  1.00  0.00     0.186 HD
BRANCH  27  30
HETATM   30  O4  UNL     1      15.548   9.393   0.658  1.00  0.00    -0.344 OA
ATOM     31  H4  UNL     1      15.383  10.305   0.448  1.00  0.00     0.219 HD
ENDBRANCH  27  30
ENDBRANCH  18  20
ENDBRANCH  16  18
ENDBRANCH   7  15
BRANCH   8  32
HETATM   32  O1  UNL     1      14.346  10.172   9.539  1.00  0.00    -0.354 OA
ATOM     33  H1  UNL     1      13.658  10.402  10.152  1.00  0.00     0.218 HD
ENDBRANCH   8  32
ENDBRANCH   1   6
BRANCH   4  34
HETATM   34  N9  UNL     1      20.066   7.444   7.148  1.00  0.00    -0.247 N 
HETATM   35  N10 UNL     1      20.123   7.889   5.982  1.00  0.00    -0.331 N 
ATOM     36 2H10 UNL     1      19.380   8.528   5.698  1.00  0.00     0.178 HD
ATOM     37 1H10 UNL     1      20.855   7.656   5.312  1.00  0.00     0.178 HD
ATOM     38  H9  UNL     1      20.801   6.805   7.449  1.00  0.00     0.207 HD
ENDBRANCH   4  34
TORSDOF 7
ENDMDL
MODEL 2
REMARK VINA RESULT: -7.541446389      1.739      6.512
REMARK  7 active torsions:
REMARK  status: ('A' for Active; 'I' for Inactive)
REMARK    1  A    between atoms: C3_7  and  N3_8 
REMARK    2  A    between atoms: N3_8  and  N4_10 
REMARK    3  A    between atoms: C4_12  and  C5_13 
REMARK    4  A    between atoms: C6_14  and  O1_15 
REMARK    5  A    between atoms: N6_23  and  C9_24 
REMARK    6  A    between atoms: N8_27  and  N9_29 
REMARK    7  A    between atoms: C11_36  and  O4_37 
ROOT
HETATM    1  C9  UNL     1      18.297   7.160   5.320  1.00  0.00     0.215 C 
HETATM    2  C10 UNL     1      17.556   6.417   6.268  1.00  0.00     0.139 C 
HETATM    3  N7  UNL     1      16.938   5.810   7.030  1.00  0.00    -0.188 NA
HETATM    4  N8  UNL     1      19.470   7.568   5.586  1.00  0.00    -0.262 N 
ATOM      5  H8  UNL     1      19.962   8.100   4.868  1.00  0.00     0.191 HD
ENDROOT
BRANCH   1   6
HETATM    6  N6  UNL     1      17.762   7.486   4.027  1.00  0.00    -0.235 N 
HETATM    7  C5  UNL     1      16.882   8.536   3.934  1.00  0.00     0.102 A 
HETATM    8  C6  UNL     1      16.355   8.872   2.716  1.00  0.00     0.163 A 
HETATM    9  C7  UNL     1      16.766   8.089   1.612  1.00  0.00     0.285 A 
HETATM   10  O2  UNL     1      16.281   8.394   0.481  1.00  0.00    -0.265 OA
HETATM   11  N5  UNL     1      17.622   7.079   1.751  1.00  0.00    -0.273 N 
HETATM   12  C8  UNL     1      18.123   6.772   2.950  1.00  0.00     0.336 A 
ATOM     13  H5  UNL     1      17.898   6.536   0.933  1.00  0.00     0.173 HD
HETATM   14  O3  UNL     1      18.939   5.815   3.109  1.00  0.00    -0.246 OA
BRANCH   7  15
HETATM   15  C4  UNL     1      16.561   9.236   5.140  1.00  0.00     0.141 C 
HETATM   16  N4  UNL     1      15.416   9.400   5.688  1.00  0.00    -0.295 N 
ATOM     17  H4  UNL     1      14.618   8.981   5.210  1.00  0.00     0.186 HD
BRANCH  16  18
HETATM   18  N3  UNL     1      15.146  10.078   6.847  1.00  0.00    -0.131 N 
ATOM     19  H3  UNL     1      14.925  11.069   6.758  1.00  0.00     0.205 HD
BRANCH  18  20
HETATM   20  C3  UNL     1      15.144   9.595   8.023  1.00  0.00     0.713 A 
HETATM   21  N2  UNL     1      14.222   9.890   8.955  1.00  0.00    -0.130 N 
HETATM   22  N1  UNL     1      14.279   9.348  10.170  1.00  0.00    -0.287 N 
ATOM     23  H2  UNL     1      13.468  10.539   8.729  1.00  0.00     0.205 HD
HETATM   24  C2  UNL     1      15.257   8.489  10.506  1.00  0.00     0.073 A 
ATOM     25  H1  UNL     1      13.567   9.589  10.860  1.00  0.00     0.187 HD
HETATM   26  C1  UNL     1      15.360   7.862  11.843  1.00  0.00     0.074 C 
HETATM   27  C11 UNL     1      16.203   8.177   9.568  1.00  0.00     0.179 A 
HETATM   28  N11 UNL     1      16.119   8.735   8.364  1.00  0.00    -0.166 N 
ATOM     29  H11 UNL     1      16.827   8.500   7.667  1.00  0.00     0.186 HD
BRANCH  27  30
HETATM   30  O4  UNL     1      17.234   7.296   9.861  1.00  0.00    -0.344 OA
ATOM     31  H4  UNL     1      18.142   7.560   9.770  1.00  0.00     0.219 HD
ENDBRANCH  27  30
ENDBRANCH  18  20
ENDBRANCH  16  18
ENDBRANCH   7  15
BRANCH   8  32
HETATM   32  O1  UNL     1      15.481   9.886   2.511  1.00  0.00    -0.354 OA
ATOM     33  H1  UNL     1      15.657  10.647   1.970  1.00  0.00     0.218 HD
ENDBRANCH   8  32
ENDBRANCH   1   6
BRANCH   4  34
HETATM   34  N9  UNL     1      20.132   7.337   6.792  1.00  0.00    -0.247 N 
HETATM   35  N10 UNL     1      19.716   7.713   7.908  1.00  0.00    -0.331 N 
ATOM     36 2H10 UNL     1      18.831   8.221   7.920  1.00  0.00     0.178 HD
ATOM     37 1H10 UNL     1      20.200   7.546   8.789  1.00  0.00     0.178 HD
ATOM     38  H9  UNL     1      21.014   6.828   6.760  1.00  0.00     0.207 HD
ENDBRANCH   4  34
TORSDOF 7
ENDMDL
MODEL 3
REMARK VINA RESULT: -7.531502876      1.017      1.309
REMARK  7 active torsions:
REMARK  status: ('A' for Active; 'I' for Inactive)
REMARK    1  A    between atoms: C3_7  and  N3_8 
REMARK    2  A    between atoms: N3_8  and  N4_10 
REMARK    3  A    between atoms: C4_12  and  C5_13 
REMARK    4  A    between atoms: C6_14  and  O1_15 
REMARK    5  A    between atoms: N6_23  and  C9_24 
REMARK    6  A    between atoms: N8_27  and  N9_29 
REMARK    7  A    between atoms: C11_36  and  O4_37 
ROOT
HETATM    1  C9  UNL     1      17.967   7.333   7.930  1.00  0.00     0.215 C 
HETATM    2  C10 UNL     1      17.604   6.418   6.915  1.00  0.00     0.139 C 
HETATM    3  N7  UNL     1      17.292   5.670   6.094  1.00  0.00    -0.188 NA
HETATM    4  N8  UNL     1      19.136   7.827   7.973  1.00  0.00    -0.262 N 
ATOM      5  H8  UNL     1      19.347   8.483   8.726  1.00  0.00     0.191 HD
ENDROOT
BRANCH   1   6
HETATM    6  N6  UNL     1      17.041   7.740   8.949  1.00  0.00    -0.235 N 
HETATM    7  C5  UNL     1      16.159   8.752   8.658  1.00  0.00     0.102 A 
HETATM    8  C6  UNL     1      15.262   9.164   9.608  1.00  0.00     0.163 A 
HETATM    9  C7  UNL     1      15.313   8.497  10.855  1.00  0.00     0.285 A 
HETATM   10  O2  UNL     1      14.485   8.873  11.739  1.00  0.00    -0.265 OA
HETATM   11  N5  UNL     1      16.186   7.521  11.091  1.00  0.00    -0.273 N 
HETATM   12  C8  UNL     1      17.050   7.138  10.148  1.00  0.00     0.336 A 
ATOM     13  H5  UNL     1      16.194   7.061  12.002  1.00  0.00     0.173 HD
HETATM   14  O3  UNL     1      17.892   6.212  10.348  1.00  0.00    -0.246 OA
BRANCH   7  15
HETATM   15  C4  UNL     1      16.227   9.331   7.351  1.00  0.00     0.141 C 
HETATM   16  N4  UNL     1      15.341   9.327   6.427  1.00  0.00    -0.295 N 
ATOM     17  H4  UNL     1      14.465   8.850   6.639  1.00  0.00     0.186 HD
BRANCH  16  18
HETATM   18  N3  UNL     1      15.443   9.894   5.185  1.00  0.00    -0.131 N 
ATOM     19  H3  UNL     1      15.113  10.854   5.090  1.00  0.00     0.205 HD
BRANCH  18  20
HETATM   20  C3  UNL     1      15.909   9.343   4.138  1.00  0.00     0.713 A 
HETATM   21  N2  UNL     1      15.445   9.573   2.898  1.00  0.00    -0.130 N 
HETATM   22  N1  UNL     1      15.979   8.961   1.843  1.00  0.00    -0.287 N 
ATOM     23  H2  UNL     1      14.672  10.226   2.763  1.00  0.00     0.205 HD
HETATM   24  C2  UNL     1      16.998   8.095   1.980  1.00  0.00     0.073 A 
ATOM     25  H1  UNL     1      15.609   9.153   0.912  1.00  0.00     0.187 HD
HETATM   26  C1  UNL     1      17.623   7.393   0.837  1.00  0.00     0.074 C 
HETATM   27  C11 UNL     1      17.483   7.850   3.236  1.00  0.00     0.179 A 
HETATM   28  N11 UNL     1      16.928   8.477   4.270  1.00  0.00    -0.166 N 
ATOM     29  H11 UNL     1      17.292   8.291   5.205  1.00  0.00     0.186 HD
BRANCH  27  30
HETATM   30  O4  UNL     1      18.533   6.966   3.435  1.00  0.00    -0.344 OA
ATOM     31  H4  UNL     1      18.449   6.236   4.036  1.00  0.00     0.219 HD
ENDBRANCH  27  30
ENDBRANCH  18  20
ENDBRANCH  16  18
ENDBRANCH   7  15
BRANCH   8  32
HETATM   32  O1  UNL     1      14.351  10.149   9.428  1.00  0.00    -0.354 OA
ATOM     33  H1  UNL     1      14.025  10.713  10.119  1.00  0.00     0.218 HD
ENDBRANCH   8  32
ENDBRANCH   1   6
BRANCH   4  34
HETATM   34  N9  UNL     1      20.151   7.536   7.062  1.00  0.00    -0.247 N 
HETATM   35  N10 UNL     1      20.159   7.912   5.871  1.00  0.00    -0.331 N 
ATOM     36 2H10 UNL     1      19.362   8.469   5.560  1.00  0.00     0.178 HD
ATOM     37 1H10 UNL     1      20.901   7.699   5.204  1.00  0.00     0.178 HD
ATOM     38  H9  UNL     1      20.940   6.980   7.390  1.00  0.00     0.207 HD
ENDBRANCH   4  34
TORSDOF 7
ENDMDL
MODEL 4
REMARK VINA RESULT: -7.429389918      4.024      6.759
REMARK  7 active torsions:
REMARK  status: ('A' for Active; 'I' for Inactive)
REMARK    1  A    between atoms: C3_7  and  N3_8 
REMARK    2  A    between atoms: N3_8  and  N4_10 
REMARK    3  A    between atoms: C4_12  and  C5_13 
REMARK    4  A    between atoms: C6_14  and  O1_15 
REMARK    5  A    between atoms: N6_23  and  C9_24 
REMARK    6  A    between atoms: N8_27  and  N9_29 
REMARK    7  A    between atoms: C11_36  and  O4_37 
ROOT
HETATM    1  C9  UNL     1      18.309   7.298   5.063  1.00  0.00     0.215 C 
HETATM    2  C10 UNL     1      18.042   6.004   5.569  1.00  0.00     0.139 C 
HETATM    3  N7  UNL     1      17.811   4.948   5.971  1.00  0.00    -0.188 NA
HETATM    4  N8  UNL     1      19.280   7.983   5.508  1.00  0.00    -0.262 N 
ATOM      5  H8  UNL     1      19.430   8.910   5.110  1.00  0.00     0.191 HD
ENDROOT
BRANCH   1   6
HETATM    6  N6  UNL     1      17.501   7.889   4.034  1.00  0.00    -0.235 N 
HETATM    7  C5  UNL     1      17.591   7.377   2.762  1.00  0.00     0.102 A 
HETATM    8  C6  UNL     1      16.833   7.918   1.758  1.00  0.00     0.163 A 
HETATM    9  C7  UNL     1      15.990   8.997   2.116  1.00  0.00     0.285 A 
HETATM   10  O2  UNL     1      15.286   9.504   1.190  1.00  0.00    -0.265 OA
HETATM   11  N5  UNL     1      15.936   9.460   3.362  1.00  0.00    -0.273 N 
HETATM   12  C8  UNL     1      16.685   8.915   4.324  1.00  0.00     0.336 A 
ATOM     13  H5  UNL     1      15.316  10.239   3.585  1.00  0.00     0.173 HD
HETATM   14  O3  UNL     1      16.653   9.337   5.518  1.00  0.00    -0.246 OA
BRANCH   7  15
HETATM   15  C4  UNL     1      18.489   6.283   2.554  1.00  0.00     0.141 C 
HETATM   16  N4  UNL     1      18.282   5.185   1.929  1.00  0.00    -0.295 N 
ATOM     17  H4  UNL     1      17.355   5.062   1.521  1.00  0.00     0.186 HD
BRANCH  16  18
HETATM   18  N3  UNL     1      19.170   4.158   1.750  1.00  0.00    -0.131 N 
ATOM     19  H3  UNL     1      19.976   4.134   2.373  1.00  0.00     0.205 HD
BRANCH  18  20
HETATM   20  C3  UNL     1      19.089   3.231   0.884  1.00  0.00     0.713 A 
HETATM   21  N2  UNL     1      19.823   2.106   0.916  1.00  0.00    -0.130 N 
HETATM   22  N1  UNL     1      19.689   1.174  -0.025  1.00  0.00    -0.287 N 
ATOM     23  H2  UNL     1      20.494   1.965   1.672  1.00  0.00     0.205 HD
HETATM   24  C2  UNL     1      18.816   1.323  -1.036  1.00  0.00     0.073 A 
ATOM     25  H1  UNL     1      20.258   0.329   0.022  1.00  0.00     0.187 HD
HETATM   26  C1  UNL     1      18.632   0.314  -2.103  1.00  0.00     0.074 C 
HETATM   27  C11 UNL     1      18.059   2.462  -1.083  1.00  0.00     0.179 A 
HETATM   28  N11 UNL     1      18.217   3.375  -0.129  1.00  0.00    -0.166 N 
ATOM     29  H11 UNL     1      17.651   4.224  -0.168  1.00  0.00     0.186 HD
BRANCH  27  30
HETATM   30  O4  UNL     1      17.143   2.668  -2.105  1.00  0.00    -0.344 OA
ATOM     31  H4  UNL     1      16.527   3.390  -2.070  1.00  0.00     0.219 HD
ENDBRANCH  27  30
ENDBRANCH  18  20
ENDBRANCH  16  18
ENDBRANCH   7  15
BRANCH   8  32
HETATM   32  O1  UNL     1      16.844   7.493   0.473  1.00  0.00    -0.354 OA
ATOM     33  H1  UNL     1      16.592   8.024  -0.273  1.00  0.00     0.218 HD
ENDBRANCH   8  32
ENDBRANCH   1   6
BRANCH   4  34
HETATM   34  N9  UNL     1      20.158   7.555   6.504  1.00  0.00    -0.247 N 
HETATM   35  N10 UNL     1      19.981   7.739   7.727  1.00  0.00    -0.331 N 
ATOM     36 2H10 UNL     1      19.133   8.237   7.997  1.00  0.00     0.178 HD
ATOM     37 1H10 UNL     1      20.623   7.427   8.455  1.00  0.00     0.178 HD
ATOM     38  H9  UNL     1      21.001   7.059   6.215  1.00  0.00     0.207 HD
ENDBRANCH   4  34
TORSDOF 7
ENDMDL
MODEL 5
REMARK VINA RESULT: -7.371903871      1.929      6.421
REMARK  7 active torsions:
REMARK  status: ('A' for Active; 'I' for Inactive)
REMARK    1  A    between atoms: C3_7  and  N3_8 
REMARK    2  A    between atoms: N3_8  and  N4_10 
REMARK    3  A    between atoms: C4_12  and  C5_13 
REMARK    4  A    between atoms: C6_14  and  O1_15 
REMARK    5  A    between atoms: N6_23  and  C9_24 
REMARK    6  A    between atoms: N8_27  and  N9_29 
REMARK    7  A    between atoms: C11_36  and  O4_37 
ROOT
HETATM    1  C9  UNL     1      18.315   6.780   5.418  1.00  0.00     0.215 C 
HETATM    2  C10 UNL     1      17.347   6.420   6.385  1.00  0.00     0.139 C 
HETATM    3  N7  UNL     1      16.545   6.128   7.161  1.00  0.00    -0.188 NA
HETATM    4  N8  UNL     1      19.532   6.934   5.742  1.00  0.00    -0.262 N 
ATOM      5  H8  UNL     1      20.190   7.194   5.008  1.00  0.00     0.191 HD
ENDROOT
BRANCH   1   6
HETATM    6  N6  UNL     1      17.968   6.985   4.039  1.00  0.00    -0.235 N 
HETATM    7  C5  UNL     1      17.220   8.090   3.716  1.00  0.00     0.102 A 
HETATM    8  C6  UNL     1      16.872   8.315   2.410  1.00  0.00     0.163 A 
HETATM    9  C7  UNL     1      17.321   7.363   1.465  1.00  0.00     0.285 A 
HETATM   10  O2  UNL     1      17.003   7.565   0.254  1.00  0.00    -0.265 OA
HETATM   11  N5  UNL     1      18.044   6.306   1.826  1.00  0.00    -0.273 N 
HETATM   12  C8  UNL     1      18.371   6.109   3.106  1.00  0.00     0.336 A 
ATOM     13  H5  UNL     1      18.353   5.640   1.118  1.00  0.00     0.173 HD
HETATM   14  O3  UNL     1      19.057   5.111   3.476  1.00  0.00    -0.246 OA
BRANCH   7  15
HETATM   15  C4  UNL     1      16.839   8.965   4.783  1.00  0.00     0.141 C 
HETATM   16  N4  UNL     1      15.687   9.460   5.038  1.00  0.00    -0.295 N 
ATOM     17  H4  UNL     1      14.931   9.205   4.403  1.00  0.00     0.186 HD
BRANCH  16  18
HETATM   18  N3  UNL     1      15.359  10.295   6.073  1.00  0.00    -0.131 N 
ATOM     19  H3  UNL     1      15.089  11.247   5.826  1.00  0.00     0.205 HD
BRANCH  18  20
HETATM   20  C3  UNL     1      15.359  10.003   7.310  1.00  0.00     0.713 A 
HETATM   21  N2  UNL     1      16.278  10.442   8.186  1.00  0.00    -0.130 N 
HETATM   22  N1  UNL     1      16.219  10.097   9.471  1.00  0.00    -0.287 N 
ATOM     23  H2  UNL     1      17.033  11.048   7.863  1.00  0.00     0.205 HD
HETATM   24  C2  UNL     1      15.241   9.300   9.935  1.00  0.00     0.073 A 
ATOM     25  H1  UNL     1      16.929  10.443  10.116  1.00  0.00     0.187 HD
HETATM   26  C1  UNL     1      15.135   8.891  11.354  1.00  0.00     0.074 C 
HETATM   27  C11 UNL     1      14.296   8.845   9.056  1.00  0.00     0.179 A 
HETATM   28  N11 UNL     1      14.382   9.207   7.780  1.00  0.00    -0.166 N 
ATOM     29  H11 UNL     1      13.676   8.866   7.127  1.00  0.00     0.186 HD
BRANCH  27  30
HETATM   30  O4  UNL     1      13.264   8.021   9.482  1.00  0.00    -0.344 OA
ATOM     31  H4  UNL     1      12.618   7.692   8.869  1.00  0.00     0.219 HD
ENDBRANCH  27  30
ENDBRANCH  18  20
ENDBRANCH  16  18
ENDBRANCH   7  15
BRANCH   8  32
HETATM   32  O1  UNL     1      16.140   9.370   1.981  1.00  0.00    -0.354 OA
ATOM     33  H1  UNL     1      16.229   9.776   1.128  1.00  0.00     0.218 HD
ENDBRANCH   8  32
ENDBRANCH   1   6
BRANCH   4  34
HETATM   34  N9  UNL     1      20.032   6.773   7.035  1.00  0.00    -0.247 N 
HETATM   35  N10 UNL     1      20.067   7.678   7.895  1.00  0.00    -0.331 N 
ATOM     36 2H10 UNL     1      19.702   8.589   7.618  1.00  0.00     0.178 HD
ATOM     37 1H10 UNL     1      20.433   7.561   8.840  1.00  0.00     0.178 HD
ATOM     38  H9  UNL     1      20.393   5.856   7.294  1.00  0.00     0.207 HD
ENDBRANCH   4  34
TORSDOF 7
ENDMDL
