MODEL 1
REMARK VINA RESULT: -5.538059099      0.000      0.000
REMARK  6 active torsions:
REMARK  status: ('A' for Active; 'I' for Inactive)
REMARK    1  A    between atoms: C2_2  and  N1_3 
REMARK    2  A    between atoms: N1_3  and  O1_4 
REMARK    3  A    between atoms: N1_3  and  C4_6 
REMARK       I    between atoms: N2_7  and  C5_8 
REMARK    4  A    between atoms: C8_17  and  N7_18 
REMARK    5  A    between atoms: C9_22  and  O3_23 
REMARK    6  A    between atoms: C9_22  and  S1_25 
ROOT
HETATM    1  C4  UNL     1      15.497   8.441   9.513  1.00  0.00     0.285 C 
HETATM    2  N2  UNL     1      14.606   7.289   9.197  1.00  0.00    -0.218 N 
HETATM    3  C5  UNL     1      14.772   6.359   8.155  1.00  0.00     0.234 C 
HETATM    4  C6  UNL     1      13.801   5.281   7.952  1.00  0.00     0.119 C 
HETATM    5  O2  UNL     1      15.760   6.457   7.397  1.00  0.00    -0.272 OA
HETATM    6  N3  UNL     1      13.563   7.289  10.126  1.00  0.00    -0.021 NA
HETATM    7  N4  UNL     1      13.413   8.654  10.420  1.00  0.00    -0.080 NA
HETATM    8  C7  UNL     1      14.815   9.036  10.653  1.00  0.00     0.230 C 
HETATM    9  N5  UNL     1      14.917  10.455  10.853  1.00  0.00    -0.099 NA
HETATM   10  N6  UNL     1      13.960  10.925  11.725  1.00  0.00    -0.303 N 
ATOM     11  H6  UNL     1      13.161  11.472  11.405  1.00  0.00     0.178 HD
HETATM   12  C8  UNL     1      14.147  10.610  13.081  1.00  0.00     0.349 C 
HETATM   13  C9  UNL     1      14.068   9.156  13.425  1.00  0.00     0.206 C 
HETATM   14  S2  UNL     1      15.206   8.283  12.279  1.00  0.00    -0.065 SA
ENDROOT
BRANCH   1  15
HETATM   15  N1  UNL     1      15.671   9.255   8.395  1.00  0.00    -0.265 N 
BRANCH  15  16
HETATM   16  C2  UNL     1      16.844   9.912   8.066  1.00  0.00     0.148 C 
HETATM   17  C1  UNL     1      18.024   8.913   8.103  1.00  0.00     0.028 C 
ENDBRANCH  15  16
BRANCH  15  18
HETATM   18  O1  UNL     1      14.592   9.678   7.759  1.00  0.00    -0.286 OA
HETATM   19  C3  UNL     1      14.844  10.618   6.763  1.00  0.00     0.237 C 
ENDBRANCH  15  18
ENDBRANCH   1  15
BRANCH  13  20
HETATM   20  O3  UNL     1      14.477   8.981  14.742  1.00  0.00    -0.367 OA
ATOM     21  H3  UNL     1      13.856   8.414  15.184  1.00  0.00     0.212 HD
ENDBRANCH  13  20
BRANCH  13  22
HETATM   22  S1  UNL     1      12.414   8.574  13.084  1.00  0.00    -0.121 SA
HETATM   23  C10 UNL     1      11.100   9.640  13.651  1.00  0.00     0.094 C 
ENDBRANCH  13  22
BRANCH  12  24
HETATM   24  N7  UNL     1      15.395  11.204  13.566  1.00  0.00    -0.053 N 
ATOM     25  H73 UNL     1      16.155  10.525  13.600  1.00  0.00     0.277 HD
ATOM     26  H72 UNL     1      15.802  11.848  12.886  1.00  0.00     0.277 HD
ATOM     27  H71 UNL     1      15.241  11.650  14.470  1.00  0.00     0.277 HD
ENDBRANCH  12  24
TORSDOF 6
ENDMDL
MODEL 2
REMARK VINA RESULT: -5.308565825      3.136      3.926
REMARK  6 active torsions:
REMARK  status: ('A' for Active; 'I' for Inactive)
REMARK    1  A    between atoms: C2_2  and  N1_3 
REMARK    2  A    between atoms: N1_3  and  O1_4 
REMARK    3  A    between atoms: N1_3  and  C4_6 
REMARK       I    between atoms: N2_7  and  C5_8 
REMARK    4  A    between atoms: C8_17  and  N7_18 
REMARK    5  A    between atoms: C9_22  and  O3_23 
REMARK    6  A    between atoms: C9_22  and  S1_25 
ROOT
HETATM    1  C4  UNL     1      15.857   8.134   7.958  1.00  0.00     0.285 C 
HETATM    2  N2  UNL     1      16.566   6.991   7.316  1.00  0.00    -0.218 N 
HETATM    3  C5  UNL     1      17.770   7.049   6.592  1.00  0.00     0.234 C 
HETATM    4  C6  UNL     1      18.345   5.839   5.999  1.00  0.00     0.119 C 
HETATM    5  O2  UNL     1      18.354   8.144   6.457  1.00  0.00    -0.272 OA
HETATM    6  N3  UNL     1      15.820   5.836   7.559  1.00  0.00    -0.021 NA
HETATM    7  N4  UNL     1      14.506   6.326   7.621  1.00  0.00    -0.080 NA
HETATM    8  C7  UNL     1      14.688   7.477   8.521  1.00  0.00     0.230 C 
HETATM    9  N5  UNL     1      13.464   8.221   8.631  1.00  0.00    -0.099 NA
HETATM   10  N6  UNL     1      12.376   7.401   8.834  1.00  0.00    -0.303 N 
ATOM     11  H6  UNL     1      11.689   7.227   8.101  1.00  0.00     0.178 HD
HETATM   12  C8  UNL     1      12.265   6.819  10.108  1.00  0.00     0.349 C 
HETATM   13  C9  UNL     1      13.345   5.852  10.475  1.00  0.00     0.206 C 
HETATM   14  S2  UNL     1      14.941   6.704  10.166  1.00  0.00    -0.065 SA
ENDROOT
BRANCH   1  15
HETATM   15  N1  UNL     1      15.617   9.151   7.035  1.00  0.00    -0.265 N 
BRANCH  15  16
HETATM   16  C2  UNL     1      15.568  10.501   7.336  1.00  0.00     0.148 C 
HETATM   17  C1  UNL     1      16.970  10.983   7.779  1.00  0.00     0.028 C 
ENDBRANCH  15  16
BRANCH  15  18
HETATM   18  O1  UNL     1      15.113   8.818   5.859  1.00  0.00    -0.286 OA
HETATM   19  C3  UNL     1      15.652   9.520   4.784  1.00  0.00     0.237 C 
ENDBRANCH  15  18
ENDBRANCH   1  15
BRANCH  13  20
HETATM   20  O3  UNL     1      13.221   5.525  11.820  1.00  0.00    -0.367 OA
ATOM     21  H3  UNL     1      12.299   5.451  12.035  1.00  0.00     0.212 HD
ENDBRANCH  13  20
BRANCH  13  22
HETATM   22  S1  UNL     1      13.262   4.453   9.366  1.00  0.00    -0.121 SA
HETATM   23  C10 UNL     1      11.732   3.536   9.411  1.00  0.00     0.094 C 
ENDBRANCH  13  22
BRANCH  12  24
HETATM   24  N7  UNL     1      12.120   7.865  11.124  1.00  0.00    -0.053 N 
ATOM     25  H73 UNL     1      11.281   8.426  10.979  1.00  0.00     0.277 HD
ATOM     26  H72 UNL     1      11.883   7.479  12.039  1.00  0.00     0.277 HD
ATOM     27  H71 UNL     1      12.962   8.438  11.157  1.00  0.00     0.277 HD
ENDBRANCH  12  24
TORSDOF 6
ENDMDL
MODEL 3
REMARK VINA RESULT: -5.244378202      3.344      4.461
REMARK  6 active torsions:
REMARK  status: ('A' for Active; 'I' for Inactive)
REMARK    1  A    between atoms: C2_2  and  N1_3 
REMARK    2  A    between atoms: N1_3  and  O1_4 
REMARK    3  A    between atoms: N1_3  and  C4_6 
REMARK       I    between atoms: N2_7  and  C5_8 
REMARK    4  A    between atoms: C8_17  and  N7_18 
REMARK    5  A    between atoms: C9_22  and  O3_23 
REMARK    6  A    between atoms: C9_22  and  S1_25 
ROOT
HETATM    1  C4  UNL     1      16.733   8.028   7.568  1.00  0.00     0.285 C 
HETATM    2  N2  UNL     1      17.651   6.889   7.285  1.00  0.00    -0.218 N 
HETATM    3  C5  UNL     1      18.950   6.969   6.751  1.00  0.00     0.234 C 
HETATM    4  C6  UNL     1      19.735   5.756   6.508  1.00  0.00     0.119 C 
HETATM    5  O2  UNL     1      19.436   8.088   6.484  1.00  0.00    -0.272 OA
HETATM    6  N3  UNL     1      16.993   5.711   7.644  1.00  0.00    -0.021 NA
HETATM    7  N4  UNL     1      15.645   6.028   7.410  1.00  0.00    -0.080 NA
HETATM    8  C7  UNL     1      15.556   7.339   8.074  1.00  0.00     0.230 C 
HETATM    9  N5  UNL     1      14.263   7.924   7.847  1.00  0.00    -0.099 NA
HETATM   10  N6  UNL     1      13.243   7.021   8.049  1.00  0.00    -0.303 N 
ATOM     11  H6  UNL     1      12.713   6.626   7.273  1.00  0.00     0.178 HD
HETATM   12  C8  UNL     1      12.974   6.675   9.384  1.00  0.00     0.349 C 
HETATM   13  C9  UNL     1      14.066   5.941  10.096  1.00  0.00     0.206 C 
HETATM   14  S2  UNL     1      15.599   6.923   9.860  1.00  0.00    -0.065 SA
ENDROOT
BRANCH   1  15
HETATM   15  N1  UNL     1      16.554   8.817   6.433  1.00  0.00    -0.265 N 
BRANCH  15  16
HETATM   16  C2  UNL     1      16.395  10.192   6.438  1.00  0.00     0.148 C 
HETATM   17  C1  UNL     1      16.901  10.767   7.782  1.00  0.00     0.028 C 
ENDBRANCH  15  16
BRANCH  15  18
HETATM   18  O1  UNL     1      16.220   8.216   5.304  1.00  0.00    -0.286 OA
HETATM   19  C3  UNL     1      16.691   8.848   4.155  1.00  0.00     0.237 C 
ENDBRANCH  15  18
ENDBRANCH   1  15
BRANCH  13  20
HETATM   20  O3  UNL     1      13.747   5.855  11.445  1.00  0.00    -0.367 OA
ATOM     21  H3  UNL     1      14.160   6.576  11.906  1.00  0.00     0.212 HD
ENDBRANCH  13  20
BRANCH  13  22
HETATM   22  S1  UNL     1      14.314   4.363   9.295  1.00  0.00    -0.121 SA
HETATM   23  C10 UNL     1      12.821   3.509   8.819  1.00  0.00     0.094 C 
ENDBRANCH  13  22
BRANCH  12  24
HETATM   24  N7  UNL     1      12.554   7.862  10.133  1.00  0.00    -0.053 N 
ATOM     25  H73 UNL     1      12.892   7.846  11.096  1.00  0.00     0.277 HD
ATOM     26  H72 UNL     1      13.038   8.703   9.820  1.00  0.00     0.277 HD
ATOM     27  H71 UNL     1      11.540   7.963  10.085  1.00  0.00     0.277 HD
ENDBRANCH  12  24
TORSDOF 6
ENDMDL
MODEL 4
REMARK VINA RESULT: -5.038205790      2.800      6.545
REMARK  6 active torsions:
REMARK  status: ('A' for Active; 'I' for Inactive)
REMARK    1  A    between atoms: C2_2  and  N1_3 
REMARK    2  A    between atoms: N1_3  and  O1_4 
REMARK    3  A    between atoms: N1_3  and  C4_6 
REMARK       I    between atoms: N2_7  and  C5_8 
REMARK    4  A    between atoms: C8_17  and  N7_18 
REMARK    5  A    between atoms: C9_22  and  O3_23 
REMARK    6  A    between atoms: C9_22  and  S1_25 
ROOT
HETATM    1  C4  UNL     1      11.245   8.110  12.523  1.00  0.00     0.285 C 
HETATM    2  N2  UNL     1      12.149   9.087  13.193  1.00  0.00    -0.218 N 
HETATM    3  C5  UNL     1      11.870   9.832  14.353  1.00  0.00     0.234 C 
HETATM    4  C6  UNL     1      12.854  10.774  14.892  1.00  0.00     0.119 C 
HETATM    5  O2  UNL     1      10.771   9.685  14.927  1.00  0.00    -0.272 OA
HETATM    6  N3  UNL     1      13.338   9.139  12.462  1.00  0.00    -0.021 NA
HETATM    7  N4  UNL     1      12.907   8.867  11.154  1.00  0.00    -0.080 NA
HETATM    8  C7  UNL     1      12.054   7.690  11.389  1.00  0.00     0.230 C 
HETATM    9  N5  UNL     1      11.392   7.306  10.173  1.00  0.00    -0.099 NA
HETATM   10  N6  UNL     1      12.253   7.282   9.099  1.00  0.00    -0.303 N 
ATOM     11  H6  UNL     1      12.225   7.994   8.370  1.00  0.00     0.178 HD
HETATM   12  C8  UNL     1      13.172   6.220   9.063  1.00  0.00     0.349 C 
HETATM   13  C9  UNL     1      14.186   6.203  10.163  1.00  0.00     0.206 C 
HETATM   14  S2  UNL     1      13.254   6.347  11.738  1.00  0.00    -0.065 SA
ENDROOT
BRANCH   1  15
HETATM   15  N1  UNL     1      10.014   8.693  12.229  1.00  0.00    -0.265 N 
BRANCH  15  16
HETATM   16  C2  UNL     1       8.841   7.996  11.995  1.00  0.00     0.148 C 
HETATM   17  C1  UNL     1       8.349   7.354  13.314  1.00  0.00     0.028 C 
ENDBRANCH  15  16
BRANCH  15  18
HETATM   18  O1  UNL     1       9.998   9.961  11.857  1.00  0.00    -0.286 OA
HETATM   19  C3  UNL     1       8.725  10.517  11.761  1.00  0.00     0.237 C 
ENDBRANCH  15  18
ENDBRANCH   1  15
BRANCH  13  20
HETATM   20  O3  UNL     1      14.880   5.000  10.118  1.00  0.00    -0.367 OA
ATOM     21  H3  UNL     1      15.236   4.817  10.979  1.00  0.00     0.212 HD
ENDBRANCH  13  20
BRANCH  13  22
HETATM   22  S1  UNL     1      15.217   7.655  10.015  1.00  0.00    -0.121 SA
HETATM   23  C10 UNL     1      15.756   8.039   8.358  1.00  0.00     0.094 C 
ENDBRANCH  13  22
BRANCH  12  24
HETATM   24  N7  UNL     1      12.458   4.943   8.978  1.00  0.00    -0.053 N 
ATOM     25  H73 UNL     1      11.490   5.065   8.678  1.00  0.00     0.277 HD
ATOM     26  H72 UNL     1      12.784   4.374   8.196  1.00  0.00     0.277 HD
ATOM     27  H71 UNL     1      12.524   4.447   9.866  1.00  0.00     0.277 HD
ENDBRANCH  12  24
TORSDOF 6
ENDMDL
MODEL 5
REMARK VINA RESULT: -5.030816273      2.484      5.617
REMARK  6 active torsions:
REMARK  status: ('A' for Active; 'I' for Inactive)
REMARK    1  A    between atoms: C2_2  and  N1_3 
REMARK    2  A    between atoms: N1_3  and  O1_4 
REMARK    3  A    between atoms: N1_3  and  C4_6 
REMARK       I    between atoms: N2_7  and  C5_8 
REMARK    4  A    between atoms: C8_17  and  N7_18 
REMARK    5  A    between atoms: C9_22  and  O3_23 
REMARK    6  A    between atoms: C9_22  and  S1_25 
ROOT
HETATM    1  C4  UNL     1      14.198   8.789  10.636  1.00  0.00     0.285 C 
HETATM    2  N2  UNL     1      14.474   7.360  10.954  1.00  0.00    -0.218 N 
HETATM    3  C5  UNL     1      13.872   6.592  11.966  1.00  0.00     0.234 C 
HETATM    4  C6  UNL     1      14.258   5.194  12.174  1.00  0.00     0.119 C 
HETATM    5  O2  UNL     1      12.998   7.110  12.692  1.00  0.00    -0.272 OA
HETATM    6  N3  UNL     1      15.449   6.905  10.061  1.00  0.00    -0.021 NA
HETATM    7  N4  UNL     1      16.198   8.066   9.808  1.00  0.00    -0.080 NA
HETATM    8  C7  UNL     1      15.119   9.030   9.536  1.00  0.00     0.230 C 
HETATM    9  N5  UNL     1      15.663  10.349   9.368  1.00  0.00    -0.099 NA
HETATM   10  N6  UNL     1      16.765  10.355   8.542  1.00  0.00    -0.303 N 
ATOM     11  H6  UNL     1      17.709  10.489   8.903  1.00  0.00     0.178 HD
HETATM   12  C8  UNL     1      16.515  10.164   7.172  1.00  0.00     0.349 C 
HETATM   13  C9  UNL     1      15.959   8.828   6.795  1.00  0.00     0.206 C 
HETATM   14  S2  UNL     1      14.506   8.539   7.879  1.00  0.00    -0.065 SA
ENDROOT
BRANCH   1  15
HETATM   15  N1  UNL     1      14.354   9.588  11.767  1.00  0.00    -0.265 N 
BRANCH  15  16
HETATM   16  C2  UNL     1      13.633  10.739  12.033  1.00  0.00     0.148 C 
HETATM   17  C1  UNL     1      12.215  10.360  12.521  1.00  0.00     0.028 C 
ENDBRANCH  15  16
BRANCH  15  18
HETATM   18  O1  UNL     1      15.444   9.427  12.498  1.00  0.00    -0.286 OA
HETATM   19  C3  UNL     1      15.305   9.808  13.830  1.00  0.00     0.237 C 
ENDBRANCH  15  18
ENDBRANCH   1  15
BRANCH  13  20
HETATM   20  O3  UNL     1      15.570   8.861   5.461  1.00  0.00    -0.367 OA
ATOM     21  H3  UNL     1      15.916   8.094   5.021  1.00  0.00     0.212 HD
ENDBRANCH  13  20
BRANCH  13  22
HETATM   22  S1  UNL     1      17.171   7.572   7.179  1.00  0.00    -0.121 SA
HETATM   23  C10 UNL     1      18.819   7.897   6.577  1.00  0.00     0.094 C 
ENDBRANCH  13  22
BRANCH  12  24
HETATM   24  N7  UNL     1      15.679  11.253   6.660  1.00  0.00    -0.053 N 
ATOM     25  H73 UNL     1      15.234  11.779   7.412  1.00  0.00     0.277 HD
ATOM     26  H72 UNL     1      16.237  12.008   6.260  1.00  0.00     0.277 HD
ATOM     27  H71 UNL     1      14.998  10.886   5.995  1.00  0.00     0.277 HD
ENDBRANCH  12  24
TORSDOF 6
ENDMDL
