MODEL 1
REMARK VINA RESULT: -6.742788806      0.000      0.000
REMARK  10 active torsions:
REMARK  status: ('A' for Active; 'I' for Inactive)
REMARK    1  A    between atoms: N1_1  and  N2_4 
REMARK    2  A    between atoms: N2_4  and  N3_5 
REMARK    3  A    between atoms: N3_5  and  N4_7 
REMARK    4  A    between atoms: C1_9  and  O1_10 
REMARK    5  A    between atoms: C1_9  and  C2_12 
REMARK    6  A    between atoms: C4_16  and  N6_17 
REMARK    7  A    between atoms: N6_17  and  N7_19 
REMARK    8  A    between atoms: N8_21  and  C5_23 
REMARK    9  A    between atoms: N10_26  and  N11_27 
REMARK   10  A    between atoms: C7_30  and  N12_31 
ROOT
HETATM    1  N6  UNL     1      14.750   8.262   7.256  1.00  0.00    -0.270 N 
ATOM      2  H6  UNL     1      14.918   7.343   6.845  1.00  0.00     0.190 HD
ENDROOT
BRANCH   1   3
HETATM    3  C4  UNL     1      14.262   8.351   8.457  1.00  0.00     0.138 A 
HETATM    4  C3  UNL     1      13.257   7.491   8.816  1.00  0.00     0.138 A 
HETATM    5  N5  UNL     1      12.708   7.529  10.043  1.00  0.00    -0.356 N 
HETATM    6  C2  UNL     1      13.123   8.411  10.962  1.00  0.00     0.126 A 
ATOM      7  H5  UNL     1      11.961   6.874  10.279  1.00  0.00     0.165 HD
HETATM    8  C9  UNL     1      14.143   9.275  10.575  1.00  0.00     0.149 A 
HETATM    9  N14 UNL     1      14.698   9.243   9.350  1.00  0.00    -0.327 N 
HETATM   10  N15 UNL     1      14.578  10.212  11.561  1.00  0.00    -0.080 NA
ATOM     11  H14 UNL     1      15.444   9.893   9.106  1.00  0.00     0.168 HD
BRANCH   6  12
HETATM   12  C1  UNL     1      12.555   8.487  12.302  1.00  0.00     0.187 C 
HETATM   13  N4  UNL     1      11.791   9.464  12.605  1.00  0.00    -0.252 N 
ATOM     14  H4  UNL     1      11.576  10.187  11.919  1.00  0.00     0.191 HD
BRANCH  13  15
HETATM   15  N3  UNL     1      11.255   9.524  13.889  1.00  0.00    -0.154 N 
ATOM     16  H3  UNL     1      10.242   9.486  14.005  1.00  0.00     0.225 HD
BRANCH  15  17
HETATM   17  N2  UNL     1      11.962   9.620  14.884  1.00  0.00    -0.228 NA
BRANCH  17  18
HETATM   18  N1  UNL     1      12.943   9.660  15.638  1.00  0.00    -0.259 N 
ATOM     19  H12 UNL     1      13.611   9.882  14.899  1.00  0.00     0.193 HD
ATOM     20  H11 UNL     1      13.537   9.627  16.467  1.00  0.00     0.193 HD
ENDBRANCH  17  18
ENDBRANCH  15  17
ENDBRANCH  13  15
BRANCH  12  21
HETATM   21  O1  UNL     1      12.830   7.521  13.248  1.00  0.00    -0.343 OA
ATOM     22  H1  UNL     1      13.687   7.112  13.264  1.00  0.00     0.219 HD
ENDBRANCH  12  21
ENDBRANCH   6  12
ENDBRANCH   1   3
BRANCH   1  23
HETATM   23  N7  UNL     1      15.045   9.413   6.523  1.00  0.00    -0.240 N 
HETATM   24  N8  UNL     1      16.115   9.615   5.918  1.00  0.00    -0.278 N 
ATOM     25  H8  UNL     1      16.205  10.500   5.419  1.00  0.00     0.189 HD
ATOM     26  H7  UNL     1      14.333  10.141   6.480  1.00  0.00     0.208 HD
BRANCH  24  27
HETATM   27  C5  UNL     1      17.216   8.728   5.859  1.00  0.00     0.162 A 
HETATM   28  C6  UNL     1      18.002   8.552   6.990  1.00  0.00     0.189 A 
HETATM   29  N9  UNL     1      17.673   9.266   8.158  1.00  0.00    -0.077 NA
HETATM   30  N10 UNL     1      19.068   7.708   6.968  1.00  0.00    -0.076 N 
HETATM   31  C7  UNL     1      19.389   7.025   5.867  1.00  0.00     0.701 A 
HETATM   32  N13 UNL     1      18.638   7.182   4.759  1.00  0.00    -0.153 N 
HETATM   33  C8  UNL     1      17.567   8.013   4.735  1.00  0.00     0.291 A 
ATOM     34  H13 UNL     1      18.882   6.662   3.916  1.00  0.00     0.187 HD
HETATM   35  O2  UNL     1      16.874   8.153   3.698  1.00  0.00    -0.265 OA
BRANCH  30  36
HETATM   36  N11 UNL     1      19.874   7.519   8.111  1.00  0.00    -0.323 N 
ATOM     37 2H11 UNL     1      20.277   8.349   8.546  1.00  0.00     0.178 HD
ATOM     38 1H11 UNL     1      20.049   6.587   8.485  1.00  0.00     0.178 HD
ENDBRANCH  30  36
BRANCH  31  39
HETATM   39  N12 UNL     1      20.420   6.224   5.887  1.00  0.00    -0.233 N 
ATOM     40 2H12 UNL     1      21.141   6.298   6.604  1.00  0.00     0.174 HD
ATOM     41 1H12 UNL     1      20.509   5.505   5.169  1.00  0.00     0.174 HD
ENDBRANCH  31  39
ENDBRANCH  24  27
ENDBRANCH   1  23
TORSDOF 10
ENDMDL
MODEL 2
REMARK VINA RESULT: -6.635443202      2.235      8.885
REMARK  10 active torsions:
REMARK  status: ('A' for Active; 'I' for Inactive)
REMARK    1  A    between atoms: N1_1  and  N2_4 
REMARK    2  A    between atoms: N2_4  and  N3_5 
REMARK    3  A    between atoms: N3_5  and  N4_7 
REMARK    4  A    between atoms: C1_9  and  O1_10 
REMARK    5  A    between atoms: C1_9  and  C2_12 
REMARK    6  A    between atoms: C4_16  and  N6_17 
REMARK    7  A    between atoms: N6_17  and  N7_19 
REMARK    8  A    between atoms: N8_21  and  C5_23 
REMARK    9  A    between atoms: N10_26  and  N11_27 
REMARK   10  A    between atoms: C7_30  and  N12_31 
ROOT
HETATM    1  N6  UNL     1      14.753   9.802   8.854  1.00  0.00    -0.270 N 
ATOM      2  H6  UNL     1      13.759   9.953   9.028  1.00  0.00     0.190 HD
ENDROOT
BRANCH   1   3
HETATM    3  C4  UNL     1      15.172   9.598   7.641  1.00  0.00     0.138 A 
HETATM    4  C3  UNL     1      14.785  10.478   6.663  1.00  0.00     0.138 A 
HETATM    5  N5  UNL     1      15.183  10.327   5.387  1.00  0.00    -0.356 N 
HETATM    6  C2  UNL     1      15.974   9.309   5.024  1.00  0.00     0.126 A 
ATOM      7  H5  UNL     1      14.876  11.000   4.684  1.00  0.00     0.165 HD
HETATM    8  C9  UNL     1      16.354   8.428   6.033  1.00  0.00     0.149 A 
HETATM    9  N14 UNL     1      15.961   8.573   7.310  1.00  0.00    -0.327 N 
HETATM   10  N15 UNL     1      17.197   7.347   5.634  1.00  0.00    -0.080 NA
ATOM     11  H14 UNL     1      16.263   7.906   8.020  1.00  0.00     0.168 HD
BRANCH   6  12
HETATM   12  C1  UNL     1      16.428   9.107   3.654  1.00  0.00     0.187 C 
HETATM   13  N4  UNL     1      15.582   9.165   2.698  1.00  0.00    -0.252 N 
ATOM     14  H4  UNL     1      14.597   9.349   2.888  1.00  0.00     0.191 HD
BRANCH  13  15
HETATM   15  N3  UNL     1      16.029   8.970   1.394  1.00  0.00    -0.154 N 
ATOM     16  H3  UNL     1      15.992   9.750   0.737  1.00  0.00     0.225 HD
BRANCH  15  17
HETATM   17  N2  UNL     1      16.466   7.893   1.010  1.00  0.00    -0.228 NA
BRANCH  17  18
HETATM   18  N1  UNL     1      17.228   6.994   0.632  1.00  0.00    -0.259 N 
ATOM     19  H12 UNL     1      17.804   7.007   1.474  1.00  0.00     0.193 HD
ATOM     20  H11 UNL     1      17.672   6.263   0.075  1.00  0.00     0.193 HD
ENDBRANCH  17  18
ENDBRANCH  15  17
ENDBRANCH  13  15
BRANCH  12  21
HETATM   21  O1  UNL     1      17.755   8.857   3.372  1.00  0.00    -0.343 OA
ATOM     22  H1  UNL     1      18.082   7.967   3.417  1.00  0.00     0.219 HD
ENDBRANCH  12  21
ENDBRANCH   6  12
ENDBRANCH   1   3
BRANCH   1  23
HETATM   23  N7  UNL     1      15.653   9.814   9.922  1.00  0.00    -0.240 N 
HETATM   24  N8  UNL     1      15.329   9.781  11.125  1.00  0.00    -0.278 N 
ATOM     25  H8  UNL     1      16.085   9.796  11.808  1.00  0.00     0.189 HD
ATOM     26  H7  UNL     1      16.647   9.854   9.701  1.00  0.00     0.208 HD
BRANCH  24  27
HETATM   27  C5  UNL     1      14.008   9.724  11.627  1.00  0.00     0.162 A 
HETATM   28  C6  UNL     1      13.473  10.842  12.252  1.00  0.00     0.189 A 
HETATM   29  N9  UNL     1      14.270  11.998  12.363  1.00  0.00    -0.077 NA
HETATM   30  N10 UNL     1      12.207  10.821  12.746  1.00  0.00    -0.076 N 
HETATM   31  C7  UNL     1      11.442   9.732  12.646  1.00  0.00     0.701 A 
HETATM   32  N13 UNL     1      11.942   8.636  12.042  1.00  0.00    -0.153 N 
HETATM   33  C8  UNL     1      13.199   8.611  11.535  1.00  0.00     0.291 A 
ATOM     34  H13 UNL     1      11.360   7.802  11.965  1.00  0.00     0.187 HD
HETATM   35  O2  UNL     1      13.656   7.585  10.975  1.00  0.00    -0.265 OA
BRANCH  30  36
HETATM   36  N11 UNL     1      11.652  11.951  13.383  1.00  0.00    -0.323 N 
ATOM     37 2H11 UNL     1      12.208  12.406  14.107  1.00  0.00     0.178 HD
ATOM     38 1H11 UNL     1      10.728  12.300  13.129  1.00  0.00     0.178 HD
ENDBRANCH  30  36
BRANCH  31  39
HETATM   39  N12 UNL     1      10.231   9.752  13.134  1.00  0.00    -0.233 N 
ATOM     40 2H12 UNL     1       9.524   9.077  12.840  1.00  0.00     0.174 HD
ATOM     41 1H12 UNL     1       9.982  10.457  13.828  1.00  0.00     0.174 HD
ENDBRANCH  31  39
ENDBRANCH  24  27
ENDBRANCH   1  23
TORSDOF 10
ENDMDL
MODEL 3
REMARK VINA RESULT: -6.615789937      2.693      8.529
REMARK  10 active torsions:
REMARK  status: ('A' for Active; 'I' for Inactive)
REMARK    1  A    between atoms: N1_1  and  N2_4 
REMARK    2  A    between atoms: N2_4  and  N3_5 
REMARK    3  A    between atoms: N3_5  and  N4_7 
REMARK    4  A    between atoms: C1_9  and  O1_10 
REMARK    5  A    between atoms: C1_9  and  C2_12 
REMARK    6  A    between atoms: C4_16  and  N6_17 
REMARK    7  A    between atoms: N6_17  and  N7_19 
REMARK    8  A    between atoms: N8_21  and  C5_23 
REMARK    9  A    between atoms: N10_26  and  N11_27 
REMARK   10  A    between atoms: C7_30  and  N12_31 
ROOT
HETATM    1  N6  UNL     1      14.899   9.627   9.084  1.00  0.00    -0.270 N 
ATOM      2  H6  UNL     1      15.374  10.300   9.686  1.00  0.00     0.190 HD
ENDROOT
BRANCH   1   3
HETATM    3  C4  UNL     1      15.267   9.496   7.845  1.00  0.00     0.138 A 
HETATM    4  C3  UNL     1      14.845  10.434   6.938  1.00  0.00     0.138 A 
HETATM    5  N5  UNL     1      15.191  10.359   5.641  1.00  0.00    -0.356 N 
HETATM    6  C2  UNL     1      15.963   9.362   5.185  1.00  0.00     0.126 A 
ATOM      7  H5  UNL     1      14.860  11.074   4.992  1.00  0.00     0.165 HD
HETATM    8  C9  UNL     1      16.378   8.422   6.123  1.00  0.00     0.149 A 
HETATM    9  N14 UNL     1      16.037   8.490   7.422  1.00  0.00    -0.327 N 
HETATM   10  N15 UNL     1      17.199   7.364   5.626  1.00  0.00    -0.080 NA
ATOM     11  H14 UNL     1      16.364   7.781   8.077  1.00  0.00     0.168 HD
BRANCH   6  12
HETATM   12  C1  UNL     1      16.360   9.243   3.788  1.00  0.00     0.187 C 
HETATM   13  N4  UNL     1      15.475   9.351   2.873  1.00  0.00    -0.252 N 
ATOM     14  H4  UNL     1      14.498   9.519   3.113  1.00  0.00     0.191 HD
BRANCH  13  15
HETATM   15  N3  UNL     1      15.869   9.234   1.542  1.00  0.00    -0.154 N 
ATOM     16  H3  UNL     1      15.770  10.041   0.925  1.00  0.00     0.225 HD
BRANCH  15  17
HETATM   17  N2  UNL     1      16.330   8.195   1.089  1.00  0.00    -0.228 NA
BRANCH  17  18
HETATM   18  N1  UNL     1      17.102   7.273   0.798  1.00  0.00    -0.259 N 
ATOM     19  H12 UNL     1      17.397   7.100   1.759  1.00  0.00     0.193 HD
ATOM     20  H11 UNL     1      17.639   6.579   0.277  1.00  0.00     0.193 HD
ENDBRANCH  17  18
ENDBRANCH  15  17
ENDBRANCH  13  15
BRANCH  12  21
HETATM   21  O1  UNL     1      17.675   9.016   3.438  1.00  0.00    -0.343 OA
ATOM     22  H1  UNL     1      18.335   8.953   4.117  1.00  0.00     0.219 HD
ENDBRANCH  12  21
ENDBRANCH   6  12
ENDBRANCH   1   3
BRANCH   1  23
HETATM   23  N7  UNL     1      13.856   8.854   9.599  1.00  0.00    -0.240 N 
HETATM   24  N8  UNL     1      13.529   8.810  10.800  1.00  0.00    -0.278 N 
ATOM     25  H8  UNL     1      12.748   8.203  11.046  1.00  0.00     0.189 HD
ATOM     26  H7  UNL     1      13.322   8.284   8.943  1.00  0.00     0.208 HD
BRANCH  24  27
HETATM   27  C5  UNL     1      14.145   9.526  11.854  1.00  0.00     0.162 A 
HETATM   28  C6  UNL     1      14.922   8.837  12.776  1.00  0.00     0.189 A 
HETATM   29  N9  UNL     1      15.068   7.444  12.627  1.00  0.00    -0.077 NA
HETATM   30  N10 UNL     1      15.527   9.494  13.801  1.00  0.00    -0.076 N 
HETATM   31  C7  UNL     1      15.396  10.814  13.951  1.00  0.00     0.701 A 
HETATM   32  N13 UNL     1      14.646  11.500  13.067  1.00  0.00    -0.153 N 
HETATM   33  C8  UNL     1      14.024  10.887  12.030  1.00  0.00     0.291 A 
ATOM     34  H13 UNL     1      14.544  12.509  13.180  1.00  0.00     0.187 HD
HETATM   35  O2  UNL     1      13.328  11.536  11.212  1.00  0.00    -0.265 OA
BRANCH  30  36
HETATM   36  N11 UNL     1      16.319   8.805  14.743  1.00  0.00    -0.323 N 
ATOM     37 2H11 UNL     1      16.817   7.974  14.424  1.00  0.00     0.178 HD
ATOM     38 1H11 UNL     1      16.390   9.126  15.709  1.00  0.00     0.178 HD
ENDBRANCH  30  36
BRANCH  31  39
HETATM   39  N12 UNL     1      15.993  11.408  14.949  1.00  0.00    -0.233 N 
ATOM     40 2H12 UNL     1      16.826  11.013  15.386  1.00  0.00     0.174 HD
ATOM     41 1H12 UNL     1      15.620  12.289  15.302  1.00  0.00     0.174 HD
ENDBRANCH  31  39
ENDBRANCH  24  27
ENDBRANCH   1  23
TORSDOF 10
ENDMDL
MODEL 4
REMARK VINA RESULT: -6.612794617      2.602      8.373
REMARK  10 active torsions:
REMARK  status: ('A' for Active; 'I' for Inactive)
REMARK    1  A    between atoms: N1_1  and  N2_4 
REMARK    2  A    between atoms: N2_4  and  N3_5 
REMARK    3  A    between atoms: N3_5  and  N4_7 
REMARK    4  A    between atoms: C1_9  and  O1_10 
REMARK    5  A    between atoms: C1_9  and  C2_12 
REMARK    6  A    between atoms: C4_16  and  N6_17 
REMARK    7  A    between atoms: N6_17  and  N7_19 
REMARK    8  A    between atoms: N8_21  and  C5_23 
REMARK    9  A    between atoms: N10_26  and  N11_27 
REMARK   10  A    between atoms: C7_30  and  N12_31 
ROOT
HETATM    1  N6  UNL     1      14.577   7.673  11.038  1.00  0.00    -0.270 N 
ATOM      2  H6  UNL     1      13.888   6.932  11.169  1.00  0.00     0.190 HD
ENDROOT
BRANCH   1   3
HETATM    3  C4  UNL     1      14.829   8.115   9.843  1.00  0.00     0.138 A 
HETATM    4  C3  UNL     1      14.359   7.399   8.772  1.00  0.00     0.138 A 
HETATM    5  N5  UNL     1      14.583   7.800   7.508  1.00  0.00    -0.356 N 
HETATM    6  C2  UNL     1      15.277   8.917   7.248  1.00  0.00     0.126 A 
ATOM      7  H5  UNL     1      14.219   7.245   6.733  1.00  0.00     0.165 HD
HETATM    8  C9  UNL     1      15.746   9.627   8.350  1.00  0.00     0.149 A 
HETATM    9  N14 UNL     1      15.525   9.232   9.616  1.00  0.00    -0.327 N 
HETATM   10  N15 UNL     1      16.484  10.814   8.061  1.00  0.00    -0.080 NA
ATOM     11  H14 UNL     1      15.885   9.782  10.396  1.00  0.00     0.168 HD
BRANCH   6  12
HETATM   12  C1  UNL     1      15.544   9.387   5.894  1.00  0.00     0.187 C 
HETATM   13  N4  UNL     1      16.482   8.847   5.216  1.00  0.00    -0.252 N 
ATOM     14  H4  UNL     1      17.042   8.093   5.614  1.00  0.00     0.191 HD
BRANCH  13  15
HETATM   15  N3  UNL     1      16.726   9.306   3.925  1.00  0.00    -0.154 N 
ATOM     16  H3  UNL     1      17.634   9.719   3.710  1.00  0.00     0.225 HD
BRANCH  15  17
HETATM   17  N2  UNL     1      15.885   9.230   3.038  1.00  0.00    -0.228 NA
BRANCH  17  18
HETATM   18  N1  UNL     1      15.059   9.523   2.164  1.00  0.00    -0.259 N 
ATOM     19  H12 UNL     1      14.783  10.405   2.597  1.00  0.00     0.193 HD
ATOM     20  H11 UNL     1      14.473   9.497   1.330  1.00  0.00     0.193 HD
ENDBRANCH  17  18
ENDBRANCH  15  17
ENDBRANCH  13  15
BRANCH  12  21
HETATM   21  O1  UNL     1      14.800  10.405   5.334  1.00  0.00    -0.343 OA
ATOM     22  H1  UNL     1      15.197  11.258   5.205  1.00  0.00     0.219 HD
ENDBRANCH  12  21
ENDBRANCH   6  12
ENDBRANCH   1   3
BRANCH   1  23
HETATM   23  N7  UNL     1      15.241   8.204  12.145  1.00  0.00    -0.240 N 
HETATM   24  N8  UNL     1      14.817   9.143  12.846  1.00  0.00    -0.278 N 
ATOM     25  H8  UNL     1      15.401   9.438  13.628  1.00  0.00     0.189 HD
ATOM     26  H7  UNL     1      16.140   7.794  12.399  1.00  0.00     0.208 HD
BRANCH  24  27
HETATM   27  C5  UNL     1      13.598   9.836  12.655  1.00  0.00     0.162 A 
HETATM   28  C6  UNL     1      12.416   9.259  13.097  1.00  0.00     0.189 A 
HETATM   29  N9  UNL     1      12.474   7.998  13.723  1.00  0.00    -0.077 NA
HETATM   30  N10 UNL     1      11.227   9.897  12.929  1.00  0.00    -0.076 N 
HETATM   31  C7  UNL     1      11.160  11.092  12.338  1.00  0.00     0.701 A 
HETATM   32  N13 UNL     1      12.297  11.669  11.901  1.00  0.00    -0.153 N 
HETATM   33  C8  UNL     1      13.504  11.069  12.047  1.00  0.00     0.291 A 
ATOM     34  H13 UNL     1      12.248  12.582  11.448  1.00  0.00     0.187 HD
HETATM   35  O2  UNL     1      14.557  11.615  11.637  1.00  0.00    -0.265 OA
BRANCH  30  36
HETATM   36  N11 UNL     1      10.019   9.321  13.375  1.00  0.00    -0.323 N 
ATOM     37 2H11 UNL     1      10.011   8.902  14.305  1.00  0.00     0.178 HD
ATOM     38 1H11 UNL     1       9.185   9.322  12.788  1.00  0.00     0.178 HD
ENDBRANCH  30  36
BRANCH  31  39
HETATM   39  N12 UNL     1       9.999  11.672  12.194  1.00  0.00    -0.233 N 
ATOM     40 2H12 UNL     1       9.814  12.600  12.576  1.00  0.00     0.174 HD
ATOM     41 1H12 UNL     1       9.257  11.189  11.687  1.00  0.00     0.174 HD
ENDBRANCH  31  39
ENDBRANCH  24  27
ENDBRANCH   1  23
TORSDOF 10
ENDMDL
MODEL 5
REMARK VINA RESULT: -6.600900782      2.228      3.866
REMARK  10 active torsions:
REMARK  status: ('A' for Active; 'I' for Inactive)
REMARK    1  A    between atoms: N1_1  and  N2_4 
REMARK    2  A    between atoms: N2_4  and  N3_5 
REMARK    3  A    between atoms: N3_5  and  N4_7 
REMARK    4  A    between atoms: C1_9  and  O1_10 
REMARK    5  A    between atoms: C1_9  and  C2_12 
REMARK    6  A    between atoms: C4_16  and  N6_17 
REMARK    7  A    between atoms: N6_17  and  N7_19 
REMARK    8  A    between atoms: N8_21  and  C5_23 
REMARK    9  A    between atoms: N10_26  and  N11_27 
REMARK   10  A    between atoms: C7_30  and  N12_31 
ROOT
HETATM    1  N6  UNL     1      16.726   6.959   6.877  1.00  0.00    -0.270 N 
ATOM      2  H6  UNL     1      16.376   6.155   6.355  1.00  0.00     0.190 HD
ENDROOT
BRANCH   1   3
HETATM    3  C4  UNL     1      15.986   7.504   7.795  1.00  0.00     0.138 A 
HETATM    4  C3  UNL     1      16.599   8.260   8.762  1.00  0.00     0.138 A 
HETATM    5  N5  UNL     1      15.892   8.853   9.740  1.00  0.00    -0.356 N 
HETATM    6  C2  UNL     1      14.560   8.726   9.808  1.00  0.00     0.126 A 
ATOM      7  H5  UNL     1      16.379   9.409  10.444  1.00  0.00     0.165 HD
HETATM    8  C9  UNL     1      13.960   7.954   8.817  1.00  0.00     0.149 A 
HETATM    9  N14 UNL     1      14.659   7.359   7.836  1.00  0.00    -0.327 N 
HETATM   10  N15 UNL     1      12.540   7.826   8.899  1.00  0.00    -0.080 NA
ATOM     11  H14 UNL     1      14.180   6.802   7.128  1.00  0.00     0.168 HD
BRANCH   6  12
HETATM   12  C1  UNL     1      13.756   9.351  10.851  1.00  0.00     0.187 C 
HETATM   13  N4  UNL     1      13.077   8.616  11.645  1.00  0.00    -0.252 N 
ATOM     14  H4  UNL     1      13.094   7.601  11.554  1.00  0.00     0.191 HD
BRANCH  13  15
HETATM   15  N3  UNL     1      12.314   9.227  12.637  1.00  0.00    -0.154 N 
ATOM     16  H3  UNL     1      12.530   9.033  13.615  1.00  0.00     0.225 HD
BRANCH  15  17
HETATM   17  N2  UNL     1      11.393   9.988  12.372  1.00  0.00    -0.228 NA
BRANCH  17  18
HETATM   18  N1  UNL     1      10.654  10.981  12.333  1.00  0.00    -0.259 N 
ATOM     19  H12 UNL     1      10.773  11.217  13.319  1.00  0.00     0.193 HD
ATOM     20  H11 UNL     1      10.021  11.712  12.009  1.00  0.00     0.193 HD
ENDBRANCH  17  18
ENDBRANCH  15  17
ENDBRANCH  13  15
BRANCH  12  21
HETATM   21  O1  UNL     1      13.718  10.723  10.996  1.00  0.00    -0.343 OA
ATOM     22  H1  UNL     1      13.995  11.276  10.276  1.00  0.00     0.219 HD
ENDBRANCH  12  21
ENDBRANCH   6  12
ENDBRANCH   1   3
BRANCH   1  23
HETATM   23  N7  UNL     1      17.997   7.464   6.599  1.00  0.00    -0.240 N 
HETATM   24  N8  UNL     1      18.291   8.133   5.590  1.00  0.00    -0.278 N 
ATOM     25  H8  UNL     1      19.259   8.443   5.505  1.00  0.00     0.189 HD
ATOM     26  H7  UNL     1      18.740   7.272   7.271  1.00  0.00     0.208 HD
BRANCH  24  27
HETATM   27  C5  UNL     1      17.403   8.502   4.552  1.00  0.00     0.162 A 
HETATM   28  C6  UNL     1      17.527   7.896   3.309  1.00  0.00     0.189 A 
HETATM   29  N9  UNL     1      18.538   6.932   3.127  1.00  0.00    -0.077 NA
HETATM   30  N10 UNL     1      16.691   8.228   2.290  1.00  0.00    -0.076 N 
HETATM   31  C7  UNL     1      15.729   9.139   2.451  1.00  0.00     0.701 A 
HETATM   32  N13 UNL     1      15.592   9.738   3.649  1.00  0.00    -0.153 N 
HETATM   33  C8  UNL     1      16.403   9.440   4.694  1.00  0.00     0.291 A 
ATOM     34  H13 UNL     1      14.858  10.436   3.775  1.00  0.00     0.187 HD
HETATM   35  O2  UNL     1      16.267  10.004   5.807  1.00  0.00    -0.265 OA
BRANCH  30  36
HETATM   36  N11 UNL     1      16.807   7.618   1.022  1.00  0.00    -0.323 N 
ATOM     37 2H11 UNL     1      17.603   6.999   0.867  1.00  0.00     0.178 HD
ATOM     38 1H11 UNL     1      16.121   7.792   0.288  1.00  0.00     0.178 HD
ENDBRANCH  30  36
BRANCH  31  39
HETATM   39  N12 UNL     1      14.947   9.429   1.446  1.00  0.00    -0.233 N 
ATOM     40 2H12 UNL     1      13.944   9.247   1.479  1.00  0.00     0.174 HD
ATOM     41 1H12 UNL     1      15.345   9.850   0.607  1.00  0.00     0.174 HD
ENDBRANCH  31  39
ENDBRANCH  24  27
ENDBRANCH   1  23
TORSDOF 10
ENDMDL
