MODEL 1
REMARK VINA RESULT: -6.542978901      0.000      0.000
REMARK  8 active torsions:
REMARK  status: ('A' for Active; 'I' for Inactive)
REMARK    1  A    between atoms: N1_2  and  C3_4 
REMARK    2  A    between atoms: C3_4  and  C4_6 
REMARK    3  A    between atoms: C4_6  and  O1_7 
REMARK    4  A    between atoms: C4_6  and  N2_9 
REMARK    5  A    between atoms: N2_9  and  C5_11 
REMARK    6  A    between atoms: N4_14  and  C6_15 
REMARK    7  A    between atoms: N5_16  and  C7_18 
REMARK    8  A    between atoms: N9_24  and  O2_26 
ROOT
HETATM    1  C5  UNL     1      16.114   9.701   8.567  1.00  0.00     0.256 C 
HETATM    2  N3  UNL     1      16.945   8.586   8.934  1.00  0.00    -0.125 NA
HETATM    3  S2  UNL     1      17.969   8.293   7.498  1.00  0.00     0.067 SA
HETATM    4  N4  UNL     1      16.994   9.227   6.369  1.00  0.00    -0.251 N 
HETATM    5  C9  UNL     1      15.946   9.788   7.147  1.00  0.00     0.155 C 
HETATM    6  N9  UNL     1      14.936  10.329   6.558  1.00  0.00    -0.253 N 
ATOM      7  H9  UNL     1      14.207  10.721   7.154  1.00  0.00     0.195 HD
ENDROOT
BRANCH   1   8
HETATM    8  N2  UNL     1      14.926   9.626   9.357  1.00  0.00    -0.367 N 
ATOM      9  H2  UNL     1      14.546  10.445   9.833  1.00  0.00     0.158 HD
BRANCH   8  10
HETATM   10  C4  UNL     1      14.299   8.345   9.448  1.00  0.00     0.277 C 
BRANCH  10  11
HETATM   11  C3  UNL     1      13.609   8.183  10.780  1.00  0.00     0.123 C 
HETATM   12  S1  UNL     1      13.670   9.359  11.905  1.00  0.00    -0.061 SA
BRANCH  11  13
HETATM   13  N1  UNL     1      12.896   7.004  11.086  1.00  0.00    -0.380 N 
HETATM   14  C1  UNL     1      11.482   7.111  11.457  1.00  0.00     0.150 C 
HETATM   15  C2  UNL     1      13.523   5.708  11.044  1.00  0.00     0.150 C 
ENDBRANCH  11  13
ENDBRANCH  10  11
BRANCH  10  16
HETATM   16  O1  UNL     1      13.298   8.203   8.480  1.00  0.00    -0.370 OA
ATOM     17  H1  UNL     1      13.293   9.017   7.990  1.00  0.00     0.212 HD
ENDBRANCH  10  16
ENDBRANCH   8  10
ENDBRANCH   1   8
BRANCH   4  18
HETATM   18  C6  UNL     1      17.276   9.336   4.974  1.00  0.00     0.195 C 
HETATM   19  N5  UNL     1      16.899   8.404   4.167  1.00  0.00    -0.365 N 
ATOM     20  H5  UNL     1      16.401   7.589   4.525  1.00  0.00     0.162 HD
BRANCH  19  21
HETATM   21  C7  UNL     1      17.180   8.513   2.775  1.00  0.00     0.210 C 
HETATM   22  C8  UNL     1      16.120   9.389   2.144  1.00  0.00     0.175 C 
HETATM   23  N6  UNL     1      15.746   8.631   0.984  1.00  0.00    -0.127 NA
HETATM   24  N7  UNL     1      16.761   7.692   0.766  1.00  0.00    -0.038 NA
HETATM   25  N8  UNL     1      17.173   7.274   2.054  1.00  0.00    -0.103 NA
ENDBRANCH  19  21
ENDBRANCH   4  18
BRANCH   6  26
HETATM   26  O2  UNL     1      14.751  10.425   5.216  1.00  0.00    -0.288 OA
ATOM     27  H2  UNL     1      14.625  11.229   4.726  1.00  0.00     0.244 HD
ENDBRANCH   6  26
TORSDOF 8
ENDMDL
MODEL 2
REMARK VINA RESULT: -6.537592594      1.076      1.332
REMARK  8 active torsions:
REMARK  status: ('A' for Active; 'I' for Inactive)
REMARK    1  A    between atoms: N1_2  and  C3_4 
REMARK    2  A    between atoms: C3_4  and  C4_6 
REMARK    3  A    between atoms: C4_6  and  O1_7 
REMARK    4  A    between atoms: C4_6  and  N2_9 
REMARK    5  A    between atoms: N2_9  and  C5_11 
REMARK    6  A    between atoms: N4_14  and  C6_15 
REMARK    7  A    between atoms: N5_16  and  C7_18 
REMARK    8  A    between atoms: N9_24  and  O2_26 
ROOT
HETATM    1  C5  UNL     1      16.088   9.701   8.527  1.00  0.00     0.256 C 
HETATM    2  N3  UNL     1      16.935   8.605   8.915  1.00  0.00    -0.125 NA
HETATM    3  S2  UNL     1      17.978   8.313   7.493  1.00  0.00     0.067 SA
HETATM    4  N4  UNL     1      16.999   9.217   6.344  1.00  0.00    -0.251 N 
HETATM    5  C9  UNL     1      15.934   9.769   7.105  1.00  0.00     0.155 C 
HETATM    6  N9  UNL     1      14.920  10.286   6.500  1.00  0.00    -0.253 N 
ATOM      7  H9  UNL     1      14.179  10.672   7.084  1.00  0.00     0.195 HD
ENDROOT
BRANCH   1   8
HETATM    8  N2  UNL     1      14.894   9.615   9.307  1.00  0.00    -0.367 N 
ATOM      9  H2  UNL     1      14.502  10.429   9.779  1.00  0.00     0.158 HD
BRANCH   8  10
HETATM   10  C4  UNL     1      14.279   8.328   9.392  1.00  0.00     0.277 C 
BRANCH  10  11
HETATM   11  C3  UNL     1      13.618   8.141  10.736  1.00  0.00     0.123 C 
HETATM   12  S1  UNL     1      12.413   7.065  10.937  1.00  0.00    -0.061 SA
BRANCH  11  13
HETATM   13  N1  UNL     1      14.028   8.900  11.853  1.00  0.00    -0.380 N 
HETATM   14  C1  UNL     1      13.193  10.026  12.285  1.00  0.00     0.150 C 
HETATM   15  C2  UNL     1      15.239   8.597  12.572  1.00  0.00     0.150 C 
ENDBRANCH  11  13
ENDBRANCH  10  11
BRANCH  10  16
HETATM   16  O1  UNL     1      13.258   8.192   8.444  1.00  0.00    -0.370 OA
ATOM     17  H1  UNL     1      13.351   8.932   7.855  1.00  0.00     0.212 HD
ENDBRANCH  10  16
ENDBRANCH   8  10
ENDBRANCH   1   8
BRANCH   4  18
HETATM   18  C6  UNL     1      17.293   9.316   4.951  1.00  0.00     0.195 C 
HETATM   19  N5  UNL     1      16.930   8.373   4.149  1.00  0.00    -0.365 N 
ATOM     20  H5  UNL     1      16.435   7.558   4.510  1.00  0.00     0.162 HD
BRANCH  19  21
HETATM   21  C7  UNL     1      17.223   8.471   2.758  1.00  0.00     0.210 C 
HETATM   22  C8  UNL     1      16.176   9.354   2.114  1.00  0.00     0.175 C 
HETATM   23  N6  UNL     1      15.805   8.593   0.956  1.00  0.00    -0.127 NA
HETATM   24  N7  UNL     1      16.812   7.643   0.752  1.00  0.00    -0.038 NA
HETATM   25  N8  UNL     1      17.210   7.229   2.045  1.00  0.00    -0.103 NA
ENDBRANCH  19  21
ENDBRANCH   4  18
BRANCH   6  26
HETATM   26  O2  UNL     1      14.747  10.363   5.155  1.00  0.00    -0.288 OA
ATOM     27  H2  UNL     1      14.155  10.952   4.701  1.00  0.00     0.244 HD
ENDBRANCH   6  26
TORSDOF 8
ENDMDL
MODEL 3
REMARK VINA RESULT: -6.360378652      1.479      1.667
REMARK  8 active torsions:
REMARK  status: ('A' for Active; 'I' for Inactive)
REMARK    1  A    between atoms: N1_2  and  C3_4 
REMARK    2  A    between atoms: C3_4  and  C4_6 
REMARK    3  A    between atoms: C4_6  and  O1_7 
REMARK    4  A    between atoms: C4_6  and  N2_9 
REMARK    5  A    between atoms: N2_9  and  C5_11 
REMARK    6  A    between atoms: N4_14  and  C6_15 
REMARK    7  A    between atoms: N5_16  and  C7_18 
REMARK    8  A    between atoms: N9_24  and  O2_26 
ROOT
HETATM    1  C5  UNL     1      16.840   9.943   8.202  1.00  0.00     0.256 C 
HETATM    2  N3  UNL     1      17.642   8.787   8.506  1.00  0.00    -0.125 NA
HETATM    3  S2  UNL     1      18.152   8.158   6.913  1.00  0.00     0.067 SA
HETATM    4  N4  UNL     1      16.967   9.047   5.963  1.00  0.00    -0.251 N 
HETATM    5  C9  UNL     1      16.259   9.851   6.897  1.00  0.00     0.155 C 
HETATM    6  N9  UNL     1      15.169  10.436   6.534  1.00  0.00    -0.253 N 
ATOM      7  H9  UNL     1      14.694  11.004   7.235  1.00  0.00     0.195 HD
ENDROOT
BRANCH   1   8
HETATM    8  N2  UNL     1      15.947  10.143   9.298  1.00  0.00    -0.367 N 
ATOM      9  H2  UNL     1      15.820  11.060   9.726  1.00  0.00     0.158 HD
BRANCH   8  10
HETATM   10  C4  UNL     1      15.240   8.991   9.765  1.00  0.00     0.277 C 
BRANCH  10  11
HETATM   11  C3  UNL     1      15.037   9.061  11.259  1.00  0.00     0.123 C 
HETATM   12  S1  UNL     1      14.216  10.292  11.938  1.00  0.00    -0.061 SA
BRANCH  11  13
HETATM   13  N1  UNL     1      15.560   8.060  12.106  1.00  0.00    -0.380 N 
HETATM   14  C1  UNL     1      16.247   6.914  11.503  1.00  0.00     0.150 C 
HETATM   15  C2  UNL     1      15.433   8.138  13.539  1.00  0.00     0.150 C 
ENDBRANCH  11  13
ENDBRANCH  10  11
BRANCH  10  16
HETATM   16  O1  UNL     1      13.958   8.925   9.209  1.00  0.00    -0.370 OA
ATOM     17  H1  UNL     1      13.458   8.351   9.777  1.00  0.00     0.212 HD
ENDBRANCH  10  16
ENDBRANCH   8  10
ENDBRANCH   1   8
BRANCH   4  18
HETATM   18  C6  UNL     1      16.821   8.920   4.549  1.00  0.00     0.195 C 
HETATM   19  N5  UNL     1      17.799   8.468   3.840  1.00  0.00    -0.365 N 
ATOM     20  H5  UNL     1      18.675   8.202   4.290  1.00  0.00     0.162 HD
BRANCH  19  21
HETATM   21  C7  UNL     1      17.654   8.341   2.429  1.00  0.00     0.210 C 
HETATM   22  C8  UNL     1      16.442   9.141   2.002  1.00  0.00     0.175 C 
HETATM   23  N6  UNL     1      15.752   8.219   1.146  1.00  0.00    -0.127 NA
HETATM   24  N7  UNL     1      16.670   7.221   0.797  1.00  0.00    -0.038 NA
HETATM   25  N8  UNL     1      17.451   7.003   1.957  1.00  0.00    -0.103 NA
ENDBRANCH  19  21
ENDBRANCH   4  18
BRANCH   6  26
HETATM   26  O2  UNL     1      14.596  10.367   5.306  1.00  0.00    -0.288 OA
ATOM     27  H2  UNL     1      14.720  10.986   4.595  1.00  0.00     0.244 HD
ENDBRANCH   6  26
TORSDOF 8
ENDMDL
MODEL 4
REMARK VINA RESULT: -6.251806672      1.495      1.659
REMARK  8 active torsions:
REMARK  status: ('A' for Active; 'I' for Inactive)
REMARK    1  A    between atoms: N1_2  and  C3_4 
REMARK    2  A    between atoms: C3_4  and  C4_6 
REMARK    3  A    between atoms: C4_6  and  O1_7 
REMARK    4  A    between atoms: C4_6  and  N2_9 
REMARK    5  A    between atoms: N2_9  and  C5_11 
REMARK    6  A    between atoms: N4_14  and  C6_15 
REMARK    7  A    between atoms: N5_16  and  C7_18 
REMARK    8  A    between atoms: N9_24  and  O2_26 
ROOT
HETATM    1  C5  UNL     1      15.799   9.369   8.674  1.00  0.00     0.256 C 
HETATM    2  N3  UNL     1      16.726   8.328   9.030  1.00  0.00    -0.125 NA
HETATM    3  S2  UNL     1      17.832   8.210   7.631  1.00  0.00     0.067 SA
HETATM    4  N4  UNL     1      16.813   9.093   6.500  1.00  0.00    -0.251 N 
HETATM    5  C9  UNL     1      15.682   9.507   7.254  1.00  0.00     0.155 C 
HETATM    6  N9  UNL     1      14.645   9.969   6.644  1.00  0.00    -0.253 N 
ATOM      7  H9  UNL     1      13.856  10.256   7.223  1.00  0.00     0.195 HD
ENDROOT
BRANCH   1   8
HETATM    8  N2  UNL     1      14.595   9.135   9.406  1.00  0.00    -0.367 N 
ATOM      9  H2  UNL     1      13.958   8.376   9.164  1.00  0.00     0.158 HD
BRANCH   8  10
HETATM   10  C4  UNL     1      14.327  10.022  10.495  1.00  0.00     0.277 C 
BRANCH  10  11
HETATM   11  C3  UNL     1      13.983   9.244  11.742  1.00  0.00     0.123 C 
HETATM   12  S1  UNL     1      15.080   8.276  12.457  1.00  0.00    -0.061 SA
BRANCH  11  13
HETATM   13  N1  UNL     1      12.697   9.334  12.317  1.00  0.00    -0.380 N 
HETATM   14  C1  UNL     1      12.212  10.646  12.756  1.00  0.00     0.150 C 
HETATM   15  C2  UNL     1      11.858   8.175  12.483  1.00  0.00     0.150 C 
ENDBRANCH  11  13
ENDBRANCH  10  11
BRANCH  10  16
HETATM   16  O1  UNL     1      15.458  10.781  10.819  1.00  0.00    -0.370 OA
ATOM     17  H1  UNL     1      15.592  11.371  10.087  1.00  0.00     0.212 HD
ENDBRANCH  10  16
ENDBRANCH   8  10
ENDBRANCH   1   8
BRANCH   4  18
HETATM   18  C6  UNL     1      17.138   9.298   5.126  1.00  0.00     0.195 C 
HETATM   19  N5  UNL     1      16.766   8.436   4.242  1.00  0.00    -0.365 N 
ATOM     20  H5  UNL     1      16.239   7.610   4.524  1.00  0.00     0.162 HD
BRANCH  19  21
HETATM   21  C7  UNL     1      17.090   8.641   2.870  1.00  0.00     0.210 C 
HETATM   22  C8  UNL     1      15.972   9.435   2.231  1.00  0.00     0.175 C 
HETATM   23  N6  UNL     1      15.725   8.701   1.023  1.00  0.00    -0.127 NA
HETATM   24  N7  UNL     1      16.839   7.881   0.810  1.00  0.00    -0.038 NA
HETATM   25  N8  UNL     1      17.239   7.444   2.096  1.00  0.00    -0.103 NA
ENDBRANCH  19  21
ENDBRANCH   4  18
BRANCH   6  26
HETATM   26  O2  UNL     1      14.507  10.111   5.301  1.00  0.00    -0.288 OA
ATOM     27  H2  UNL     1      14.064  10.825   4.857  1.00  0.00     0.244 HD
ENDBRANCH   6  26
TORSDOF 8
ENDMDL
MODEL 5
REMARK VINA RESULT: -6.246286810      1.454      1.545
REMARK  8 active torsions:
REMARK  status: ('A' for Active; 'I' for Inactive)
REMARK    1  A    between atoms: N1_2  and  C3_4 
REMARK    2  A    between atoms: C3_4  and  C4_6 
REMARK    3  A    between atoms: C4_6  and  O1_7 
REMARK    4  A    between atoms: C4_6  and  N2_9 
REMARK    5  A    between atoms: N2_9  and  C5_11 
REMARK    6  A    between atoms: N4_14  and  C6_15 
REMARK    7  A    between atoms: N5_16  and  C7_18 
REMARK    8  A    between atoms: N9_24  and  O2_26 
ROOT
HETATM    1  C5  UNL     1      16.237   9.630   8.631  1.00  0.00     0.256 C 
HETATM    2  N3  UNL     1      17.130   8.538   8.913  1.00  0.00    -0.125 NA
HETATM    3  S2  UNL     1      18.066   8.319   7.406  1.00  0.00     0.067 SA
HETATM    4  N4  UNL     1      16.985   9.242   6.368  1.00  0.00    -0.251 N 
HETATM    5  C9  UNL     1      15.973   9.745   7.229  1.00  0.00     0.155 C 
HETATM    6  N9  UNL     1      14.906  10.261   6.722  1.00  0.00    -0.253 N 
ATOM      7  H9  UNL     1      14.205  10.611   7.375  1.00  0.00     0.195 HD
ENDROOT
BRANCH   1   8
HETATM    8  N2  UNL     1      15.108   9.491   9.496  1.00  0.00    -0.367 N 
ATOM      9  H2  UNL     1      14.230   9.977   9.313  1.00  0.00     0.158 HD
BRANCH   8  10
HETATM   10  C4  UNL     1      15.273   8.636  10.629  1.00  0.00     0.277 C 
BRANCH  10  11
HETATM   11  C3  UNL     1      14.643   9.251  11.856  1.00  0.00     0.123 C 
HETATM   12  S1  UNL     1      13.942  10.719  11.792  1.00  0.00    -0.061 SA
BRANCH  11  13
HETATM   13  N1  UNL     1      14.652   8.569  13.091  1.00  0.00    -0.380 N 
HETATM   14  C1  UNL     1      13.380   8.357  13.788  1.00  0.00     0.150 C 
HETATM   15  C2  UNL     1      15.874   8.081  13.678  1.00  0.00     0.150 C 
ENDBRANCH  11  13
ENDBRANCH  10  11
BRANCH  10  16
HETATM   16  O1  UNL     1      14.621   7.412  10.439  1.00  0.00    -0.370 OA
ATOM     17  H1  UNL     1      14.891   7.105   9.581  1.00  0.00     0.212 HD
ENDBRANCH  10  16
ENDBRANCH   8  10
ENDBRANCH   1   8
BRANCH   4  18
HETATM   18  C6  UNL     1      17.170   9.396   4.962  1.00  0.00     0.195 C 
HETATM   19  N5  UNL     1      16.970   8.395   4.173  1.00  0.00    -0.365 N 
ATOM     20  H5  UNL     1      16.681   7.495   4.555  1.00  0.00     0.162 HD
BRANCH  19  21
HETATM   21  C7  UNL     1      17.154   8.549   2.769  1.00  0.00     0.210 C 
HETATM   22  C8  UNL     1      16.038   9.423   2.237  1.00  0.00     0.175 C 
HETATM   23  N6  UNL     1      15.599   8.691   1.084  1.00  0.00    -0.127 NA
HETATM   24  N7  UNL     1      16.612   7.778   0.771  1.00  0.00    -0.038 NA
HETATM   25  N8  UNL     1      17.118   7.331   2.015  1.00  0.00    -0.103 NA
ENDBRANCH  19  21
ENDBRANCH   4  18
BRANCH   6  26
HETATM   26  O2  UNL     1      14.630  10.383   5.398  1.00  0.00    -0.288 OA
ATOM     27  H2  UNL     1      14.174   9.745   4.861  1.00  0.00     0.244 HD
ENDBRANCH   6  26
TORSDOF 8
ENDMDL
