MODEL 1
REMARK VINA RESULT: -7.094114758      0.000      0.000
REMARK  7 active torsions:
REMARK  status: ('A' for Active; 'I' for Inactive)
REMARK    1  A    between atoms: O1_2  and  C2_3 
REMARK    2  A    between atoms: C2_3  and  C3_5 
REMARK    3  A    between atoms: N1_6  and  N2_8 
REMARK    4  A    between atoms: N2_8  and  C4_10 
REMARK    5  A    between atoms: C5_13  and  N4_14 
REMARK    6  A    between atoms: N8_25  and  C8_26 
REMARK    7  A    between atoms: C10_33  and  N11_34 
ROOT
HETATM    1  C4  UNL     1      17.374   7.298   1.805  1.00  0.00     0.167 A 
HETATM    2  N3  UNL     1      16.520   8.209   1.298  1.00  0.00    -0.173 N 
ATOM      3  H3  UNL     1      16.299   8.187   0.302  1.00  0.00     0.186 HD
HETATM    4  C5  UNL     1      15.955   9.144   2.078  1.00  0.00     0.679 A 
HETATM    5  N5  UNL     1      16.241   9.177   3.388  1.00  0.00    -0.172 N 
ATOM      6  H5  UNL     1      15.806   9.892   3.972  1.00  0.00     0.186 HD
HETATM    7  C6  UNL     1      17.091   8.290   3.960  1.00  0.00     0.194 A 
HETATM    8  C7  UNL     1      17.666   7.333   3.148  1.00  0.00     0.142 A 
HETATM    9  N6  UNL     1      18.451   6.599   3.961  1.00  0.00    -0.278 N 
ATOM     10  H6  UNL     1      19.023   5.802   3.680  1.00  0.00     0.189 HD
HETATM   11  N7  UNL     1      18.352   7.083   5.177  1.00  0.00    -0.219 N 
ATOM     12  H7  UNL     1      18.847   6.709   5.987  1.00  0.00     0.209 HD
HETATM   13  N8  UNL     1      17.534   8.112   5.218  1.00  0.00    -0.051 N 
ENDROOT
BRANCH  13  14
HETATM   14  C8  UNL     1      17.148   8.921   6.325  1.00  0.00     0.725 A 
HETATM   15  N9  UNL     1      17.050  10.260   6.235  1.00  0.00    -0.138 N 
HETATM   16  C9  UNL     1      16.684  11.003   7.296  1.00  0.00     0.352 A 
ATOM     17  H9  UNL     1      17.256  10.720   5.347  1.00  0.00     0.189 HD
HETATM   18  O3  UNL     1      16.599  12.268   7.182  1.00  0.00    -0.246 OA
HETATM   19  N10 UNL     1      16.400  10.440   8.492  1.00  0.00    -0.141 N 
HETATM   20  C10 UNL     1      16.495   9.096   8.596  1.00  0.00     0.694 A 
ATOM     21  H10 UNL     1      16.123  11.012   9.290  1.00  0.00     0.189 HD
HETATM   22  N12 UNL     1      16.859   8.377   7.535  1.00  0.00    -0.020 N 
ATOM     23  H12 UNL     1      16.923   7.364   7.637  1.00  0.00     0.203 HD
BRANCH  20  24
HETATM   24  N11 UNL     1      16.219   8.569   9.750  1.00  0.00    -0.234 N 
ATOM     25 2H11 UNL     1      15.276   8.537  10.137  1.00  0.00     0.174 HD
ATOM     26 1H11 UNL     1      16.995   8.175  10.281  1.00  0.00     0.174 HD
ENDBRANCH  20  24
ENDBRANCH  13  14
BRANCH   4  27
HETATM   27  N4  UNL     1      15.150   9.983   1.531  1.00  0.00    -0.234 N 
ATOM     28  H42 UNL     1      14.398   9.688   0.906  1.00  0.00     0.174 HD
ATOM     29  H41 UNL     1      15.277  10.974   1.735  1.00  0.00     0.174 HD
ENDBRANCH   4  27
BRANCH   1  30
HETATM   30  N2  UNL     1      17.973   6.311   0.990  1.00  0.00    -0.283 N 
ATOM     31  H2  UNL     1      18.960   6.410   0.753  1.00  0.00     0.188 HD
BRANCH  30  32
HETATM   32  N1  UNL     1      17.274   5.208   0.496  1.00  0.00    -0.304 N 
HETATM   33  C3  UNL     1      17.630   4.035   0.885  1.00  0.00     0.189 C 
ATOM     34  H1  UNL     1      16.501   5.330  -0.157  1.00  0.00     0.186 HD
BRANCH  33  35
HETATM   35  C2  UNL     1      18.722   3.804   1.813  1.00  0.00     0.299 C 
HETATM   36  O2  UNL     1      19.885   3.601   1.372  1.00  0.00    -0.259 OA
BRANCH  35  37
HETATM   37  O1  UNL     1      18.553   3.797   3.187  1.00  0.00    -0.322 OA
HETATM   38  C1  UNL     1      17.769   2.777   3.766  1.00  0.00     0.213 C 
ENDBRANCH  35  37
ENDBRANCH  33  35
ENDBRANCH  30  32
ENDBRANCH   1  30
TORSDOF 7
ENDMDL
MODEL 2
REMARK VINA RESULT: -7.005696593      3.285      8.675
REMARK  7 active torsions:
REMARK  status: ('A' for Active; 'I' for Inactive)
REMARK    1  A    between atoms: O1_2  and  C2_3 
REMARK    2  A    between atoms: C2_3  and  C3_5 
REMARK    3  A    between atoms: N1_6  and  N2_8 
REMARK    4  A    between atoms: N2_8  and  C4_10 
REMARK    5  A    between atoms: C5_13  and  N4_14 
REMARK    6  A    between atoms: N8_25  and  C8_26 
REMARK    7  A    between atoms: C10_33  and  N11_34 
ROOT
HETATM    1  C4  UNL     1      14.907   9.512   9.723  1.00  0.00     0.167 A 
HETATM    2  N3  UNL     1      13.981   8.540   9.607  1.00  0.00    -0.173 N 
ATOM      3  H3  UNL     1      13.388   8.316  10.406  1.00  0.00     0.186 HD
HETATM    4  C5  UNL     1      13.825   7.860   8.459  1.00  0.00     0.679 A 
HETATM    5  N5  UNL     1      14.602   8.151   7.405  1.00  0.00    -0.172 N 
ATOM      6  H5  UNL     1      14.475   7.629   6.537  1.00  0.00     0.186 HD
HETATM    7  C6  UNL     1      15.550   9.117   7.457  1.00  0.00     0.194 A 
HETATM    8  C7  UNL     1      15.702   9.809   8.642  1.00  0.00     0.142 A 
HETATM    9  N6  UNL     1      16.694  10.692   8.416  1.00  0.00    -0.278 N 
ATOM     10  H6  UNL     1      17.061  11.365   9.090  1.00  0.00     0.189 HD
HETATM   11  N7  UNL     1      17.109  10.540   7.180  1.00  0.00    -0.219 N 
ATOM     12  H7  UNL     1      17.856  11.086   6.752  1.00  0.00     0.209 HD
HETATM   13  N8  UNL     1      16.437   9.592   6.563  1.00  0.00    -0.051 N 
ENDROOT
BRANCH  13  14
HETATM   14  C8  UNL     1      16.566   9.110   5.229  1.00  0.00     0.725 A 
HETATM   15  N9  UNL     1      17.464   8.165   4.891  1.00  0.00    -0.138 N 
HETATM   16  C9  UNL     1      17.566   7.727   3.623  1.00  0.00     0.352 A 
ATOM     17  H9  UNL     1      18.076   7.776   5.608  1.00  0.00     0.189 HD
HETATM   18  O3  UNL     1      18.424   6.833   3.331  1.00  0.00    -0.246 OA
HETATM   19  N10 UNL     1      16.777   8.213   2.638  1.00  0.00    -0.141 N 
HETATM   20  C10 UNL     1      15.871   9.161   2.964  1.00  0.00     0.694 A 
ATOM     21  H10 UNL     1      16.862   7.873   1.680  1.00  0.00     0.189 HD
HETATM   22  N12 UNL     1      15.784   9.583   4.225  1.00  0.00    -0.020 N 
ATOM     23  H12 UNL     1      15.093  10.299   4.448  1.00  0.00     0.203 HD
BRANCH  20  24
HETATM   24  N11 UNL     1      15.119   9.617   2.009  1.00  0.00    -0.234 N 
ATOM     25 2H11 UNL     1      15.466  10.228   1.269  1.00  0.00     0.174 HD
ATOM     26 1H11 UNL     1      14.137   9.342   2.016  1.00  0.00     0.174 HD
ENDBRANCH  20  24
ENDBRANCH  13  14
BRANCH   4  27
HETATM   27  N4  UNL     1      12.923   6.946   8.416  1.00  0.00    -0.234 N 
ATOM     28  H42 UNL     1      12.087   7.032   7.838  1.00  0.00     0.174 HD
ATOM     29  H41 UNL     1      13.060   6.110   8.984  1.00  0.00     0.174 HD
ENDBRANCH   4  27
BRANCH   1  30
HETATM   30  N2  UNL     1      15.077  10.231  10.928  1.00  0.00    -0.283 N 
ATOM     31  H2  UNL     1      15.351  11.212  10.875  1.00  0.00     0.188 HD
BRANCH  30  32
HETATM   32  N1  UNL     1      14.888   9.658  12.187  1.00  0.00    -0.304 N 
HETATM   33  C3  UNL     1      13.833   9.975  12.850  1.00  0.00     0.189 C 
ATOM     34  H1  UNL     1      15.570   9.005  12.571  1.00  0.00     0.186 HD
BRANCH  33  35
HETATM   35  C2  UNL     1      12.830  10.899  12.352  1.00  0.00     0.299 C 
HETATM   36  O2  UNL     1      13.179  12.036  11.937  1.00  0.00    -0.259 OA
BRANCH  35  37
HETATM   37  O1  UNL     1      11.481  10.590  12.304  1.00  0.00    -0.322 OA
HETATM   38  C1  UNL     1      11.008   9.502  13.068  1.00  0.00     0.213 C 
ENDBRANCH  35  37
ENDBRANCH  33  35
ENDBRANCH  30  32
ENDBRANCH   1  30
TORSDOF 7
ENDMDL
MODEL 3
REMARK VINA RESULT: -6.974664751      2.825      8.580
REMARK  7 active torsions:
REMARK  status: ('A' for Active; 'I' for Inactive)
REMARK    1  A    between atoms: O1_2  and  C2_3 
REMARK    2  A    between atoms: C2_3  and  C3_5 
REMARK    3  A    between atoms: N1_6  and  N2_8 
REMARK    4  A    between atoms: N2_8  and  C4_10 
REMARK    5  A    between atoms: C5_13  and  N4_14 
REMARK    6  A    between atoms: N8_25  and  C8_26 
REMARK    7  A    between atoms: C10_33  and  N11_34 
ROOT
HETATM    1  C4  UNL     1      15.947   9.180   9.127  1.00  0.00     0.167 A 
HETATM    2  N3  UNL     1      16.722   8.091   9.293  1.00  0.00    -0.173 N 
ATOM      3  H3  UNL     1      16.927   7.761  10.236  1.00  0.00     0.186 HD
HETATM    4  C5  UNL     1      17.229   7.430   8.239  1.00  0.00     0.679 A 
HETATM    5  N5  UNL     1      16.962   7.859   6.996  1.00  0.00    -0.172 N 
ATOM      6  H5  UNL     1      17.353   7.350   6.203  1.00  0.00     0.186 HD
HETATM    7  C6  UNL     1      16.190   8.947   6.762  1.00  0.00     0.194 A 
HETATM    8  C7  UNL     1      15.674   9.618   7.853  1.00  0.00     0.142 A 
HETATM    9  N6  UNL     1      14.959  10.638   7.340  1.00  0.00    -0.278 N 
ATOM     10  H6  UNL     1      14.442  11.336   7.877  1.00  0.00     0.189 HD
HETATM   11  N7  UNL     1      15.042  10.583   6.031  1.00  0.00    -0.219 N 
ATOM     12  H7  UNL     1      14.590  11.243   5.398  1.00  0.00     0.209 HD
HETATM   13  N8  UNL     1      15.781   9.568   5.641  1.00  0.00    -0.051 N 
ENDROOT
BRANCH  13  14
HETATM   14  C8  UNL     1      16.124   9.149   4.323  1.00  0.00     0.725 A 
HETATM   15  N9  UNL     1      17.118   8.273   4.085  1.00  0.00    -0.138 N 
HETATM   16  C9  UNL     1      17.424   7.893   2.831  1.00  0.00     0.352 A 
ATOM     17  H9  UNL     1      17.648   7.890   4.868  1.00  0.00     0.189 HD
HETATM   18  O3  UNL     1      18.369   7.063   2.635  1.00  0.00    -0.246 OA
HETATM   19  N10 UNL     1      16.749   8.372   1.761  1.00  0.00    -0.141 N 
HETATM   20  C10 UNL     1      15.749   9.252   1.986  1.00  0.00     0.694 A 
ATOM     21  H10 UNL     1      16.988   8.077   0.814  1.00  0.00     0.189 HD
HETATM   22  N12 UNL     1      15.461   9.616   3.234  1.00  0.00    -0.020 N 
ATOM     23  H12 UNL     1      14.702  10.282   3.380  1.00  0.00     0.203 HD
BRANCH  20  24
HETATM   24  N11 UNL     1      15.110   9.702   0.949  1.00  0.00    -0.234 N 
ATOM     25 2H11 UNL     1      15.018  10.696   0.739  1.00  0.00     0.174 HD
ATOM     26 1H11 UNL     1      14.686   9.014   0.327  1.00  0.00     0.174 HD
ENDBRANCH  20  24
ENDBRANCH  13  14
BRANCH   4  27
HETATM   27  N4  UNL     1      17.960   6.399   8.467  1.00  0.00    -0.234 N 
ATOM     28  H42 UNL     1      18.951   6.369   8.225  1.00  0.00     0.174 HD
ATOM     29  H41 UNL     1      17.523   5.588   8.904  1.00  0.00     0.174 HD
ENDBRANCH   4  27
BRANCH   1  30
HETATM   30  N2  UNL     1      15.409   9.880  10.231  1.00  0.00    -0.283 N 
ATOM     31  H2  UNL     1      15.237  10.881  10.136  1.00  0.00     0.188 HD
BRANCH  30  32
HETATM   32  N1  UNL     1      15.104   9.263  11.446  1.00  0.00    -0.304 N 
HETATM   33  C3  UNL     1      14.467   9.942  12.333  1.00  0.00     0.189 C 
ATOM     34  H1  UNL     1      15.379   8.298  11.625  1.00  0.00     0.186 HD
BRANCH  33  35
HETATM   35  C2  UNL     1      14.052  11.319  12.131  1.00  0.00     0.299 C 
HETATM   36  O2  UNL     1      14.791  12.259  12.526  1.00  0.00    -0.259 OA
BRANCH  35  37
HETATM   37  O1  UNL     1      12.861  11.662  11.512  1.00  0.00    -0.322 OA
HETATM   38  C1  UNL     1      11.769  12.051  12.316  1.00  0.00     0.213 C 
ENDBRANCH  35  37
ENDBRANCH  33  35
ENDBRANCH  30  32
ENDBRANCH   1  30
TORSDOF 7
ENDMDL
MODEL 4
REMARK VINA RESULT: -6.852146355      1.222      1.582
REMARK  7 active torsions:
REMARK  status: ('A' for Active; 'I' for Inactive)
REMARK    1  A    between atoms: O1_2  and  C2_3 
REMARK    2  A    between atoms: C2_3  and  C3_5 
REMARK    3  A    between atoms: N1_6  and  N2_8 
REMARK    4  A    between atoms: N2_8  and  C4_10 
REMARK    5  A    between atoms: C5_13  and  N4_14 
REMARK    6  A    between atoms: N8_25  and  C8_26 
REMARK    7  A    between atoms: C10_33  and  N11_34 
ROOT
HETATM    1  C4  UNL     1      17.194   7.444   1.645  1.00  0.00     0.167 A 
HETATM    2  N3  UNL     1      16.352   8.316   1.057  1.00  0.00    -0.173 N 
ATOM      3  H3  UNL     1      16.208   8.271   0.048  1.00  0.00     0.186 HD
HETATM    4  C5  UNL     1      15.698   9.245   1.774  1.00  0.00     0.679 A 
HETATM    5  N5  UNL     1      15.882   9.309   3.101  1.00  0.00    -0.172 N 
ATOM      6  H5  UNL     1      15.381  10.018   3.637  1.00  0.00     0.186 HD
HETATM    7  C6  UNL     1      16.714   8.460   3.752  1.00  0.00     0.194 A 
HETATM    8  C7  UNL     1      17.382   7.510   3.005  1.00  0.00     0.142 A 
HETATM    9  N6  UNL     1      18.125   6.817   3.889  1.00  0.00    -0.278 N 
ATOM     10  H6  UNL     1      18.744   6.036   3.667  1.00  0.00     0.189 HD
HETATM   11  N7  UNL     1      17.918   7.317   5.084  1.00  0.00    -0.219 N 
ATOM     12  H7  UNL     1      18.361   6.974   5.936  1.00  0.00     0.209 HD
HETATM   13  N8  UNL     1      17.066   8.318   5.043  1.00  0.00    -0.051 N 
ENDROOT
BRANCH  13  14
HETATM   14  C8  UNL     1      16.570   9.131   6.103  1.00  0.00     0.725 A 
HETATM   15  N9  UNL     1      15.476   8.797   6.812  1.00  0.00    -0.138 N 
HETATM   16  C9  UNL     1      15.027   9.583   7.807  1.00  0.00     0.352 A 
ATOM     17  H9  UNL     1      14.979   7.935   6.590  1.00  0.00     0.189 HD
HETATM   18  O3  UNL     1      13.989   9.243   8.461  1.00  0.00    -0.246 OA
HETATM   19  N10 UNL     1      15.652  10.735   8.139  1.00  0.00    -0.141 N 
HETATM   20  C10 UNL     1      16.752  11.083   7.435  1.00  0.00     0.694 A 
ATOM     21  H10 UNL     1      15.304  11.324   8.896  1.00  0.00     0.189 HD
HETATM   22  N12 UNL     1      17.182  10.293   6.452  1.00  0.00    -0.020 N 
ATOM     23  H12 UNL     1      18.015  10.574   5.935  1.00  0.00     0.203 HD
BRANCH  20  24
HETATM   24  N11 UNL     1      17.342  12.191   7.765  1.00  0.00    -0.234 N 
ATOM     25 2H11 UNL     1      17.111  12.717   8.607  1.00  0.00     0.174 HD
ATOM     26 1H11 UNL     1      18.069  12.537   7.137  1.00  0.00     0.174 HD
ENDBRANCH  20  24
ENDBRANCH  13  14
BRANCH   4  27
HETATM   27  N4  UNL     1      14.910  10.046   1.152  1.00  0.00    -0.234 N 
ATOM     28  H42 UNL     1      14.999  10.230   0.152  1.00  0.00     0.174 HD
ATOM     29  H41 UNL     1      14.175  10.507   1.686  1.00  0.00     0.174 HD
ENDBRANCH   4  27
BRANCH   1  30
HETATM   30  N2  UNL     1      17.886   6.465   0.896  1.00  0.00    -0.283 N 
ATOM     31  H2  UNL     1      18.879   6.605   0.712  1.00  0.00     0.188 HD
BRANCH  30  32
HETATM   32  N1  UNL     1      17.270   5.315   0.397  1.00  0.00    -0.304 N 
HETATM   33  C3  UNL     1      17.674   4.172   0.824  1.00  0.00     0.189 C 
ATOM     34  H1  UNL     1      16.519   5.382  -0.290  1.00  0.00     0.186 HD
BRANCH  33  35
HETATM   35  C2  UNL     1      18.738   4.020   1.800  1.00  0.00     0.299 C 
HETATM   36  O2  UNL     1      19.911   3.773   1.412  1.00  0.00    -0.259 OA
BRANCH  35  37
HETATM   37  O1  UNL     1      18.530   4.136   3.164  1.00  0.00    -0.322 OA
HETATM   38  C1  UNL     1      19.376   3.424   4.040  1.00  0.00     0.213 C 
ENDBRANCH  35  37
ENDBRANCH  33  35
ENDBRANCH  30  32
ENDBRANCH   1  30
TORSDOF 7
ENDMDL
MODEL 5
REMARK VINA RESULT: -6.825964749      2.778      8.335
REMARK  7 active torsions:
REMARK  status: ('A' for Active; 'I' for Inactive)
REMARK    1  A    between atoms: O1_2  and  C2_3 
REMARK    2  A    between atoms: C2_3  and  C3_5 
REMARK    3  A    between atoms: N1_6  and  N2_8 
REMARK    4  A    between atoms: N2_8  and  C4_10 
REMARK    5  A    between atoms: C5_13  and  N4_14 
REMARK    6  A    between atoms: N8_25  and  C8_26 
REMARK    7  A    between atoms: C10_33  and  N11_34 
ROOT
HETATM    1  C4  UNL     1      16.051   9.227   8.875  1.00  0.00     0.167 A 
HETATM    2  N3  UNL     1      17.019   8.310   9.068  1.00  0.00    -0.173 N 
ATOM      3  H3  UNL     1      17.290   8.061  10.020  1.00  0.00     0.186 HD
HETATM    4  C5  UNL     1      17.634   7.717   8.032  1.00  0.00     0.679 A 
HETATM    5  N5  UNL     1      17.282   8.039   6.778  1.00  0.00    -0.172 N 
ATOM      6  H5  UNL     1      17.755   7.583   5.998  1.00  0.00     0.186 HD
HETATM    7  C6  UNL     1      16.316   8.953   6.516  1.00  0.00     0.194 A 
HETATM    8  C7  UNL     1      15.690   9.556   7.590  1.00  0.00     0.142 A 
HETATM    9  N6  UNL     1      14.792  10.403   7.050  1.00  0.00    -0.278 N 
ATOM     10  H6  UNL     1      14.157  11.011   7.569  1.00  0.00     0.189 HD
HETATM   11  N7  UNL     1      14.874  10.314   5.743  1.00  0.00    -0.219 N 
ATOM     12  H7  UNL     1      14.301  10.852   5.093  1.00  0.00     0.209 HD
HETATM   13  N8  UNL     1      15.789   9.442   5.379  1.00  0.00    -0.051 N 
ENDROOT
BRANCH  13  14
HETATM   14  C8  UNL     1      16.194   9.045   4.073  1.00  0.00     0.725 A 
HETATM   15  N9  UNL     1      17.158   8.128   3.869  1.00  0.00    -0.138 N 
HETATM   16  C9  UNL     1      17.524   7.770   2.624  1.00  0.00     0.352 A 
ATOM     17  H9  UNL     1      17.619   7.697   4.671  1.00  0.00     0.189 HD
HETATM   18  O3  UNL     1      18.439   6.901   2.461  1.00  0.00    -0.246 OA
HETATM   19  N10 UNL     1      16.943   8.312   1.531  1.00  0.00    -0.141 N 
HETATM   20  C10 UNL     1      15.973   9.234   1.721  1.00  0.00     0.694 A 
ATOM     21  H10 UNL     1      17.227   8.033   0.591  1.00  0.00     0.189 HD
HETATM   22  N12 UNL     1      15.624   9.576   2.960  1.00  0.00    -0.020 N 
ATOM     23  H12 UNL     1      14.890  10.273   3.080  1.00  0.00     0.203 HD
BRANCH  20  24
HETATM   24  N11 UNL     1      15.424   9.745   0.662  1.00  0.00    -0.234 N 
ATOM     25 2H11 UNL     1      14.476   9.517   0.360  1.00  0.00     0.174 HD
ATOM     26 1H11 UNL     1      15.982  10.402   0.117  1.00  0.00     0.174 HD
ENDBRANCH  20  24
ENDBRANCH  13  14
BRANCH   4  27
HETATM   27  N4  UNL     1      18.549   6.851   8.286  1.00  0.00    -0.234 N 
ATOM     28  H42 UNL     1      19.538   7.041   8.124  1.00  0.00     0.174 HD
ATOM     29  H41 UNL     1      18.263   5.947   8.661  1.00  0.00     0.174 HD
ENDBRANCH   4  27
BRANCH   1  30
HETATM   30  N2  UNL     1      15.400   9.856   9.960  1.00  0.00    -0.283 N 
ATOM     31  H2  UNL     1      15.895  10.591  10.465  1.00  0.00     0.188 HD
BRANCH  30  32
HETATM   32  N1  UNL     1      14.110   9.515  10.373  1.00  0.00    -0.304 N 
HETATM   33  C3  UNL     1      13.704   9.934  11.519  1.00  0.00     0.189 C 
ATOM     34  H1  UNL     1      13.505   8.948   9.779  1.00  0.00     0.186 HD
BRANCH  33  35
HETATM   35  C2  UNL     1      14.523  10.743  12.403  1.00  0.00     0.299 C 
HETATM   36  O2  UNL     1      14.517  11.998  12.286  1.00  0.00    -0.259 OA
BRANCH  35  37
HETATM   37  O1  UNL     1      15.327  10.200  13.391  1.00  0.00    -0.322 OA
HETATM   38  C1  UNL     1      15.104   8.864  13.785  1.00  0.00     0.213 C 
ENDBRANCH  35  37
ENDBRANCH  33  35
ENDBRANCH  30  32
ENDBRANCH   1  30
TORSDOF 7
ENDMDL
