MODEL 1
REMARK VINA RESULT: -7.188727436      0.000      0.000
REMARK  7 active torsions:
REMARK  status: ('A' for Active; 'I' for Inactive)
REMARK    1  A    between atoms: C2_4  and  N2_5 
REMARK    2  A    between atoms: C2_4  and  C7_24 
REMARK    3  A    between atoms: N2_5  and  N3_7 
REMARK    4  A    between atoms: N4_9  and  C3_11 
REMARK    5  A    between atoms: N7_18  and  N8_19 
REMARK    6  A    between atoms: C8_27  and  N10_28 
REMARK    7  A    between atoms: C11_33  and  O3_34 
ROOT
HETATM    1  N2  UNL     1      19.901   7.473   6.828  1.00  0.00    -0.269 N 
ATOM      2  H2  UNL     1      20.921   7.448   6.844  1.00  0.00     0.190 HD
ENDROOT
BRANCH   1   3
HETATM    3  C2  UNL     1      19.189   7.095   7.997  1.00  0.00     0.148 C 
HETATM    4  N1  UNL     1      19.744   6.265   8.813  1.00  0.00    -0.378 N 
HETATM    5  C1  UNL     1      19.170   5.782  10.029  1.00  0.00     0.148 C 
ATOM      6  H1  UNL     1      20.674   5.924   8.569  1.00  0.00     0.160 HD
BRANCH   3   7
HETATM    7  C7  UNL     1      17.874   7.631   8.254  1.00  0.00     0.145 A 
HETATM    8  N9  UNL     1      17.535   8.754   8.933  1.00  0.00    -0.184 N 
HETATM    9  C8  UNL     1      16.200   8.890   8.938  1.00  0.00     0.682 A 
ATOM     10  H9  UNL     1      18.194   9.397   9.373  1.00  0.00     0.184 HD
HETATM   11  N11 UNL     1      15.691   7.849   8.259  1.00  0.00    -0.164 N 
HETATM   12  C10 UNL     1      14.285   7.633   8.040  1.00  0.00     0.177 C 
HETATM   13  C11 UNL     1      16.693   7.070   7.833  1.00  0.00     0.189 A 
BRANCH   9  14
HETATM   14  N10 UNL     1      15.482   9.947   9.554  1.00  0.00    -0.230 N 
HETATM   15  C9  UNL     1      14.987   9.812  10.908  1.00  0.00     0.165 C 
ATOM     16  H10 UNL     1      15.313  10.811   9.039  1.00  0.00     0.177 HD
ENDBRANCH   9  14
BRANCH  13  17
HETATM   17  O3  UNL     1      16.524   5.899   7.093  1.00  0.00    -0.344 OA
ATOM     18  H3  UNL     1      15.762   5.333   7.071  1.00  0.00     0.219 HD
ENDBRANCH  13  17
ENDBRANCH   3   7
ENDBRANCH   1   3
BRANCH   1  19
HETATM   19  N3  UNL     1      19.265   7.872   5.676  1.00  0.00    -0.240 N 
HETATM   20  N4  UNL     1      18.448   7.155   5.020  1.00  0.00    -0.278 N 
ATOM     21  H4  UNL     1      18.246   6.218   5.369  1.00  0.00     0.189 HD
ATOM     22  H3  UNL     1      19.465   8.808   5.323  1.00  0.00     0.208 HD
BRANCH  20  23
HETATM   23  C3  UNL     1      17.806   7.572   3.845  1.00  0.00     0.161 A 
HETATM   24  C4  UNL     1      16.995   8.693   3.889  1.00  0.00     0.154 A 
HETATM   25  N5  UNL     1      16.845   9.377   5.115  1.00  0.00    -0.080 NA
HETATM   26  N6  UNL     1      16.355   9.126   2.763  1.00  0.00    -0.293 N 
HETATM   27  C5  UNL     1      16.544   8.426   1.627  1.00  0.00     0.349 A 
ATOM     28  H6  UNL     1      15.755   9.951   2.781  1.00  0.00     0.172 HD
HETATM   29  O1  UNL     1      15.955   8.818   0.573  1.00  0.00    -0.244 OA
HETATM   30  N7  UNL     1      17.326   7.333   1.557  1.00  0.00    -0.173 N 
HETATM   31  C6  UNL     1      17.963   6.900   2.671  1.00  0.00     0.301 A 
HETATM   32  O2  UNL     1      18.694   5.876   2.596  1.00  0.00    -0.263 OA
BRANCH  30  33
HETATM   33  N8  UNL     1      17.463   6.670   0.335  1.00  0.00    -0.332 N 
ATOM     34  H82 UNL     1      17.268   7.139  -0.549  1.00  0.00     0.177 HD
ATOM     35  H81 UNL     1      17.766   5.696   0.329  1.00  0.00     0.177 HD
ENDBRANCH  30  33
ENDBRANCH  20  23
ENDBRANCH   1  19
TORSDOF 7
ENDMDL
MODEL 2
REMARK VINA RESULT: -6.973973137      1.185      1.666
REMARK  7 active torsions:
REMARK  status: ('A' for Active; 'I' for Inactive)
REMARK    1  A    between atoms: C2_4  and  N2_5 
REMARK    2  A    between atoms: C2_4  and  C7_24 
REMARK    3  A    between atoms: N2_5  and  N3_7 
REMARK    4  A    between atoms: N4_9  and  C3_11 
REMARK    5  A    between atoms: N7_18  and  N8_19 
REMARK    6  A    between atoms: C8_27  and  N10_28 
REMARK    7  A    between atoms: C11_33  and  O3_34 
ROOT
HETATM    1  N2  UNL     1      19.927   7.491   6.902  1.00  0.00    -0.269 N 
ATOM      2  H2  UNL     1      20.922   7.695   6.997  1.00  0.00     0.190 HD
ENDROOT
BRANCH   1   3
HETATM    3  C2  UNL     1      19.266   6.804   7.955  1.00  0.00     0.148 C 
HETATM    4  N1  UNL     1      19.873   5.817   8.520  1.00  0.00    -0.378 N 
HETATM    5  C1  UNL     1      19.354   5.022   9.589  1.00  0.00     0.148 C 
ATOM      6  H1  UNL     1      20.803   5.582   8.174  1.00  0.00     0.160 HD
BRANCH   3   7
HETATM    7  C7  UNL     1      17.946   7.211   8.373  1.00  0.00     0.145 A 
HETATM    8  N9  UNL     1      16.890   6.435   8.717  1.00  0.00    -0.184 N 
HETATM    9  C8  UNL     1      15.847   7.214   9.045  1.00  0.00     0.682 A 
ATOM     10  H9  UNL     1      16.887   5.414   8.726  1.00  0.00     0.184 HD
HETATM   11  N11 UNL     1      16.245   8.489   8.907  1.00  0.00    -0.164 N 
HETATM   12  C10 UNL     1      15.409   9.632   9.165  1.00  0.00     0.177 C 
HETATM   13  C11 UNL     1      17.520   8.511   8.499  1.00  0.00     0.189 A 
BRANCH   9  14
HETATM   14  N10 UNL     1      14.571   6.752   9.456  1.00  0.00    -0.230 N 
HETATM   15  C9  UNL     1      13.506   6.569   8.493  1.00  0.00     0.165 C 
ATOM     16  H10 UNL     1      14.401   6.547  10.441  1.00  0.00     0.177 HD
ENDBRANCH   9  14
BRANCH  13  17
HETATM   17  O3  UNL     1      18.253   9.673   8.255  1.00  0.00    -0.344 OA
ATOM     18  H3  UNL     1      18.308  10.448   8.802  1.00  0.00     0.219 HD
ENDBRANCH  13  17
ENDBRANCH   3   7
ENDBRANCH   1   3
BRANCH   1  19
HETATM   19  N3  UNL     1      19.274   7.890   5.760  1.00  0.00    -0.240 N 
HETATM   20  N4  UNL     1      18.472   7.162   5.098  1.00  0.00    -0.278 N 
ATOM     21  H4  UNL     1      18.298   6.214   5.433  1.00  0.00     0.189 HD
ATOM     22  H3  UNL     1      19.446   8.837   5.421  1.00  0.00     0.208 HD
BRANCH  20  23
HETATM   23  C3  UNL     1      17.812   7.580   3.933  1.00  0.00     0.161 A 
HETATM   24  C4  UNL     1      16.977   8.682   3.998  1.00  0.00     0.154 A 
HETATM   25  N5  UNL     1      16.821   9.346   5.234  1.00  0.00    -0.080 NA
HETATM   26  N6  UNL     1      16.319   9.115   2.882  1.00  0.00    -0.293 N 
HETATM   27  C5  UNL     1      16.514   8.434   1.736  1.00  0.00     0.349 A 
ATOM     28  H6  UNL     1      15.701   9.926   2.916  1.00  0.00     0.172 HD
HETATM   29  O1  UNL     1      15.908   8.826   0.692  1.00  0.00    -0.244 OA
HETATM   30  N7  UNL     1      17.319   7.360   1.646  1.00  0.00    -0.173 N 
HETATM   31  C6  UNL     1      17.975   6.926   2.749  1.00  0.00     0.301 A 
HETATM   32  O2  UNL     1      18.727   5.920   2.655  1.00  0.00    -0.263 OA
BRANCH  30  33
HETATM   33  N8  UNL     1      17.462   6.716   0.415  1.00  0.00    -0.332 N 
ATOM     34  H82 UNL     1      17.052   5.797   0.245  1.00  0.00     0.177 HD
ATOM     35  H81 UNL     1      17.987   7.174  -0.330  1.00  0.00     0.177 HD
ENDBRANCH  30  33
ENDBRANCH  20  23
ENDBRANCH   1  19
TORSDOF 7
ENDMDL
MODEL 3
REMARK VINA RESULT: -6.925513878      3.414      5.331
REMARK  7 active torsions:
REMARK  status: ('A' for Active; 'I' for Inactive)
REMARK    1  A    between atoms: C2_4  and  N2_5 
REMARK    2  A    between atoms: C2_4  and  C7_24 
REMARK    3  A    between atoms: N2_5  and  N3_7 
REMARK    4  A    between atoms: N4_9  and  C3_11 
REMARK    5  A    between atoms: N7_18  and  N8_19 
REMARK    6  A    between atoms: C8_27  and  N10_28 
REMARK    7  A    between atoms: C11_33  and  O3_34 
ROOT
HETATM    1  N2  UNL     1      15.725  10.167  10.249  1.00  0.00    -0.269 N 
ATOM      2  H2  UNL     1      16.169  11.061  10.462  1.00  0.00     0.190 HD
ENDROOT
BRANCH   1   3
HETATM    3  C2  UNL     1      15.003   9.501  11.274  1.00  0.00     0.148 C 
HETATM    4  N1  UNL     1      15.404   8.333  11.648  1.00  0.00    -0.378 N 
HETATM    5  C1  UNL     1      14.796   7.529  12.661  1.00  0.00     0.148 C 
ATOM      6  H1  UNL     1      16.225   7.951  11.180  1.00  0.00     0.160 HD
BRANCH   3   7
HETATM    7  C7  UNL     1      13.849  10.124  11.875  1.00  0.00     0.145 A 
HETATM    8  N9  UNL     1      12.598   9.626  12.024  1.00  0.00    -0.184 N 
HETATM    9  C8  UNL     1      11.823  10.534  12.639  1.00  0.00     0.682 A 
ATOM     10  H9  UNL     1      12.291   8.703  11.716  1.00  0.00     0.184 HD
HETATM   11  N11 UNL     1      12.587  11.611  12.880  1.00  0.00    -0.164 N 
HETATM   12  C10 UNL     1      12.120  12.808  13.530  1.00  0.00     0.177 C 
HETATM   13  C11 UNL     1      13.825  11.384  12.424  1.00  0.00     0.189 A 
BRANCH   9  14
HETATM   14  N10 UNL     1      10.452  10.363  12.962  1.00  0.00    -0.230 N 
HETATM   15  C9  UNL     1       9.795   9.092  12.744  1.00  0.00     0.165 C 
ATOM     16  H10 UNL     1       9.924  11.144  13.351  1.00  0.00     0.177 HD
ENDBRANCH   9  14
BRANCH  13  17
HETATM   17  O3  UNL     1      14.879  12.294  12.510  1.00  0.00    -0.344 OA
ATOM     18  H3  UNL     1      15.025  13.063  11.972  1.00  0.00     0.219 HD
ENDBRANCH  13  17
ENDBRANCH   3   7
ENDBRANCH   1   3
BRANCH   1  19
HETATM   19  N3  UNL     1      15.847   9.652   8.980  1.00  0.00    -0.240 N 
HETATM   20  N4  UNL     1      16.637  10.101   8.094  1.00  0.00    -0.278 N 
ATOM     21  H4  UNL     1      17.224  10.899   8.337  1.00  0.00     0.189 HD
ATOM     22  H3  UNL     1      15.262   8.854   8.734  1.00  0.00     0.208 HD
BRANCH  20  23
HETATM   23  C3  UNL     1      16.754   9.567   6.802  1.00  0.00     0.161 A 
HETATM   24  C4  UNL     1      15.765   9.845   5.874  1.00  0.00     0.154 A 
HETATM   25  N5  UNL     1      14.677  10.656   6.261  1.00  0.00    -0.080 NA
HETATM   26  N6  UNL     1      15.848   9.342   4.607  1.00  0.00    -0.293 N 
HETATM   27  C5  UNL     1      16.915   8.576   4.306  1.00  0.00     0.349 A 
ATOM     28  H6  UNL     1      15.127   9.538   3.913  1.00  0.00     0.172 HD
HETATM   29  O1  UNL     1      17.004   8.101   3.132  1.00  0.00    -0.244 OA
HETATM   30  N7  UNL     1      17.889   8.290   5.189  1.00  0.00    -0.173 N 
HETATM   31  C6  UNL     1      17.812   8.787   6.447  1.00  0.00     0.301 A 
HETATM   32  O2  UNL     1      18.729   8.515   7.267  1.00  0.00    -0.263 OA
BRANCH  30  33
HETATM   33  N8  UNL     1      18.959   7.487   4.789  1.00  0.00    -0.332 N 
ATOM     34  H82 UNL     1      19.241   7.425   3.810  1.00  0.00     0.177 HD
ATOM     35  H81 UNL     1      19.470   6.951   5.490  1.00  0.00     0.177 HD
ENDBRANCH  30  33
ENDBRANCH  20  23
ENDBRANCH   1  19
TORSDOF 7
ENDMDL
MODEL 4
REMARK VINA RESULT: -6.806739905      1.546      2.208
REMARK  7 active torsions:
REMARK  status: ('A' for Active; 'I' for Inactive)
REMARK    1  A    between atoms: C2_4  and  N2_5 
REMARK    2  A    between atoms: C2_4  and  C7_24 
REMARK    3  A    between atoms: N2_5  and  N3_7 
REMARK    4  A    between atoms: N4_9  and  C3_11 
REMARK    5  A    between atoms: N7_18  and  N8_19 
REMARK    6  A    between atoms: C8_27  and  N10_28 
REMARK    7  A    between atoms: C11_33  and  O3_34 
ROOT
HETATM    1  N2  UNL     1      19.922   7.501   6.887  1.00  0.00    -0.269 N 
ATOM      2  H2  UNL     1      20.654   8.102   7.266  1.00  0.00     0.190 HD
ENDROOT
BRANCH   1   3
HETATM    3  C2  UNL     1      19.547   6.340   7.614  1.00  0.00     0.148 C 
HETATM    4  N1  UNL     1      19.989   5.196   7.215  1.00  0.00    -0.378 N 
HETATM    5  C1  UNL     1      19.710   3.936   7.829  1.00  0.00     0.148 C 
ATOM      6  H1  UNL     1      20.590   5.191   6.391  1.00  0.00     0.160 HD
BRANCH   3   7
HETATM    7  C7  UNL     1      18.689   6.450   8.769  1.00  0.00     0.145 A 
HETATM    8  N9  UNL     1      18.852   5.909  10.001  1.00  0.00    -0.184 N 
HETATM    9  C8  UNL     1      17.822   6.259  10.786  1.00  0.00     0.682 A 
ATOM     10  H9  UNL     1      19.638   5.325  10.287  1.00  0.00     0.184 HD
HETATM   11  N11 UNL     1      17.002   7.026  10.048  1.00  0.00    -0.164 N 
HETATM   12  C10 UNL     1      15.776   7.603  10.533  1.00  0.00     0.177 C 
HETATM   13  C11 UNL     1      17.511   7.156   8.817  1.00  0.00     0.189 A 
BRANCH   9  14
HETATM   14  N10 UNL     1      17.651   5.877  12.141  1.00  0.00    -0.230 N 
HETATM   15  C9  UNL     1      18.736   6.014  13.089  1.00  0.00     0.165 C 
ATOM     16  H10 UNL     1      16.755   5.501  12.451  1.00  0.00     0.177 HD
ENDBRANCH   9  14
BRANCH  13  17
HETATM   17  O3  UNL     1      16.917   7.888   7.789  1.00  0.00    -0.344 OA
ATOM     18  H3  UNL     1      16.839   8.833   7.721  1.00  0.00     0.219 HD
ENDBRANCH  13  17
ENDBRANCH   3   7
ENDBRANCH   1   3
BRANCH   1  19
HETATM   19  N3  UNL     1      19.335   7.843   5.692  1.00  0.00    -0.240 N 
HETATM   20  N4  UNL     1      18.224   7.387   5.280  1.00  0.00    -0.278 N 
ATOM     21  H4  UNL     1      17.730   6.721   5.874  1.00  0.00     0.189 HD
ATOM     22  H3  UNL     1      19.825   8.509   5.095  1.00  0.00     0.208 HD
BRANCH  20  23
HETATM   23  C3  UNL     1      17.634   7.743   4.059  1.00  0.00     0.161 A 
HETATM   24  C4  UNL     1      16.744   8.804   4.031  1.00  0.00     0.154 A 
HETATM   25  N5  UNL     1      16.464   9.489   5.233  1.00  0.00    -0.080 NA
HETATM   26  N6  UNL     1      16.152   9.177   2.858  1.00  0.00    -0.293 N 
HETATM   27  C5  UNL     1      16.465   8.479   1.749  1.00  0.00     0.349 A 
ATOM     28  H6  UNL     1      15.495   9.956   2.823  1.00  0.00     0.172 HD
HETATM   29  O1  UNL     1      15.922   8.815   0.652  1.00  0.00    -0.244 OA
HETATM   30  N7  UNL     1      17.326   7.445   1.748  1.00  0.00    -0.173 N 
HETATM   31  C6  UNL     1      17.917   7.071   2.908  1.00  0.00     0.301 A 
HETATM   32  O2  UNL     1      18.722   6.102   2.899  1.00  0.00    -0.263 OA
BRANCH  30  33
HETATM   33  N8  UNL     1      17.592   6.779   0.549  1.00  0.00    -0.332 N 
ATOM     34  H82 UNL     1      17.987   7.269  -0.254  1.00  0.00     0.177 HD
ATOM     35  H81 UNL     1      17.388   5.783   0.477  1.00  0.00     0.177 HD
ENDBRANCH  30  33
ENDBRANCH  20  23
ENDBRANCH   1  19
TORSDOF 7
ENDMDL
MODEL 5
REMARK VINA RESULT: -6.805518634      3.358      5.277
REMARK  7 active torsions:
REMARK  status: ('A' for Active; 'I' for Inactive)
REMARK    1  A    between atoms: C2_4  and  N2_5 
REMARK    2  A    between atoms: C2_4  and  C7_24 
REMARK    3  A    between atoms: N2_5  and  N3_7 
REMARK    4  A    between atoms: N4_9  and  C3_11 
REMARK    5  A    between atoms: N7_18  and  N8_19 
REMARK    6  A    between atoms: C8_27  and  N10_28 
REMARK    7  A    between atoms: C11_33  and  O3_34 
ROOT
HETATM    1  N2  UNL     1      15.556  10.083   9.867  1.00  0.00    -0.269 N 
ATOM      2  H2  UNL     1      15.856  11.043  10.042  1.00  0.00     0.190 HD
ENDROOT
BRANCH   1   3
HETATM    3  C2  UNL     1      14.924   9.363  10.915  1.00  0.00     0.148 C 
HETATM    4  N1  UNL     1      15.322   8.161  11.160  1.00  0.00    -0.378 N 
HETATM    5  C1  UNL     1      14.798   7.301  12.175  1.00  0.00     0.148 C 
ATOM      6  H1  UNL     1      16.076   7.793  10.581  1.00  0.00     0.160 HD
BRANCH   3   7
HETATM    7  C7  UNL     1      13.862   9.971  11.680  1.00  0.00     0.145 A 
HETATM    8  N9  UNL     1      12.632   9.478  11.963  1.00  0.00    -0.184 N 
HETATM    9  C8  UNL     1      11.952  10.366  12.705  1.00  0.00     0.682 A 
ATOM     10  H9  UNL     1      12.278   8.571  11.660  1.00  0.00     0.184 HD
HETATM   11  N11 UNL     1      12.755  11.426  12.891  1.00  0.00    -0.164 N 
HETATM   12  C10 UNL     1      12.388  12.599  13.641  1.00  0.00     0.177 C 
HETATM   13  C11 UNL     1      13.923  11.208  12.276  1.00  0.00     0.189 A 
BRANCH   9  14
HETATM   14  N10 UNL     1      10.630  10.194  13.189  1.00  0.00    -0.230 N 
HETATM   15  C9  UNL     1       9.825   9.072  12.756  1.00  0.00     0.165 C 
ATOM     16  H10 UNL     1      10.242  10.868  13.850  1.00  0.00     0.177 HD
ENDBRANCH   9  14
BRANCH  13  17
HETATM   17  O3  UNL     1      14.992  12.105  12.266  1.00  0.00    -0.344 OA
ATOM     18  H3  UNL     1      14.984  13.018  12.527  1.00  0.00     0.219 HD
ENDBRANCH  13  17
ENDBRANCH   3   7
ENDBRANCH   1   3
BRANCH   1  19
HETATM   19  N3  UNL     1      15.776   9.535   8.625  1.00  0.00    -0.240 N 
HETATM   20  N4  UNL     1      16.616   9.977   7.783  1.00  0.00    -0.278 N 
ATOM     21  H4  UNL     1      17.168  10.795   8.041  1.00  0.00     0.189 HD
ATOM     22  H3  UNL     1      15.226   8.717   8.363  1.00  0.00     0.208 HD
BRANCH  20  23
HETATM   23  C3  UNL     1      16.832   9.409   6.518  1.00  0.00     0.161 A 
HETATM   24  C4  UNL     1      17.908   8.555   6.345  1.00  0.00     0.154 A 
HETATM   25  N5  UNL     1      18.747   8.285   7.447  1.00  0.00    -0.080 NA
HETATM   26  N6  UNL     1      18.147   7.986   5.127  1.00  0.00    -0.293 N 
HETATM   27  C5  UNL     1      17.305   8.287   4.118  1.00  0.00     0.349 A 
ATOM     28  H6  UNL     1      18.935   7.355   4.985  1.00  0.00     0.172 HD
HETATM   29  O1  UNL     1      17.515   7.765   2.981  1.00  0.00    -0.244 OA
HETATM   30  N7  UNL     1      16.252   9.114   4.260  1.00  0.00    -0.173 N 
HETATM   31  C6  UNL     1      16.011   9.681   5.466  1.00  0.00     0.301 A 
HETATM   32  O2  UNL     1      15.023  10.454   5.590  1.00  0.00    -0.263 OA
BRANCH  30  33
HETATM   33  N8  UNL     1      15.432   9.369   3.159  1.00  0.00    -0.332 N 
ATOM     34  H82 UNL     1      15.803   9.372   2.209  1.00  0.00     0.177 HD
ATOM     35  H81 UNL     1      14.441   9.555   3.309  1.00  0.00     0.177 HD
ENDBRANCH  30  33
ENDBRANCH  20  23
ENDBRANCH   1  19
TORSDOF 7
ENDMDL
