MODEL 1
REMARK VINA RESULT: -5.704187766      0.000      0.000
REMARK  3 active torsions:
REMARK  status: ('A' for Active; 'I' for Inactive)
REMARK    1  A    between atoms: N1_1  and  C1_4 
REMARK    2  A    between atoms: C3_12  and  C4_13 
REMARK       I    between atoms: C4_13  and  N5_15 
REMARK    3  A    between atoms: N5_15  and  N6_17 
ROOT
HETATM    1  C1  UNL     1       6.845   8.405  14.858  1.00  0.00     0.134 A 
HETATM    2  N2  UNL     1       5.674   7.728  15.034  1.00  0.00    -0.336 N 
ATOM      3  H2  UNL     1       4.784   8.095  14.698  1.00  0.00     0.168 HD
HETATM    4  C2  UNL     1       5.762   6.555  15.673  1.00  0.00     0.199 A 
HETATM    5  N3  UNL     1       6.904   6.026  16.137  1.00  0.00    -0.295 N 
ATOM      6  H3  UNL     1       6.914   5.126  16.618  1.00  0.00     0.187 HD
HETATM    7  N4  UNL     1       8.021   6.715  15.946  1.00  0.00    -0.292 N 
ATOM      8  H4  UNL     1       8.901   6.330  16.291  1.00  0.00     0.187 HD
HETATM    9  C3  UNL     1       8.039   7.901  15.317  1.00  0.00     0.161 A 
ENDROOT
BRANCH   9  10
HETATM   10  C4  UNL     1       9.262   8.663  15.104  1.00  0.00     0.291 C 
HETATM   11  O1  UNL     1       9.622   9.545  15.924  1.00  0.00    -0.264 OA
HETATM   12  N5  UNL     1      10.097   8.449  13.976  1.00  0.00    -0.271 N 
ATOM     13  H5  UNL     1       9.829   7.739  13.294  1.00  0.00     0.189 HD
BRANCH  12  14
HETATM   14  N6  UNL     1      11.256   9.167  13.769  1.00  0.00    -0.342 N 
ATOM     15  H62 UNL     1      11.845   9.363  14.579  1.00  0.00     0.176 HD
ATOM     16  H61 UNL     1      11.535   9.500  12.846  1.00  0.00     0.176 HD
ENDBRANCH  12  14
ENDBRANCH   9  10
BRANCH   1  17
HETATM   17  N1  UNL     1       6.866   9.545  14.254  1.00  0.00    -0.383 N 
ATOM     18  H12 UNL     1       5.997   9.878  13.836  1.00  0.00     0.157 HD
ATOM     19  H11 UNL     1       7.726  10.091  14.198  1.00  0.00     0.157 HD
ENDBRANCH   1  17
TORSDOF 3
ENDMDL
MODEL 2
REMARK VINA RESULT: -5.425595428      2.368      3.041
REMARK  3 active torsions:
REMARK  status: ('A' for Active; 'I' for Inactive)
REMARK    1  A    between atoms: N1_1  and  C1_4 
REMARK    2  A    between atoms: C3_12  and  C4_13 
REMARK       I    between atoms: C4_13  and  N5_15 
REMARK    3  A    between atoms: N5_15  and  N6_17 
ROOT
HETATM    1  C1  UNL     1       7.464   8.623  16.231  1.00  0.00     0.134 A 
HETATM    2  N2  UNL     1       7.758   7.566  17.041  1.00  0.00    -0.336 N 
ATOM      3  H2  UNL     1       8.500   7.611  17.739  1.00  0.00     0.168 HD
HETATM    4  C2  UNL     1       7.016   6.465  16.866  1.00  0.00     0.199 A 
HETATM    5  N3  UNL     1       6.029   6.350  15.965  1.00  0.00    -0.295 N 
ATOM      6  H3  UNL     1       5.494   5.486  15.873  1.00  0.00     0.187 HD
HETATM    7  N4  UNL     1       5.774   7.400  15.196  1.00  0.00    -0.292 N 
ATOM      8  H4  UNL     1       5.027   7.333  14.504  1.00  0.00     0.187 HD
HETATM    9  C3  UNL     1       6.462   8.549  15.294  1.00  0.00     0.161 A 
ENDROOT
BRANCH   9  10
HETATM   10  C4  UNL     1       6.187   9.707  14.453  1.00  0.00     0.291 C 
HETATM   11  O1  UNL     1       5.401  10.610  14.836  1.00  0.00    -0.264 OA
HETATM   12  N5  UNL     1       6.786   9.869  13.176  1.00  0.00    -0.271 N 
ATOM     13  H5  UNL     1       7.428   9.152  12.839  1.00  0.00     0.189 HD
BRANCH  12  14
HETATM   14  N6  UNL     1       6.530  10.963  12.375  1.00  0.00    -0.342 N 
ATOM     15  H62 UNL     1       5.626  11.425  12.475  1.00  0.00     0.176 HD
ATOM     16  H61 UNL     1       7.208  11.314  11.698  1.00  0.00     0.176 HD
ENDBRANCH  12  14
ENDBRANCH   9  10
BRANCH   1  17
HETATM   17  N1  UNL     1       8.123   9.729  16.322  1.00  0.00    -0.383 N 
ATOM     18  H12 UNL     1       7.691  10.500  16.832  1.00  0.00     0.157 HD
ATOM     19  H11 UNL     1       9.046   9.824  15.897  1.00  0.00     0.157 HD
ENDBRANCH   1  17
TORSDOF 3
ENDMDL
MODEL 3
REMARK VINA RESULT: -5.131653848      2.447      3.548
REMARK  3 active torsions:
REMARK  status: ('A' for Active; 'I' for Inactive)
REMARK    1  A    between atoms: N1_1  and  C1_4 
REMARK    2  A    between atoms: C3_12  and  C4_13 
REMARK       I    between atoms: C4_13  and  N5_15 
REMARK    3  A    between atoms: N5_15  and  N6_17 
ROOT
HETATM    1  C1  UNL     1       6.680   7.723  15.760  1.00  0.00     0.134 A 
HETATM    2  N2  UNL     1       7.438   7.163  16.746  1.00  0.00    -0.336 N 
ATOM      3  H2  UNL     1       7.255   6.225  17.100  1.00  0.00     0.168 HD
HETATM    4  C2  UNL     1       8.436   7.919  17.222  1.00  0.00     0.199 A 
HETATM    5  N3  UNL     1       8.721   9.158  16.794  1.00  0.00    -0.295 N 
ATOM      6  H3  UNL     1       9.495   9.690  17.193  1.00  0.00     0.187 HD
HETATM    7  N4  UNL     1       7.961   9.666  15.834  1.00  0.00    -0.292 N 
ATOM      8  H4  UNL     1       8.162  10.607  15.495  1.00  0.00     0.187 HD
HETATM    9  C3  UNL     1       6.937   8.989  15.291  1.00  0.00     0.161 A 
ENDROOT
BRANCH   9  10
HETATM   10  C4  UNL     1       6.097   9.541  14.236  1.00  0.00     0.291 C 
HETATM   11  O1  UNL     1       4.849   9.597  14.368  1.00  0.00    -0.264 OA
HETATM   12  N5  UNL     1       6.642  10.038  13.023  1.00  0.00    -0.271 N 
ATOM     13  H5  UNL     1       7.653  10.006  12.888  1.00  0.00     0.189 HD
BRANCH  12  14
HETATM   14  N6  UNL     1       5.853  10.563  12.020  1.00  0.00    -0.342 N 
ATOM     15  H62 UNL     1       5.882  10.111  11.106  1.00  0.00     0.176 HD
ATOM     16  H61 UNL     1       5.253  11.375  12.166  1.00  0.00     0.176 HD
ENDBRANCH  12  14
ENDBRANCH   9  10
BRANCH   1  17
HETATM   17  N1  UNL     1       5.694   7.075  15.235  1.00  0.00    -0.383 N 
ATOM     18  H12 UNL     1       5.776   6.061  15.163  1.00  0.00     0.157 HD
ATOM     19  H11 UNL     1       4.863   7.566  14.905  1.00  0.00     0.157 HD
ENDBRANCH   1  17
TORSDOF 3
ENDMDL
MODEL 4
REMARK VINA RESULT: -4.964134836      2.179      3.956
REMARK  3 active torsions:
REMARK  status: ('A' for Active; 'I' for Inactive)
REMARK    1  A    between atoms: N1_1  and  C1_4 
REMARK    2  A    between atoms: C3_12  and  C4_13 
REMARK       I    between atoms: C4_13  and  N5_15 
REMARK    3  A    between atoms: N5_15  and  N6_17 
ROOT
HETATM    1  C1  UNL     1       7.084   9.097  14.019  1.00  0.00     0.134 A 
HETATM    2  N2  UNL     1       6.737  10.175  13.260  1.00  0.00    -0.336 N 
ATOM      3  H2  UNL     1       7.431  10.726  12.756  1.00  0.00     0.168 HD
HETATM    4  C2  UNL     1       5.431  10.469  13.217  1.00  0.00     0.199 A 
HETATM    5  N3  UNL     1       4.476   9.781  13.861  1.00  0.00    -0.295 N 
ATOM      6  H3  UNL     1       3.494  10.050  13.794  1.00  0.00     0.187 HD
HETATM    7  N4  UNL     1       4.855   8.739  14.588  1.00  0.00    -0.292 N 
ATOM      8  H4  UNL     1       4.144   8.202  15.085  1.00  0.00     0.187 HD
HETATM    9  C3  UNL     1       6.139   8.363  14.695  1.00  0.00     0.161 A 
ENDROOT
BRANCH   9  10
HETATM   10  C4  UNL     1       6.562   7.219  15.492  1.00  0.00     0.291 C 
HETATM   11  O1  UNL     1       6.708   6.086  14.966  1.00  0.00    -0.264 OA
HETATM   12  N5  UNL     1       6.827   7.326  16.882  1.00  0.00    -0.271 N 
ATOM     13  H5  UNL     1       6.717   8.233  17.335  1.00  0.00     0.189 HD
BRANCH  12  14
HETATM   14  N6  UNL     1       7.228   6.247  17.642  1.00  0.00    -0.342 N 
ATOM     15  H62 UNL     1       7.842   6.426  18.437  1.00  0.00     0.176 HD
ATOM     16  H61 UNL     1       6.933   5.292  17.434  1.00  0.00     0.176 HD
ENDBRANCH  12  14
ENDBRANCH   9  10
BRANCH   1  17
HETATM   17  N1  UNL     1       8.318   8.732  14.124  1.00  0.00    -0.383 N 
ATOM     18  H12 UNL     1       8.993   9.144  13.479  1.00  0.00     0.157 HD
ATOM     19  H11 UNL     1       8.604   8.055  14.831  1.00  0.00     0.157 HD
ENDBRANCH   1  17
TORSDOF 3
ENDMDL
MODEL 5
REMARK VINA RESULT: -4.857227918      1.050      1.826
REMARK  3 active torsions:
REMARK  status: ('A' for Active; 'I' for Inactive)
REMARK    1  A    between atoms: N1_1  and  C1_4 
REMARK    2  A    between atoms: C3_12  and  C4_13 
REMARK       I    between atoms: C4_13  and  N5_15 
REMARK    3  A    between atoms: N5_15  and  N6_17 
ROOT
HETATM    1  C1  UNL     1       7.898   7.414  16.707  1.00  0.00     0.134 A 
HETATM    2  N2  UNL     1       6.830   6.625  17.017  1.00  0.00    -0.336 N 
ATOM      3  H2  UNL     1       6.666   6.287  17.964  1.00  0.00     0.168 HD
HETATM    4  C2  UNL     1       6.010   6.320  16.003  1.00  0.00     0.199 A 
HETATM    5  N3  UNL     1       6.178   6.735  14.738  1.00  0.00    -0.295 N 
ATOM      6  H3  UNL     1       5.522   6.472  14.003  1.00  0.00     0.187 HD
HETATM    7  N4  UNL     1       7.229   7.501  14.479  1.00  0.00    -0.292 N 
ATOM      8  H4  UNL     1       7.375   7.828  13.523  1.00  0.00     0.187 HD
HETATM    9  C3  UNL     1       8.109   7.863  15.426  1.00  0.00     0.161 A 
ENDROOT
BRANCH   9  10
HETATM   10  C4  UNL     1       9.266   8.705  15.147  1.00  0.00     0.291 C 
HETATM   11  O1  UNL     1       9.548   9.679  15.890  1.00  0.00    -0.264 OA
HETATM   12  N5  UNL     1      10.120   8.468  14.039  1.00  0.00    -0.271 N 
ATOM     13  H5  UNL     1       9.916   7.684  13.419  1.00  0.00     0.189 HD
BRANCH  12  14
HETATM   14  N6  UNL     1      11.217   9.260  13.770  1.00  0.00    -0.342 N 
ATOM     15  H62 UNL     1      11.676   9.147  12.866  1.00  0.00     0.176 HD
ATOM     16  H61 UNL     1      11.574   9.943  14.439  1.00  0.00     0.176 HD
ENDBRANCH  12  14
ENDBRANCH   9  10
BRANCH   1  17
HETATM   17  N1  UNL     1       8.747   7.764  17.615  1.00  0.00    -0.383 N 
ATOM     18  H12 UNL     1       8.726   8.731  17.939  1.00  0.00     0.157 HD
ATOM     19  H11 UNL     1       9.414   7.092  17.993  1.00  0.00     0.157 HD
ENDBRANCH   1  17
TORSDOF 3
ENDMDL
