MODEL 1
REMARK VINA RESULT: -5.927539795      0.000      0.000
REMARK  2 active torsions:
REMARK  status: ('A' for Active; 'I' for Inactive)
REMARK    1  A    between atoms: N1_1  and  N2_4 
REMARK    2  A    between atoms: N2_4  and  C1_6 
ROOT
HETATM    1  C1  UNL     1       6.690   9.117  14.371  1.00  0.00     0.704 A 
HETATM    2  N3  UNL     1       6.257   7.850  14.458  1.00  0.00    -0.139 N 
ATOM      3  H3  UNL     1       5.412   7.575  13.957  1.00  0.00     0.189 HD
HETATM    4  C2  UNL     1       6.917   6.930  15.194  1.00  0.00     0.342 A 
HETATM    5  O1  UNL     1       6.503   5.739  15.272  1.00  0.00    -0.246 OA
HETATM    6  N4  UNL     1       8.037   7.243  15.873  1.00  0.00    -0.260 N 
ATOM      7  H4  UNL     1       8.536   6.550  16.429  1.00  0.00     0.175 HD
HETATM    8  C3  UNL     1       8.464   8.514  15.780  1.00  0.00     0.342 A 
HETATM    9  O2  UNL     1       9.509   8.836  16.404  1.00  0.00    -0.246 OA
HETATM   10  N5  UNL     1       7.806   9.444  15.043  1.00  0.00    -0.139 N 
ATOM     11  H5  UNL     1       8.162  10.398  14.998  1.00  0.00     0.189 HD
ENDROOT
BRANCH   1  12
HETATM   12  N2  UNL     1       5.996  10.093  13.594  1.00  0.00    -0.138 N 
ATOM     13  H2  UNL     1       5.079  10.432  13.887  1.00  0.00     0.205 HD
BRANCH  12  14
HETATM   14  N1  UNL     1       6.589  10.579  12.423  1.00  0.00    -0.331 N 
ATOM     15  H12 UNL     1       7.315  10.030  11.964  1.00  0.00     0.177 HD
ATOM     16  H11 UNL     1       6.283  11.477  12.048  1.00  0.00     0.177 HD
ENDBRANCH  12  14
ENDBRANCH   1  12
TORSDOF 2
ENDMDL
MODEL 2
REMARK VINA RESULT: -5.904434796      0.051      2.467
REMARK  2 active torsions:
REMARK  status: ('A' for Active; 'I' for Inactive)
REMARK    1  A    between atoms: N1_1  and  N2_4 
REMARK    2  A    between atoms: N2_4  and  C1_6 
ROOT
HETATM    1  C1  UNL     1       6.710   9.103  14.340  1.00  0.00     0.704 A 
HETATM    2  N3  UNL     1       7.835   9.435  14.992  1.00  0.00    -0.139 N 
ATOM      3  H3  UNL     1       8.192  10.387  14.918  1.00  0.00     0.189 HD
HETATM    4  C2  UNL     1       8.504   8.534  15.743  1.00  0.00     0.342 A 
HETATM    5  O1  UNL     1       9.562   8.854  16.354  1.00  0.00    -0.246 OA
HETATM    6  N4  UNL     1       8.072   7.266  15.871  1.00  0.00    -0.260 N 
ATOM      7  H4  UNL     1       8.576   6.584  16.439  1.00  0.00     0.175 HD
HETATM    8  C3  UNL     1       6.945   6.942  15.216  1.00  0.00     0.342 A 
HETATM    9  O2  UNL     1       6.518   5.762  15.318  1.00  0.00    -0.246 OA
HETATM   10  N5  UNL     1       6.268   7.841  14.459  1.00  0.00    -0.139 N 
ATOM     11  H5  UNL     1       5.416   7.556  13.975  1.00  0.00     0.189 HD
ENDROOT
BRANCH   1  12
HETATM   12  N2  UNL     1       5.999  10.052  13.544  1.00  0.00    -0.138 N 
ATOM     13  H2  UNL     1       5.052  10.334  13.799  1.00  0.00     0.205 HD
BRANCH  12  14
HETATM   14  N1  UNL     1       6.617  10.589  12.409  1.00  0.00    -0.331 N 
ATOM     15  H12 UNL     1       7.330  10.046  11.923  1.00  0.00     0.177 HD
ATOM     16  H11 UNL     1       6.341  11.516  12.086  1.00  0.00     0.177 HD
ENDBRANCH  12  14
ENDBRANCH   1  12
TORSDOF 2
ENDMDL
MODEL 3
REMARK VINA RESULT: -5.603073562      1.749      2.220
REMARK  2 active torsions:
REMARK  status: ('A' for Active; 'I' for Inactive)
REMARK    1  A    between atoms: N1_1  and  N2_4 
REMARK    2  A    between atoms: N2_4  and  C1_6 
ROOT
HETATM    1  C1  UNL     1       6.873   9.313  15.071  1.00  0.00     0.704 A 
HETATM    2  N3  UNL     1       8.032   9.177  14.410  1.00  0.00    -0.139 N 
ATOM      3  H3  UNL     1       8.139   9.611  13.493  1.00  0.00     0.189 HD
HETATM    4  C2  UNL     1       9.062   8.477  14.933  1.00  0.00     0.342 A 
HETATM    5  O1  UNL     1      10.151   8.353  14.304  1.00  0.00    -0.246 OA
HETATM    6  N4  UNL     1       8.971   7.886  16.138  1.00  0.00    -0.260 N 
ATOM      7  H4  UNL     1       9.748   7.358  16.535  1.00  0.00     0.175 HD
HETATM    8  C3  UNL     1       7.807   8.028  16.794  1.00  0.00     0.342 A 
HETATM    9  O2  UNL     1       7.693   7.487  17.925  1.00  0.00    -0.246 OA
HETATM   10  N5  UNL     1       6.768   8.729  16.275  1.00  0.00    -0.139 N 
ATOM     11  H5  UNL     1       5.900   8.813  16.804  1.00  0.00     0.189 HD
ENDROOT
BRANCH   1  12
HETATM   12  N2  UNL     1       5.781  10.053  14.522  1.00  0.00    -0.138 N 
ATOM     13  H2  UNL     1       4.897  10.119  15.027  1.00  0.00     0.205 HD
BRANCH  12  14
HETATM   14  N1  UNL     1       5.940  10.684  13.284  1.00  0.00    -0.331 N 
ATOM     15  H12 UNL     1       6.849  11.070  13.030  1.00  0.00     0.177 HD
ATOM     16  H11 UNL     1       5.141  10.746  12.653  1.00  0.00     0.177 HD
ENDBRANCH  12  14
ENDBRANCH   1  12
TORSDOF 2
ENDMDL
MODEL 4
REMARK VINA RESULT: -5.464995056      1.925      3.318
REMARK  2 active torsions:
REMARK  status: ('A' for Active; 'I' for Inactive)
REMARK    1  A    between atoms: N1_1  and  N2_4 
REMARK    2  A    between atoms: N2_4  and  C1_6 
ROOT
HETATM    1  C1  UNL     1       8.489   8.515  14.968  1.00  0.00     0.704 A 
HETATM    2  N3  UNL     1       7.513   9.429  14.861  1.00  0.00    -0.139 N 
ATOM      3  H3  UNL     1       7.760  10.408  14.716  1.00  0.00     0.189 HD
HETATM    4  C2  UNL     1       6.211   9.080  14.941  1.00  0.00     0.342 A 
HETATM    5  O1  UNL     1       5.298   9.947  14.840  1.00  0.00    -0.246 OA
HETATM    6  N4  UNL     1       5.835   7.802  15.131  1.00  0.00    -0.260 N 
ATOM      7  H4  UNL     1       4.852   7.537  15.192  1.00  0.00     0.175 HD
HETATM    8  C3  UNL     1       6.819   6.893  15.237  1.00  0.00     0.342 A 
HETATM    9  O2  UNL     1       6.497   5.689  15.415  1.00  0.00    -0.246 OA
HETATM   10  N5  UNL     1       8.129   7.236  15.158  1.00  0.00    -0.139 N 
ATOM     11  H5  UNL     1       8.846   6.515  15.244  1.00  0.00     0.189 HD
ENDROOT
BRANCH   1  12
HETATM   12  N2  UNL     1       9.868   8.878  14.884  1.00  0.00    -0.138 N 
ATOM     13  H2  UNL     1      10.290   9.473  15.598  1.00  0.00     0.205 HD
BRANCH  12  14
HETATM   14  N1  UNL     1      10.632   8.410  13.810  1.00  0.00    -0.331 N 
ATOM     15  H12 UNL     1      10.539   7.438  13.515  1.00  0.00     0.177 HD
ATOM     16  H11 UNL     1      11.270   9.050  13.338  1.00  0.00     0.177 HD
ENDBRANCH  12  14
ENDBRANCH   1  12
TORSDOF 2
ENDMDL
MODEL 5
REMARK VINA RESULT: -5.450549980      1.922      2.871
REMARK  2 active torsions:
REMARK  status: ('A' for Active; 'I' for Inactive)
REMARK    1  A    between atoms: N1_1  and  N2_4 
REMARK    2  A    between atoms: N2_4  and  C1_6 
ROOT
HETATM    1  C1  UNL     1       8.490   8.502  14.980  1.00  0.00     0.704 A 
HETATM    2  N3  UNL     1       8.117   7.226  15.163  1.00  0.00    -0.139 N 
ATOM      3  H3  UNL     1       8.832   6.504  15.243  1.00  0.00     0.189 HD
HETATM    4  C2  UNL     1       6.815   6.879  15.244  1.00  0.00     0.342 A 
HETATM    5  O1  UNL     1       6.471   5.676  15.416  1.00  0.00    -0.246 OA
HETATM    6  N4  UNL     1       5.834   7.796  15.146  1.00  0.00    -0.260 N 
ATOM      7  H4  UNL     1       4.850   7.535  15.207  1.00  0.00     0.175 HD
HETATM    8  C3  UNL     1       6.216   9.071  14.963  1.00  0.00     0.342 A 
HETATM    9  O2  UNL     1       5.321   9.951  14.867  1.00  0.00    -0.246 OA
HETATM   10  N5  UNL     1       7.523   9.428  14.880  1.00  0.00    -0.139 N 
ATOM     11  H5  UNL     1       7.772  10.407  14.740  1.00  0.00     0.189 HD
ENDROOT
BRANCH   1  12
HETATM   12  N2  UNL     1       9.866   8.875  14.894  1.00  0.00    -0.138 N 
ATOM     13  H2  UNL     1      10.288   9.466  15.611  1.00  0.00     0.205 HD
BRANCH  12  14
HETATM   14  N1  UNL     1      10.628   8.419  13.813  1.00  0.00    -0.331 N 
ATOM     15  H12 UNL     1      11.237   9.072  13.318  1.00  0.00     0.177 HD
ATOM     16  H11 UNL     1      10.563   7.439  13.537  1.00  0.00     0.177 HD
ENDBRANCH  12  14
ENDBRANCH   1  12
TORSDOF 2
ENDMDL
