MODEL 1
REMARK VINA RESULT: -5.546674103      0.000      0.000
REMARK  3 active torsions:
REMARK  status: ('A' for Active; 'I' for Inactive)
REMARK    1  A    between atoms: N1_1  and  C1_5 
REMARK    2  A    between atoms: C1_5  and  N2_6 
REMARK    3  A    between atoms: C1_5  and  C2_10 
ROOT
HETATM    1  C2  UNL     1       6.631   9.045  14.304  1.00  0.00     0.072 A 
HETATM    2  C3  UNL     1       6.076   7.970  14.968  1.00  0.00     0.046 A 
HETATM    3  C4  UNL     1       6.945   7.120  15.613  1.00  0.00     0.095 A 
HETATM    4  N3  UNL     1       8.287   7.329  15.595  1.00  0.00    -0.319 N 
ATOM      5  H3  UNL     1       8.902   6.679  16.085  1.00  0.00     0.170 HD
HETATM    6  C5  UNL     1       8.818   8.378  14.945  1.00  0.00     0.324 A 
HETATM    7  O1  UNL     1      10.074   8.588  14.919  1.00  0.00    -0.247 OA
HETATM    8  N4  UNL     1       7.966   9.206  14.317  1.00  0.00    -0.308 N 
ATOM      9  H4  UNL     1       8.357  10.006  13.818  1.00  0.00     0.170 HD
ENDROOT
BRANCH   1  10
HETATM   10  C1  UNL     1       5.729  10.009  13.580  1.00  0.00     0.427 C 
BRANCH  10  11
HETATM   11  N1  UNL     1       5.205  10.999  14.488  1.00  0.00    -0.045 N 
ATOM     12  H13 UNL     1       5.960  11.523  14.930  1.00  0.00     0.277 HD
ATOM     13  H12 UNL     1       4.752  11.757  13.977  1.00  0.00     0.277 HD
ATOM     14  H11 UNL     1       4.575  10.608  15.189  1.00  0.00     0.277 HD
ENDBRANCH  10  11
BRANCH  10  15
HETATM   15  N2  UNL     1       6.427  10.581  12.457  1.00  0.00    -0.045 N 
ATOM     16  H23 UNL     1       6.421  11.600  12.506  1.00  0.00     0.277 HD
ATOM     17  H22 UNL     1       7.431  10.416  12.531  1.00  0.00     0.277 HD
ATOM     18  H21 UNL     1       6.072  10.260  11.556  1.00  0.00     0.277 HD
ENDBRANCH  10  15
ENDBRANCH   1  10
TORSDOF 3
ENDMDL
MODEL 2
REMARK VINA RESULT: -5.239077058      0.627      1.067
REMARK  3 active torsions:
REMARK  status: ('A' for Active; 'I' for Inactive)
REMARK    1  A    between atoms: N1_1  and  C1_5 
REMARK    2  A    between atoms: C1_5  and  N2_6 
REMARK    3  A    between atoms: C1_5  and  C2_10 
ROOT
HETATM    1  C2  UNL     1       6.622   9.137  14.317  1.00  0.00     0.072 A 
HETATM    2  C3  UNL     1       6.038   8.099  15.013  1.00  0.00     0.046 A 
HETATM    3  C4  UNL     1       6.886   7.179  15.587  1.00  0.00     0.095 A 
HETATM    4  N3  UNL     1       8.235   7.289  15.471  1.00  0.00    -0.319 N 
ATOM      5  H3  UNL     1       8.834   6.588  15.910  1.00  0.00     0.170 HD
HETATM    6  C5  UNL     1       8.794   8.303  14.790  1.00  0.00     0.324 A 
HETATM    7  O1  UNL     1      10.057   8.419  14.673  1.00  0.00    -0.247 OA
HETATM    8  N4  UNL     1       7.963   9.199  14.232  1.00  0.00    -0.308 N 
ATOM      9  H4  UNL     1       8.375   9.974  13.711  1.00  0.00     0.170 HD
ENDROOT
BRANCH   1  10
HETATM   10  C1  UNL     1       5.744  10.174  13.667  1.00  0.00     0.427 C 
BRANCH  10  11
HETATM   11  N1  UNL     1       6.383  10.724  12.497  1.00  0.00    -0.045 N 
ATOM     12  H13 UNL     1       7.098  10.089  12.141  1.00  0.00     0.277 HD
ATOM     13  H12 UNL     1       5.745  10.721  11.701  1.00  0.00     0.277 HD
ATOM     14  H11 UNL     1       6.768  11.656  12.649  1.00  0.00     0.277 HD
ENDBRANCH  10  11
BRANCH  10  15
HETATM   15  N2  UNL     1       4.445   9.615  13.396  1.00  0.00    -0.045 N 
ATOM     16  H23 UNL     1       3.812   9.770  14.180  1.00  0.00     0.277 HD
ATOM     17  H22 UNL     1       3.960  10.155  12.679  1.00  0.00     0.277 HD
ATOM     18  H21 UNL     1       4.476   8.626  13.147  1.00  0.00     0.277 HD
ENDBRANCH  10  15
ENDBRANCH   1  10
TORSDOF 3
ENDMDL
MODEL 3
REMARK VINA RESULT: -5.209422255      2.127      3.757
REMARK  3 active torsions:
REMARK  status: ('A' for Active; 'I' for Inactive)
REMARK    1  A    between atoms: N1_1  and  C1_5 
REMARK    2  A    between atoms: C1_5  and  N2_6 
REMARK    3  A    between atoms: C1_5  and  C2_10 
ROOT
HETATM    1  C2  UNL     1       6.931   9.130  14.640  1.00  0.00     0.072 A 
HETATM    2  C3  UNL     1       5.634   9.056  15.103  1.00  0.00     0.046 A 
HETATM    3  C4  UNL     1       4.649   9.552  14.281  1.00  0.00     0.095 A 
HETATM    4  N3  UNL     1       4.941  10.093  13.070  1.00  0.00    -0.319 N 
ATOM      5  H3  UNL     1       4.185  10.451  12.486  1.00  0.00     0.170 HD
HETATM    6  C5  UNL     1       6.208  10.162  12.627  1.00  0.00     0.324 A 
HETATM    7  O1  UNL     1       6.498  10.665  11.494  1.00  0.00    -0.247 OA
HETATM    8  N4  UNL     1       7.167   9.675  13.433  1.00  0.00    -0.308 N 
ATOM      9  H4  UNL     1       8.133   9.722  13.109  1.00  0.00     0.170 HD
ENDROOT
BRANCH   1  10
HETATM   10  C1  UNL     1       8.052   8.603  15.496  1.00  0.00     0.427 C 
BRANCH  10  11
HETATM   11  N1  UNL     1       9.049   7.946  14.687  1.00  0.00    -0.045 N 
ATOM     12  H13 UNL     1       8.962   6.932  14.755  1.00  0.00     0.277 HD
ATOM     13  H12 UNL     1       8.847   8.066  13.695  1.00  0.00     0.277 HD
ATOM     14  H11 UNL     1      10.001   8.244  14.902  1.00  0.00     0.277 HD
ENDBRANCH  10  11
BRANCH  10  15
HETATM   15  N2  UNL     1       8.588   9.665  16.309  1.00  0.00    -0.045 N 
ATOM     16  H23 UNL     1       9.583   9.795  16.125  1.00  0.00     0.277 HD
ATOM     17  H22 UNL     1       8.240  10.571  15.996  1.00  0.00     0.277 HD
ATOM     18  H21 UNL     1       8.418   9.534  17.306  1.00  0.00     0.277 HD
ENDBRANCH  10  15
ENDBRANCH   1  10
TORSDOF 3
ENDMDL
MODEL 4
REMARK VINA RESULT: -5.130392655      2.082      3.721
REMARK  3 active torsions:
REMARK  status: ('A' for Active; 'I' for Inactive)
REMARK    1  A    between atoms: N1_1  and  C1_5 
REMARK    2  A    between atoms: C1_5  and  N2_6 
REMARK    3  A    between atoms: C1_5  and  C2_10 
ROOT
HETATM    1  C2  UNL     1       7.115   9.023  14.638  1.00  0.00     0.072 A 
HETATM    2  C3  UNL     1       5.888   8.835  15.238  1.00  0.00     0.046 A 
HETATM    3  C4  UNL     1       4.789   9.337  14.579  1.00  0.00     0.095 A 
HETATM    4  N3  UNL     1       4.908   9.988  13.393  1.00  0.00    -0.319 N 
ATOM      5  H3  UNL     1       4.072  10.347  12.932  1.00  0.00     0.170 HD
HETATM    6  C5  UNL     1       6.109  10.168  12.817  1.00  0.00     0.324 A 
HETATM    7  O1  UNL     1       6.237  10.776  11.705  1.00  0.00    -0.247 OA
HETATM    8  N4  UNL     1       7.179   9.676  13.463  1.00  0.00    -0.308 N 
ATOM      9  H4  UNL     1       8.097   9.806  13.037  1.00  0.00     0.170 HD
ENDROOT
BRANCH   1  10
HETATM   10  C1  UNL     1       8.354   8.496  15.312  1.00  0.00     0.427 C 
BRANCH  10  11
HETATM   11  N1  UNL     1       8.791   9.393  16.354  1.00  0.00    -0.045 N 
ATOM     12  H13 UNL     1       8.185   9.323  17.171  1.00  0.00     0.277 HD
ATOM     13  H12 UNL     1       9.666   9.071  16.766  1.00  0.00     0.277 HD
ATOM     14  H11 UNL     1       8.870  10.361  16.043  1.00  0.00     0.277 HD
ENDBRANCH  10  11
BRANCH  10  15
HETATM   15  N2  UNL     1       8.123   7.153  15.780  1.00  0.00    -0.045 N 
ATOM     16  H23 UNL     1       7.203   6.822  15.490  1.00  0.00     0.277 HD
ATOM     17  H22 UNL     1       8.707   6.487  15.274  1.00  0.00     0.277 HD
ATOM     18  H21 UNL     1       8.244   7.051  16.787  1.00  0.00     0.277 HD
ENDBRANCH  10  15
ENDBRANCH   1  10
TORSDOF 3
ENDMDL
MODEL 5
REMARK VINA RESULT: -5.091112225      1.818      2.104
REMARK  3 active torsions:
REMARK  status: ('A' for Active; 'I' for Inactive)
REMARK    1  A    between atoms: N1_1  and  C1_5 
REMARK    2  A    between atoms: C1_5  and  N2_6 
REMARK    3  A    between atoms: C1_5  and  C2_10 
ROOT
HETATM    1  C2  UNL     1       6.591   8.910  14.674  1.00  0.00     0.072 A 
HETATM    2  C3  UNL     1       7.617   9.371  15.473  1.00  0.00     0.046 A 
HETATM    3  C4  UNL     1       8.263   8.443  16.256  1.00  0.00     0.095 A 
HETATM    4  N3  UNL     1       7.906   7.132  16.244  1.00  0.00    -0.319 N 
ATOM      5  H3  UNL     1       8.407   6.471  16.838  1.00  0.00     0.170 HD
HETATM    6  C5  UNL     1       6.905   6.692  15.463  1.00  0.00     0.324 A 
HETATM    7  O1  UNL     1       6.559   5.467  15.441  1.00  0.00    -0.247 OA
HETATM    8  N4  UNL     1       6.277   7.602  14.699  1.00  0.00    -0.308 N 
ATOM      9  H4  UNL     1       5.514   7.281  14.102  1.00  0.00     0.170 HD
ENDROOT
BRANCH   1  10
HETATM   10  C1  UNL     1       5.848   9.880  13.795  1.00  0.00     0.427 C 
BRANCH  10  11
HETATM   11  N1  UNL     1       5.340  10.986  14.569  1.00  0.00    -0.045 N 
ATOM     12  H13 UNL     1       5.511  11.872  14.092  1.00  0.00     0.277 HD
ATOM     13  H12 UNL     1       4.320  10.991  14.570  1.00  0.00     0.277 HD
ATOM     14  H11 UNL     1       5.704  11.011  15.521  1.00  0.00     0.277 HD
ENDBRANCH  10  11
BRANCH  10  15
HETATM   15  N2  UNL     1       6.689  10.291  12.700  1.00  0.00    -0.045 N 
ATOM     16  H23 UNL     1       6.917  11.283  12.770  1.00  0.00     0.277 HD
ATOM     17  H22 UNL     1       7.625   9.897  12.793  1.00  0.00     0.277 HD
ATOM     18  H21 UNL     1       6.293  10.075  11.785  1.00  0.00     0.277 HD
ENDBRANCH  10  15
ENDBRANCH   1  10
TORSDOF 3
ENDMDL
