MODEL 1
REMARK VINA RESULT: -5.012266393      0.000      0.000
REMARK  4 active torsions:
REMARK  status: ('A' for Active; 'I' for Inactive)
REMARK    1  A    between atoms: N1_1  and  C1_5 
REMARK    2  A    between atoms: C1_5  and  N2_6 
REMARK    3  A    between atoms: C1_5  and  C2_10 
REMARK    4  A    between atoms: C2_10  and  C3_11 
ROOT
HETATM    1  C1  UNL     1      38.114  -1.503  13.795  1.00  0.00     0.380 C 
ENDROOT
BRANCH   1   2
HETATM    2  N1  UNL     1      38.862  -2.339  14.696  1.00  0.00    -0.050 N 
ATOM      3  H13 UNL     1      39.586  -2.885  14.232  1.00  0.00     0.276 HD
ATOM      4  H12 UNL     1      39.478  -1.814  15.317  1.00  0.00     0.276 HD
ATOM      5  H11 UNL     1      38.180  -2.911  15.193  1.00  0.00     0.276 HD
ENDBRANCH   1   2
BRANCH   1   6
HETATM    6  N2  UNL     1      37.783  -0.297  14.531  1.00  0.00    -0.050 N 
ATOM      7  H23 UNL     1      36.815  -0.273  14.851  1.00  0.00     0.276 HD
ATOM      8  H22 UNL     1      38.221  -0.253  15.450  1.00  0.00     0.276 HD
ATOM      9  H21 UNL     1      38.028   0.487  13.927  1.00  0.00     0.276 HD
ENDBRANCH   1   6
BRANCH   1  10
HETATM   10  C2  UNL     1      36.892  -2.228  13.315  1.00  0.00     0.093 C 
BRANCH  10  11
HETATM   11  C3  UNL     1      36.756  -2.381  11.845  1.00  0.00     0.125 C 
HETATM   12  C4  UNL     1      37.992  -2.828  11.168  1.00  0.00     0.032 C 
HETATM   13  C5  UNL     1      37.718  -3.462   9.805  1.00  0.00     0.002 C 
HETATM   14  C6  UNL     1      36.829  -4.648   9.843  1.00  0.00     0.000 C 
HETATM   15  C7  UNL     1      36.759  -5.394  11.125  1.00  0.00     0.002 C 
HETATM   16  C8  UNL     1      35.310  -5.361  11.614  1.00  0.00     0.026 C 
HETATM   17  C9  UNL     1      35.117  -4.000  12.299  1.00  0.00     0.168 C 
HETATM   18  O1  UNL     1      35.608  -3.054  11.479  1.00  0.00    -0.386 OA
ENDBRANCH  10  11
ENDBRANCH   1  10
TORSDOF 4
ENDMDL
MODEL 2
REMARK VINA RESULT: -4.892001232      1.030      2.299
REMARK  4 active torsions:
REMARK  status: ('A' for Active; 'I' for Inactive)
REMARK    1  A    between atoms: N1_1  and  C1_5 
REMARK    2  A    between atoms: C1_5  and  N2_6 
REMARK    3  A    between atoms: C1_5  and  C2_10 
REMARK    4  A    between atoms: C2_10  and  C3_11 
ROOT
HETATM    1  C1  UNL     1      38.291  -0.951  13.940  1.00  0.00     0.380 C 
ENDROOT
BRANCH   1   2
HETATM    2  N1  UNL     1      38.755  -2.038  14.760  1.00  0.00    -0.050 N 
ATOM      3  H13 UNL     1      39.762  -2.021  14.921  1.00  0.00     0.276 HD
ATOM      4  H12 UNL     1      38.470  -1.958  15.736  1.00  0.00     0.276 HD
ATOM      5  H11 UNL     1      38.431  -2.896  14.313  1.00  0.00     0.276 HD
ENDBRANCH   1   2
BRANCH   1   6
HETATM    6  N2  UNL     1      37.743   0.042  14.844  1.00  0.00    -0.050 N 
ATOM      7  H23 UNL     1      36.733  -0.032  14.960  1.00  0.00     0.276 HD
ATOM      8  H22 UNL     1      37.994  -0.118  15.819  1.00  0.00     0.276 HD
ATOM      9  H21 UNL     1      38.044   0.951  14.493  1.00  0.00     0.276 HD
ENDBRANCH   1   6
BRANCH   1  10
HETATM   10  C2  UNL     1      37.273  -1.447  12.957  1.00  0.00     0.093 C 
BRANCH  10  11
HETATM   11  C3  UNL     1      36.872  -2.870  13.088  1.00  0.00     0.125 C 
HETATM   12  C4  UNL     1      35.414  -3.076  13.214  1.00  0.00     0.032 C 
HETATM   13  C5  UNL     1      34.988  -4.495  12.835  1.00  0.00     0.002 C 
HETATM   14  C6  UNL     1      35.334  -4.893  11.449  1.00  0.00     0.000 C 
HETATM   15  C7  UNL     1      35.519  -3.800  10.462  1.00  0.00     0.002 C 
HETATM   16  C8  UNL     1      36.950  -3.882   9.927  1.00  0.00     0.026 C 
HETATM   17  C9  UNL     1      37.842  -3.200  10.976  1.00  0.00     0.168 C 
HETATM   18  O1  UNL     1      37.508  -3.693  12.181  1.00  0.00    -0.386 OA
ENDBRANCH  10  11
ENDBRANCH   1  10
TORSDOF 4
ENDMDL
MODEL 3
REMARK VINA RESULT: -4.689056949      1.145      1.422
REMARK  4 active torsions:
REMARK  status: ('A' for Active; 'I' for Inactive)
REMARK    1  A    between atoms: N1_1  and  C1_5 
REMARK    2  A    between atoms: C1_5  and  N2_6 
REMARK    3  A    between atoms: C1_5  and  C2_10 
REMARK    4  A    between atoms: C2_10  and  C3_11 
ROOT
HETATM    1  C1  UNL     1      38.607  -1.003  14.097  1.00  0.00     0.380 C 
ENDROOT
BRANCH   1   2
HETATM    2  N1  UNL     1      37.507  -0.229  14.608  1.00  0.00    -0.050 N 
ATOM      3  H13 UNL     1      37.449  -0.233  15.626  1.00  0.00     0.276 HD
ATOM      4  H12 UNL     1      37.633   0.777  14.493  1.00  0.00     0.276 HD
ATOM      5  H11 UNL     1      36.666  -0.585  14.154  1.00  0.00     0.276 HD
ENDBRANCH   1   2
BRANCH   1   6
HETATM    6  N2  UNL     1      39.261  -0.179  13.099  1.00  0.00    -0.050 N 
ATOM      7  H23 UNL     1      39.845  -0.713  12.455  1.00  0.00     0.276 HD
ATOM      8  H22 UNL     1      38.619   0.199  12.404  1.00  0.00     0.276 HD
ATOM      9  H21 UNL     1      39.776   0.540  13.608  1.00  0.00     0.276 HD
ENDBRANCH   1   6
BRANCH   1  10
HETATM   10  C2  UNL     1      38.105  -2.295  13.526  1.00  0.00     0.093 C 
BRANCH  10  11
HETATM   11  C3  UNL     1      37.317  -2.196  12.272  1.00  0.00     0.125 C 
HETATM   12  C4  UNL     1      37.879  -2.970  11.145  1.00  0.00     0.032 C 
HETATM   13  C5  UNL     1      36.837  -3.278  10.068  1.00  0.00     0.002 C 
HETATM   14  C6  UNL     1      35.667  -4.053  10.546  1.00  0.00     0.000 C 
HETATM   15  C7  UNL     1      35.861  -4.882  11.762  1.00  0.00     0.002 C 
HETATM   16  C8  UNL     1      34.887  -4.388  12.833  1.00  0.00     0.026 C 
HETATM   17  C9  UNL     1      35.538  -3.151  13.471  1.00  0.00     0.168 C 
HETATM   18  O1  UNL     1      35.961  -2.352  12.475  1.00  0.00    -0.386 OA
ENDBRANCH  10  11
ENDBRANCH   1  10
TORSDOF 4
ENDMDL
MODEL 4
REMARK VINA RESULT: -3.878114708      1.162      1.458
REMARK  4 active torsions:
REMARK  status: ('A' for Active; 'I' for Inactive)
REMARK    1  A    between atoms: N1_1  and  C1_5 
REMARK    2  A    between atoms: C1_5  and  N2_6 
REMARK    3  A    between atoms: C1_5  and  C2_10 
REMARK    4  A    between atoms: C2_10  and  C3_11 
ROOT
HETATM    1  C1  UNL     1      38.234  -0.715  14.611  1.00  0.00     0.380 C 
ENDROOT
BRANCH   1   2
HETATM    2  N1  UNL     1      38.798   0.222  13.676  1.00  0.00    -0.050 N 
ATOM      3  H13 UNL     1      38.105   0.842  13.258  1.00  0.00     0.276 HD
ATOM      4  H12 UNL     1      39.364   0.944  14.120  1.00  0.00     0.276 HD
ATOM      5  H11 UNL     1      39.314  -0.329  12.989  1.00  0.00     0.276 HD
ENDBRANCH   1   2
BRANCH   1   6
HETATM    6  N2  UNL     1      39.128  -0.746  15.753  1.00  0.00    -0.050 N 
ATOM      7  H23 UNL     1      38.875  -1.452  16.444  1.00  0.00     0.276 HD
ATOM      8  H22 UNL     1      40.053  -1.111  15.531  1.00  0.00     0.276 HD
ATOM      9  H21 UNL     1      39.147   0.201  16.131  1.00  0.00     0.276 HD
ENDBRANCH   1   6
BRANCH   1  10
HETATM   10  C2  UNL     1      38.091  -2.062  13.966  1.00  0.00     0.093 C 
BRANCH  10  11
HETATM   11  C3  UNL     1      37.515  -2.076  12.597  1.00  0.00     0.125 C 
HETATM   12  C4  UNL     1      38.323  -2.826  11.612  1.00  0.00     0.032 C 
HETATM   13  C5  UNL     1      37.506  -3.264  10.397  1.00  0.00     0.002 C 
HETATM   14  C6  UNL     1      36.347  -4.133  10.713  1.00  0.00     0.000 C 
HETATM   15  C7  UNL     1      36.410  -4.903  11.981  1.00  0.00     0.002 C 
HETATM   16  C8  UNL     1      35.232  -4.473  12.856  1.00  0.00     0.026 C 
HETATM   17  C9  UNL     1      35.655  -3.160  13.535  1.00  0.00     0.168 C 
HETATM   18  O1  UNL     1      36.164  -2.354  12.586  1.00  0.00    -0.386 OA
ENDBRANCH  10  11
ENDBRANCH   1  10
TORSDOF 4
ENDMDL
MODEL 5
REMARK VINA RESULT: -3.513544093      2.927      4.438
REMARK  4 active torsions:
REMARK  status: ('A' for Active; 'I' for Inactive)
REMARK    1  A    between atoms: N1_1  and  C1_5 
REMARK    2  A    between atoms: C1_5  and  N2_6 
REMARK    3  A    between atoms: C1_5  and  C2_10 
REMARK    4  A    between atoms: C2_10  and  C3_11 
ROOT
HETATM    1  C1  UNL     1      37.045  -4.885   9.534  1.00  0.00     0.380 C 
ENDROOT
BRANCH   1   2
HETATM    2  N1  UNL     1      38.000  -5.875   9.954  1.00  0.00    -0.050 N 
ATOM      3  H13 UNL     1      37.568  -6.735  10.291  1.00  0.00     0.276 HD
ATOM      4  H12 UNL     1      38.520  -6.288   9.181  1.00  0.00     0.276 HD
ATOM      5  H11 UNL     1      38.597  -5.424  10.648  1.00  0.00     0.276 HD
ENDBRANCH   1   2
BRANCH   1   6
HETATM    6  N2  UNL     1      37.137  -4.812   8.088  1.00  0.00    -0.050 N 
ATOM      7  H23 UNL     1      36.232  -4.870   7.622  1.00  0.00     0.276 HD
ATOM      8  H22 UNL     1      37.396  -3.886   7.747  1.00  0.00     0.276 HD
ATOM      9  H21 UNL     1      37.787  -5.544   7.802  1.00  0.00     0.276 HD
ENDBRANCH   1   6
BRANCH   1  10
HETATM   10  C2  UNL     1      37.345  -3.569  10.189  1.00  0.00     0.093 C 
BRANCH  10  11
HETATM   11  C3  UNL     1      36.300  -3.036  11.099  1.00  0.00     0.125 C 
HETATM   12  C4  UNL     1      35.434  -4.074  11.696  1.00  0.00     0.032 C 
HETATM   13  C5  UNL     1      34.741  -3.597  12.972  1.00  0.00     0.002 C 
HETATM   14  C6  UNL     1      35.664  -3.172  14.052  1.00  0.00     0.000 C 
HETATM   15  C7  UNL     1      37.036  -3.736  14.025  1.00  0.00     0.002 C 
HETATM   16  C8  UNL     1      38.024  -2.575  13.899  1.00  0.00     0.026 C 
HETATM   17  C9  UNL     1      38.059  -2.198  12.409  1.00  0.00     0.168 C 
HETATM   18  O1  UNL     1      36.787  -2.095  11.983  1.00  0.00    -0.386 OA
ENDBRANCH  10  11
ENDBRANCH   1  10
TORSDOF 4
ENDMDL
