MODEL 1
REMARK VINA RESULT: -3.716141962      0.000      0.000
REMARK  4 active torsions:
REMARK  status: ('A' for Active; 'I' for Inactive)
REMARK    1  A    between atoms: N1_1  and  C1_5 
REMARK    2  A    between atoms: C1_5  and  C2_6 
REMARK    3  A    between atoms: C2_6  and  C3_7 
REMARK    4  A    between atoms: C3_7  and  O1_8 
ROOT
HETATM    1  C2  UNL     1      37.140  -2.604  13.190  1.00  0.00     0.053 C 
HETATM    2  C4  UNL     1      35.641  -2.700  13.222  1.00  0.00     0.024 C 
HETATM    3  C5  UNL     1      35.103  -4.078  13.077  1.00  0.00     0.002 C 
HETATM    4  C6  UNL     1      35.200  -4.700  11.749  1.00  0.00     0.001 C 
HETATM    5  C7  UNL     1      35.619  -3.825  10.627  1.00  0.00     0.010 C 
HETATM    6  C8  UNL     1      37.128  -3.940  10.491  1.00  0.00     0.075 C 
HETATM    7  S1  UNL     1      37.897  -2.781  11.608  1.00  0.00    -0.155 SA
ENDROOT
BRANCH   1   8
HETATM    8  C1  UNL     1      37.453  -1.178  13.679  1.00  0.00     0.252 C 
BRANCH   8   9
HETATM    9  N1  UNL     1      38.576  -0.615  12.999  1.00  0.00    -0.078 N 
ATOM     10  H13 UNL     1      38.994   0.143  13.540  1.00  0.00     0.274 HD
ATOM     11  H12 UNL     1      39.365  -1.261  12.990  1.00  0.00     0.274 HD
ATOM     12  H11 UNL     1      38.337  -0.309  12.056  1.00  0.00     0.274 HD
ENDBRANCH   8   9
ENDBRANCH   1   8
BRANCH   1  13
HETATM   13  C3  UNL     1      37.770  -3.530  14.197  1.00  0.00     0.186 C 
BRANCH  13  14
HETATM   14  O1  UNL     1      38.823  -2.822  14.798  1.00  0.00    -0.399 OA
ATOM     15  H1  UNL     1      38.518  -2.549  15.655  1.00  0.00     0.209 HD
ENDBRANCH  13  14
ENDBRANCH   1  13
TORSDOF 4
ENDMDL
MODEL 2
REMARK VINA RESULT: -3.605086628      2.741      3.843
REMARK  4 active torsions:
REMARK  status: ('A' for Active; 'I' for Inactive)
REMARK    1  A    between atoms: N1_1  and  C1_5 
REMARK    2  A    between atoms: C1_5  and  C2_6 
REMARK    3  A    between atoms: C2_6  and  C3_7 
REMARK    4  A    between atoms: C3_7  and  O1_8 
ROOT
HETATM    1  C2  UNL     1      37.026  -3.362  10.847  1.00  0.00     0.053 C 
HETATM    2  C4  UNL     1      36.234  -4.501  11.424  1.00  0.00     0.024 C 
HETATM    3  C5  UNL     1      35.034  -4.092  12.200  1.00  0.00     0.002 C 
HETATM    4  C6  UNL     1      35.263  -3.473  13.513  1.00  0.00     0.001 C 
HETATM    5  C7  UNL     1      36.648  -3.513  14.041  1.00  0.00     0.010 C 
HETATM    6  C8  UNL     1      37.340  -2.228  13.618  1.00  0.00     0.075 C 
HETATM    7  S1  UNL     1      38.017  -2.449  11.983  1.00  0.00    -0.155 SA
ENDROOT
BRANCH   1   8
HETATM    8  C1  UNL     1      37.989  -4.023   9.843  1.00  0.00     0.252 C 
BRANCH   8   9
HETATM    9  N1  UNL     1      37.378  -5.118   9.158  1.00  0.00    -0.078 N 
ATOM     10  H13 UNL     1      38.006  -5.921   9.109  1.00  0.00     0.274 HD
ATOM     11  H12 UNL     1      36.630  -5.531   9.713  1.00  0.00     0.274 HD
ATOM     12  H11 UNL     1      37.047  -4.850   8.231  1.00  0.00     0.274 HD
ENDBRANCH   8   9
ENDBRANCH   1   8
BRANCH   1  13
HETATM   13  C3  UNL     1      36.153  -2.444  10.032  1.00  0.00     0.186 C 
BRANCH  13  14
HETATM   14  O1  UNL     1      36.964  -1.901   9.022  1.00  0.00    -0.399 OA
ATOM     15  H1  UNL     1      36.678  -2.286   8.202  1.00  0.00     0.209 HD
ENDBRANCH  13  14
ENDBRANCH   1  13
TORSDOF 4
ENDMDL
MODEL 3
REMARK VINA RESULT: -3.296861610      2.638      3.742
REMARK  4 active torsions:
REMARK  status: ('A' for Active; 'I' for Inactive)
REMARK    1  A    between atoms: N1_1  and  C1_5 
REMARK    2  A    between atoms: C1_5  and  C2_6 
REMARK    3  A    between atoms: C2_6  and  C3_7 
REMARK    4  A    between atoms: C3_7  and  O1_8 
ROOT
HETATM    1  C2  UNL     1      36.867  -3.127  10.314  1.00  0.00     0.053 C 
HETATM    2  C4  UNL     1      37.171  -2.018  11.281  1.00  0.00     0.024 C 
HETATM    3  C5  UNL     1      37.780  -2.460  12.563  1.00  0.00     0.002 C 
HETATM    4  C6  UNL     1      36.907  -3.166  13.512  1.00  0.00     0.001 C 
HETATM    5  C7  UNL     1      35.455  -3.176  13.207  1.00  0.00     0.010 C 
HETATM    6  C8  UNL     1      35.159  -4.440  12.417  1.00  0.00     0.075 C 
HETATM    7  S1  UNL     1      35.462  -4.122  10.688  1.00  0.00    -0.155 SA
ENDROOT
BRANCH   1   8
HETATM    8  C1  UNL     1      36.569  -2.415   8.981  1.00  0.00     0.252 C 
BRANCH   8   9
HETATM    9  N1  UNL     1      36.821  -1.011   9.058  1.00  0.00    -0.078 N 
ATOM     10  H13 UNL     1      36.851  -0.692  10.027  1.00  0.00     0.274 HD
ATOM     11  H12 UNL     1      37.779  -0.791   8.787  1.00  0.00     0.274 HD
ATOM     12  H11 UNL     1      36.149  -0.472   8.511  1.00  0.00     0.274 HD
ENDBRANCH   8   9
ENDBRANCH   1   8
BRANCH   1  13
HETATM   13  C3  UNL     1      38.082  -3.980  10.060  1.00  0.00     0.186 C 
BRANCH  13  14
HETATM   14  O1  UNL     1      37.645  -5.106   9.343  1.00  0.00    -0.399 OA
ATOM     15  H1  UNL     1      37.825  -4.936   8.426  1.00  0.00     0.209 HD
ENDBRANCH  13  14
ENDBRANCH   1  13
TORSDOF 4
ENDMDL
MODEL 4
REMARK VINA RESULT: -3.290262778      1.925      2.541
REMARK  4 active torsions:
REMARK  status: ('A' for Active; 'I' for Inactive)
REMARK    1  A    between atoms: N1_1  and  C1_5 
REMARK    2  A    between atoms: C1_5  and  C2_6 
REMARK    3  A    between atoms: C2_6  and  C3_7 
REMARK    4  A    between atoms: C3_7  and  O1_8 
ROOT
HETATM    1  C2  UNL     1      35.965  -3.719  12.327  1.00  0.00     0.053 C 
HETATM    2  C4  UNL     1      35.584  -4.997  11.635  1.00  0.00     0.024 C 
HETATM    3  C5  UNL     1      36.732  -5.835  11.201  1.00  0.00     0.002 C 
HETATM    4  C6  UNL     1      37.522  -5.352  10.060  1.00  0.00     0.001 C 
HETATM    5  C7  UNL     1      36.975  -4.197   9.307  1.00  0.00     0.010 C 
HETATM    6  C8  UNL     1      37.572  -2.933   9.904  1.00  0.00     0.075 C 
HETATM    7  S1  UNL     1      36.574  -2.427  11.294  1.00  0.00    -0.155 SA
ENDROOT
BRANCH   1   8
HETATM    8  C1  UNL     1      34.656  -3.208  12.957  1.00  0.00     0.252 C 
BRANCH   8   9
HETATM    9  N1  UNL     1      34.897  -2.423  14.125  1.00  0.00    -0.078 N 
ATOM     10  H13 UNL     1      35.675  -2.796  14.669  1.00  0.00     0.274 HD
ATOM     11  H12 UNL     1      35.290  -1.513  13.886  1.00  0.00     0.274 HD
ATOM     12  H11 UNL     1      34.058  -2.325  14.699  1.00  0.00     0.274 HD
ENDBRANCH   8   9
ENDBRANCH   1   8
BRANCH   1  13
HETATM   13  C3  UNL     1      36.900  -3.977  13.478  1.00  0.00     0.186 C 
BRANCH  13  14
HETATM   14  O1  UNL     1      37.675  -2.816  13.642  1.00  0.00    -0.399 OA
ATOM     15  H1  UNL     1      37.516  -2.501  14.524  1.00  0.00     0.209 HD
ENDBRANCH  13  14
ENDBRANCH   1  13
TORSDOF 4
ENDMDL
MODEL 5
REMARK VINA RESULT: -3.199776331      2.064      2.808
REMARK  4 active torsions:
REMARK  status: ('A' for Active; 'I' for Inactive)
REMARK    1  A    between atoms: N1_1  and  C1_5 
REMARK    2  A    between atoms: C1_5  and  C2_6 
REMARK    3  A    between atoms: C2_6  and  C3_7 
REMARK    4  A    between atoms: C3_7  and  O1_8 
ROOT
HETATM    1  C2  UNL     1      36.502  -3.684  12.574  1.00  0.00     0.053 C 
HETATM    2  C4  UNL     1      37.307  -2.513  12.085  1.00  0.00     0.024 C 
HETATM    3  C5  UNL     1      36.787  -1.874  10.848  1.00  0.00     0.002 C 
HETATM    4  C6  UNL     1      36.947  -2.618   9.591  1.00  0.00     0.001 C 
HETATM    5  C7  UNL     1      37.803  -3.828   9.632  1.00  0.00     0.010 C 
HETATM    6  C8  UNL     1      36.902  -5.021   9.906  1.00  0.00     0.075 C 
HETATM    7  S1  UNL     1      36.684  -5.185  11.669  1.00  0.00    -0.155 SA
ENDROOT
BRANCH   1   8
HETATM    8  C1  UNL     1      37.024  -3.953  13.997  1.00  0.00     0.252 C 
BRANCH   8   9
HETATM    9  N1  UNL     1      38.009  -2.998  14.395  1.00  0.00    -0.078 N 
ATOM     10  H13 UNL     1      37.614  -2.058  14.446  1.00  0.00     0.274 HD
ATOM     11  H12 UNL     1      38.267  -3.117  15.374  1.00  0.00     0.274 HD
ATOM     12  H11 UNL     1      38.830  -3.022  13.789  1.00  0.00     0.274 HD
ENDBRANCH   8   9
ENDBRANCH   1   8
BRANCH   1  13
HETATM   13  C3  UNL     1      35.049  -3.322  12.732  1.00  0.00     0.186 C 
BRANCH  13  14
HETATM   14  O1  UNL     1      34.943  -2.571  13.915  1.00  0.00    -0.399 OA
ATOM     15  H1  UNL     1      34.535  -3.134  14.563  1.00  0.00     0.209 HD
ENDBRANCH  13  14
ENDBRANCH   1  13
TORSDOF 4
ENDMDL
