MODEL 1
REMARK VINA RESULT: -4.714785635      0.000      0.000
REMARK  3 active torsions:
REMARK  status: ('A' for Active; 'I' for Inactive)
REMARK    1  A    between atoms: C2_2  and  N1_3 
REMARK    2  A    between atoms: C2_2  and  C3_7 
REMARK    3  A    between atoms: C3_7  and  C5_9 
ROOT
HETATM    1  C3  UNL     1      36.608  -2.626  13.367  1.00  0.00     0.032 C 
HETATM    2  C4  UNL     1      36.663  -3.917  14.106  1.00  0.00     0.014 C 
ENDROOT
BRANCH   1   3
HETATM    3  C2  UNL     1      37.900  -1.817  13.530  1.00  0.00     0.184 C 
HETATM    4  C1  UNL     1      38.792  -2.599  14.455  1.00  0.00     0.040 C 
BRANCH   3   5
HETATM    5  N1  UNL     1      37.564  -0.573  14.209  1.00  0.00    -0.075 N 
ATOM      6  H13 UNL     1      37.210  -0.717  15.155  1.00  0.00     0.274 HD
ATOM      7  H12 UNL     1      38.383  -0.020  14.458  1.00  0.00     0.274 HD
ATOM      8  H11 UNL     1      36.910  -0.072  13.609  1.00  0.00     0.274 HD
ENDBRANCH   3   5
ENDBRANCH   1   3
BRANCH   1   9
HETATM    9  C5  UNL     1      36.287  -2.786  11.876  1.00  0.00     0.094 C 
HETATM   10  C6  UNL     1      37.419  -2.632  10.989  1.00  0.00     0.034 C 
HETATM   11  C7  UNL     1      37.531  -3.717   9.978  1.00  0.00     0.094 C 
HETATM   12  S1  UNL     1      36.586  -5.051  10.813  1.00  0.00    -0.066 SA
HETATM   13  N2  UNL     1      35.534  -3.967  11.721  1.00  0.00    -0.174 NA
ENDBRANCH   1   9
TORSDOF 3
ENDMDL
MODEL 2
REMARK VINA RESULT: -4.564009724      1.489      1.597
REMARK  3 active torsions:
REMARK  status: ('A' for Active; 'I' for Inactive)
REMARK    1  A    between atoms: C2_2  and  N1_3 
REMARK    2  A    between atoms: C2_2  and  C3_7 
REMARK    3  A    between atoms: C3_7  and  C5_9 
ROOT
HETATM    1  C3  UNL     1      36.836  -2.251  12.826  1.00  0.00     0.032 C 
HETATM    2  C4  UNL     1      35.755  -2.632  13.777  1.00  0.00     0.014 C 
ENDROOT
BRANCH   1   3
HETATM    3  C2  UNL     1      38.037  -1.626  13.545  1.00  0.00     0.184 C 
HETATM    4  C1  UNL     1      38.555  -2.657  14.510  1.00  0.00     0.040 C 
BRANCH   3   5
HETATM    5  N1  UNL     1      37.547  -0.505  14.336  1.00  0.00    -0.075 N 
ATOM      6  H13 UNL     1      36.550  -0.328  14.205  1.00  0.00     0.274 HD
ATOM      7  H12 UNL     1      37.513  -0.707  15.335  1.00  0.00     0.274 HD
ATOM      8  H11 UNL     1      38.130   0.300  14.110  1.00  0.00     0.274 HD
ENDBRANCH   3   5
ENDBRANCH   1   3
BRANCH   1   9
HETATM    9  C5  UNL     1      37.312  -3.411  11.943  1.00  0.00     0.094 C 
HETATM   10  C6  UNL     1      36.310  -4.416  11.665  1.00  0.00     0.034 C 
HETATM   11  C7  UNL     1      36.219  -4.777  10.225  1.00  0.00     0.094 C 
HETATM   12  S1  UNL     1      36.933  -3.272   9.456  1.00  0.00    -0.066 SA
HETATM   13  N2  UNL     1      37.967  -2.862  10.824  1.00  0.00    -0.174 NA
ENDBRANCH   1   9
TORSDOF 3
ENDMDL
MODEL 3
REMARK VINA RESULT: -4.440612593      1.739      1.919
REMARK  3 active torsions:
REMARK  status: ('A' for Active; 'I' for Inactive)
REMARK    1  A    between atoms: C2_2  and  N1_3 
REMARK    2  A    between atoms: C2_2  and  C3_7 
REMARK    3  A    between atoms: C3_7  and  C5_9 
ROOT
HETATM    1  C3  UNL     1      36.676  -2.318  12.999  1.00  0.00     0.032 C 
HETATM    2  C4  UNL     1      35.411  -2.781  13.634  1.00  0.00     0.014 C 
ENDROOT
BRANCH   1   3
HETATM    3  C2  UNL     1      37.669  -1.774  14.033  1.00  0.00     0.184 C 
HETATM    4  C1  UNL     1      38.335  -0.576  13.413  1.00  0.00     0.040 C 
BRANCH   3   5
HETATM    5  N1  UNL     1      38.701  -2.783  14.231  1.00  0.00    -0.075 N 
ATOM      6  H13 UNL     1      39.367  -2.536  14.965  1.00  0.00     0.274 HD
ATOM      7  H12 UNL     1      38.347  -3.638  14.659  1.00  0.00     0.274 HD
ATOM      8  H11 UNL     1      39.144  -2.941  13.327  1.00  0.00     0.274 HD
ENDBRANCH   3   5
ENDBRANCH   1   3
BRANCH   1   9
HETATM    9  C5  UNL     1      37.361  -3.390  12.144  1.00  0.00     0.094 C 
HETATM   10  C6  UNL     1      36.553  -4.557  11.867  1.00  0.00     0.034 C 
HETATM   11  C7  UNL     1      36.550  -4.948  10.432  1.00  0.00     0.094 C 
HETATM   12  S1  UNL     1      37.008  -3.352   9.649  1.00  0.00    -0.066 SA
HETATM   13  N2  UNL     1      37.932  -2.752  11.025  1.00  0.00    -0.174 NA
ENDBRANCH   1   9
TORSDOF 3
ENDMDL
MODEL 4
REMARK VINA RESULT: -4.136252362      1.952      4.058
REMARK  3 active torsions:
REMARK  status: ('A' for Active; 'I' for Inactive)
REMARK    1  A    between atoms: C2_2  and  N1_3 
REMARK    2  A    between atoms: C2_2  and  C3_7 
REMARK    3  A    between atoms: C3_7  and  C5_9 
ROOT
HETATM    1  C3  UNL     1      36.420  -3.243  11.064  1.00  0.00     0.032 C 
HETATM    2  C4  UNL     1      37.321  -2.719  10.001  1.00  0.00     0.014 C 
ENDROOT
BRANCH   1   3
HETATM    3  C2  UNL     1      36.596  -4.752  11.271  1.00  0.00     0.184 C 
HETATM    4  C1  UNL     1      37.300  -5.282  10.051  1.00  0.00     0.040 C 
BRANCH   3   5
HETATM    5  N1  UNL     1      35.270  -5.355  11.296  1.00  0.00    -0.075 N 
ATOM      6  H13 UNL     1      35.050  -5.801  12.187  1.00  0.00     0.274 HD
ATOM      7  H12 UNL     1      34.518  -4.666  11.305  1.00  0.00     0.274 HD
ATOM      8  H11 UNL     1      35.217  -5.995  10.504  1.00  0.00     0.274 HD
ENDBRANCH   3   5
ENDBRANCH   1   3
BRANCH   1   9
HETATM    9  C5  UNL     1      36.571  -2.520  12.407  1.00  0.00     0.094 C 
HETATM   10  C6  UNL     1      36.942  -3.368  13.518  1.00  0.00     0.034 C 
HETATM   11  C7  UNL     1      38.068  -2.828  14.325  1.00  0.00     0.094 C 
HETATM   12  S1  UNL     1      38.858  -1.716  13.096  1.00  0.00    -0.066 SA
HETATM   13  N2  UNL     1      37.378  -1.384  12.198  1.00  0.00    -0.174 NA
ENDBRANCH   1   9
TORSDOF 3
ENDMDL
MODEL 5
REMARK VINA RESULT: -4.089151121      2.298      3.818
REMARK  3 active torsions:
REMARK  status: ('A' for Active; 'I' for Inactive)
REMARK    1  A    between atoms: C2_2  and  N1_3 
REMARK    2  A    between atoms: C2_2  and  C3_7 
REMARK    3  A    between atoms: C3_7  and  C5_9 
ROOT
HETATM    1  C3  UNL     1      36.544  -3.697  11.818  1.00  0.00     0.032 C 
HETATM    2  C4  UNL     1      35.281  -3.973  12.557  1.00  0.00     0.014 C 
ENDROOT
BRANCH   1   3
HETATM    3  C2  UNL     1      36.376  -3.883  10.306  1.00  0.00     0.184 C 
HETATM    4  C1  UNL     1      37.230  -5.057   9.911  1.00  0.00     0.040 C 
BRANCH   3   5
HETATM    5  N1  UNL     1      36.931  -2.708   9.649  1.00  0.00    -0.075 N 
ATOM      6  H13 UNL     1      36.399  -1.857   9.833  1.00  0.00     0.274 HD
ATOM      7  H12 UNL     1      37.813  -2.401  10.058  1.00  0.00     0.274 HD
ATOM      8  H11 UNL     1      37.005  -2.926   8.656  1.00  0.00     0.274 HD
ENDBRANCH   3   5
ENDBRANCH   1   3
BRANCH   1   9
HETATM    9  C5  UNL     1      37.130  -2.309  12.103  1.00  0.00     0.094 C 
HETATM   10  C6  UNL     1      36.705  -1.712  13.350  1.00  0.00     0.034 C 
HETATM   11  C7  UNL     1      37.828  -1.166  14.158  1.00  0.00     0.094 C 
HETATM   12  S1  UNL     1      39.230  -2.144  13.487  1.00  0.00    -0.066 SA
HETATM   13  N2  UNL     1      38.521  -2.374  11.890  1.00  0.00    -0.174 NA
ENDBRANCH   1   9
TORSDOF 3
ENDMDL
