MODEL 1
REMARK VINA RESULT: -9.518122444      0.000      0.000
REMARK  1 active torsions:
REMARK  status: ('A' for Active; 'I' for Inactive)
REMARK       I    between atoms: N1_2  and  C3_4 
REMARK       I    between atoms: C3_4  and  N3_8 
REMARK    1  A    between atoms: N3_8  and  C4_10 
ROOT
HETATM    1  C4  UNL     1     -10.546   5.596   3.443  1.00  0.00     0.693 A 
HETATM    2  N4  UNL     1     -10.208   4.901   4.457  1.00  0.00    -0.221 N 
ATOM      3  H4  UNL     1     -10.072   5.406   5.332  1.00  0.00     0.178 HD
HETATM    4  C5  UNL     1     -10.002   3.489   4.496  1.00  0.00     0.180 A 
HETATM    5  C6  UNL     1     -10.221   2.848   3.189  1.00  0.00     0.005 A 
HETATM    6  C7  UNL     1     -10.589   3.537   2.046  1.00  0.00     0.058 A 
HETATM    7  C8  UNL     1     -10.753   2.800   0.919  1.00  0.00     0.031 A 
HETATM    8  C9  UNL     1     -10.578   1.458   0.866  1.00  0.00     0.016 A 
HETATM    9  C10 UNL     1     -10.202   0.713   2.012  1.00  0.00    -0.007 A 
HETATM   10  C11 UNL     1     -10.038   1.457   3.146  1.00  0.00     0.027 A 
HETATM   11  S1  UNL     1      -9.599   0.308   4.320  1.00  0.00    -0.088 SA
HETATM   12  C12 UNL     1      -9.630  -1.099   3.354  1.00  0.00     0.016 A 
HETATM   13  C13 UNL     1      -9.381  -2.463   3.603  1.00  0.00     0.020 A 
HETATM   14  C14 UNL     1      -9.489  -3.402   2.595  1.00  0.00     0.001 A 
HETATM   15  C15 UNL     1      -9.848  -2.913   1.369  1.00  0.00     0.001 A 
HETATM   16  C16 UNL     1     -10.093  -1.606   1.102  1.00  0.00     0.013 A 
HETATM   17  C17 UNL     1      -9.989  -0.627   2.124  1.00  0.00    -0.007 A 
HETATM   18  N5  UNL     1     -10.754   4.937   2.175  1.00  0.00    -0.191 N 
ATOM     19  H5  UNL     1     -11.023   5.489   1.361  1.00  0.00     0.184 HD
ENDROOT
BRANCH   1  20
HETATM   20  N3  UNL     1     -10.737   7.011   3.473  1.00  0.00    -0.023 N 
HETATM   21  C3  UNL     1      -9.620   7.864   3.707  1.00  0.00     0.687 C 
HETATM   22  N1  UNL     1      -9.724   9.255   3.496  1.00  0.00    -0.226 N 
HETATM   23  N2  UNL     1      -8.486   7.411   4.114  1.00  0.00    -0.234 N 
HETATM   24  C1  UNL     1      -9.073  10.163   4.403  1.00  0.00     0.168 C 
HETATM   25  C2  UNL     1     -10.483   9.740   2.369  1.00  0.00     0.168 C 
ATOM     26  H22 UNL     1      -7.686   8.021   4.281  1.00  0.00     0.174 HD
ATOM     27  H21 UNL     1      -8.411   6.405   4.267  1.00  0.00     0.174 HD
ATOM     28  H3  UNL     1     -11.666   7.408   3.328  1.00  0.00     0.203 HD
ENDBRANCH   1  20
TORSDOF 1
ENDMDL
MODEL 2
REMARK VINA RESULT: -9.095834803      1.501      2.349
REMARK  1 active torsions:
REMARK  status: ('A' for Active; 'I' for Inactive)
REMARK       I    between atoms: N1_2  and  C3_4 
REMARK       I    between atoms: C3_4  and  N3_8 
REMARK    1  A    between atoms: N3_8  and  C4_10 
ROOT
HETATM    1  C4  UNL     1     -11.090   5.375   3.285  1.00  0.00     0.693 A 
HETATM    2  N4  UNL     1     -11.393   5.102   2.077  1.00  0.00    -0.221 N 
ATOM      3  H4  UNL     1     -11.834   5.846   1.537  1.00  0.00     0.178 HD
HETATM    4  C5  UNL     1     -11.180   3.862   1.402  1.00  0.00     0.180 A 
HETATM    5  C6  UNL     1     -10.540   2.851   2.261  1.00  0.00     0.005 A 
HETATM    6  C7  UNL     1     -10.183   3.077   3.579  1.00  0.00     0.058 A 
HETATM    7  C8  UNL     1      -9.601   2.043   4.236  1.00  0.00     0.031 A 
HETATM    8  C9  UNL     1      -9.361   0.834   3.673  1.00  0.00     0.016 A 
HETATM    9  C10 UNL     1      -9.710   0.560   2.327  1.00  0.00    -0.007 A 
HETATM   10  C11 UNL     1     -10.296   1.603   1.668  1.00  0.00     0.027 A 
HETATM   11  S1  UNL     1     -10.591   0.981   0.113  1.00  0.00    -0.088 SA
HETATM   12  C12 UNL     1      -9.967  -0.594   0.323  1.00  0.00     0.016 A 
HETATM   13  C13 UNL     1      -9.847  -1.720  -0.515  1.00  0.00     0.020 A 
HETATM   14  C14 UNL     1      -9.281  -2.893  -0.054  1.00  0.00     0.001 A 
HETATM   15  C15 UNL     1      -8.858  -2.874   1.246  1.00  0.00     0.001 A 
HETATM   16  C16 UNL     1      -8.961  -1.805   2.075  1.00  0.00     0.013 A 
HETATM   17  C17 UNL     1      -9.538  -0.590   1.620  1.00  0.00    -0.007 A 
HETATM   18  N5  UNL     1     -10.463   4.363   4.101  1.00  0.00    -0.191 N 
ATOM     19  H5  UNL     1     -10.220   4.577   5.068  1.00  0.00     0.184 HD
ENDROOT
BRANCH   1  20
HETATM   20  N3  UNL     1     -11.332   6.641   3.902  1.00  0.00    -0.023 N 
HETATM   21  C3  UNL     1     -10.747   7.815   3.344  1.00  0.00     0.687 C 
HETATM   22  N1  UNL     1     -11.162   9.094   3.771  1.00  0.00    -0.226 N 
HETATM   23  N2  UNL     1      -9.831   7.761   2.441  1.00  0.00    -0.234 N 
HETATM   24  C1  UNL     1     -10.188  10.143   3.925  1.00  0.00     0.168 C 
HETATM   25  C2  UNL     1     -12.559   9.325   4.044  1.00  0.00     0.168 C 
ATOM     26  H22 UNL     1      -9.412   8.601   2.042  1.00  0.00     0.174 HD
ATOM     27  H21 UNL     1      -9.531   6.836   2.133  1.00  0.00     0.174 HD
ATOM     28  H3  UNL     1     -11.918   6.704   4.735  1.00  0.00     0.203 HD
ENDBRANCH   1  20
TORSDOF 1
ENDMDL
MODEL 3
REMARK VINA RESULT: -8.894369866      1.969      3.493
REMARK  1 active torsions:
REMARK  status: ('A' for Active; 'I' for Inactive)
REMARK       I    between atoms: N1_2  and  C3_4 
REMARK       I    between atoms: C3_4  and  N3_8 
REMARK    1  A    between atoms: N3_8  and  C4_10 
ROOT
HETATM    1  C4  UNL     1      -9.410   7.645   3.102  1.00  0.00     0.693 A 
HETATM    2  N4  UNL     1      -9.956   6.852   2.265  1.00  0.00    -0.221 N 
ATOM      3  H4  UNL     1     -10.389   7.280   1.447  1.00  0.00     0.178 HD
HETATM    4  C5  UNL     1     -10.024   5.429   2.354  1.00  0.00     0.180 A 
HETATM    5  C6  UNL     1      -9.374   4.905   3.566  1.00  0.00     0.005 A 
HETATM    6  C7  UNL     1      -8.762   5.703   4.518  1.00  0.00     0.058 A 
HETATM    7  C8  UNL     1      -8.207   5.067   5.579  1.00  0.00     0.031 A 
HETATM    8  C9  UNL     1      -8.226   3.722   5.743  1.00  0.00     0.016 A 
HETATM    9  C10 UNL     1      -8.841   2.867   4.794  1.00  0.00    -0.007 A 
HETATM   10  C11 UNL     1      -9.399   3.511   3.726  1.00  0.00     0.027 A 
HETATM   11  S1  UNL     1     -10.042   2.248   2.787  1.00  0.00    -0.088 SA
HETATM   12  C12 UNL     1      -9.594   0.922   3.765  1.00  0.00     0.016 A 
HETATM   13  C13 UNL     1      -9.769  -0.473   3.663  1.00  0.00     0.020 A 
HETATM   14  C14 UNL     1      -9.282  -1.323   4.637  1.00  0.00     0.001 A 
HETATM   15  C15 UNL     1      -8.635  -0.719   5.680  1.00  0.00     0.001 A 
HETATM   16  C16 UNL     1      -8.453   0.620   5.802  1.00  0.00     0.013 A 
HETATM   17  C17 UNL     1      -8.945   1.510   4.812  1.00  0.00    -0.007 A 
HETATM   18  N5  UNL     1      -8.781   7.099   4.281  1.00  0.00    -0.191 N 
ATOM     19  H5  UNL     1      -8.344   7.729   4.953  1.00  0.00     0.184 HD
ENDROOT
BRANCH   1  20
HETATM   20  N3  UNL     1      -9.377   9.065   2.952  1.00  0.00    -0.023 N 
HETATM   21  C3  UNL     1     -10.449   9.849   3.467  1.00  0.00     0.687 C 
HETATM   22  N1  UNL     1     -10.331  11.252   3.559  1.00  0.00    -0.226 N 
HETATM   23  N2  UNL     1     -11.554   9.321   3.864  1.00  0.00    -0.234 N 
HETATM   24  C1  UNL     1     -11.466  12.083   3.258  1.00  0.00     0.168 C 
HETATM   25  C2  UNL     1      -9.069  11.826   3.957  1.00  0.00     0.168 C 
ATOM     26  H22 UNL     1     -12.321   9.882   4.233  1.00  0.00     0.174 HD
ATOM     27  H21 UNL     1     -11.639   8.307   3.797  1.00  0.00     0.174 HD
ATOM     28  H3  UNL     1      -8.592   9.514   2.480  1.00  0.00     0.203 HD
ENDBRANCH   1  20
TORSDOF 1
ENDMDL
MODEL 4
REMARK VINA RESULT: -8.798554393      1.134      1.529
REMARK  1 active torsions:
REMARK  status: ('A' for Active; 'I' for Inactive)
REMARK       I    between atoms: N1_2  and  C3_4 
REMARK       I    between atoms: C3_4  and  N3_8 
REMARK    1  A    between atoms: N3_8  and  C4_10 
ROOT
HETATM    1  C4  UNL     1      -9.434   6.438   3.435  1.00  0.00     0.693 A 
HETATM    2  N4  UNL     1      -8.990   5.810   4.451  1.00  0.00    -0.221 N 
ATOM      3  H4  UNL     1      -8.614   6.377   5.210  1.00  0.00     0.178 HD
HETATM    4  C5  UNL     1      -8.962   4.394   4.636  1.00  0.00     0.180 A 
HETATM    5  C6  UNL     1      -9.524   3.661   3.489  1.00  0.00     0.005 A 
HETATM    6  C7  UNL     1     -10.024   4.275   2.354  1.00  0.00     0.058 A 
HETATM    7  C8  UNL     1     -10.508   3.459   1.385  1.00  0.00     0.031 A 
HETATM    8  C9  UNL     1     -10.521   2.108   1.477  1.00  0.00     0.016 A 
HETATM    9  C10 UNL     1     -10.019   1.437   2.621  1.00  0.00    -0.007 A 
HETATM   10  C11 UNL     1      -9.533   2.262   3.596  1.00  0.00     0.027 A 
HETATM   11  S1  UNL     1      -9.015   1.188   4.808  1.00  0.00    -0.088 SA
HETATM   12  C12 UNL     1      -9.423  -0.291   4.060  1.00  0.00     0.016 A 
HETATM   13  C13 UNL     1      -9.305  -1.644   4.436  1.00  0.00     0.020 A 
HETATM   14  C14 UNL     1      -9.735  -2.654   3.598  1.00  0.00     0.001 A 
HETATM   15  C15 UNL     1     -10.270  -2.248   2.407  1.00  0.00     0.001 A 
HETATM   16  C16 UNL     1     -10.395  -0.953   2.020  1.00  0.00     0.013 A 
HETATM   17  C17 UNL     1      -9.960   0.100   2.867  1.00  0.00    -0.007 A 
HETATM   18  N5  UNL     1      -9.979   5.691   2.326  1.00  0.00    -0.191 N 
ATOM     19  H5  UNL     1     -10.335   6.189   1.511  1.00  0.00     0.184 HD
ENDROOT
BRANCH   1  20
HETATM   20  N3  UNL     1      -9.433   7.862   3.313  1.00  0.00    -0.023 N 
HETATM   21  C3  UNL     1     -10.619   8.592   3.612  1.00  0.00     0.687 C 
HETATM   22  N1  UNL     1     -10.582   9.996   3.744  1.00  0.00    -0.226 N 
HETATM   23  N2  UNL     1     -11.757   8.012   3.772  1.00  0.00    -0.234 N 
HETATM   24  C1  UNL     1     -11.669  10.788   3.231  1.00  0.00     0.168 C 
HETATM   25  C2  UNL     1      -9.450  10.611   4.394  1.00  0.00     0.168 C 
ATOM     26  H22 UNL     1     -12.606   8.535   3.986  1.00  0.00     0.174 HD
ATOM     27  H21 UNL     1     -11.784   6.997   3.677  1.00  0.00     0.174 HD
ATOM     28  H3  UNL     1      -8.589   8.351   3.013  1.00  0.00     0.203 HD
ENDBRANCH   1  20
TORSDOF 1
ENDMDL
MODEL 5
REMARK VINA RESULT: -8.664474060      1.306      2.429
REMARK  1 active torsions:
REMARK  status: ('A' for Active; 'I' for Inactive)
REMARK       I    between atoms: N1_2  and  C3_4 
REMARK       I    between atoms: C3_4  and  N3_8 
REMARK    1  A    between atoms: N3_8  and  C4_10 
ROOT
HETATM    1  C4  UNL     1      -9.953   6.192   2.783  1.00  0.00     0.693 A 
HETATM    2  N4  UNL     1     -10.405   5.580   1.761  1.00  0.00    -0.221 N 
ATOM      3  H4  UNL     1     -10.742   6.160   0.993  1.00  0.00     0.178 HD
HETATM    4  C5  UNL     1     -10.490   4.167   1.578  1.00  0.00     0.180 A 
HETATM    5  C6  UNL     1      -9.981   3.414   2.737  1.00  0.00     0.005 A 
HETATM    6  C7  UNL     1      -9.476   4.010   3.880  1.00  0.00     0.058 A 
HETATM    7  C8  UNL     1      -9.045   3.177   4.860  1.00  0.00     0.031 A 
HETATM    8  C9  UNL     1      -9.089   1.826   4.770  1.00  0.00     0.016 A 
HETATM    9  C10 UNL     1      -9.598   1.174   3.619  1.00  0.00    -0.007 A 
HETATM   10  C11 UNL     1     -10.030   2.015   2.634  1.00  0.00     0.027 A 
HETATM   11  S1  UNL     1     -10.571   0.961   1.415  1.00  0.00    -0.088 SA
HETATM   12  C12 UNL     1     -10.241  -0.532   2.174  1.00  0.00     0.016 A 
HETATM   13  C13 UNL     1     -10.409  -1.880   1.800  1.00  0.00     0.020 A 
HETATM   14  C14 UNL     1     -10.038  -2.905   2.647  1.00  0.00     0.001 A 
HETATM   15  C15 UNL     1      -9.508  -2.518   3.848  1.00  0.00     0.001 A 
HETATM   16  C16 UNL     1      -9.335  -1.228   4.233  1.00  0.00     0.013 A 
HETATM   17  C17 UNL     1      -9.709  -0.161   3.376  1.00  0.00    -0.007 A 
HETATM   18  N5  UNL     1      -9.461   5.426   3.903  1.00  0.00    -0.191 N 
ATOM     19  H5  UNL     1      -9.099   5.911   4.723  1.00  0.00     0.184 HD
ENDROOT
BRANCH   1  20
HETATM   20  N3  UNL     1      -9.896   7.615   2.901  1.00  0.00    -0.023 N 
HETATM   21  C3  UNL     1     -10.938   8.303   3.588  1.00  0.00     0.687 C 
HETATM   22  N1  UNL     1     -10.790   9.661   3.938  1.00  0.00    -0.226 N 
HETATM   23  N2  UNL     1     -12.042   7.724   3.912  1.00  0.00    -0.234 N 
HETATM   24  C1  UNL     1     -11.918  10.550   3.833  1.00  0.00     0.168 C 
HETATM   25  C2  UNL     1      -9.507  10.133   4.397  1.00  0.00     0.168 C 
ATOM     26  H22 UNL     1     -12.787   8.217   4.404  1.00  0.00     0.174 HD
ATOM     27  H21 UNL     1     -12.148   6.743   3.659  1.00  0.00     0.174 HD
ATOM     28  H3  UNL     1      -9.116   8.134   2.498  1.00  0.00     0.203 HD
ENDBRANCH   1  20
TORSDOF 1
ENDMDL
