MODEL 1
REMARK VINA RESULT: -11.631102110      0.000      0.000
REMARK  0 active torsions:
REMARK  status: ('A' for Active; 'I' for Inactive)
ROOT
HETATM    1  N1  UNL     1      -7.985  -1.149   6.436  1.00  0.00    -0.191 NA
HETATM    2  C1  UNL     1      -8.519  -0.647   5.543  1.00  0.00     0.107 C 
HETATM    3  C2  UNL     1      -9.190  -0.044   4.412  1.00  0.00     0.137 A 
HETATM    4  C3  UNL     1      -9.445   1.356   4.429  1.00  0.00     0.086 A 
HETATM    5  N2  UNL     1      -9.002   1.996   5.576  1.00  0.00    -0.100 NA
HETATM    6  C4  UNL     1     -10.072   1.896   3.362  1.00  0.00     0.029 A 
HETATM    7  C5  UNL     1     -10.355   3.268   3.313  1.00  0.00    -0.011 A 
HETATM    8  C6  UNL     1      -9.984   4.049   4.366  1.00  0.00     0.013 A 
HETATM    9  C7  UNL     1     -10.265   5.432   4.324  1.00  0.00     0.001 A 
HETATM   10  C8  UNL     1     -10.892   5.963   3.254  1.00  0.00     0.001 A 
HETATM   11  C9  UNL     1     -11.270   5.160   2.179  1.00  0.00     0.013 A 
HETATM   12  C10 UNL     1     -11.014   3.821   2.185  1.00  0.00    -0.011 A 
HETATM   13  C11 UNL     1     -11.378   3.004   1.135  1.00  0.00     0.017 A 
HETATM   14  C12 UNL     1     -11.092   1.631   1.190  1.00  0.00     0.005 A 
HETATM   15  C13 UNL     1     -11.440   0.793   0.161  1.00  0.00     0.017 A 
HETATM   16  C14 UNL     1     -12.081   1.298  -0.948  1.00  0.00     0.033 A 
HETATM   17  C15 UNL     1     -12.371   2.646  -1.021  1.00  0.00     0.060 A 
HETATM   18  N3  UNL     1     -12.980   3.352  -1.988  1.00  0.00    -0.350 N 
ATOM     19  H3  UNL     1     -13.345   2.987  -2.868  1.00  0.00     0.166 HD
HETATM   20  C16 UNL     1     -13.018   4.600  -1.588  1.00  0.00     0.181 A 
HETATM   21  N4  UNL     1     -12.429   4.698  -0.351  1.00  0.00    -0.350 N 
ATOM     22  H4  UNL     1     -12.322   5.554   0.194  1.00  0.00     0.166 HD
HETATM   23  C17 UNL     1     -12.026   3.498   0.009  1.00  0.00     0.072 A 
HETATM   24  C18 UNL     1     -10.451   1.082   2.280  1.00  0.00     0.059 A 
HETATM   25  N5  UNL     1     -10.198  -0.223   2.296  1.00  0.00    -0.321 N 
ATOM     26  H5  UNL     1     -10.479  -0.802   1.505  1.00  0.00     0.169 HD
HETATM   27  C19 UNL     1      -9.570  -0.789   3.353  1.00  0.00     0.268 A 
HETATM   28  O1  UNL     1      -9.359  -2.022   3.310  1.00  0.00    -0.266 OA
ENDROOT
TORSDOF 0
ENDMDL
MODEL 2
REMARK VINA RESULT: -11.581179740      2.878      5.600
REMARK  0 active torsions:
REMARK  status: ('A' for Active; 'I' for Inactive)
ROOT
HETATM    1  N1  UNL     1      -9.118   7.955   4.032  1.00  0.00    -0.191 NA
HETATM    2  C1  UNL     1      -9.227   6.832   3.784  1.00  0.00     0.107 C 
HETATM    3  C2  UNL     1      -9.371   5.433   3.448  1.00  0.00     0.137 A 
HETATM    4  C3  UNL     1      -9.063   4.452   4.432  1.00  0.00     0.086 A 
HETATM    5  N2  UNL     1      -8.643   4.981   5.642  1.00  0.00    -0.100 NA
HETATM    6  C4  UNL     1      -9.206   3.152   4.095  1.00  0.00     0.029 A 
HETATM    7  C5  UNL     1      -8.919   2.134   5.015  1.00  0.00    -0.011 A 
HETATM    8  C6  UNL     1      -8.492   2.483   6.261  1.00  0.00     0.013 A 
HETATM    9  C7  UNL     1      -8.202   1.464   7.194  1.00  0.00     0.001 A 
HETATM   10  C8  UNL     1      -8.347   0.168   6.848  1.00  0.00     0.001 A 
HETATM   11  C9  UNL     1      -8.785  -0.184   5.572  1.00  0.00     0.013 A 
HETATM   12  C10 UNL     1      -9.075   0.774   4.645  1.00  0.00    -0.011 A 
HETATM   13  C11 UNL     1      -9.508   0.453   3.376  1.00  0.00     0.017 A 
HETATM   14  C12 UNL     1      -9.794   1.476   2.459  1.00  0.00     0.005 A 
HETATM   15  C13 UNL     1     -10.227   1.189   1.189  1.00  0.00     0.017 A 
HETATM   16  C14 UNL     1     -10.388  -0.122   0.800  1.00  0.00     0.033 A 
HETATM   17  C15 UNL     1     -10.112  -1.142   1.688  1.00  0.00     0.060 A 
HETATM   18  N3  UNL     1     -10.195  -2.474   1.532  1.00  0.00    -0.350 N 
ATOM     19  H3  UNL     1     -10.489  -2.970   0.690  1.00  0.00     0.166 HD
HETATM   20  C16 UNL     1      -9.826  -3.017   2.667  1.00  0.00     0.181 A 
HETATM   21  N4  UNL     1      -9.502  -2.026   3.561  1.00  0.00    -0.350 N 
ATOM     22  H4  UNL     1      -9.183  -2.167   4.519  1.00  0.00     0.166 HD
HETATM   23  C17 UNL     1      -9.675  -0.865   2.967  1.00  0.00     0.072 A 
HETATM   24  C18 UNL     1      -9.647   2.802   2.806  1.00  0.00     0.059 A 
HETATM   25  N5  UNL     1      -9.927   3.743   1.909  1.00  0.00    -0.321 N 
ATOM     26  H5  UNL     1     -10.245   3.476   0.978  1.00  0.00     0.169 HD
HETATM   27  C19 UNL     1      -9.792   5.053   2.223  1.00  0.00     0.268 A 
HETATM   28  O1  UNL     1     -10.071   5.893   1.337  1.00  0.00    -0.266 OA
ENDROOT
TORSDOF 0
ENDMDL
MODEL 3
REMARK VINA RESULT: -11.294355559      2.030      4.475
REMARK  0 active torsions:
REMARK  status: ('A' for Active; 'I' for Inactive)
ROOT
HETATM    1  N1  UNL     1      -9.760  -3.249   3.666  1.00  0.00    -0.191 NA
HETATM    2  C1  UNL     1      -9.659  -2.100   3.723  1.00  0.00     0.107 C 
HETATM    3  C2  UNL     1      -9.515  -0.664   3.817  1.00  0.00     0.137 A 
HETATM    4  C3  UNL     1     -10.183   0.159   2.868  1.00  0.00     0.086 A 
HETATM    5  N2  UNL     1     -10.921  -0.546   1.930  1.00  0.00    -0.100 NA
HETATM    6  C4  UNL     1     -10.034   1.497   2.976  1.00  0.00     0.029 A 
HETATM    7  C5  UNL     1     -10.664   2.366   2.075  1.00  0.00    -0.011 A 
HETATM    8  C6  UNL     1     -11.433   1.834   1.084  1.00  0.00     0.013 A 
HETATM    9  C7  UNL     1     -12.071   2.703   0.173  1.00  0.00     0.001 A 
HETATM   10  C8  UNL     1     -11.916   4.038   0.288  1.00  0.00     0.001 A 
HETATM   11  C9  UNL     1     -11.129   4.578   1.304  1.00  0.00     0.013 A 
HETATM   12  C10 UNL     1     -10.497   3.770   2.202  1.00  0.00    -0.011 A 
HETATM   13  C11 UNL     1      -9.712   4.278   3.215  1.00  0.00     0.017 A 
HETATM   14  C12 UNL     1      -9.084   3.402   4.115  1.00  0.00     0.005 A 
HETATM   15  C13 UNL     1      -8.297   3.878   5.134  1.00  0.00     0.017 A 
HETATM   16  C14 UNL     1      -8.115   5.234   5.284  1.00  0.00     0.033 A 
HETATM   17  C15 UNL     1      -8.725   6.111   4.409  1.00  0.00     0.060 A 
HETATM   18  N3  UNL     1      -8.692   7.454   4.362  1.00  0.00    -0.350 N 
ATOM     19  H3  UNL     1      -8.186   8.071   4.997  1.00  0.00     0.166 HD
HETATM   20  C16 UNL     1      -9.434   7.821   3.346  1.00  0.00     0.181 A 
HETATM   21  N4  UNL     1      -9.949   6.705   2.732  1.00  0.00    -0.350 N 
ATOM     22  H4  UNL     1     -10.561   6.700   1.916  1.00  0.00     0.166 HD
HETATM   23  C17 UNL     1      -9.518   5.644   3.381  1.00  0.00     0.072 A 
HETATM   24  C18 UNL     1      -9.239   2.037   4.002  1.00  0.00     0.059 A 
HETATM   25  N5  UNL     1      -8.627   1.240   4.874  1.00  0.00    -0.321 N 
ATOM     26  H5  UNL     1      -8.052   1.645   5.612  1.00  0.00     0.169 HD
HETATM   27  C19 UNL     1      -8.761  -0.103   4.787  1.00  0.00     0.268 A 
HETATM   28  O1  UNL     1      -8.161  -0.802   5.635  1.00  0.00    -0.266 OA
ENDROOT
TORSDOF 0
ENDMDL
MODEL 4
REMARK VINA RESULT: -10.744844024      2.441      5.830
REMARK  0 active torsions:
REMARK  status: ('A' for Active; 'I' for Inactive)
ROOT
HETATM    1  N1  UNL     1      -9.038   8.086   4.005  1.00  0.00    -0.191 NA
HETATM    2  C1  UNL     1      -9.111   6.934   3.962  1.00  0.00     0.107 C 
HETATM    3  C2  UNL     1      -9.187   5.490   3.932  1.00  0.00     0.137 A 
HETATM    4  C3  UNL     1      -9.887   4.859   2.865  1.00  0.00     0.086 A 
HETATM    5  N2  UNL     1     -10.433   5.743   1.948  1.00  0.00    -0.100 NA
HETATM    6  C4  UNL     1      -9.945   3.510   2.859  1.00  0.00     0.029 A 
HETATM    7  C5  UNL     1     -10.619   2.824   1.838  1.00  0.00    -0.011 A 
HETATM    8  C6  UNL     1     -11.215   3.546   0.850  1.00  0.00     0.013 A 
HETATM    9  C7  UNL     1     -11.895   2.862  -0.181  1.00  0.00     0.001 A 
HETATM   10  C8  UNL     1     -11.948   1.514  -0.180  1.00  0.00     0.001 A 
HETATM   11  C9  UNL     1     -11.335   0.779   0.834  1.00  0.00     0.013 A 
HETATM   12  C10 UNL     1     -10.670   1.406   1.846  1.00  0.00    -0.011 A 
HETATM   13  C11 UNL     1     -10.056   0.702   2.861  1.00  0.00     0.017 A 
HETATM   14  C12 UNL     1      -9.383   1.395   3.879  1.00  0.00     0.005 A 
HETATM   15  C13 UNL     1      -8.763   0.723   4.902  1.00  0.00     0.017 A 
HETATM   16  C14 UNL     1      -8.795  -0.653   4.938  1.00  0.00     0.033 A 
HETATM   17  C15 UNL     1      -9.451  -1.352   3.945  1.00  0.00     0.060 A 
HETATM   18  N3  UNL     1      -9.611  -2.675   3.775  1.00  0.00    -0.350 N 
ATOM     19  H3  UNL     1      -9.255  -3.412   4.384  1.00  0.00     0.166 HD
HETATM   20  C16 UNL     1     -10.311  -2.840   2.679  1.00  0.00     0.181 A 
HETATM   21  N4  UNL     1     -10.605  -1.613   2.139  1.00  0.00    -0.350 N 
ATOM     22  H4  UNL     1     -11.139  -1.448   1.285  1.00  0.00     0.166 HD
HETATM   23  C17 UNL     1     -10.079  -0.686   2.912  1.00  0.00     0.072 A 
HETATM   24  C18 UNL     1      -9.326   2.772   3.883  1.00  0.00     0.059 A 
HETATM   25  N5  UNL     1      -8.679   3.393   4.866  1.00  0.00    -0.321 N 
ATOM     26  H5  UNL     1      -8.236   2.846   5.604  1.00  0.00     0.169 HD
HETATM   27  C19 UNL     1      -8.607   4.743   4.895  1.00  0.00     0.268 A 
HETATM   28  O1  UNL     1      -7.984   5.271   5.845  1.00  0.00    -0.266 OA
ENDROOT
TORSDOF 0
ENDMDL
MODEL 5
REMARK VINA RESULT: -10.386172508      2.019      3.820
REMARK  0 active torsions:
REMARK  status: ('A' for Active; 'I' for Inactive)
ROOT
HETATM    1  N1  UNL     1      -7.519   1.859   7.615  1.00  0.00    -0.191 NA
HETATM    2  C1  UNL     1      -8.113   2.106   6.655  1.00  0.00     0.107 C 
HETATM    3  C2  UNL     1      -8.861   2.441   5.464  1.00  0.00     0.137 A 
HETATM    4  C3  UNL     1      -8.990   1.467   4.434  1.00  0.00     0.086 A 
HETATM    5  N2  UNL     1      -8.355   0.267   4.711  1.00  0.00    -0.100 NA
HETATM    6  C4  UNL     1      -9.693   1.803   3.332  1.00  0.00     0.029 A 
HETATM    7  C5  UNL     1      -9.859   0.893   2.278  1.00  0.00    -0.011 A 
HETATM    8  C6  UNL     1      -9.295  -0.342   2.389  1.00  0.00     0.013 A 
HETATM    9  C7  UNL     1      -9.458  -1.265   1.333  1.00  0.00     0.001 A 
HETATM   10  C8  UNL     1     -10.162  -0.921   0.235  1.00  0.00     0.001 A 
HETATM   11  C9  UNL     1     -10.737   0.344   0.127  1.00  0.00     0.013 A 
HETATM   12  C10 UNL     1     -10.601   1.261   1.127  1.00  0.00    -0.011 A 
HETATM   13  C11 UNL     1     -11.159   2.519   1.044  1.00  0.00     0.017 A 
HETATM   14  C12 UNL     1     -10.990   3.427   2.102  1.00  0.00     0.005 A 
HETATM   15  C13 UNL     1     -11.534   4.686   2.049  1.00  0.00     0.017 A 
HETATM   16  C14 UNL     1     -12.259   5.074   0.945  1.00  0.00     0.033 A 
HETATM   17  C15 UNL     1     -12.437   4.195  -0.105  1.00  0.00     0.060 A 
HETATM   18  N3  UNL     1     -13.096   4.351  -1.266  1.00  0.00    -0.350 N 
ATOM     19  H3  UNL     1     -13.596   5.186  -1.572  1.00  0.00     0.166 HD
HETATM   20  C16 UNL     1     -12.976   3.228  -1.930  1.00  0.00     0.181 A 
HETATM   21  N4  UNL     1     -12.232   2.340  -1.192  1.00  0.00    -0.350 N 
ATOM     22  H4  UNL     1     -11.985   1.391  -1.470  1.00  0.00     0.166 HD
HETATM   23  C17 UNL     1     -11.894   2.927  -0.063  1.00  0.00     0.072 A 
HETATM   24  C18 UNL     1     -10.272   3.081   3.226  1.00  0.00     0.059 A 
HETATM   25  N5  UNL     1     -10.133   3.968   4.207  1.00  0.00    -0.321 N 
ATOM     26  H5  UNL     1     -10.556   4.892   4.117  1.00  0.00     0.169 HD
HETATM   27  C19 UNL     1      -9.433   3.656   5.322  1.00  0.00     0.268 A 
HETATM   28  O1  UNL     1      -9.337   4.532   6.211  1.00  0.00    -0.266 OA
ENDROOT
TORSDOF 0
ENDMDL
