MODEL 1
REMARK VINA RESULT: -10.879533816      0.000      0.000
REMARK  1 active torsions:
REMARK  status: ('A' for Active; 'I' for Inactive)
REMARK    1  A    between atoms: N1_1  and  C1_4 
ROOT
HETATM    1  C1  UNL     1      -9.598   3.967   4.701  1.00  0.00     0.113 A 
HETATM    2  N2  UNL     1      -9.110   4.645   5.787  1.00  0.00    -0.338 N 
ATOM      3  H2  UNL     1      -9.268   5.653   5.816  1.00  0.00     0.168 HD
HETATM    4  C2  UNL     1      -8.457   4.111   6.793  1.00  0.00     0.182 A 
HETATM    5  N3  UNL     1      -8.265   2.797   6.728  1.00  0.00    -0.346 N 
ATOM      6  H3  UNL     1      -7.765   2.324   7.481  1.00  0.00     0.167 HD
HETATM    7  C3  UNL     1      -8.728   2.076   5.672  1.00  0.00     0.090 A 
HETATM    8  S1  UNL     1      -8.611   0.408   5.364  1.00  0.00    -0.065 SA
HETATM    9  C4  UNL     1      -9.431   0.364   3.880  1.00  0.00     0.087 A 
HETATM   10  C5  UNL     1      -9.720  -0.702   3.029  1.00  0.00     0.265 A 
HETATM   11  O1  UNL     1      -9.309  -1.832   3.413  1.00  0.00    -0.267 OA
HETATM   12  N4  UNL     1     -10.383  -0.517   1.898  1.00  0.00    -0.308 N 
ATOM     13  H4  UNL     1     -10.601  -1.288   1.267  1.00  0.00     0.170 HD
HETATM   14  C6  UNL     1     -10.750   0.742   1.629  1.00  0.00     0.119 A 
HETATM   15  N5  UNL     1     -11.430   0.848   0.444  1.00  0.00    -0.341 N 
ATOM     16  H5  UNL     1     -11.586  -0.001  -0.099  1.00  0.00     0.167 HD
HETATM   17  C7  UNL     1     -11.899   2.002  -0.038  1.00  0.00     0.044 A 
HETATM   18  C8  UNL     1     -12.577   2.057  -1.237  1.00  0.00     0.030 A 
HETATM   19  C9  UNL     1     -13.031   3.272  -1.673  1.00  0.00     0.002 A 
HETATM   20  C10 UNL     1     -12.806   4.401  -0.917  1.00  0.00     0.001 A 
HETATM   21  C11 UNL     1     -12.126   4.328   0.280  1.00  0.00     0.014 A 
HETATM   22  C12 UNL     1     -11.669   3.125   0.724  1.00  0.00    -0.009 A 
HETATM   23  C13 UNL     1     -10.972   3.012   1.939  1.00  0.00     0.030 A 
HETATM   24  C14 UNL     1     -10.495   1.847   2.432  1.00  0.00     0.022 A 
HETATM   25  C15 UNL     1      -9.795   1.683   3.636  1.00  0.00     0.017 A 
HETATM   26  C16 UNL     1      -9.424   2.590   4.585  1.00  0.00     0.054 A 
ENDROOT
BRANCH   1  27
HETATM   27  N1  UNL     1     -10.173   4.738   3.911  1.00  0.00    -0.385 N 
ATOM     28  H12 UNL     1     -11.175   4.837   3.745  1.00  0.00     0.157 HD
ATOM     29  H11 UNL     1      -9.501   5.311   3.401  1.00  0.00     0.157 HD
ENDBRANCH   1  27
TORSDOF 1
ENDMDL
MODEL 2
REMARK VINA RESULT: -10.394074921      3.001      4.780
REMARK  1 active torsions:
REMARK  status: ('A' for Active; 'I' for Inactive)
REMARK    1  A    between atoms: N1_1  and  C1_4 
ROOT
HETATM    1  C1  UNL     1      -9.851   4.047   2.511  1.00  0.00     0.113 A 
HETATM    2  N2  UNL     1     -10.028   5.314   2.020  1.00  0.00    -0.338 N 
ATOM      3  H2  UNL     1     -10.367   5.399   1.061  1.00  0.00     0.168 HD
HETATM    4  C2  UNL     1      -9.798   6.429   2.675  1.00  0.00     0.182 A 
HETATM    5  N3  UNL     1      -9.357   6.288   3.921  1.00  0.00    -0.346 N 
ATOM      6  H3  UNL     1      -9.160   7.118   4.482  1.00  0.00     0.167 HD
HETATM    7  C3  UNL     1      -9.164   5.053   4.458  1.00  0.00     0.090 A 
HETATM    8  S1  UNL     1      -8.614   4.619   6.007  1.00  0.00    -0.065 SA
HETATM    9  C4  UNL     1      -8.672   2.933   5.836  1.00  0.00     0.087 A 
HETATM   10  C5  UNL     1      -8.353   1.913   6.732  1.00  0.00     0.265 A 
HETATM   11  O1  UNL     1      -7.951   2.292   7.867  1.00  0.00    -0.267 OA
HETATM   12  N4  UNL     1      -8.471   0.639   6.392  1.00  0.00    -0.308 N 
ATOM     13  H4  UNL     1      -8.241  -0.115   7.038  1.00  0.00     0.170 HD
HETATM   14  C6  UNL     1      -8.910   0.398   5.150  1.00  0.00     0.119 A 
HETATM   15  N5  UNL     1      -9.005  -0.941   4.879  1.00  0.00    -0.341 N 
ATOM     16  H5  UNL     1      -8.745  -1.601   5.612  1.00  0.00     0.167 HD
HETATM   17  C7  UNL     1      -9.419  -1.430   3.706  1.00  0.00     0.044 A 
HETATM   18  C8  UNL     1      -9.497  -2.788   3.482  1.00  0.00     0.030 A 
HETATM   19  C9  UNL     1      -9.930  -3.221   2.258  1.00  0.00     0.002 A 
HETATM   20  C10 UNL     1     -10.275  -2.306   1.288  1.00  0.00     0.001 A 
HETATM   21  C11 UNL     1     -10.192  -0.951   1.530  1.00  0.00     0.014 A 
HETATM   22  C12 UNL     1      -9.762  -0.508   2.744  1.00  0.00    -0.009 A 
HETATM   23  C13 UNL     1      -9.664   0.865   3.027  1.00  0.00     0.030 A 
HETATM   24  C14 UNL     1      -9.246   1.365   4.210  1.00  0.00     0.022 A 
HETATM   25  C15 UNL     1      -9.130   2.723   4.540  1.00  0.00     0.017 A 
HETATM   26  C16 UNL     1      -9.391   3.845   3.810  1.00  0.00     0.054 A 
ENDROOT
BRANCH   1  27
HETATM   27  N1  UNL     1     -10.152   3.189   1.661  1.00  0.00    -0.385 N 
ATOM     28  H12 UNL     1     -10.998   3.136   1.092  1.00  0.00     0.157 HD
ATOM     29  H11 UNL     1      -9.419   2.485   1.574  1.00  0.00     0.157 HD
ENDBRANCH   1  27
TORSDOF 1
ENDMDL
MODEL 3
REMARK VINA RESULT: -10.175353816      2.564      5.101
REMARK  1 active torsions:
REMARK  status: ('A' for Active; 'I' for Inactive)
REMARK    1  A    between atoms: N1_1  and  C1_4 
ROOT
HETATM    1  C1  UNL     1     -10.105   1.152   2.182  1.00  0.00     0.113 A 
HETATM    2  N2  UNL     1     -10.449  -0.018   1.556  1.00  0.00    -0.338 N 
ATOM      3  H2  UNL     1     -10.870   0.056   0.630  1.00  0.00     0.168 HD
HETATM    4  C2  UNL     1     -10.282  -1.225   2.044  1.00  0.00     0.182 A 
HETATM    5  N3  UNL     1      -9.731  -1.291   3.252  1.00  0.00    -0.346 N 
ATOM      6  H3  UNL     1      -9.575  -2.202   3.685  1.00  0.00     0.167 HD
HETATM    7  C3  UNL     1      -9.372  -0.160   3.919  1.00  0.00     0.090 A 
HETATM    8  S1  UNL     1      -8.660   0.013   5.452  1.00  0.00    -0.065 SA
HETATM    9  C4  UNL     1      -8.559   1.706   5.497  1.00  0.00     0.087 A 
HETATM   10  C5  UNL     1      -8.067   2.565   6.479  1.00  0.00     0.265 A 
HETATM   11  O1  UNL     1      -7.618   2.004   7.517  1.00  0.00    -0.267 OA
HETATM   12  N4  UNL     1      -8.081   3.878   6.311  1.00  0.00    -0.308 N 
ATOM     13  H4  UNL     1      -7.725   4.517   7.022  1.00  0.00     0.170 HD
HETATM   14  C6  UNL     1      -8.591   4.320   5.155  1.00  0.00     0.119 A 
HETATM   15  N5  UNL     1      -8.568   5.686   5.060  1.00  0.00    -0.341 N 
ATOM     16  H5  UNL     1      -8.184   6.217   5.841  1.00  0.00     0.167 HD
HETATM   17  C7  UNL     1      -9.022   6.361   4.000  1.00  0.00     0.044 A 
HETATM   18  C8  UNL     1      -8.977   7.738   3.953  1.00  0.00     0.030 A 
HETATM   19  C9  UNL     1      -9.459   8.367   2.837  1.00  0.00     0.002 A 
HETATM   20  C10 UNL     1      -9.971   7.622   1.796  1.00  0.00     0.001 A 
HETATM   21  C11 UNL     1     -10.008   6.246   1.861  1.00  0.00     0.014 A 
HETATM   22  C12 UNL     1      -9.532   5.609   2.966  1.00  0.00    -0.009 A 
HETATM   23  C13 UNL     1      -9.553   4.208   3.067  1.00  0.00     0.030 A 
HETATM   24  C14 UNL     1      -9.095   3.520   4.137  1.00  0.00     0.022 A 
HETATM   25  C15 UNL     1      -9.095   2.125   4.284  1.00  0.00     0.017 A 
HETATM   26  C16 UNL     1      -9.525   1.138   3.448  1.00  0.00     0.054 A 
ENDROOT
BRANCH   1  27
HETATM   27  N1  UNL     1     -10.381   2.139   1.475  1.00  0.00    -0.385 N 
ATOM     28  H12 UNL     1     -10.914   2.160   0.605  1.00  0.00     0.157 HD
ATOM     29  H11 UNL     1      -9.998   2.996   1.873  1.00  0.00     0.157 HD
ENDBRANCH   1  27
TORSDOF 1
ENDMDL
MODEL 4
REMARK VINA RESULT: -10.102478191      2.927      3.928
REMARK  1 active torsions:
REMARK  status: ('A' for Active; 'I' for Inactive)
REMARK    1  A    between atoms: N1_1  and  C1_4 
ROOT
HETATM    1  C1  UNL     1      -9.097   4.221   2.989  1.00  0.00     0.113 A 
HETATM    2  N2  UNL     1      -9.030   5.589   2.938  1.00  0.00    -0.338 N 
ATOM      3  H2  UNL     1      -9.130   6.026   2.022  1.00  0.00     0.168 HD
HETATM    4  C2  UNL     1      -8.848   6.386   3.966  1.00  0.00     0.182 A 
HETATM    5  N3  UNL     1      -8.721   5.790   5.147  1.00  0.00    -0.346 N 
ATOM      6  H3  UNL     1      -8.578   6.356   5.984  1.00  0.00     0.167 HD
HETATM    7  C3  UNL     1      -8.779   4.434   5.254  1.00  0.00     0.090 A 
HETATM    8  S1  UNL     1      -8.646   3.451   6.634  1.00  0.00    -0.065 SA
HETATM    9  C4  UNL     1      -8.829   1.938   5.888  1.00  0.00     0.087 A 
HETATM   10  C5  UNL     1      -8.826   0.651   6.423  1.00  0.00     0.265 A 
HETATM   11  O1  UNL     1      -8.661   0.581   7.672  1.00  0.00    -0.267 OA
HETATM   12  N4  UNL     1      -8.988  -0.413   5.651  1.00  0.00    -0.308 N 
ATOM     13  H4  UNL     1      -8.988  -1.360   6.031  1.00  0.00     0.170 HD
HETATM   14  C6  UNL     1      -9.152  -0.175   4.344  1.00  0.00     0.119 A 
HETATM   15  N5  UNL     1      -9.313  -1.325   3.619  1.00  0.00    -0.341 N 
ATOM     16  H5  UNL     1      -9.295  -2.215   4.116  1.00  0.00     0.167 HD
HETATM   17  C7  UNL     1      -9.493  -1.344   2.295  1.00  0.00     0.044 A 
HETATM   18  C8  UNL     1      -9.651  -2.529   1.608  1.00  0.00     0.030 A 
HETATM   19  C9  UNL     1      -9.831  -2.477   0.253  1.00  0.00     0.002 A 
HETATM   20  C10 UNL     1      -9.852  -1.259  -0.391  1.00  0.00     0.001 A 
HETATM   21  C11 UNL     1      -9.693  -0.084   0.311  1.00  0.00     0.014 A 
HETATM   22  C12 UNL     1      -9.512  -0.123   1.660  1.00  0.00    -0.009 A 
HETATM   23  C13 UNL     1      -9.347   1.055   2.409  1.00  0.00     0.030 A 
HETATM   24  C14 UNL     1      -9.165   1.080   3.748  1.00  0.00     0.022 A 
HETATM   25  C15 UNL     1      -8.995   2.226   4.538  1.00  0.00     0.017 A 
HETATM   26  C16 UNL     1      -8.970   3.548   4.202  1.00  0.00     0.054 A 
ENDROOT
BRANCH   1  27
HETATM   27  N1  UNL     1      -9.277   3.737   1.857  1.00  0.00    -0.385 N 
ATOM     28  H12 UNL     1     -10.029   3.941   1.198  1.00  0.00     0.157 HD
ATOM     29  H11 UNL     1      -8.548   3.063   1.625  1.00  0.00     0.157 HD
ENDBRANCH   1  27
TORSDOF 1
ENDMDL
MODEL 5
REMARK VINA RESULT: -9.865891994      2.234      3.727
REMARK  1 active torsions:
REMARK  status: ('A' for Active; 'I' for Inactive)
REMARK    1  A    between atoms: N1_1  and  C1_4 
ROOT
HETATM    1  C1  UNL     1      -9.495   0.211   4.074  1.00  0.00     0.113 A 
HETATM    2  N2  UNL     1      -9.018  -0.850   4.799  1.00  0.00    -0.338 N 
ATOM      3  H2  UNL     1      -9.205  -1.784   4.435  1.00  0.00     0.168 HD
HETATM    4  C2  UNL     1      -8.341  -0.767   5.922  1.00  0.00     0.182 A 
HETATM    5  N3  UNL     1      -8.113   0.462   6.372  1.00  0.00    -0.346 N 
ATOM      6  H3  UNL     1      -7.591   0.591   7.240  1.00  0.00     0.167 HD
HETATM    7  C3  UNL     1      -8.565   1.550   5.692  1.00  0.00     0.090 A 
HETATM    8  S1  UNL     1      -8.402   3.202   6.059  1.00  0.00    -0.065 SA
HETATM    9  C4  UNL     1      -9.232   3.843   4.726  1.00  0.00     0.087 A 
HETATM   10  C5  UNL     1      -9.497   5.164   4.366  1.00  0.00     0.265 A 
HETATM   11  O1  UNL     1      -9.052   6.043   5.154  1.00  0.00    -0.267 OA
HETATM   12  N4  UNL     1     -10.174   5.451   3.264  1.00  0.00    -0.308 N 
ATOM     13  H4  UNL     1     -10.375   6.413   2.990  1.00  0.00     0.170 HD
HETATM   14  C6  UNL     1     -10.581   4.407   2.532  1.00  0.00     0.119 A 
HETATM   15  N5  UNL     1     -11.271   4.790   1.413  1.00  0.00    -0.341 N 
ATOM     16  H5  UNL     1     -11.406   5.787   1.247  1.00  0.00     0.167 HD
HETATM   17  C7  UNL     1     -11.777   3.928   0.526  1.00  0.00     0.044 A 
HETATM   18  C8  UNL     1     -12.465   4.363  -0.586  1.00  0.00     0.030 A 
HETATM   19  C9  UNL     1     -12.957   3.427  -1.455  1.00  0.00     0.002 A 
HETATM   20  C10 UNL     1     -12.757   2.086  -1.205  1.00  0.00     0.001 A 
HETATM   21  C11 UNL     1     -12.066   1.669  -0.088  1.00  0.00     0.014 A 
HETATM   22  C12 UNL     1     -11.573   2.591   0.784  1.00  0.00    -0.009 A 
HETATM   23  C13 UNL     1     -10.863   2.203   1.933  1.00  0.00     0.030 A 
HETATM   24  C14 UNL     1     -10.349   3.070   2.833  1.00  0.00     0.022 A 
HETATM   25  C15 UNL     1      -9.636   2.733   3.992  1.00  0.00     0.017 A 
HETATM   26  C16 UNL     1      -9.283   1.519   4.503  1.00  0.00     0.054 A 
ENDROOT
BRANCH   1  27
HETATM   27  N1  UNL     1     -10.097  -0.175   3.056  1.00  0.00    -0.385 N 
ATOM     28  H12 UNL     1      -9.723  -0.303   2.115  1.00  0.00     0.157 HD
ATOM     29  H11 UNL     1     -11.077  -0.369   3.259  1.00  0.00     0.157 HD
ENDBRANCH   1  27
TORSDOF 1
ENDMDL
