MODEL 1
REMARK VINA RESULT: -10.183270980      0.000      0.000
REMARK  2 active torsions:
REMARK  status: ('A' for Active; 'I' for Inactive)
REMARK    1  A    between atoms: C7_11  and  N3_12 
REMARK    2  A    between atoms: N3_12  and  C8_14 
ROOT
HETATM    1  N3  UNL     1     -11.528   2.485   2.856  1.00  0.00    -0.173 N 
ATOM      2  H3  UNL     1     -12.504   2.434   3.147  1.00  0.00     0.186 HD
ENDROOT
BRANCH   1   3
HETATM    3  C7  UNL     1     -11.004   1.554   1.929  1.00  0.00     0.699 A 
HETATM    4  N2  UNL     1     -10.861   1.834   0.675  1.00  0.00    -0.131 N 
HETATM    5  N1  UNL     1     -10.340   0.894  -0.221  1.00  0.00    -0.284 N 
ATOM      6  H2  UNL     1     -11.133   2.756   0.333  1.00  0.00     0.205 HD
HETATM    7  C5  UNL     1      -9.941  -0.417   0.199  1.00  0.00     0.075 A 
ATOM      8  H1  UNL     1     -10.242   1.150  -1.203  1.00  0.00     0.187 HD
HETATM    9  C4  UNL     1     -10.088  -0.724   1.521  1.00  0.00     0.077 A 
HETATM   10  C6  UNL     1      -9.426  -1.348  -0.685  1.00  0.00     0.033 A 
HETATM   11  C3  UNL     1      -9.712  -1.989   1.978  1.00  0.00     0.032 A 
HETATM   12  N6  UNL     1     -10.623   0.266   2.393  1.00  0.00    -0.188 N 
HETATM   13  C2  UNL     1      -9.197  -2.927   1.105  1.00  0.00     0.002 A 
HETATM   14  C1  UNL     1      -9.053  -2.607  -0.229  1.00  0.00     0.002 A 
ATOM     15  H6  UNL     1     -10.736   0.043   3.382  1.00  0.00     0.184 HD
ENDBRANCH   1   3
BRANCH   1  16
HETATM   16  C8  UNL     1     -10.752   3.400   3.325  1.00  0.00     0.149 A 
HETATM   17  N4  UNL     1     -10.875   4.713   3.041  1.00  0.00    -0.283 N 
HETATM   18  N5  UNL     1      -9.935   5.379   3.674  1.00  0.00    -0.291 N 
ATOM     19  H4  UNL     1     -11.583   5.122   2.432  1.00  0.00     0.188 HD
HETATM   20  C9  UNL     1      -9.189   4.470   4.381  1.00  0.00     0.104 A 
ATOM     21  H5  UNL     1      -9.787   6.388   3.645  1.00  0.00     0.187 HD
HETATM   22  S1  UNL     1      -7.868   4.256   5.435  1.00  0.00    -0.070 SA
HETATM   23  C16 UNL     1      -9.657   3.210   4.200  1.00  0.00     0.057 A 
HETATM   24  C10 UNL     1      -7.940   2.559   5.624  1.00  0.00     0.018 A 
HETATM   25  C11 UNL     1      -7.185   1.614   6.343  1.00  0.00     0.020 A 
HETATM   26  C15 UNL     1      -9.007   2.203   4.848  1.00  0.00    -0.002 A 
HETATM   27  C12 UNL     1      -7.493   0.278   6.297  1.00  0.00     0.001 A 
HETATM   28  C13 UNL     1      -8.562  -0.099   5.523  1.00  0.00     0.001 A 
HETATM   29  C14 UNL     1      -9.278   0.821   4.838  1.00  0.00     0.014 A 
ENDBRANCH   1  16
TORSDOF 2
ENDMDL
MODEL 2
REMARK VINA RESULT: -10.025584033      1.105      1.408
REMARK  2 active torsions:
REMARK  status: ('A' for Active; 'I' for Inactive)
REMARK    1  A    between atoms: C7_11  and  N3_12 
REMARK    2  A    between atoms: N3_12  and  C8_14 
ROOT
HETATM    1  N3  UNL     1     -11.712   2.279   2.224  1.00  0.00    -0.173 N 
ATOM      2  H3  UNL     1     -12.673   2.185   2.553  1.00  0.00     0.186 HD
ENDROOT
BRANCH   1   3
HETATM    3  C7  UNL     1     -11.020   1.163   1.698  1.00  0.00     0.699 A 
HETATM    4  N2  UNL     1     -10.545   1.150   0.496  1.00  0.00    -0.131 N 
HETATM    5  N1  UNL     1      -9.864   0.033  -0.001  1.00  0.00    -0.284 N 
ATOM      6  H2  UNL     1     -10.670   1.968  -0.102  1.00  0.00     0.205 HD
HETATM    7  C5  UNL     1      -9.657  -1.145   0.789  1.00  0.00     0.075 A 
ATOM      8  H1  UNL     1      -9.504   0.058  -0.955  1.00  0.00     0.187 HD
HETATM    9  C4  UNL     1     -10.154  -1.142   2.061  1.00  0.00     0.077 A 
HETATM   10  C6  UNL     1      -8.984  -2.251   0.301  1.00  0.00     0.033 A 
HETATM   11  C3  UNL     1      -9.977  -2.267   2.870  1.00  0.00     0.032 A 
HETATM   12  N6  UNL     1     -10.840   0.017   2.520  1.00  0.00    -0.188 N 
HETATM   13  C2  UNL     1      -9.307  -3.376   2.393  1.00  0.00     0.002 A 
HETATM   14  C1  UNL     1      -8.809  -3.369   1.107  1.00  0.00     0.002 A 
ATOM     15  H6  UNL     1     -11.214   0.027   3.469  1.00  0.00     0.184 HD
ENDBRANCH   1   3
BRANCH   1  16
HETATM   16  C8  UNL     1     -11.109   3.416   2.280  1.00  0.00     0.149 A 
HETATM   17  N4  UNL     1     -11.395   4.461   1.478  1.00  0.00    -0.283 N 
HETATM   18  N5  UNL     1     -10.607   5.468   1.787  1.00  0.00    -0.291 N 
ATOM     19  H4  UNL     1     -12.108   4.470   0.749  1.00  0.00     0.188 HD
HETATM   20  C9  UNL     1      -9.794   5.055   2.812  1.00  0.00     0.104 A 
ATOM     21  H5  UNL     1     -10.601   6.387   1.345  1.00  0.00     0.187 HD
HETATM   22  S1  UNL     1      -8.536   5.501   3.871  1.00  0.00    -0.070 SA
HETATM   23  C16 UNL     1     -10.064   3.774   3.164  1.00  0.00     0.057 A 
HETATM   24  C10 UNL     1      -8.380   4.039   4.743  1.00  0.00     0.018 A 
HETATM   25  C11 UNL     1      -7.555   3.602   5.794  1.00  0.00     0.020 A 
HETATM   26  C15 UNL     1      -9.328   3.235   4.175  1.00  0.00    -0.002 A 
HETATM   27  C12 UNL     1      -7.666   2.332   6.302  1.00  0.00     0.001 A 
HETATM   28  C13 UNL     1      -8.612   1.509   5.744  1.00  0.00     0.001 A 
HETATM   29  C14 UNL     1      -9.399   1.944   4.734  1.00  0.00     0.014 A 
ENDBRANCH   1  16
TORSDOF 2
ENDMDL
MODEL 3
REMARK VINA RESULT: -10.025396055      2.242      5.817
REMARK  2 active torsions:
REMARK  status: ('A' for Active; 'I' for Inactive)
REMARK    1  A    between atoms: C7_11  and  N3_12 
REMARK    2  A    between atoms: N3_12  and  C8_14 
ROOT
HETATM    1  N3  UNL     1     -11.872   1.288   1.983  1.00  0.00    -0.173 N 
ATOM      2  H3  UNL     1     -12.753   0.860   2.269  1.00  0.00     0.186 HD
ENDROOT
BRANCH   1   3
HETATM    3  C7  UNL     1     -11.253   2.270   2.791  1.00  0.00     0.699 A 
HETATM    4  N2  UNL     1     -11.704   3.479   2.874  1.00  0.00    -0.131 N 
HETATM    5  N1  UNL     1     -11.073   4.433   3.680  1.00  0.00    -0.284 N 
ATOM      6  H2  UNL     1     -12.534   3.743   2.342  1.00  0.00     0.205 HD
HETATM    7  C5  UNL     1      -9.905   4.123   4.452  1.00  0.00     0.075 A 
ATOM      8  H1  UNL     1     -11.455   5.377   3.721  1.00  0.00     0.187 HD
HETATM    9  C4  UNL     1      -9.420   2.849   4.372  1.00  0.00     0.077 A 
HETATM   10  C6  UNL     1      -9.278   5.064   5.250  1.00  0.00     0.033 A 
HETATM   11  C3  UNL     1      -8.284   2.499   5.105  1.00  0.00     0.032 A 
HETATM   12  N6  UNL     1     -10.097   1.916   3.537  1.00  0.00    -0.188 N 
HETATM   13  C2  UNL     1      -7.651   3.430   5.905  1.00  0.00     0.002 A 
HETATM   14  C1  UNL     1      -8.147   4.714   5.978  1.00  0.00     0.002 A 
ATOM     15  H6  UNL     1      -9.740   0.962   3.472  1.00  0.00     0.184 HD
ENDBRANCH   1   3
BRANCH   1  16
HETATM   16  C8  UNL     1     -11.304   0.942   0.880  1.00  0.00     0.149 A 
HETATM   17  N4  UNL     1     -11.389   1.649  -0.265  1.00  0.00    -0.283 N 
HETATM   18  N5  UNL     1     -10.701   1.033  -1.202  1.00  0.00    -0.291 N 
ATOM     19  H4  UNL     1     -11.904   2.521  -0.386  1.00  0.00     0.188 HD
HETATM   20  C9  UNL     1     -10.164  -0.098  -0.642  1.00  0.00     0.104 A 
ATOM     21  H5  UNL     1     -10.588   1.340  -2.168  1.00  0.00     0.187 HD
HETATM   22  S1  UNL     1      -9.203  -1.479  -0.915  1.00  0.00    -0.070 SA
HETATM   23  C16 UNL     1     -10.508  -0.208   0.664  1.00  0.00     0.057 A 
HETATM   24  C10 UNL     1      -9.262  -2.168   0.647  1.00  0.00     0.018 A 
HETATM   25  C11 UNL     1      -8.717  -3.324   1.236  1.00  0.00     0.020 A 
HETATM   26  C15 UNL     1     -10.040  -1.290   1.347  1.00  0.00    -0.002 A 
HETATM   27  C12 UNL     1      -8.946  -3.623   2.555  1.00  0.00     0.001 A 
HETATM   28  C13 UNL     1      -9.726  -2.752   3.275  1.00  0.00     0.001 A 
HETATM   29  C14 UNL     1     -10.242  -1.645   2.695  1.00  0.00     0.014 A 
ENDBRANCH   1  16
TORSDOF 2
ENDMDL
MODEL 4
REMARK VINA RESULT: -9.913141881      1.987      3.677
REMARK  2 active torsions:
REMARK  status: ('A' for Active; 'I' for Inactive)
REMARK    1  A    between atoms: C7_11  and  N3_12 
REMARK    2  A    between atoms: N3_12  and  C8_14 
ROOT
HETATM    1  N3  UNL     1      -9.851   0.388   5.128  1.00  0.00    -0.173 N 
ATOM      2  H3  UNL     1     -10.669   0.252   5.722  1.00  0.00     0.186 HD
ENDROOT
BRANCH   1   3
HETATM    3  C7  UNL     1      -9.717  -0.327   3.914  1.00  0.00     0.699 A 
HETATM    4  N2  UNL     1      -9.443  -1.590   3.885  1.00  0.00    -0.131 N 
HETATM    5  N1  UNL     1      -9.315  -2.274   2.671  1.00  0.00    -0.284 N 
ATOM      6  H2  UNL     1      -9.318  -2.097   4.761  1.00  0.00     0.205 HD
HETATM    7  C5  UNL     1      -9.479  -1.617   1.407  1.00  0.00     0.075 A 
ATOM      8  H1  UNL     1      -9.098  -3.270   2.685  1.00  0.00     0.187 HD
HETATM    9  C4  UNL     1      -9.769  -0.283   1.427  1.00  0.00     0.077 A 
HETATM   10  C6  UNL     1      -9.353  -2.291   0.205  1.00  0.00     0.033 A 
HETATM   11  C3  UNL     1      -9.938   0.401   0.220  1.00  0.00     0.032 A 
HETATM   12  N6  UNL     1      -9.888   0.368   2.686  1.00  0.00    -0.188 N 
HETATM   13  C2  UNL     1      -9.814  -0.261  -0.985  1.00  0.00     0.002 A 
HETATM   14  C1  UNL     1      -9.521  -1.609  -0.994  1.00  0.00     0.002 A 
ATOM     15  H6  UNL     1     -10.104   1.365   2.709  1.00  0.00     0.184 HD
ENDBRANCH   1   3
BRANCH   1  16
HETATM   16  C8  UNL     1      -8.923   1.214   5.470  1.00  0.00     0.149 A 
HETATM   17  N4  UNL     1      -7.854   0.877   6.219  1.00  0.00    -0.283 N 
HETATM   18  N5  UNL     1      -7.097   1.940   6.388  1.00  0.00    -0.291 N 
ATOM     19  H4  UNL     1      -7.662  -0.051   6.594  1.00  0.00     0.188 HD
HETATM   20  C9  UNL     1      -7.698   2.983   5.731  1.00  0.00     0.104 A 
ATOM     21  H5  UNL     1      -6.223   1.980   6.912  1.00  0.00     0.187 HD
HETATM   22  S1  UNL     1      -7.597   4.637   5.335  1.00  0.00    -0.070 SA
HETATM   23  C16 UNL     1      -8.850   2.586   5.135  1.00  0.00     0.057 A 
HETATM   24  C10 UNL     1      -9.029   4.788   4.415  1.00  0.00     0.018 A 
HETATM   25  C11 UNL     1      -9.658   5.847   3.736  1.00  0.00     0.020 A 
HETATM   26  C15 UNL     1      -9.552   3.526   4.443  1.00  0.00    -0.002 A 
HETATM   27  C12 UNL     1     -10.839   5.658   3.064  1.00  0.00     0.001 A 
HETATM   28  C13 UNL     1     -11.380   4.397   3.081  1.00  0.00     0.001 A 
HETATM   29  C14 UNL     1     -10.763   3.388   3.738  1.00  0.00     0.014 A 
ENDBRANCH   1  16
TORSDOF 2
ENDMDL
MODEL 5
REMARK VINA RESULT: -9.911831406      2.545      4.142
REMARK  2 active torsions:
REMARK  status: ('A' for Active; 'I' for Inactive)
REMARK    1  A    between atoms: C7_11  and  N3_12 
REMARK    2  A    between atoms: N3_12  and  C8_14 
ROOT
HETATM    1  N3  UNL     1     -10.973   2.922   3.086  1.00  0.00    -0.173 N 
ATOM      2  H3  UNL     1     -11.810   2.958   3.666  1.00  0.00     0.186 HD
ENDROOT
BRANCH   1   3
HETATM    3  C7  UNL     1     -10.646   1.747   2.368  1.00  0.00     0.699 A 
HETATM    4  N2  UNL     1     -10.628   1.711   1.075  1.00  0.00    -0.131 N 
HETATM    5  N1  UNL     1     -10.301   0.536   0.389  1.00  0.00    -0.284 N 
ATOM      6  H2  UNL     1     -10.855   2.554   0.547  1.00  0.00     0.205 HD
HETATM    7  C5  UNL     1      -9.972  -0.679   1.075  1.00  0.00     0.075 A 
ATOM      8  H1  UNL     1     -10.297   0.544  -0.631  1.00  0.00     0.187 HD
HETATM    9  C4  UNL     1      -9.988  -0.652   2.440  1.00  0.00     0.077 A 
HETATM   10  C6  UNL     1      -9.650  -1.842   0.399  1.00  0.00     0.033 A 
HETATM   11  C3  UNL     1      -9.675  -1.812   3.153  1.00  0.00     0.032 A 
HETATM   12  N6  UNL     1     -10.327   0.567   3.092  1.00  0.00    -0.188 N 
HETATM   13  C2  UNL     1      -9.351  -2.978   2.489  1.00  0.00     0.002 A 
HETATM   14  C1  UNL     1      -9.338  -2.995   1.110  1.00  0.00     0.002 A 
ATOM     15  H6  UNL     1     -10.342   0.594   4.112  1.00  0.00     0.184 HD
ENDBRANCH   1   3
BRANCH   1  16
HETATM   16  C8  UNL     1     -10.194   3.944   2.992  1.00  0.00     0.149 A 
HETATM   17  N4  UNL     1      -8.902   3.876   2.614  1.00  0.00    -0.283 N 
HETATM   18  N5  UNL     1      -8.389   5.087   2.619  1.00  0.00    -0.291 N 
ATOM     19  H4  UNL     1      -8.403   3.022   2.364  1.00  0.00     0.188 HD
HETATM   20  C9  UNL     1      -9.377   5.952   3.012  1.00  0.00     0.104 A 
ATOM     21  H5  UNL     1      -7.430   5.336   2.374  1.00  0.00     0.187 HD
HETATM   22  S1  UNL     1      -9.774   7.578   3.331  1.00  0.00    -0.070 SA
HETATM   23  C16 UNL     1     -10.535   5.291   3.260  1.00  0.00     0.057 A 
HETATM   24  C10 UNL     1     -11.412   7.380   3.775  1.00  0.00     0.018 A 
HETATM   25  C11 UNL     1     -12.436   8.255   4.179  1.00  0.00     0.020 A 
HETATM   26  C15 UNL     1     -11.605   6.032   3.660  1.00  0.00    -0.002 A 
HETATM   27  C12 UNL     1     -13.691   7.787   4.480  1.00  0.00     0.001 A 
HETATM   28  C13 UNL     1     -13.904   6.436   4.370  1.00  0.00     0.001 A 
HETATM   29  C14 UNL     1     -12.909   5.607   3.980  1.00  0.00     0.014 A 
ENDBRANCH   1  16
TORSDOF 2
ENDMDL
