MODEL 1
REMARK VINA RESULT: -7.802208856      0.000      0.000
REMARK  8 active torsions:
REMARK  status: ('A' for Active; 'I' for Inactive)
REMARK       I    between atoms: N1_2  and  C2_4 
REMARK       I    between atoms: C2_4  and  N3_8 
REMARK    1  A    between atoms: N3_8  and  C3_10 
REMARK    2  A    between atoms: C3_10  and  C4_11 
REMARK    3  A    between atoms: C4_11  and  C5_12 
REMARK    4  A    between atoms: C5_12  and  N4_13 
REMARK    5  A    between atoms: N4_13  and  C6_15 
REMARK    6  A    between atoms: C10_24  and  C11_25 
REMARK    7  A    between atoms: C11_25  and  O2_26 
REMARK    8  A    between atoms: N8_29  and  N9_30 
ROOT
HETATM    1  C6  UNL     1       8.170  38.168  -0.749  1.00  0.00     0.717 A 
HETATM    2  N5  UNL     1       8.340  38.892  -1.870  1.00  0.00    -0.151 N 
ATOM      3  H5  UNL     1       8.940  38.536  -2.614  1.00  0.00     0.188 HD
HETATM    4  C7  UNL     1       7.731  40.075  -2.021  1.00  0.00     0.290 A 
HETATM    5  O1  UNL     1       7.853  40.789  -3.043  1.00  0.00    -0.265 OA
HETATM    6  C8  UNL     1       6.913  40.532  -0.974  1.00  0.00     0.144 A 
HETATM    7  C9  UNL     1       6.163  41.672  -0.813  1.00  0.00     0.127 A 
HETATM    8  N6  UNL     1       5.582  41.581   0.389  1.00  0.00    -0.350 N 
ATOM      9  H6  UNL     1       4.960  42.280   0.793  1.00  0.00     0.166 HD
HETATM   10  C10 UNL     1       5.946  40.410   0.993  1.00  0.00     0.130 A 
HETATM   11  N7  UNL     1       6.773  39.769   0.135  1.00  0.00    -0.199 N 
HETATM   12  N8  UNL     1       7.383  38.605   0.262  1.00  0.00    -0.018 N 
ENDROOT
BRANCH   1  13
HETATM   13  N4  UNL     1       8.750  37.034  -0.599  1.00  0.00    -0.223 N 
ATOM     14  H4  UNL     1       9.488  36.924   0.097  1.00  0.00     0.177 HD
BRANCH  13  15
HETATM   15  C5  UNL     1       8.352  35.906  -1.425  1.00  0.00     0.140 C 
BRANCH  15  16
HETATM   16  C4  UNL     1       7.308  35.109  -0.682  1.00  0.00     0.040 C 
BRANCH  16  17
HETATM   17  C3  UNL     1       5.977  35.177  -1.392  1.00  0.00     0.139 C 
BRANCH  17  18
HETATM   18  N3  UNL     1       5.218  33.974  -1.118  1.00  0.00    -0.227 N 
HETATM   19  C2  UNL     1       5.440  32.771  -1.881  1.00  0.00     0.667 C 
HETATM   20  N1  UNL     1       5.271  31.502  -1.277  1.00  0.00    -0.231 N 
HETATM   21  N2  UNL     1       5.793  32.892  -3.109  1.00  0.00    -0.235 N 
HETATM   22  C1  UNL     1       4.778  30.402  -2.079  1.00  0.00     0.165 C 
ATOM     23  H1  UNL     1       5.493  31.364  -0.291  1.00  0.00     0.177 HD
ATOM     24  H22 UNL     1       5.950  32.041  -3.648  1.00  0.00     0.174 HD
ATOM     25  H21 UNL     1       5.915  33.807  -3.544  1.00  0.00     0.174 HD
ATOM     26  H3  UNL     1       4.518  33.979  -0.376  1.00  0.00     0.177 HD
ENDBRANCH  17  18
ENDBRANCH  16  17
ENDBRANCH  15  16
ENDBRANCH  13  15
ENDBRANCH   1  13
BRANCH  12  27
HETATM   27  N9  UNL     1       7.194  37.869   1.427  1.00  0.00    -0.308 N 
ATOM     28  H92 UNL     1       8.010  37.492   1.910  1.00  0.00     0.179 HD
ATOM     29  H91 UNL     1       6.268  37.694   1.816  1.00  0.00     0.179 HD
ENDBRANCH  12  27
BRANCH  10  30
HETATM   30  C11 UNL     1       5.489  39.983   2.327  1.00  0.00     0.242 C 
BRANCH  30  31
HETATM   31  O2  UNL     1       4.526  38.951   2.251  1.00  0.00    -0.393 OA
ATOM     32  H2  UNL     1       3.929  38.967   2.990  1.00  0.00     0.209 HD
ENDBRANCH  30  31
ENDBRANCH  10  30
TORSDOF 8
ENDMDL
MODEL 2
REMARK VINA RESULT: -7.789846530      1.994      3.536
REMARK  8 active torsions:
REMARK  status: ('A' for Active; 'I' for Inactive)
REMARK       I    between atoms: N1_2  and  C2_4 
REMARK       I    between atoms: C2_4  and  N3_8 
REMARK    1  A    between atoms: N3_8  and  C3_10 
REMARK    2  A    between atoms: C3_10  and  C4_11 
REMARK    3  A    between atoms: C4_11  and  C5_12 
REMARK    4  A    between atoms: C5_12  and  N4_13 
REMARK    5  A    between atoms: N4_13  and  C6_15 
REMARK    6  A    between atoms: C10_24  and  C11_25 
REMARK    7  A    between atoms: C11_25  and  O2_26 
REMARK    8  A    between atoms: N8_29  and  N9_30 
ROOT
HETATM    1  C6  UNL     1       6.511  37.033  -0.225  1.00  0.00     0.717 A 
HETATM    2  N5  UNL     1       6.362  38.108   0.570  1.00  0.00    -0.151 N 
ATOM      3  H5  UNL     1       5.899  38.006   1.474  1.00  0.00     0.188 HD
HETATM    4  C7  UNL     1       6.813  39.311   0.190  1.00  0.00     0.290 A 
HETATM    5  O1  UNL     1       6.702  40.343   0.891  1.00  0.00    -0.265 OA
HETATM    6  C8  UNL     1       7.445  39.410  -1.060  1.00  0.00     0.144 A 
HETATM    7  C9  UNL     1       8.008  40.468  -1.734  1.00  0.00     0.127 A 
HETATM    8  N6  UNL     1       8.466  39.983  -2.894  1.00  0.00    -0.350 N 
ATOM      9  H6  UNL     1       8.939  40.531  -3.611  1.00  0.00     0.166 HD
HETATM   10  C10 UNL     1       8.206  38.644  -2.971  1.00  0.00     0.130 A 
HETATM   11  N7  UNL     1       7.572  38.301  -1.827  1.00  0.00    -0.199 N 
HETATM   12  N8  UNL     1       7.119  37.126  -1.431  1.00  0.00    -0.018 N 
ENDROOT
BRANCH   1  13
HETATM   13  N4  UNL     1       6.081  35.880   0.133  1.00  0.00    -0.223 N 
ATOM     14  H4  UNL     1       5.237  35.494  -0.289  1.00  0.00     0.177 HD
BRANCH  13  15
HETATM   15  C5  UNL     1       6.804  35.124   1.143  1.00  0.00     0.140 C 
BRANCH  15  16
HETATM   16  C4  UNL     1       6.784  33.664   0.760  1.00  0.00     0.040 C 
BRANCH  16  17
HETATM   17  C3  UNL     1       6.134  33.474  -0.589  1.00  0.00     0.139 C 
BRANCH  17  18
HETATM   18  N3  UNL     1       5.184  32.383  -0.520  1.00  0.00    -0.227 N 
HETATM   19  C2  UNL     1       5.074  31.429  -1.596  1.00  0.00     0.667 C 
HETATM   20  N1  UNL     1       4.721  30.086  -1.326  1.00  0.00    -0.231 N 
HETATM   21  N2  UNL     1       5.307  31.839  -2.790  1.00  0.00    -0.235 N 
HETATM   22  C1  UNL     1       3.932  29.358  -2.298  1.00  0.00     0.165 C 
ATOM     23  H1  UNL     1       5.017  29.637  -0.459  1.00  0.00     0.177 HD
ATOM     24  H22 UNL     1       5.230  31.164  -3.551  1.00  0.00     0.174 HD
ATOM     25  H21 UNL     1       5.563  32.808  -2.985  1.00  0.00     0.174 HD
ATOM     26  H3  UNL     1       4.584  32.288   0.300  1.00  0.00     0.177 HD
ENDBRANCH  17  18
ENDBRANCH  16  17
ENDBRANCH  15  16
ENDBRANCH  13  15
ENDBRANCH   1  13
BRANCH  12  27
HETATM   27  N9  UNL     1       7.284  36.025  -2.266  1.00  0.00    -0.308 N 
ATOM     28  H92 UNL     1       7.359  35.098  -1.849  1.00  0.00     0.179 HD
ATOM     29  H91 UNL     1       7.330  36.114  -3.281  1.00  0.00     0.179 HD
ENDBRANCH  12  27
BRANCH  10  30
HETATM   30  C11 UNL     1       8.574  37.788  -4.114  1.00  0.00     0.242 C 
BRANCH  30  31
HETATM   31  O2  UNL     1       7.463  37.503  -4.940  1.00  0.00    -0.393 OA
ATOM     32  H2  UNL     1       7.373  36.571  -5.106  1.00  0.00     0.209 HD
ENDBRANCH  30  31
ENDBRANCH  10  30
TORSDOF 8
ENDMDL
MODEL 3
REMARK VINA RESULT: -7.765000419      2.523      6.379
REMARK  8 active torsions:
REMARK  status: ('A' for Active; 'I' for Inactive)
REMARK       I    between atoms: N1_2  and  C2_4 
REMARK       I    between atoms: C2_4  and  N3_8 
REMARK    1  A    between atoms: N3_8  and  C3_10 
REMARK    2  A    between atoms: C3_10  and  C4_11 
REMARK    3  A    between atoms: C4_11  and  C5_12 
REMARK    4  A    between atoms: C5_12  and  N4_13 
REMARK    5  A    between atoms: N4_13  and  C6_15 
REMARK    6  A    between atoms: C10_24  and  C11_25 
REMARK    7  A    between atoms: C11_25  and  O2_26 
REMARK    8  A    between atoms: N8_29  and  N9_30 
ROOT
HETATM    1  C6  UNL     1       7.995  37.072  -2.253  1.00  0.00     0.717 A 
HETATM    2  N5  UNL     1       8.714  37.315  -1.143  1.00  0.00    -0.151 N 
ATOM      3  H5  UNL     1       9.371  38.096  -1.128  1.00  0.00     0.188 HD
HETATM    4  C7  UNL     1       8.580  36.544  -0.056  1.00  0.00     0.290 A 
HETATM    5  O1  UNL     1       9.222  36.726   1.004  1.00  0.00    -0.265 OA
HETATM    6  C8  UNL     1       7.666  35.479  -0.115  1.00  0.00     0.144 A 
HETATM    7  C9  UNL     1       7.296  34.523   0.800  1.00  0.00     0.127 A 
HETATM    8  N6  UNL     1       6.378  33.755   0.201  1.00  0.00    -0.350 N 
ATOM      9  H6  UNL     1       5.912  32.956   0.631  1.00  0.00     0.166 HD
HETATM   10  C10 UNL     1       6.159  34.202  -1.071  1.00  0.00     0.130 A 
HETATM   11  N7  UNL     1       6.965  35.273  -1.255  1.00  0.00    -0.199 N 
HETATM   12  N8  UNL     1       7.114  36.046  -2.314  1.00  0.00    -0.018 N 
ENDROOT
BRANCH   1  13
HETATM   13  N4  UNL     1       8.120  37.807  -3.297  1.00  0.00    -0.223 N 
ATOM     14  H4  UNL     1       8.742  37.522  -4.053  1.00  0.00     0.177 HD
BRANCH  13  15
HETATM   15  C5  UNL     1       7.368  39.047  -3.398  1.00  0.00     0.140 C 
BRANCH  15  16
HETATM   16  C4  UNL     1       8.275  40.193  -3.024  1.00  0.00     0.040 C 
BRANCH  16  17
HETATM   17  C3  UNL     1       7.633  41.061  -1.968  1.00  0.00     0.139 C 
BRANCH  17  18
HETATM   18  N3  UNL     1       7.508  40.312  -0.735  1.00  0.00    -0.227 N 
HETATM   19  C2  UNL     1       6.349  40.467   0.109  1.00  0.00     0.667 C 
HETATM   20  N1  UNL     1       5.871  39.376   0.874  1.00  0.00    -0.231 N 
HETATM   21  N2  UNL     1       5.775  41.615   0.140  1.00  0.00    -0.235 N 
HETATM   22  C1  UNL     1       5.271  39.632   2.166  1.00  0.00     0.165 C 
ATOM     23  H1  UNL     1       5.949  38.423   0.519  1.00  0.00     0.177 HD
ATOM     24  H22 UNL     1       4.955  41.724   0.737  1.00  0.00     0.174 HD
ATOM     25  H21 UNL     1       6.119  42.401  -0.412  1.00  0.00     0.174 HD
ATOM     26  H3  UNL     1       8.248  39.666  -0.460  1.00  0.00     0.177 HD
ENDBRANCH  17  18
ENDBRANCH  16  17
ENDBRANCH  15  16
ENDBRANCH  13  15
ENDBRANCH   1  13
BRANCH  12  27
HETATM   27  N9  UNL     1       6.361  35.781  -3.453  1.00  0.00    -0.308 N 
ATOM     28  H92 UNL     1       6.816  35.345  -4.255  1.00  0.00     0.179 HD
ATOM     29  H91 UNL     1       5.368  36.006  -3.513  1.00  0.00     0.179 HD
ENDBRANCH  12  27
BRANCH  10  30
HETATM   30  C11 UNL     1       5.208  33.590  -2.018  1.00  0.00     0.242 C 
BRANCH  30  31
HETATM   31  O2  UNL     1       5.869  32.949  -3.090  1.00  0.00    -0.393 OA
ATOM     32  H2  UNL     1       5.257  32.600  -3.728  1.00  0.00     0.209 HD
ENDBRANCH  30  31
ENDBRANCH  10  30
TORSDOF 8
ENDMDL
MODEL 4
REMARK VINA RESULT: -7.750697415      1.825      3.857
REMARK  8 active torsions:
REMARK  status: ('A' for Active; 'I' for Inactive)
REMARK       I    between atoms: N1_2  and  C2_4 
REMARK       I    between atoms: C2_4  and  N3_8 
REMARK    1  A    between atoms: N3_8  and  C3_10 
REMARK    2  A    between atoms: C3_10  and  C4_11 
REMARK    3  A    between atoms: C4_11  and  C5_12 
REMARK    4  A    between atoms: C5_12  and  N4_13 
REMARK    5  A    between atoms: N4_13  and  C6_15 
REMARK    6  A    between atoms: C10_24  and  C11_25 
REMARK    7  A    between atoms: C11_25  and  O2_26 
REMARK    8  A    between atoms: N8_29  and  N9_30 
ROOT
HETATM    1  C6  UNL     1       7.222  38.190   0.991  1.00  0.00     0.717 A 
HETATM    2  N5  UNL     1       6.320  38.760   1.810  1.00  0.00    -0.151 N 
ATOM      3  H5  UNL     1       6.038  38.277   2.664  1.00  0.00     0.188 HD
HETATM    4  C7  UNL     1       5.788  39.954   1.520  1.00  0.00     0.290 A 
HETATM    5  O1  UNL     1       4.946  40.531   2.247  1.00  0.00    -0.265 OA
HETATM    6  C8  UNL     1       6.201  40.587   0.336  1.00  0.00     0.144 A 
HETATM    7  C9  UNL     1       5.861  41.787  -0.242  1.00  0.00     0.127 A 
HETATM    8  N6  UNL     1       6.569  41.881  -1.374  1.00  0.00    -0.350 N 
ATOM      9  H6  UNL     1       6.532  42.665  -2.024  1.00  0.00     0.166 HD
HETATM   10  C10 UNL     1       7.348  40.769  -1.527  1.00  0.00     0.130 A 
HETATM   11  N7  UNL     1       7.111  39.975  -0.458  1.00  0.00    -0.199 N 
HETATM   12  N8  UNL     1       7.622  38.797  -0.151  1.00  0.00    -0.018 N 
ENDROOT
BRANCH   1  13
HETATM   13  N4  UNL     1       7.735  37.047   1.264  1.00  0.00    -0.223 N 
ATOM     14  H4  UNL     1       8.724  36.972   1.500  1.00  0.00     0.177 HD
BRANCH  13  15
HETATM   15  C5  UNL     1       6.900  35.857   1.236  1.00  0.00     0.140 C 
BRANCH  15  16
HETATM   16  C4  UNL     1       7.410  34.934   0.156  1.00  0.00     0.040 C 
BRANCH  16  17
HETATM   17  C3  UNL     1       6.272  34.437  -0.704  1.00  0.00     0.139 C 
BRANCH  17  18
HETATM   18  N3  UNL     1       6.565  34.702  -2.097  1.00  0.00    -0.227 N 
HETATM   19  C2  UNL     1       6.471  36.038  -2.631  1.00  0.00     0.667 C 
HETATM   20  N1  UNL     1       7.329  36.451  -3.678  1.00  0.00    -0.231 N 
HETATM   21  N2  UNL     1       5.594  36.828  -2.127  1.00  0.00    -0.235 N 
HETATM   22  C1  UNL     1       6.834  37.389  -4.664  1.00  0.00     0.165 C 
ATOM     23  H1  UNL     1       8.282  36.092  -3.738  1.00  0.00     0.177 HD
ATOM     24  H22 UNL     1       5.527  37.773  -2.504  1.00  0.00     0.174 HD
ATOM     25  H21 UNL     1       4.976  36.531  -1.371  1.00  0.00     0.174 HD
ATOM     26  H3  UNL     1       6.842  33.934  -2.709  1.00  0.00     0.177 HD
ENDBRANCH  17  18
ENDBRANCH  16  17
ENDBRANCH  15  16
ENDBRANCH  13  15
ENDBRANCH   1  13
BRANCH  12  27
HETATM   27  N9  UNL     1       8.555  38.223  -1.009  1.00  0.00    -0.308 N 
ATOM     28  H92 UNL     1       8.236  37.839  -1.898  1.00  0.00     0.179 HD
ATOM     29  H91 UNL     1       9.547  38.174  -0.779  1.00  0.00     0.179 HD
ENDBRANCH  12  27
BRANCH  10  30
HETATM   30  C11 UNL     1       8.259  40.539  -2.663  1.00  0.00     0.242 C 
BRANCH  30  31
HETATM   31  O2  UNL     1       9.225  41.563  -2.782  1.00  0.00    -0.393 OA
ATOM     32  H2  UNL     1      10.098  41.256  -2.566  1.00  0.00     0.209 HD
ENDBRANCH  30  31
ENDBRANCH  10  30
TORSDOF 8
ENDMDL
MODEL 5
REMARK VINA RESULT: -7.727017358      1.074      3.006
REMARK  8 active torsions:
REMARK  status: ('A' for Active; 'I' for Inactive)
REMARK       I    between atoms: N1_2  and  C2_4 
REMARK       I    between atoms: C2_4  and  N3_8 
REMARK    1  A    between atoms: N3_8  and  C3_10 
REMARK    2  A    between atoms: C3_10  and  C4_11 
REMARK    3  A    between atoms: C4_11  and  C5_12 
REMARK    4  A    between atoms: C5_12  and  N4_13 
REMARK    5  A    between atoms: N4_13  and  C6_15 
REMARK    6  A    between atoms: C10_24  and  C11_25 
REMARK    7  A    between atoms: C11_25  and  O2_26 
REMARK    8  A    between atoms: N8_29  and  N9_30 
ROOT
HETATM    1  C6  UNL     1       7.213  38.170   0.917  1.00  0.00     0.717 A 
HETATM    2  N5  UNL     1       6.372  38.749   1.793  1.00  0.00    -0.151 N 
ATOM      3  H5  UNL     1       6.137  38.266   2.660  1.00  0.00     0.188 HD
HETATM    4  C7  UNL     1       5.839  39.951   1.540  1.00  0.00     0.290 A 
HETATM    5  O1  UNL     1       5.053  40.536   2.320  1.00  0.00    -0.265 OA
HETATM    6  C8  UNL     1       6.187  40.584   0.335  1.00  0.00     0.144 A 
HETATM    7  C9  UNL     1       5.828  41.790  -0.217  1.00  0.00     0.127 A 
HETATM    8  N6  UNL     1       6.465  41.879  -1.390  1.00  0.00    -0.350 N 
ATOM      9  H6  UNL     1       6.398  42.666  -2.035  1.00  0.00     0.166 HD
HETATM   10  C10 UNL     1       7.218  40.758  -1.595  1.00  0.00     0.130 A 
HETATM   11  N7  UNL     1       7.037  39.962  -0.517  1.00  0.00    -0.199 N 
HETATM   12  N8  UNL     1       7.550  38.776  -0.245  1.00  0.00    -0.018 N 
ENDROOT
BRANCH   1  13
HETATM   13  N4  UNL     1       7.727  37.019   1.154  1.00  0.00    -0.223 N 
ATOM     14  H4  UNL     1       8.722  36.934   1.358  1.00  0.00     0.177 HD
BRANCH  13  15
HETATM   15  C5  UNL     1       6.883  35.835   1.130  1.00  0.00     0.140 C 
BRANCH  15  16
HETATM   16  C4  UNL     1       7.315  34.957  -0.019  1.00  0.00     0.040 C 
BRANCH  16  17
HETATM   17  C3  UNL     1       6.244  34.899  -1.081  1.00  0.00     0.139 C 
BRANCH  17  18
HETATM   18  N3  UNL     1       5.415  33.730  -0.871  1.00  0.00    -0.227 N 
HETATM   19  C2  UNL     1       5.485  32.604  -1.769  1.00  0.00     0.667 C 
HETATM   20  N1  UNL     1       5.261  31.292  -1.288  1.00  0.00    -0.231 N 
HETATM   21  N2  UNL     1       5.754  32.833  -3.003  1.00  0.00    -0.235 N 
HETATM   22  C1  UNL     1       4.625  30.323  -2.156  1.00  0.00     0.165 C 
ATOM     23  H1  UNL     1       5.544  31.033  -0.342  1.00  0.00     0.177 HD
ATOM     24  H22 UNL     1       5.803  32.037  -3.638  1.00  0.00     0.174 HD
ATOM     25  H21 UNL     1       5.915  33.779  -3.350  1.00  0.00     0.174 HD
ATOM     26  H3  UNL     1       4.774  33.703  -0.078  1.00  0.00     0.177 HD
ENDBRANCH  17  18
ENDBRANCH  16  17
ENDBRANCH  15  16
ENDBRANCH  13  15
ENDBRANCH   1  13
BRANCH  12  27
HETATM   27  N9  UNL     1       8.420  38.193  -1.162  1.00  0.00    -0.308 N 
ATOM     28  H92 UNL     1       8.095  37.400  -1.714  1.00  0.00     0.179 HD
ATOM     29  H91 UNL     1       9.371  38.534  -1.302  1.00  0.00     0.179 HD
ENDBRANCH  12  27
BRANCH  10  30
HETATM   30  C11 UNL     1       8.053  40.520  -2.787  1.00  0.00     0.242 C 
BRANCH  30  31
HETATM   31  O2  UNL     1       9.102  41.461  -2.894  1.00  0.00    -0.393 OA
ATOM     32  H2  UNL     1       8.794  42.303  -3.207  1.00  0.00     0.209 HD
ENDBRANCH  30  31
ENDBRANCH  10  30
TORSDOF 8
ENDMDL
