MODEL 1
REMARK VINA RESULT: -8.334157475      0.000      0.000
REMARK  8 active torsions:
REMARK  status: ('A' for Active; 'I' for Inactive)
REMARK    1  A    between atoms: C1_2  and  C2_4 
REMARK    2  A    between atoms: C2_4  and  C3_5 
REMARK    3  A    between atoms: C3_5  and  N2_6 
REMARK    4  A    between atoms: N2_6  and  C4_8 
REMARK    5  A    between atoms: C6_13  and  C7_14 
REMARK    6  A    between atoms: N5_15  and  N6_17 
REMARK       I    between atoms: N6_17  and  C8_19 
REMARK    7  A    between atoms: N8_21  and  N9_23 
REMARK    8  A    between atoms: N9_23  and  O2_25 
ROOT
HETATM    1  C4  UNL     1       5.278  31.767  -2.121  1.00  0.00     0.682 A 
HETATM    2  N3  UNL     1       5.535  32.876  -2.818  1.00  0.00    -0.178 N 
ATOM      3  H3  UNL     1       5.398  32.861  -3.828  1.00  0.00     0.185 HD
HETATM    4  C5  UNL     1       5.969  34.013  -2.241  1.00  0.00     0.149 A 
HETATM    5  N4  UNL     1       6.247  35.199  -2.976  1.00  0.00    -0.081 NA
HETATM    6  C6  UNL     1       6.144  34.000  -0.874  1.00  0.00     0.091 A 
HETATM    7  C9  UNL     1       5.883  32.863  -0.136  1.00  0.00     0.274 A 
HETATM    8  O3  UNL     1       6.037  32.836   1.113  1.00  0.00    -0.267 OA
HETATM    9  N10 UNL     1       5.451  31.763  -0.789  1.00  0.00    -0.155 N 
ATOM     10  H10 UNL     1       5.251  30.913  -0.261  1.00  0.00     0.187 HD
ENDROOT
BRANCH   6  11
HETATM   11  C7  UNL     1       6.615  35.228  -0.229  1.00  0.00     0.127 C 
HETATM   12  N5  UNL     1       5.796  36.207  -0.142  1.00  0.00    -0.308 N 
ATOM     13  H5  UNL     1       4.857  36.089  -0.524  1.00  0.00     0.186 HD
BRANCH  12  14
HETATM   14  N6  UNL     1       6.122  37.432   0.450  1.00  0.00    -0.273 N 
HETATM   15  C8  UNL     1       6.800  38.451  -0.268  1.00  0.00     0.223 C 
HETATM   16  N7  UNL     1       6.523  38.671  -1.632  1.00  0.00    -0.061 NA
HETATM   17  N8  UNL     1       7.680  39.195   0.305  1.00  0.00    -0.253 N 
ATOM     18  H8  UNL     1       8.148  39.917  -0.243  1.00  0.00     0.191 HD
ATOM     19  H6  UNL     1       5.866  37.597   1.423  1.00  0.00     0.189 HD
BRANCH  17  20
HETATM   20  N9  UNL     1       8.013  39.043   1.655  1.00  0.00    -0.208 N 
ATOM     21  H9  UNL     1       8.418  38.157   1.959  1.00  0.00     0.215 HD
BRANCH  20  22
HETATM   22  O2  UNL     1       7.840  39.933   2.500  1.00  0.00    -0.274 OA
ATOM     23  H2  UNL     1       8.083  39.835   3.413  1.00  0.00     0.246 HD
ENDBRANCH  20  22
ENDBRANCH  17  20
ENDBRANCH  12  14
ENDBRANCH   6  11
BRANCH   1  24
HETATM   24  N2  UNL     1       4.868  30.703  -2.681  1.00  0.00    -0.225 N 
ATOM     25  H2  UNL     1       4.779  30.677  -3.696  1.00  0.00     0.177 HD
BRANCH  24  26
HETATM   26  C3  UNL     1       4.530  29.539  -1.919  1.00  0.00     0.147 C 
BRANCH  26  27
HETATM   27  C2  UNL     1       3.039  29.420  -1.672  1.00  0.00     0.119 C 
BRANCH  27  28
HETATM   28  C1  UNL     1       2.723  29.669  -0.244  1.00  0.00     0.232 C 
HETATM   29  N1  UNL     1       3.737  29.745   0.720  1.00  0.00    -0.062 NA
HETATM   30  O1  UNL     1       1.521  29.811   0.086  1.00  0.00    -0.277 OA
ENDBRANCH  27  28
ENDBRANCH  26  27
ENDBRANCH  24  26
ENDBRANCH   1  24
TORSDOF 8
ENDMDL
MODEL 2
REMARK VINA RESULT: -8.302832850      2.028      2.695
REMARK  8 active torsions:
REMARK  status: ('A' for Active; 'I' for Inactive)
REMARK    1  A    between atoms: C1_2  and  C2_4 
REMARK    2  A    between atoms: C2_4  and  C3_5 
REMARK    3  A    between atoms: C3_5  and  N2_6 
REMARK    4  A    between atoms: N2_6  and  C4_8 
REMARK    5  A    between atoms: C6_13  and  C7_14 
REMARK    6  A    between atoms: N5_15  and  N6_17 
REMARK       I    between atoms: N6_17  and  C8_19 
REMARK    7  A    between atoms: N8_21  and  N9_23 
REMARK    8  A    between atoms: N9_23  and  O2_25 
ROOT
HETATM    1  C4  UNL     1       4.597  30.388  -1.470  1.00  0.00     0.682 A 
HETATM    2  N3  UNL     1       4.830  30.972  -0.293  1.00  0.00    -0.178 N 
ATOM      3  H3  UNL     1       4.585  30.468   0.560  1.00  0.00     0.185 HD
HETATM    4  C5  UNL     1       5.376  32.198  -0.185  1.00  0.00     0.149 A 
HETATM    5  N4  UNL     1       5.627  32.828   1.066  1.00  0.00    -0.081 NA
HETATM    6  C6  UNL     1       5.696  32.851  -1.355  1.00  0.00     0.091 A 
HETATM    7  C9  UNL     1       5.463  32.264  -2.582  1.00  0.00     0.274 A 
HETATM    8  O3  UNL     1       5.751  32.847  -3.659  1.00  0.00    -0.267 OA
HETATM    9  N10 UNL     1       4.913  31.031  -2.606  1.00  0.00    -0.155 N 
ATOM     10  H10 UNL     1       4.733  30.580  -3.504  1.00  0.00     0.187 HD
ENDROOT
BRANCH   6  11
HETATM   11  C7  UNL     1       6.291  34.187  -1.258  1.00  0.00     0.127 C 
HETATM   12  N5  UNL     1       5.499  35.193  -1.261  1.00  0.00    -0.308 N 
ATOM     13  H5  UNL     1       4.496  35.020  -1.331  1.00  0.00     0.186 HD
BRANCH  12  14
HETATM   14  N6  UNL     1       5.940  36.517  -1.173  1.00  0.00    -0.273 N 
HETATM   15  C8  UNL     1       6.411  37.224  -2.309  1.00  0.00     0.223 C 
HETATM   16  N7  UNL     1       5.812  37.033  -3.570  1.00  0.00    -0.061 NA
HETATM   17  N8  UNL     1       7.392  38.053  -2.218  1.00  0.00    -0.253 N 
ATOM     18  H8  UNL     1       7.704  38.543  -3.056  1.00  0.00     0.191 HD
ATOM     19  H6  UNL     1       5.921  36.988  -0.269  1.00  0.00     0.189 HD
BRANCH  17  20
HETATM   20  N9  UNL     1       8.041  38.301  -1.003  1.00  0.00    -0.208 N 
ATOM     21  H9  UNL     1       7.973  39.235  -0.598  1.00  0.00     0.215 HD
BRANCH  20  22
HETATM   22  O2  UNL     1       8.693  37.441  -0.395  1.00  0.00    -0.274 OA
ATOM     23  H2  UNL     1       9.619  37.531  -0.202  1.00  0.00     0.246 HD
ENDBRANCH  20  22
ENDBRANCH  17  20
ENDBRANCH  12  14
ENDBRANCH   6  11
BRANCH   1  24
HETATM   24  N2  UNL     1       4.082  29.230  -1.554  1.00  0.00    -0.225 N 
ATOM     25  H2  UNL     1       4.670  28.411  -1.403  1.00  0.00     0.177 HD
BRANCH  24  26
HETATM   26  C3  UNL     1       2.694  29.047  -1.857  1.00  0.00     0.147 C 
BRANCH  26  27
HETATM   27  C2  UNL     1       1.886  28.634  -0.643  1.00  0.00     0.119 C 
BRANCH  27  28
HETATM   28  C1  UNL     1       1.282  29.819   0.013  1.00  0.00     0.232 C 
HETATM   29  N1  UNL     1      -0.071  30.136  -0.164  1.00  0.00    -0.062 NA
HETATM   30  O1  UNL     1       2.013  30.540   0.735  1.00  0.00    -0.277 OA
ENDBRANCH  27  28
ENDBRANCH  26  27
ENDBRANCH  24  26
ENDBRANCH   1  24
TORSDOF 8
ENDMDL
MODEL 3
REMARK VINA RESULT: -8.277340814      1.174      1.751
REMARK  8 active torsions:
REMARK  status: ('A' for Active; 'I' for Inactive)
REMARK    1  A    between atoms: C1_2  and  C2_4 
REMARK    2  A    between atoms: C2_4  and  C3_5 
REMARK    3  A    between atoms: C3_5  and  N2_6 
REMARK    4  A    between atoms: N2_6  and  C4_8 
REMARK    5  A    between atoms: C6_13  and  C7_14 
REMARK    6  A    between atoms: N5_15  and  N6_17 
REMARK       I    between atoms: N6_17  and  C8_19 
REMARK    7  A    between atoms: N8_21  and  N9_23 
REMARK    8  A    between atoms: N9_23  and  O2_25 
ROOT
HETATM    1  C4  UNL     1       5.228  31.765  -2.111  1.00  0.00     0.682 A 
HETATM    2  N3  UNL     1       5.479  31.873  -0.806  1.00  0.00    -0.178 N 
ATOM      3  H3  UNL     1       5.318  31.062  -0.208  1.00  0.00     0.185 HD
HETATM    4  C5  UNL     1       5.937  33.009  -0.244  1.00  0.00     0.149 A 
HETATM    5  N4  UNL     1       6.206  33.134   1.147  1.00  0.00    -0.081 NA
HETATM    6  C6  UNL     1       6.145  34.086  -1.080  1.00  0.00     0.091 A 
HETATM    7  C9  UNL     1       5.891  33.993  -2.434  1.00  0.00     0.274 A 
HETATM    8  O3  UNL     1       6.076  34.966  -3.209  1.00  0.00    -0.267 OA
HETATM    9  N10 UNL     1       5.434  32.819  -2.919  1.00  0.00    -0.155 N 
ATOM     10  H10 UNL     1       5.241  32.730  -3.917  1.00  0.00     0.187 HD
ENDROOT
BRANCH   6  11
HETATM   11  C7  UNL     1       6.642  35.330  -0.488  1.00  0.00     0.127 C 
HETATM   12  N5  UNL     1       5.782  36.228  -0.181  1.00  0.00    -0.308 N 
ATOM     13  H5  UNL     1       4.797  36.038  -0.362  1.00  0.00     0.186 HD
BRANCH  12  14
HETATM   14  N6  UNL     1       6.127  37.458   0.390  1.00  0.00    -0.273 N 
HETATM   15  C8  UNL     1       6.654  38.520  -0.388  1.00  0.00     0.223 C 
HETATM   16  N7  UNL     1       6.187  38.748  -1.698  1.00  0.00    -0.061 NA
HETATM   17  N8  UNL     1       7.567  39.298   0.079  1.00  0.00    -0.253 N 
ATOM     18  H8  UNL     1       7.923  40.052  -0.509  1.00  0.00     0.191 HD
ATOM     19  H6  UNL     1       5.996  37.594   1.392  1.00  0.00     0.189 HD
BRANCH  17  20
HETATM   20  N9  UNL     1       8.085  39.141   1.369  1.00  0.00    -0.208 N 
ATOM     21  H9  UNL     1       8.853  38.484   1.508  1.00  0.00     0.215 HD
BRANCH  20  22
HETATM   22  O2  UNL     1       7.655  39.761   2.352  1.00  0.00    -0.274 OA
ATOM     23  H2  UNL     1       7.920  39.569   3.244  1.00  0.00     0.246 HD
ENDBRANCH  20  22
ENDBRANCH  17  20
ENDBRANCH  12  14
ENDBRANCH   6  11
BRANCH   1  24
HETATM   24  N2  UNL     1       4.798  30.685  -2.625  1.00  0.00    -0.225 N 
ATOM     25  H2  UNL     1       4.668  30.631  -3.635  1.00  0.00     0.177 HD
BRANCH  24  26
HETATM   26  C3  UNL     1       4.490  29.543  -1.819  1.00  0.00     0.147 C 
BRANCH  26  27
HETATM   27  C2  UNL     1       3.004  29.404  -1.552  1.00  0.00     0.119 C 
BRANCH  27  28
HETATM   28  C1  UNL     1       2.692  29.738  -0.141  1.00  0.00     0.232 C 
HETATM   29  N1  UNL     1       3.712  29.964   0.793  1.00  0.00    -0.062 NA
HETATM   30  O1  UNL     1       1.488  29.814   0.203  1.00  0.00    -0.277 OA
ENDBRANCH  27  28
ENDBRANCH  26  27
ENDBRANCH  24  26
ENDBRANCH   1  24
TORSDOF 8
ENDMDL
MODEL 4
REMARK VINA RESULT: -8.208654935      2.307      8.250
REMARK  8 active torsions:
REMARK  status: ('A' for Active; 'I' for Inactive)
REMARK    1  A    between atoms: C1_2  and  C2_4 
REMARK    2  A    between atoms: C2_4  and  C3_5 
REMARK    3  A    between atoms: C3_5  and  N2_6 
REMARK    4  A    between atoms: N2_6  and  C4_8 
REMARK    5  A    between atoms: C6_13  and  C7_14 
REMARK    6  A    between atoms: N5_15  and  N6_17 
REMARK       I    between atoms: N6_17  and  C8_19 
REMARK    7  A    between atoms: N8_21  and  N9_23 
REMARK    8  A    between atoms: N9_23  and  O2_25 
ROOT
HETATM    1  C4  UNL     1       6.209  38.429  -0.491  1.00  0.00     0.682 A 
HETATM    2  N3  UNL     1       6.163  37.865  -1.698  1.00  0.00    -0.178 N 
ATOM      3  H3  UNL     1       6.044  38.465  -2.514  1.00  0.00     0.185 HD
HETATM    4  C5  UNL     1       6.267  36.535  -1.885  1.00  0.00     0.149 A 
HETATM    5  N4  UNL     1       6.219  35.925  -3.169  1.00  0.00    -0.081 NA
HETATM    6  C6  UNL     1       6.428  35.752  -0.762  1.00  0.00     0.091 A 
HETATM    7  C9  UNL     1       6.478  36.317   0.497  1.00  0.00     0.274 A 
HETATM    8  O3  UNL     1       6.624  35.615   1.531  1.00  0.00    -0.267 OA
HETATM    9  N10 UNL     1       6.366  37.659   0.599  1.00  0.00    -0.155 N 
ATOM     10  H10 UNL     1       6.401  38.096   1.520  1.00  0.00     0.187 HD
ENDROOT
BRANCH   6  11
HETATM   11  C7  UNL     1       6.543  34.303  -0.944  1.00  0.00     0.127 C 
HETATM   12  N5  UNL     1       5.506  33.589  -0.709  1.00  0.00    -0.308 N 
ATOM     13  H5  UNL     1       4.653  34.059  -0.407  1.00  0.00     0.186 HD
BRANCH  12  14
HETATM   14  N6  UNL     1       5.485  32.197  -0.845  1.00  0.00    -0.273 N 
HETATM   15  C8  UNL     1       5.218  31.573  -2.091  1.00  0.00     0.223 C 
HETATM   16  N7  UNL     1       5.699  32.135  -3.290  1.00  0.00    -0.061 NA
HETATM   17  N8  UNL     1       4.534  30.485  -2.157  1.00  0.00    -0.253 N 
ATOM     18  H8  UNL     1       4.361  30.065  -3.070  1.00  0.00     0.191 HD
ATOM     19  H6  UNL     1       5.667  31.615  -0.028  1.00  0.00     0.189 HD
BRANCH  17  20
HETATM   20  N9  UNL     1       4.020  29.862  -1.014  1.00  0.00    -0.208 N 
ATOM     21  H9  UNL     1       3.021  29.662  -0.977  1.00  0.00     0.215 HD
BRANCH  20  22
HETATM   22  O2  UNL     1       4.722  29.542  -0.044  1.00  0.00    -0.274 OA
ATOM     23  H2  UNL     1       4.580  28.750   0.460  1.00  0.00     0.246 HD
ENDBRANCH  20  22
ENDBRANCH  17  20
ENDBRANCH  12  14
ENDBRANCH   6  11
BRANCH   1  24
HETATM   24  N2  UNL     1       6.110  39.686  -0.332  1.00  0.00    -0.225 N 
ATOM     25  H2  UNL     1       6.117  40.071   0.612  1.00  0.00     0.177 HD
BRANCH  24  26
HETATM   26  C3  UNL     1       5.988  40.574  -1.449  1.00  0.00     0.147 C 
BRANCH  26  27
HETATM   27  C2  UNL     1       7.082  41.623  -1.477  1.00  0.00     0.119 C 
BRANCH  27  28
HETATM   28  C1  UNL     1       8.218  41.172  -2.317  1.00  0.00     0.232 C 
HETATM   29  N1  UNL     1       9.270  42.040  -2.640  1.00  0.00    -0.062 NA
HETATM   30  O1  UNL     1       8.219  39.990  -2.737  1.00  0.00    -0.277 OA
ENDBRANCH  27  28
ENDBRANCH  26  27
ENDBRANCH  24  26
ENDBRANCH   1  24
TORSDOF 8
ENDMDL
MODEL 5
REMARK VINA RESULT: -8.208544683      1.994      2.447
REMARK  8 active torsions:
REMARK  status: ('A' for Active; 'I' for Inactive)
REMARK    1  A    between atoms: C1_2  and  C2_4 
REMARK    2  A    between atoms: C2_4  and  C3_5 
REMARK    3  A    between atoms: C3_5  and  N2_6 
REMARK    4  A    between atoms: N2_6  and  C4_8 
REMARK    5  A    between atoms: C6_13  and  C7_14 
REMARK    6  A    between atoms: N5_15  and  N6_17 
REMARK       I    between atoms: N6_17  and  C8_19 
REMARK    7  A    between atoms: N8_21  and  N9_23 
REMARK    8  A    between atoms: N9_23  and  O2_25 
ROOT
HETATM    1  C4  UNL     1       5.715  33.181  -1.108  1.00  0.00     0.682 A 
HETATM    2  N3  UNL     1       5.711  33.903  -2.230  1.00  0.00    -0.178 N 
ATOM      3  H3  UNL     1       5.401  33.461  -3.095  1.00  0.00     0.185 HD
HETATM    4  C5  UNL     1       6.099  35.193  -2.266  1.00  0.00     0.149 A 
HETATM    5  N4  UNL     1       6.099  35.970  -3.457  1.00  0.00    -0.081 NA
HETATM    6  C6  UNL     1       6.511  35.760  -1.079  1.00  0.00     0.091 A 
HETATM    7  C9  UNL     1       6.522  35.029   0.091  1.00  0.00     0.274 A 
HETATM    8  O3  UNL     1       6.895  35.534   1.182  1.00  0.00    -0.267 OA
HETATM    9  N10 UNL     1       6.118  33.742   0.044  1.00  0.00    -0.155 N 
ATOM     10  H10 UNL     1       6.118  33.185   0.899  1.00  0.00     0.187 HD
ENDROOT
BRANCH   6  11
HETATM   11  C7  UNL     1       6.938  37.162  -1.099  1.00  0.00     0.127 C 
HETATM   12  N5  UNL     1       6.419  37.954  -0.238  1.00  0.00    -0.308 N 
ATOM     13  H5  UNL     1       5.736  37.576   0.419  1.00  0.00     0.186 HD
BRANCH  12  14
HETATM   14  N6  UNL     1       6.741  39.313  -0.152  1.00  0.00    -0.273 N 
HETATM   15  C8  UNL     1       6.111  40.171   0.786  1.00  0.00     0.223 C 
HETATM   16  N7  UNL     1       5.783  39.705   2.074  1.00  0.00    -0.061 NA
HETATM   17  N8  UNL     1       5.826  41.390   0.486  1.00  0.00    -0.253 N 
ATOM     18  H8  UNL     1       5.373  41.978   1.185  1.00  0.00     0.191 HD
ATOM     19  H6  UNL     1       7.447  39.696  -0.780  1.00  0.00     0.189 HD
BRANCH  17  20
HETATM   20  N9  UNL     1       6.119  41.931  -0.771  1.00  0.00    -0.208 N 
ATOM     21  H9  UNL     1       5.385  42.439  -1.264  1.00  0.00     0.215 HD
BRANCH  20  22
HETATM   22  O2  UNL     1       7.228  41.822  -1.314  1.00  0.00    -0.274 OA
ATOM     23  H2  UNL     1       7.354  41.410  -2.160  1.00  0.00     0.246 HD
ENDBRANCH  20  22
ENDBRANCH  17  20
ENDBRANCH  12  14
ENDBRANCH   6  11
BRANCH   1  24
HETATM   24  N2  UNL     1       5.344  31.965  -1.091  1.00  0.00    -0.225 N 
ATOM     25  H2  UNL     1       5.094  31.534  -0.202  1.00  0.00     0.177 HD
BRANCH  24  26
HETATM   26  C3  UNL     1       5.270  31.188  -2.291  1.00  0.00     0.147 C 
BRANCH  26  27
HETATM   27  C2  UNL     1       4.512  29.890  -2.095  1.00  0.00     0.119 C 
BRANCH  27  28
HETATM   28  C1  UNL     1       4.144  29.708  -0.670  1.00  0.00     0.232 C 
HETATM   29  N1  UNL     1       2.915  30.161  -0.174  1.00  0.00    -0.062 NA
HETATM   30  O1  UNL     1       4.963  29.137   0.090  1.00  0.00    -0.277 OA
ENDBRANCH  27  28
ENDBRANCH  26  27
ENDBRANCH  24  26
ENDBRANCH   1  24
TORSDOF 8
ENDMDL
