MODEL 1
REMARK VINA RESULT: -5.814438960      0.000      0.000
REMARK  5 active torsions:
REMARK  status: ('A' for Active; 'I' for Inactive)
REMARK    1  A    between atoms: C3_3  and  O1_4 
REMARK    2  A    between atoms: C5_8  and  O2_9 
REMARK    3  A    between atoms: C7_13  and  C8_14 
REMARK    4  A    between atoms: C11_17  and  C12_18 
REMARK    5  A    between atoms: C12_18  and  N1_19 
ROOT
HETATM    1  C1  UNL     1     -27.792 -15.045   0.250  1.00  0.00     0.015 C 
HETATM    2  C2  UNL     1     -28.281 -14.864  -0.839  1.00  0.00    -0.077 C 
HETATM    3  C3  UNL     1     -28.890 -14.667  -2.173  1.00  0.00     0.141 C 
HETATM    4  C4  UNL     1     -29.371 -13.256  -2.269  1.00  0.00     0.136 C 
HETATM    5 BR1  UNL     1     -30.739 -12.827  -1.018  1.00  0.00    -0.084 Br
HETATM    6  C5  UNL     1     -28.138 -12.381  -2.113  1.00  0.00     0.165 C 
HETATM    7  C6  UNL     1     -27.335 -12.522  -3.354  1.00  0.00     0.159 C 
HETATM    8  O3  UNL     1     -25.963 -12.672  -3.111  1.00  0.00    -0.377 OA
HETATM    9  C7  UNL     1     -25.963 -13.593  -4.184  1.00  0.00     0.129 C 
HETATM   10  C10 UNL     1     -27.408 -13.838  -4.030  1.00  0.00     0.056 C 
HETATM   11  C11 UNL     1     -27.908 -14.975  -3.266  1.00  0.00     0.068 C 
ENDROOT
BRANCH   3  12
HETATM   12  O1  UNL     1     -30.010 -15.501  -2.204  1.00  0.00    -0.376 OA
ATOM     13  H1  UNL     1     -30.557 -15.171  -2.907  1.00  0.00     0.211 HD
ENDBRANCH   3  12
BRANCH  11  14
HETATM   14  C12 UNL     1     -28.624 -15.947  -4.220  1.00  0.00     0.238 C 
BRANCH  14  15
HETATM   15  N1  UNL     1     -27.683 -16.860  -4.826  1.00  0.00    -0.079 N 
ATOM     16  H13 UNL     1     -28.153 -17.566  -5.392  1.00  0.00     0.274 HD
ATOM     17  H12 UNL     1     -27.140 -16.408  -5.562  1.00  0.00     0.274 HD
ATOM     18  H11 UNL     1     -27.081 -17.282  -4.119  1.00  0.00     0.274 HD
ENDBRANCH  14  15
ENDBRANCH  11  14
BRANCH   6  19
HETATM   19  O2  UNL     1     -28.494 -11.063  -1.858  1.00  0.00    -0.392 OA
ATOM     20  H2  UNL     1     -27.736 -10.492  -1.905  1.00  0.00     0.210 HD
ENDBRANCH   6  19
BRANCH   9  21
HETATM   21  C8  UNL     1     -24.983 -14.664  -3.941  1.00  0.00     0.028 C 
HETATM   22  C9  UNL     1     -24.005 -14.685  -5.124  1.00  0.00     0.007 C 
ENDBRANCH   9  21
TORSDOF 5
ENDMDL
MODEL 2
REMARK VINA RESULT: -5.567309994      2.766      4.326
REMARK  5 active torsions:
REMARK  status: ('A' for Active; 'I' for Inactive)
REMARK    1  A    between atoms: C3_3  and  O1_4 
REMARK    2  A    between atoms: C5_8  and  O2_9 
REMARK    3  A    between atoms: C7_13  and  C8_14 
REMARK    4  A    between atoms: C11_17  and  C12_18 
REMARK    5  A    between atoms: C12_18  and  N1_19 
ROOT
HETATM    1  C1  UNL     1     -25.771 -15.397  -0.182  1.00  0.00     0.015 C 
HETATM    2  C2  UNL     1     -26.489 -14.799  -0.945  1.00  0.00    -0.077 C 
HETATM    3  C3  UNL     1     -27.380 -14.051  -1.860  1.00  0.00     0.141 C 
HETATM    4  C4  UNL     1     -26.642 -13.797  -3.134  1.00  0.00     0.136 C 
HETATM    5 BR1  UNL     1     -25.101 -12.703  -2.921  1.00  0.00    -0.084 Br
HETATM    6  C5  UNL     1     -26.315 -15.165  -3.710  1.00  0.00     0.165 C 
HETATM    7  C6  UNL     1     -27.587 -15.755  -4.198  1.00  0.00     0.159 C 
HETATM    8  O3  UNL     1     -27.739 -17.105  -3.854  1.00  0.00    -0.377 OA
HETATM    9  C7  UNL     1     -29.106 -16.807  -3.647  1.00  0.00     0.129 C 
HETATM   10  C10 UNL     1     -28.810 -15.377  -3.451  1.00  0.00     0.056 C 
HETATM   11  C11 UNL     1     -28.650 -14.809  -2.118  1.00  0.00     0.068 C 
ENDROOT
BRANCH   3  12
HETATM   12  O1  UNL     1     -27.604 -12.818  -1.245  1.00  0.00    -0.376 OA
ATOM     13  H1  UNL     1     -26.808 -12.316  -1.376  1.00  0.00     0.211 HD
ENDBRANCH   3  12
BRANCH  11  14
HETATM   14  C12 UNL     1     -29.798 -13.820  -1.851  1.00  0.00     0.238 C 
BRANCH  14  15
HETATM   15  N1  UNL     1     -30.163 -13.822  -0.453  1.00  0.00    -0.079 N 
ATOM     16  H13 UNL     1     -30.370 -14.763  -0.118  1.00  0.00     0.274 HD
ATOM     17  H12 UNL     1     -29.363 -13.617   0.146  1.00  0.00     0.274 HD
ATOM     18  H11 UNL     1     -30.937 -13.182  -0.280  1.00  0.00     0.274 HD
ENDBRANCH  14  15
ENDBRANCH  11  14
BRANCH   6  19
HETATM   19  O2  UNL     1     -25.358 -15.066  -4.710  1.00  0.00    -0.392 OA
ATOM     20  H2  UNL     1     -25.261 -15.891  -5.170  1.00  0.00     0.210 HD
ENDBRANCH   6  19
BRANCH   9  21
HETATM   21  C8  UNL     1     -29.649 -17.625  -2.549  1.00  0.00     0.028 C 
HETATM   22  C9  UNL     1     -30.455 -18.773  -3.172  1.00  0.00     0.007 C 
ENDBRANCH   9  21
TORSDOF 5
ENDMDL
MODEL 3
REMARK VINA RESULT: -5.566283543      2.111      4.260
REMARK  5 active torsions:
REMARK  status: ('A' for Active; 'I' for Inactive)
REMARK    1  A    between atoms: C3_3  and  O1_4 
REMARK    2  A    between atoms: C5_8  and  O2_9 
REMARK    3  A    between atoms: C7_13  and  C8_14 
REMARK    4  A    between atoms: C11_17  and  C12_18 
REMARK    5  A    between atoms: C12_18  and  N1_19 
ROOT
HETATM    1  C1  UNL     1     -30.043 -12.935  -1.792  1.00  0.00     0.015 C 
HETATM    2  C2  UNL     1     -29.048 -13.611  -1.684  1.00  0.00    -0.077 C 
HETATM    3  C3  UNL     1     -27.815 -14.420  -1.563  1.00  0.00     0.141 C 
HETATM    4  C4  UNL     1     -27.838 -15.121  -0.243  1.00  0.00     0.136 C 
HETATM    5 BR1  UNL     1     -27.819 -13.942   1.249  1.00  0.00    -0.084 Br
HETATM    6  C5  UNL     1     -29.064 -16.019  -0.267  1.00  0.00     0.165 C 
HETATM    7  C6  UNL     1     -28.780 -17.133  -1.206  1.00  0.00     0.159 C 
HETATM    8  O3  UNL     1     -29.853 -17.426  -2.058  1.00  0.00    -0.377 OA
HETATM    9  C7  UNL     1     -28.882 -17.642  -3.063  1.00  0.00     0.129 C 
HETATM   10  C10 UNL     1     -27.897 -16.809  -2.351  1.00  0.00     0.056 C 
HETATM   11  C11 UNL     1     -27.702 -15.405  -2.691  1.00  0.00     0.068 C 
ENDROOT
BRANCH   3  12
HETATM   12  O1  UNL     1     -26.762 -13.504  -1.540  1.00  0.00    -0.376 OA
ATOM     13  H1  UNL     1     -26.313 -13.607  -2.371  1.00  0.00     0.211 HD
ENDBRANCH   3  12
BRANCH  11  14
HETATM   14  C12 UNL     1     -26.292 -15.219  -3.278  1.00  0.00     0.238 C 
BRANCH  14  15
HETATM   15  N1  UNL     1     -26.311 -14.277  -4.373  1.00  0.00    -0.079 N 
ATOM     16  H13 UNL     1     -27.056 -14.487  -5.038  1.00  0.00     0.274 HD
ATOM     17  H12 UNL     1     -26.627 -13.356  -4.072  1.00  0.00     0.274 HD
ATOM     18  H11 UNL     1     -25.401 -14.234  -4.830  1.00  0.00     0.274 HD
ENDBRANCH  14  15
ENDBRANCH  11  14
BRANCH   6  19
HETATM   19  O2  UNL     1     -29.373 -16.468   1.011  1.00  0.00    -0.392 OA
ATOM     20  H2  UNL     1     -29.585 -17.394   1.003  1.00  0.00     0.210 HD
ENDBRANCH   6  19
BRANCH   9  21
HETATM   21  C8  UNL     1     -29.406 -17.238  -4.378  1.00  0.00     0.028 C 
HETATM   22  C9  UNL     1     -29.728 -18.513  -5.169  1.00  0.00     0.007 C 
ENDBRANCH   9  21
TORSDOF 5
ENDMDL
MODEL 4
REMARK VINA RESULT: -5.358726446      2.399      4.053
REMARK  5 active torsions:
REMARK  status: ('A' for Active; 'I' for Inactive)
REMARK    1  A    between atoms: C3_3  and  O1_4 
REMARK    2  A    between atoms: C5_8  and  O2_9 
REMARK    3  A    between atoms: C7_13  and  C8_14 
REMARK    4  A    between atoms: C11_17  and  C12_18 
REMARK    5  A    between atoms: C12_18  and  N1_19 
ROOT
HETATM    1  C1  UNL     1     -24.168 -14.707  -4.424  1.00  0.00     0.015 C 
HETATM    2  C2  UNL     1     -24.957 -14.637  -3.513  1.00  0.00    -0.077 C 
HETATM    3  C3  UNL     1     -25.907 -14.563  -2.382  1.00  0.00     0.141 C 
HETATM    4  C4  UNL     1     -26.604 -13.242  -2.436  1.00  0.00     0.136 C 
HETATM    5 BR1  UNL     1     -25.440 -11.753  -2.218  1.00  0.00    -0.084 Br
HETATM    6  C5  UNL     1     -27.350 -13.215  -3.759  1.00  0.00     0.165 C 
HETATM    7  C6  UNL     1     -28.487 -14.164  -3.646  1.00  0.00     0.159 C 
HETATM    8  O3  UNL     1     -28.649 -14.972  -4.779  1.00  0.00    -0.377 OA
HETATM    9  C7  UNL     1     -28.976 -16.014  -3.881  1.00  0.00     0.129 C 
HETATM   10  C10 UNL     1     -28.267 -15.343  -2.777  1.00  0.00     0.056 C 
HETATM   11  C11 UNL     1     -26.895 -15.693  -2.430  1.00  0.00     0.068 C 
ENDROOT
BRANCH   3  12
HETATM   12  O1  UNL     1     -25.122 -14.583  -1.227  1.00  0.00    -0.376 OA
ATOM     13  H1  UNL     1     -24.729 -13.720  -1.169  1.00  0.00     0.211 HD
ENDBRANCH   3  12
BRANCH  11  14
HETATM   14  C12 UNL     1     -26.876 -16.335  -1.032  1.00  0.00     0.238 C 
BRANCH  14  15
HETATM   15  N1  UNL     1     -27.902 -15.764  -0.191  1.00  0.00    -0.079 N 
ATOM     16  H13 UNL     1     -28.826 -16.132  -0.420  1.00  0.00     0.274 HD
ATOM     17  H12 UNL     1     -27.835 -16.103   0.769  1.00  0.00     0.274 HD
ATOM     18  H11 UNL     1     -27.881 -14.746  -0.233  1.00  0.00     0.274 HD
ENDBRANCH  14  15
ENDBRANCH  11  14
BRANCH   6  19
HETATM   19  O2  UNL     1     -27.763 -11.926  -4.069  1.00  0.00    -0.392 OA
ATOM     20  H2  UNL     1     -28.508 -11.941  -4.659  1.00  0.00     0.210 HD
ENDBRANCH   6  19
BRANCH   9  21
HETATM   21  C8  UNL     1     -28.508 -17.308  -4.404  1.00  0.00     0.028 C 
HETATM   22  C9  UNL     1     -29.729 -18.228  -4.544  1.00  0.00     0.007 C 
ENDBRANCH   9  21
TORSDOF 5
ENDMDL
MODEL 5
REMARK VINA RESULT: -5.326878900      2.331      3.604
REMARK  5 active torsions:
REMARK  status: ('A' for Active; 'I' for Inactive)
REMARK    1  A    between atoms: C3_3  and  O1_4 
REMARK    2  A    between atoms: C5_8  and  O2_9 
REMARK    3  A    between atoms: C7_13  and  C8_14 
REMARK    4  A    between atoms: C11_17  and  C12_18 
REMARK    5  A    between atoms: C12_18  and  N1_19 
ROOT
HETATM    1  C1  UNL     1     -24.778 -14.179  -2.715  1.00  0.00     0.015 C 
HETATM    2  C2  UNL     1     -25.728 -14.531  -2.058  1.00  0.00    -0.077 C 
HETATM    3  C3  UNL     1     -26.876 -14.978  -1.238  1.00  0.00     0.141 C 
HETATM    4  C4  UNL     1     -27.799 -13.818  -1.048  1.00  0.00     0.136 C 
HETATM    5 BR1  UNL     1     -27.023 -12.371  -0.087  1.00  0.00    -0.084 Br
HETATM    6  C5  UNL     1     -28.263 -13.418  -2.439  1.00  0.00     0.165 C 
HETATM    7  C6  UNL     1     -29.186 -14.477  -2.920  1.00  0.00     0.159 C 
HETATM    8  O3  UNL     1     -28.958 -14.847  -4.252  1.00  0.00    -0.377 OA
HETATM    9  C7  UNL     1     -29.238 -16.170  -3.840  1.00  0.00     0.129 C 
HETATM   10  C10 UNL     1     -28.908 -15.850  -2.440  1.00  0.00     0.056 C 
HETATM   11  C11 UNL     1     -27.588 -16.130  -1.887  1.00  0.00     0.068 C 
ENDROOT
BRANCH   3  12
HETATM   12  O1  UNL     1     -26.344 -15.307   0.010  1.00  0.00    -0.376 OA
ATOM     13  H1  UNL     1     -27.059 -15.213   0.628  1.00  0.00     0.211 HD
ENDBRANCH   3  12
BRANCH  11  14
HETATM   14  C12 UNL     1     -27.714 -17.216  -0.805  1.00  0.00     0.238 C 
BRANCH  14  15
HETATM   15  N1  UNL     1     -29.057 -17.259  -0.274  1.00  0.00    -0.079 N 
ATOM     16  H13 UNL     1     -29.447 -18.201  -0.310  1.00  0.00     0.274 HD
ATOM     17  H12 UNL     1     -29.067 -17.126   0.737  1.00  0.00     0.274 HD
ATOM     18  H11 UNL     1     -29.656 -16.584  -0.748  1.00  0.00     0.274 HD
ENDBRANCH  14  15
ENDBRANCH  11  14
BRANCH   6  19
HETATM   19  O2  UNL     1     -28.857 -12.163  -2.421  1.00  0.00    -0.392 OA
ATOM     20  H2  UNL     1     -29.217 -11.946  -3.273  1.00  0.00     0.210 HD
ENDBRANCH   6  19
BRANCH   9  21
HETATM   21  C8  UNL     1     -28.427 -17.129  -4.608  1.00  0.00     0.028 C 
HETATM   22  C9  UNL     1     -29.366 -18.223  -5.135  1.00  0.00     0.007 C 
ENDBRANCH   9  21
TORSDOF 5
ENDMDL
