MODEL 1
REMARK VINA RESULT: -6.195579790      0.000      0.000
REMARK  8 active torsions:
REMARK  status: ('A' for Active; 'I' for Inactive)
REMARK    1  A    between atoms: N1_1  and  N2_4 
REMARK    2  A    between atoms: N2_4  and  N3_5 
REMARK    3  A    between atoms: N3_5  and  C1_7 
REMARK    4  A    between atoms: C3_10  and  O1_11 
REMARK    5  A    between atoms: C5_14  and  O2_15 
REMARK    6  A    between atoms: C6_17  and  O3_18 
REMARK    7  A    between atoms: C7_20  and  C8_21 
REMARK    8  A    between atoms: C8_21  and  N4_22 
ROOT
HETATM    1  C1  UNL     1     -28.544 -16.059  -2.074  1.00  0.00     0.367 C 
HETATM    2  C2  UNL     1     -29.099 -14.913  -2.926  1.00  0.00     0.144 C 
HETATM    3 BR1  UNL     1     -28.961 -13.240  -1.992  1.00  0.00    -0.084 Br
HETATM    4  C3  UNL     1     -28.075 -14.995  -4.064  1.00  0.00     0.172 C 
HETATM    5  C4  UNL     1     -27.928 -16.495  -4.208  1.00  0.00     0.287 C 
HETATM    6  C5  UNL     1     -28.684 -16.952  -5.400  1.00  0.00     0.185 C 
HETATM    7  C6  UNL     1     -29.844 -17.739  -4.862  1.00  0.00     0.184 C 
HETATM    8  C7  UNL     1     -29.679 -17.762  -3.345  1.00  0.00     0.282 C 
HETATM    9  N5  UNL     1     -28.459 -17.104  -3.038  1.00  0.00     0.133 N 
ENDROOT
BRANCH   1  10
HETATM   10  N3  UNL     1     -29.339 -16.329  -0.933  1.00  0.00    -0.217 N 
ATOM     11  H3  UNL     1     -30.333 -16.100  -0.920  1.00  0.00     0.199 HD
BRANCH  10  12
HETATM   12  N2  UNL     1     -28.786 -16.855   0.056  1.00  0.00    -0.246 NA
BRANCH  12  13
HETATM   13  N1  UNL     1     -28.196 -17.376   1.003  1.00  0.00    -0.261 N 
ATOM     14  H12 UNL     1     -27.632 -16.684   0.509  1.00  0.00     0.193 HD
ATOM     15  H11 UNL     1     -27.742 -17.831   1.796  1.00  0.00     0.193 HD
ENDBRANCH  12  13
ENDBRANCH  10  12
ENDBRANCH   1  10
BRANCH   4  16
HETATM   16  O1  UNL     1     -26.855 -14.483  -3.623  1.00  0.00    -0.392 OA
ATOM     17  H1  UNL     1     -26.667 -13.677  -4.089  1.00  0.00     0.210 HD
ENDBRANCH   4  16
BRANCH   8  18
HETATM   18  C8  UNL     1     -29.724 -19.206  -2.923  1.00  0.00     0.268 C 
BRANCH  18  19
HETATM   19  N4  UNL     1     -31.033 -19.770  -2.904  1.00  0.00    -0.077 N 
ATOM     20  H43 UNL     1     -31.637 -19.291  -3.572  1.00  0.00     0.274 HD
ATOM     21  H42 UNL     1     -31.025 -20.704  -3.315  1.00  0.00     0.274 HD
ATOM     22  H41 UNL     1     -31.468 -19.790  -1.981  1.00  0.00     0.274 HD
ENDBRANCH  18  19
ENDBRANCH   8  18
BRANCH   6  23
HETATM   23  O2  UNL     1     -27.870 -17.696  -6.251  1.00  0.00    -0.391 OA
ATOM     24  H2  UNL     1     -27.610 -18.513  -5.844  1.00  0.00     0.210 HD
ENDBRANCH   6  23
BRANCH   7  25
HETATM   25  O3  UNL     1     -29.757 -19.026  -5.403  1.00  0.00    -0.391 OA
ATOM     26  H3  UNL     1     -30.639 -19.379  -5.431  1.00  0.00     0.210 HD
ENDBRANCH   7  25
TORSDOF 8
ENDMDL
MODEL 2
REMARK VINA RESULT: -5.976758267      3.301      4.667
REMARK  8 active torsions:
REMARK  status: ('A' for Active; 'I' for Inactive)
REMARK    1  A    between atoms: N1_1  and  N2_4 
REMARK    2  A    between atoms: N2_4  and  N3_5 
REMARK    3  A    between atoms: N3_5  and  C1_7 
REMARK    4  A    between atoms: C3_10  and  O1_11 
REMARK    5  A    between atoms: C5_14  and  O2_15 
REMARK    6  A    between atoms: C6_17  and  O3_18 
REMARK    7  A    between atoms: C7_20  and  C8_21 
REMARK    8  A    between atoms: C8_21  and  N4_22 
ROOT
HETATM    1  C1  UNL     1     -26.361 -14.030  -3.937  1.00  0.00     0.367 C 
HETATM    2  C2  UNL     1     -26.000 -13.630  -2.502  1.00  0.00     0.144 C 
HETATM    3 BR1  UNL     1     -24.420 -12.537  -2.478  1.00  0.00    -0.084 Br
HETATM    4  C3  UNL     1     -27.251 -12.797  -2.205  1.00  0.00     0.172 C 
HETATM    5  C4  UNL     1     -28.319 -13.639  -2.870  1.00  0.00     0.287 C 
HETATM    6  C5  UNL     1     -29.069 -14.392  -1.836  1.00  0.00     0.185 C 
HETATM    7  C6  UNL     1     -28.687 -15.831  -2.030  1.00  0.00     0.184 C 
HETATM    8  C7  UNL     1     -27.756 -15.867  -3.239  1.00  0.00     0.282 C 
HETATM    9  N5  UNL     1     -27.676 -14.546  -3.756  1.00  0.00     0.133 N 
ENDROOT
BRANCH   1  10
HETATM   10  N3  UNL     1     -25.419 -14.917  -4.513  1.00  0.00    -0.217 N 
ATOM     11  H3  UNL     1     -25.364 -15.891  -4.214  1.00  0.00     0.199 HD
BRANCH  10  12
HETATM   12  N2  UNL     1     -24.659 -14.471  -5.398  1.00  0.00    -0.246 NA
BRANCH  12  13
HETATM   13  N1  UNL     1     -23.872 -14.066  -6.254  1.00  0.00    -0.261 N 
ATOM     14  H12 UNL     1     -24.816 -13.697  -6.369  1.00  0.00     0.193 HD
ATOM     15  H11 UNL     1     -23.188 -13.755  -6.945  1.00  0.00     0.193 HD
ENDBRANCH  12  13
ENDBRANCH  10  12
ENDBRANCH   1  10
BRANCH   4  16
HETATM   16  O1  UNL     1     -27.170 -11.585  -2.889  1.00  0.00    -0.392 OA
ATOM     17  H1  UNL     1     -27.464 -10.883  -2.319  1.00  0.00     0.210 HD
ENDBRANCH   4  16
BRANCH   8  18
HETATM   18  C8  UNL     1     -28.328 -16.873  -4.201  1.00  0.00     0.268 C 
BRANCH  18  19
HETATM   19  N4  UNL     1     -28.956 -16.298  -5.345  1.00  0.00    -0.077 N 
ATOM     20  H43 UNL     1     -28.326 -16.321  -6.146  1.00  0.00     0.274 HD
ATOM     21  H42 UNL     1     -29.697 -16.909  -5.689  1.00  0.00     0.274 HD
ATOM     22  H41 UNL     1     -29.312 -15.354  -5.197  1.00  0.00     0.274 HD
ENDBRANCH  18  19
ENDBRANCH   8  18
BRANCH   6  23
HETATM   23  O2  UNL     1     -30.439 -14.172  -1.954  1.00  0.00    -0.391 OA
ATOM     24  H2  UNL     1     -30.692 -13.362  -1.528  1.00  0.00     0.210 HD
ENDBRANCH   6  23
BRANCH   7  25
HETATM   25  O3  UNL     1     -29.866 -16.543  -2.275  1.00  0.00    -0.391 OA
ATOM     26  H3  UNL     1     -30.320 -16.628  -1.445  1.00  0.00     0.210 HD
ENDBRANCH   7  25
TORSDOF 8
ENDMDL
MODEL 3
REMARK VINA RESULT: -5.393323900      2.469      3.630
REMARK  8 active torsions:
REMARK  status: ('A' for Active; 'I' for Inactive)
REMARK    1  A    between atoms: N1_1  and  N2_4 
REMARK    2  A    between atoms: N2_4  and  N3_5 
REMARK    3  A    between atoms: N3_5  and  C1_7 
REMARK    4  A    between atoms: C3_10  and  O1_11 
REMARK    5  A    between atoms: C5_14  and  O2_15 
REMARK    6  A    between atoms: C6_17  and  O3_18 
REMARK    7  A    between atoms: C7_20  and  C8_21 
REMARK    8  A    between atoms: C8_21  and  N4_22 
ROOT
HETATM    1  C1  UNL     1     -28.424 -16.975  -1.458  1.00  0.00     0.367 C 
HETATM    2  C2  UNL     1     -28.352 -15.772  -0.511  1.00  0.00     0.144 C 
HETATM    3 BR1  UNL     1     -28.659 -16.315   1.306  1.00  0.00    -0.084 Br
HETATM    4  C3  UNL     1     -26.876 -15.425  -0.740  1.00  0.00     0.172 C 
HETATM    5  C4  UNL     1     -26.759 -15.652  -2.232  1.00  0.00     0.287 C 
HETATM    6  C5  UNL     1     -26.755 -14.344  -2.931  1.00  0.00     0.185 C 
HETATM    7  C6  UNL     1     -28.061 -14.280  -3.669  1.00  0.00     0.184 C 
HETATM    8  C7  UNL     1     -28.762 -15.611  -3.415  1.00  0.00     0.282 C 
HETATM    9  N5  UNL     1     -27.880 -16.420  -2.651  1.00  0.00     0.133 N 
ENDROOT
BRANCH   1  10
HETATM   10  N3  UNL     1     -29.730 -17.512  -1.562  1.00  0.00    -0.217 N 
ATOM     11  H3  UNL     1     -30.495 -17.148  -0.994  1.00  0.00     0.199 HD
BRANCH  10  12
HETATM   12  N2  UNL     1     -29.917 -18.446  -2.370  1.00  0.00    -0.246 NA
BRANCH  12  13
HETATM   13  N1  UNL     1     -30.150 -19.375  -3.145  1.00  0.00    -0.261 N 
ATOM     14  H12 UNL     1     -30.717 -19.407  -2.298  1.00  0.00     0.193 HD
ATOM     15  H11 UNL     1     -30.312 -20.127  -3.815  1.00  0.00     0.193 HD
ENDBRANCH  12  13
ENDBRANCH  10  12
ENDBRANCH   1  10
BRANCH   4  16
HETATM   16  O1  UNL     1     -26.077 -16.368  -0.096  1.00  0.00    -0.392 OA
ATOM     17  H1  UNL     1     -25.748 -15.998   0.716  1.00  0.00     0.210 HD
ENDBRANCH   4  16
BRANCH   8  18
HETATM   18  C8  UNL     1     -29.114 -16.184  -4.761  1.00  0.00     0.268 C 
BRANCH  18  19
HETATM   19  N4  UNL     1     -28.251 -17.233  -5.195  1.00  0.00    -0.077 N 
ATOM     20  H43 UNL     1     -27.635 -17.524  -4.437  1.00  0.00     0.274 HD
ATOM     21  H42 UNL     1     -28.779 -18.095  -5.331  1.00  0.00     0.274 HD
ATOM     22  H41 UNL     1     -27.710 -17.011  -6.031  1.00  0.00     0.274 HD
ENDBRANCH  18  19
ENDBRANCH   8  18
BRANCH   6  23
HETATM   23  O2  UNL     1     -25.650 -14.230  -3.771  1.00  0.00    -0.391 OA
ATOM     24  H2  UNL     1     -25.844 -13.673  -4.515  1.00  0.00     0.210 HD
ENDBRANCH   6  23
BRANCH   7  25
HETATM   25  O3  UNL     1     -27.762 -14.114  -5.026  1.00  0.00    -0.391 OA
ATOM     26  H3  UNL     1     -28.342 -14.687  -5.514  1.00  0.00     0.210 HD
ENDBRANCH   7  25
TORSDOF 8
ENDMDL
MODEL 4
REMARK VINA RESULT: -5.392139717      2.861      3.956
REMARK  8 active torsions:
REMARK  status: ('A' for Active; 'I' for Inactive)
REMARK    1  A    between atoms: N1_1  and  N2_4 
REMARK    2  A    between atoms: N2_4  and  N3_5 
REMARK    3  A    between atoms: N3_5  and  C1_7 
REMARK    4  A    between atoms: C3_10  and  O1_11 
REMARK    5  A    between atoms: C5_14  and  O2_15 
REMARK    6  A    between atoms: C6_17  and  O3_18 
REMARK    7  A    between atoms: C7_20  and  C8_21 
REMARK    8  A    between atoms: C8_21  and  N4_22 
ROOT
HETATM    1  C1  UNL     1     -27.861 -15.265  -1.094  1.00  0.00     0.367 C 
HETATM    2  C2  UNL     1     -27.264 -16.655  -0.853  1.00  0.00     0.144 C 
HETATM    3 BR1  UNL     1     -26.564 -16.796   0.931  1.00  0.00    -0.084 Br
HETATM    4  C3  UNL     1     -28.561 -17.459  -1.001  1.00  0.00     0.172 C 
HETATM    5  C4  UNL     1     -29.215 -16.734  -2.158  1.00  0.00     0.287 C 
HETATM    6  C5  UNL     1     -29.054 -17.536  -3.395  1.00  0.00     0.185 C 
HETATM    7  C6  UNL     1     -28.099 -16.759  -4.255  1.00  0.00     0.184 C 
HETATM    8  C7  UNL     1     -27.782 -15.476  -3.493  1.00  0.00     0.282 C 
HETATM    9  N5  UNL     1     -28.570 -15.476  -2.311  1.00  0.00     0.133 N 
ENDROOT
BRANCH   1  10
HETATM   10  N3  UNL     1     -26.881 -14.243  -1.115  1.00  0.00    -0.217 N 
ATOM     11  H3  UNL     1     -25.892 -14.466  -1.231  1.00  0.00     0.199 HD
BRANCH  10  12
HETATM   12  N2  UNL     1     -27.263 -13.061  -0.987  1.00  0.00    -0.246 NA
BRANCH  12  13
HETATM   13  N1  UNL     1     -27.678 -11.912  -0.826  1.00  0.00    -0.261 N 
ATOM     14  H12 UNL     1     -27.474 -12.134  -1.801  1.00  0.00     0.193 HD
ATOM     15  H11 UNL     1     -28.024 -10.969  -0.651  1.00  0.00     0.193 HD
ENDBRANCH  12  13
ENDBRANCH  10  12
ENDBRANCH   1  10
BRANCH   4  16
HETATM   16  O1  UNL     1     -29.353 -17.267   0.131  1.00  0.00    -0.392 OA
ATOM     17  H1  UNL     1     -29.060 -16.488   0.589  1.00  0.00     0.210 HD
ENDBRANCH   4  16
BRANCH   8  18
HETATM   18  C8  UNL     1     -28.070 -14.331  -4.425  1.00  0.00     0.268 C 
BRANCH  18  19
HETATM   19  N4  UNL     1     -28.912 -13.322  -3.873  1.00  0.00    -0.077 N 
ATOM     20  H43 UNL     1     -28.942 -13.401  -2.857  1.00  0.00     0.274 HD
ATOM     21  H42 UNL     1     -28.476 -12.405  -3.964  1.00  0.00     0.274 HD
ATOM     22  H41 UNL     1     -29.856 -13.308  -4.258  1.00  0.00     0.274 HD
ENDBRANCH  18  19
ENDBRANCH   8  18
BRANCH   6  23
HETATM   23  O2  UNL     1     -30.284 -17.755  -4.011  1.00  0.00    -0.391 OA
ATOM     24  H2  UNL     1     -30.221 -17.634  -4.951  1.00  0.00     0.210 HD
ENDBRANCH   6  23
BRANCH   7  25
HETATM   25  O3  UNL     1     -28.754 -16.486  -5.461  1.00  0.00    -0.391 OA
ATOM     26  H3  UNL     1     -28.395 -15.673  -5.798  1.00  0.00     0.210 HD
ENDBRANCH   7  25
TORSDOF 8
ENDMDL
MODEL 5
REMARK VINA RESULT: -5.372588506      3.277      4.453
REMARK  8 active torsions:
REMARK  status: ('A' for Active; 'I' for Inactive)
REMARK    1  A    between atoms: N1_1  and  N2_4 
REMARK    2  A    between atoms: N2_4  and  N3_5 
REMARK    3  A    between atoms: N3_5  and  C1_7 
REMARK    4  A    between atoms: C3_10  and  O1_11 
REMARK    5  A    between atoms: C5_14  and  O2_15 
REMARK    6  A    between atoms: C6_17  and  O3_18 
REMARK    7  A    between atoms: C7_20  and  C8_21 
REMARK    8  A    between atoms: C8_21  and  N4_22 
ROOT
HETATM    1  C1  UNL     1     -27.739 -14.890  -3.211  1.00  0.00     0.367 C 
HETATM    2  C2  UNL     1     -26.847 -13.901  -2.453  1.00  0.00     0.144 C 
HETATM    3 BR1  UNL     1     -25.800 -12.852  -3.676  1.00  0.00    -0.084 Br
HETATM    4  C3  UNL     1     -27.966 -13.062  -1.825  1.00  0.00     0.172 C 
HETATM    5  C4  UNL     1     -28.960 -14.142  -1.457  1.00  0.00     0.287 C 
HETATM    6  C5  UNL     1     -28.890 -14.402   0.001  1.00  0.00     0.185 C 
HETATM    7  C6  UNL     1     -28.290 -15.772   0.136  1.00  0.00     0.184 C 
HETATM    8  C7  UNL     1     -28.088 -16.293  -1.283  1.00  0.00     0.282 C 
HETATM    9  N5  UNL     1     -28.616 -15.321  -2.174  1.00  0.00     0.133 N 
ENDROOT
BRANCH   1  10
HETATM   10  N3  UNL     1     -27.000 -15.907  -3.863  1.00  0.00    -0.217 N 
ATOM     11  H3  UNL     1     -26.026 -16.086  -3.619  1.00  0.00     0.199 HD
BRANCH  10  12
HETATM   12  N2  UNL     1     -27.577 -16.577  -4.745  1.00  0.00    -0.246 NA
BRANCH  12  13
HETATM   13  N1  UNL     1     -28.136 -17.282  -5.586  1.00  0.00    -0.261 N 
ATOM     14  H12 UNL     1     -27.320 -16.791  -5.951  1.00  0.00     0.193 HD
ATOM     15  H11 UNL     1     -28.629 -17.878  -6.252  1.00  0.00     0.193 HD
ENDBRANCH  12  13
ENDBRANCH  10  12
ENDBRANCH   1  10
BRANCH   4  16
HETATM   16  O1  UNL     1     -28.544 -12.259  -2.806  1.00  0.00    -0.392 OA
ATOM     17  H1  UNL     1     -28.000 -11.492  -2.945  1.00  0.00     0.210 HD
ENDBRANCH   4  16
BRANCH   8  18
HETATM   18  C8  UNL     1     -28.769 -17.632  -1.358  1.00  0.00     0.268 C 
BRANCH  18  19
HETATM   19  N4  UNL     1     -29.968 -17.638  -2.129  1.00  0.00    -0.077 N 
ATOM     20  H43 UNL     1     -29.866 -17.044  -2.951  1.00  0.00     0.274 HD
ATOM     21  H42 UNL     1     -30.096 -18.542  -2.584  1.00  0.00     0.274 HD
ATOM     22  H41 UNL     1     -30.805 -17.382  -1.605  1.00  0.00     0.274 HD
ENDBRANCH  18  19
ENDBRANCH   8  18
BRANCH   6  23
HETATM   23  O2  UNL     1     -30.149 -14.299   0.588  1.00  0.00    -0.391 OA
ATOM     24  H2  UNL     1     -30.835 -14.356  -0.067  1.00  0.00     0.210 HD
ENDBRANCH   6  23
BRANCH   7  25
HETATM   25  O3  UNL     1     -29.208 -16.558   0.841  1.00  0.00    -0.391 OA
ATOM     26  H3  UNL     1     -28.749 -17.342   1.121  1.00  0.00     0.210 HD
ENDBRANCH   7  25
TORSDOF 8
ENDMDL
