MODEL 1
REMARK VINA RESULT: -5.967891762      0.000      0.000
REMARK  5 active torsions:
REMARK  status: ('A' for Active; 'I' for Inactive)
REMARK    1  A    between atoms: C2_2  and  O1_3 
REMARK    2  A    between atoms: C4_6  and  N1_7 
REMARK    3  A    between atoms: N1_7  and  S1_9 
REMARK    4  A    between atoms: C6_13  and  O4_14 
REMARK    5  A    between atoms: C7_16  and  O5_17 
ROOT
HETATM    1  C1  UNL     1     -27.201 -15.053  -0.754  1.00  0.00     0.047 C 
HETATM    2  C2  UNL     1     -28.552 -15.182  -1.380  1.00  0.00     0.072 C 
HETATM    3  C3  UNL     1     -28.898 -16.637  -1.580  1.00  0.00     0.067 C 
HETATM    4  C4  UNL     1     -28.925 -16.922  -3.053  1.00  0.00     0.127 C 
HETATM    5  C6  UNL     1     -27.652 -16.427  -3.683  1.00  0.00     0.171 C 
HETATM    6  C7  UNL     1     -27.677 -14.917  -3.678  1.00  0.00     0.166 C 
HETATM    7  C8  UNL     1     -28.653 -14.375  -2.657  1.00  0.00     0.123 C 
HETATM    8 BR1  UNL     1     -28.149 -12.540  -2.303  1.00  0.00    -0.085 Br
ENDROOT
BRANCH   4   9
HETATM    9  N1  UNL     1     -29.237 -18.281  -3.377  1.00  0.00    -0.312 N 
ATOM     10  H1  UNL     1     -28.880 -19.063  -2.828  1.00  0.00     0.172 HD
BRANCH   9  11
HETATM   11  S1  UNL     1     -30.232 -18.512  -4.722  1.00  0.00     0.223 S 
HETATM   12  C5  UNL     1     -31.732 -19.399  -4.322  1.00  0.00     0.185 C 
HETATM   13  O2  UNL     1     -30.529 -17.263  -5.494  1.00  0.00    -0.206 OA
HETATM   14  O3  UNL     1     -29.479 -19.426  -5.684  1.00  0.00    -0.206 OA
ENDBRANCH   9  11
ENDBRANCH   4   9
BRANCH   5  15
HETATM   15  O4  UNL     1     -27.640 -16.836  -5.010  1.00  0.00    -0.391 OA
ATOM     16  H4  UNL     1     -26.780 -16.650  -5.369  1.00  0.00     0.210 HD
ENDBRANCH   5  15
BRANCH   2  17
HETATM   17  O1  UNL     1     -29.479 -14.600  -0.485  1.00  0.00    -0.389 OA
ATOM     18  H1  UNL     1     -30.336 -14.667  -0.891  1.00  0.00     0.210 HD
ENDBRANCH   2  17
BRANCH   6  19
HETATM   19  O5  UNL     1     -27.959 -14.375  -4.927  1.00  0.00    -0.392 OA
ATOM     20  H5  UNL     1     -27.553 -13.527  -5.062  1.00  0.00     0.210 HD
ENDBRANCH   6  19
TORSDOF 5
ENDMDL
MODEL 2
REMARK VINA RESULT: -5.959435928      3.287      5.336
REMARK  5 active torsions:
REMARK  status: ('A' for Active; 'I' for Inactive)
REMARK    1  A    between atoms: C2_2  and  O1_3 
REMARK    2  A    between atoms: C4_6  and  N1_7 
REMARK    3  A    between atoms: N1_7  and  S1_9 
REMARK    4  A    between atoms: C6_13  and  O4_14 
REMARK    5  A    between atoms: C7_16  and  O5_17 
ROOT
HETATM    1  C1  UNL     1     -26.835 -15.925  -3.728  1.00  0.00     0.047 C 
HETATM    2  C2  UNL     1     -28.165 -15.272  -3.536  1.00  0.00     0.072 C 
HETATM    3  C3  UNL     1     -28.155 -14.426  -2.285  1.00  0.00     0.067 C 
HETATM    4  C4  UNL     1     -29.066 -15.058  -1.275  1.00  0.00     0.127 C 
HETATM    5  C6  UNL     1     -28.714 -16.512  -1.121  1.00  0.00     0.171 C 
HETATM    6  C7  UNL     1     -29.128 -17.236  -2.381  1.00  0.00     0.166 C 
HETATM    7  C8  UNL     1     -29.290 -16.285  -3.547  1.00  0.00     0.123 C 
HETATM    8 BR1  UNL     1     -29.188 -17.344  -5.164  1.00  0.00    -0.085 Br
ENDROOT
BRANCH   4   9
HETATM    9  N1  UNL     1     -29.140 -14.349  -0.034  1.00  0.00    -0.312 N 
ATOM     10  H1  UNL     1     -28.703 -14.703   0.817  1.00  0.00     0.172 HD
BRANCH   9  11
HETATM   11  S1  UNL     1     -29.992 -12.890  -0.062  1.00  0.00     0.223 S 
HETATM   12  C5  UNL     1     -28.926 -11.477  -0.310  1.00  0.00     0.185 C 
HETATM   13  O2  UNL     1     -31.150 -12.870  -1.012  1.00  0.00    -0.206 OA
HETATM   14  O3  UNL     1     -30.590 -12.694   1.327  1.00  0.00    -0.206 OA
ENDBRANCH   9  11
ENDBRANCH   4   9
BRANCH   5  15
HETATM   15  O4  UNL     1     -29.470 -17.031  -0.078  1.00  0.00    -0.391 OA
ATOM     16  H4  UNL     1     -28.911 -17.100   0.686  1.00  0.00     0.210 HD
ENDBRANCH   5  15
BRANCH   2  17
HETATM   17  O1  UNL     1     -28.385 -14.443  -4.659  1.00  0.00    -0.389 OA
ATOM     18  H1  UNL     1     -29.269 -14.616  -4.963  1.00  0.00     0.210 HD
ENDBRANCH   2  17
BRANCH   6  19
HETATM   19  O5  UNL     1     -30.292 -17.979  -2.220  1.00  0.00    -0.392 OA
ATOM     20  H5  UNL     1     -31.073 -17.506  -2.483  1.00  0.00     0.210 HD
ENDBRANCH   6  19
TORSDOF 5
ENDMDL
MODEL 3
REMARK VINA RESULT: -5.871321889      3.575      5.021
REMARK  5 active torsions:
REMARK  status: ('A' for Active; 'I' for Inactive)
REMARK    1  A    between atoms: C2_2  and  O1_3 
REMARK    2  A    between atoms: C4_6  and  N1_7 
REMARK    3  A    between atoms: N1_7  and  S1_9 
REMARK    4  A    between atoms: C6_13  and  O4_14 
REMARK    5  A    between atoms: C7_16  and  O5_17 
ROOT
HETATM    1  C1  UNL     1     -28.602 -15.770  -0.840  1.00  0.00     0.047 C 
HETATM    2  C2  UNL     1     -27.540 -16.411  -1.671  1.00  0.00     0.072 C 
HETATM    3  C3  UNL     1     -26.298 -15.552  -1.684  1.00  0.00     0.067 C 
HETATM    4  C4  UNL     1     -26.113 -15.002  -3.067  1.00  0.00     0.127 C 
HETATM    5  C6  UNL     1     -27.393 -14.361  -3.527  1.00  0.00     0.171 C 
HETATM    6  C7  UNL     1     -28.405 -15.453  -3.781  1.00  0.00     0.166 C 
HETATM    7  C8  UNL     1     -28.041 -16.734  -3.063  1.00  0.00     0.123 C 
HETATM    8 BR1  UNL     1     -29.654 -17.796  -2.937  1.00  0.00    -0.085 Br
ENDROOT
BRANCH   4   9
HETATM    9  N1  UNL     1     -24.964 -14.160  -3.209  1.00  0.00    -0.312 N 
ATOM     10  H1  UNL     1     -24.697 -13.485  -2.493  1.00  0.00     0.172 HD
BRANCH   9  11
HETATM   11  S1  UNL     1     -24.076 -14.352  -4.633  1.00  0.00     0.223 S 
HETATM   12  C5  UNL     1     -22.314 -14.407  -4.341  1.00  0.00     0.185 C 
HETATM   13  O2  UNL     1     -24.521 -15.497  -5.490  1.00  0.00    -0.206 OA
HETATM   14  O3  UNL     1     -24.298 -13.096  -5.471  1.00  0.00    -0.206 OA
ENDBRANCH   9  11
ENDBRANCH   4   9
BRANCH   5  15
HETATM   15  O4  UNL     1     -27.149 -13.733  -4.742  1.00  0.00    -0.391 OA
ATOM     16  H4  UNL     1     -27.804 -13.056  -4.861  1.00  0.00     0.210 HD
ENDBRANCH   5  15
BRANCH   2  17
HETATM   17  O1  UNL     1     -27.241 -17.656  -1.073  1.00  0.00    -0.389 OA
ATOM     18  H1  UNL     1     -26.384 -17.573  -0.671  1.00  0.00     0.210 HD
ENDBRANCH   2  17
BRANCH   6  19
HETATM   19  O5  UNL     1     -28.593 -15.714  -5.134  1.00  0.00    -0.392 OA
ATOM     20  H5  UNL     1     -29.026 -16.544  -5.294  1.00  0.00     0.210 HD
ENDBRANCH   6  19
TORSDOF 5
ENDMDL
MODEL 4
REMARK VINA RESULT: -5.795459858      3.313      5.282
REMARK  5 active torsions:
REMARK  status: ('A' for Active; 'I' for Inactive)
REMARK    1  A    between atoms: C2_2  and  O1_3 
REMARK    2  A    between atoms: C4_6  and  N1_7 
REMARK    3  A    between atoms: N1_7  and  S1_9 
REMARK    4  A    between atoms: C6_13  and  O4_14 
REMARK    5  A    between atoms: C7_16  and  O5_17 
ROOT
HETATM    1  C1  UNL     1     -26.829 -16.105  -4.045  1.00  0.00     0.047 C 
HETATM    2  C2  UNL     1     -28.134 -15.395  -3.889  1.00  0.00     0.072 C 
HETATM    3  C3  UNL     1     -28.021 -14.319  -2.836  1.00  0.00     0.067 C 
HETATM    4  C4  UNL     1     -28.859 -14.717  -1.657  1.00  0.00     0.127 C 
HETATM    5  C6  UNL     1     -28.508 -16.120  -1.243  1.00  0.00     0.171 C 
HETATM    6  C7  UNL     1     -29.024 -17.068  -2.300  1.00  0.00     0.166 C 
HETATM    7  C8  UNL     1     -29.266 -16.364  -3.617  1.00  0.00     0.123 C 
HETATM    8 BR1  UNL     1     -29.297 -17.724  -4.994  1.00  0.00    -0.085 Br
ENDROOT
BRANCH   4   9
HETATM    9  N1  UNL     1     -28.830 -13.775  -0.580  1.00  0.00    -0.312 N 
ATOM     10  H1  UNL     1     -28.203 -13.883   0.217  1.00  0.00     0.172 HD
BRANCH   9  11
HETATM   11  S1  UNL     1     -29.899 -12.472  -0.706  1.00  0.00     0.223 S 
HETATM   12  C5  UNL     1     -30.266 -11.730   0.878  1.00  0.00     0.185 C 
HETATM   13  O2  UNL     1     -29.496 -11.438  -1.711  1.00  0.00    -0.206 OA
HETATM   14  O3  UNL     1     -31.231 -13.032  -1.197  1.00  0.00    -0.206 OA
ENDBRANCH   9  11
ENDBRANCH   4   9
BRANCH   5  15
HETATM   15  O4  UNL     1     -29.187 -16.404  -0.066  1.00  0.00    -0.391 OA
ATOM     16  H4  UNL     1     -30.035 -16.766  -0.294  1.00  0.00     0.210 HD
ENDBRANCH   5  15
BRANCH   2  17
HETATM   17  O1  UNL     1     -28.432 -14.800  -5.136  1.00  0.00    -0.389 OA
ATOM     18  H1  UNL     1     -27.938 -13.989  -5.182  1.00  0.00     0.210 HD
ENDBRANCH   2  17
BRANCH   6  19
HETATM   19  O5  UNL     1     -30.179 -17.738  -1.910  1.00  0.00    -0.392 OA
ATOM     20  H5  UNL     1     -30.974 -17.275  -2.149  1.00  0.00     0.210 HD
ENDBRANCH   6  19
TORSDOF 5
ENDMDL
MODEL 5
REMARK VINA RESULT: -5.776097999      1.218      1.448
REMARK  5 active torsions:
REMARK  status: ('A' for Active; 'I' for Inactive)
REMARK    1  A    between atoms: C2_2  and  O1_3 
REMARK    2  A    between atoms: C4_6  and  N1_7 
REMARK    3  A    between atoms: N1_7  and  S1_9 
REMARK    4  A    between atoms: C6_13  and  O4_14 
REMARK    5  A    between atoms: C7_16  and  O5_17 
ROOT
HETATM    1  C1  UNL     1     -27.174 -15.134  -0.550  1.00  0.00     0.047 C 
HETATM    2  C2  UNL     1     -28.463 -15.632  -1.118  1.00  0.00     0.072 C 
HETATM    3  C3  UNL     1     -28.203 -16.743  -2.107  1.00  0.00     0.067 C 
HETATM    4  C4  UNL     1     -28.560 -16.252  -3.479  1.00  0.00     0.127 C 
HETATM    5  C6  UNL     1     -27.880 -14.935  -3.733  1.00  0.00     0.171 C 
HETATM    6  C7  UNL     1     -28.539 -13.887  -2.868  1.00  0.00     0.166 C 
HETATM    7  C8  UNL     1     -29.285 -14.505  -1.707  1.00  0.00     0.123 C 
HETATM    8 BR1  UNL     1     -29.523 -13.118  -0.378  1.00  0.00    -0.085 Br
ENDROOT
BRANCH   4   9
HETATM    9  N1  UNL     1     -28.351 -17.218  -4.514  1.00  0.00    -0.312 N 
ATOM     10  H1  UNL     1     -27.434 -17.368  -4.936  1.00  0.00     0.172 HD
BRANCH   9  11
HETATM   11  S1  UNL     1     -29.712 -18.095  -4.997  1.00  0.00     0.223 S 
HETATM   12  C5  UNL     1     -30.557 -18.861  -3.621  1.00  0.00     0.185 C 
HETATM   13  O2  UNL     1     -30.665 -17.330  -5.863  1.00  0.00    -0.206 OA
HETATM   14  O3  UNL     1     -29.216 -19.257  -5.851  1.00  0.00    -0.206 OA
ENDBRANCH   9  11
ENDBRANCH   4   9
BRANCH   5  15
HETATM   15  O4  UNL     1     -28.107 -14.581  -5.057  1.00  0.00    -0.391 OA
ATOM     16  H4  UNL     1     -28.728 -13.863  -5.068  1.00  0.00     0.210 HD
ENDBRANCH   5  15
BRANCH   2  17
HETATM   17  O1  UNL     1     -29.223 -16.137  -0.038  1.00  0.00    -0.389 OA
ATOM     18  H1  UNL     1     -28.654 -16.717   0.456  1.00  0.00     0.210 HD
ENDBRANCH   2  17
BRANCH   6  19
HETATM   19  O5  UNL     1     -29.394 -13.055  -3.582  1.00  0.00    -0.392 OA
ATOM     20  H5  UNL     1     -29.127 -12.938  -4.487  1.00  0.00     0.210 HD
ENDBRANCH   6  19
TORSDOF 5
ENDMDL
