MODEL 1
REMARK VINA RESULT: -7.138174620      0.000      0.000
REMARK  6 active torsions:
REMARK  status: ('A' for Active; 'I' for Inactive)
REMARK    1  A    between atoms: O1_1  and  C1_3 
REMARK    2  A    between atoms: C1_3  and  C2_4 
REMARK    3  A    between atoms: C3_6  and  N1_7 
REMARK    4  A    between atoms: C7_12  and  O3_13 
REMARK    5  A    between atoms: C9_16  and  O4_17 
REMARK    6  A    between atoms: C10_19  and  O5_20 
ROOT
HETATM    1  C2  UNL     1     -29.940 -18.524  -3.553  1.00  0.00     0.179 C 
HETATM    2  O2  UNL     1     -30.005 -17.373  -2.755  1.00  0.00    -0.354 OA
HETATM    3  C3  UNL     1     -28.819 -16.757  -3.080  1.00  0.00     0.259 C 
HETATM    4  C9  UNL     1     -28.715 -16.820  -4.608  1.00  0.00     0.198 C 
HETATM    5  C10 UNL     1     -29.714 -17.915  -4.920  1.00  0.00     0.182 C 
ENDROOT
BRANCH   3   6
HETATM    6  N1  UNL     1     -28.705 -15.413  -2.588  1.00  0.00    -0.335 N 
HETATM    7  C4  UNL     1     -28.918 -15.036  -1.326  1.00  0.00     0.095 A 
HETATM    8  C5  UNL     1     -28.796 -13.721  -0.898  1.00  0.00     0.039 A 
HETATM    9  C6  UNL     1     -28.440 -12.753  -1.808  1.00  0.00     0.046 A 
HETATM   10 BR1  UNL     1     -28.245 -10.911  -1.320  1.00  0.00    -0.048 Br
HETATM   11  C7  UNL     1     -28.219 -13.133  -3.114  1.00  0.00     0.098 A 
HETATM   12  C8  UNL     1     -28.357 -14.456  -3.470  1.00  0.00     0.131 A 
BRANCH  11  13
HETATM   13  O3  UNL     1     -27.856 -12.195  -4.079  1.00  0.00    -0.358 OA
ATOM     14  H3  UNL     1     -27.575 -12.469  -4.943  1.00  0.00     0.217 HD
ENDBRANCH  11  13
ENDBRANCH   3   6
BRANCH   4  15
HETATM   15  O4  UNL     1     -27.465 -17.259  -4.975  1.00  0.00    -0.388 OA
ATOM     16  H4  UNL     1     -27.494 -17.624  -5.851  1.00  0.00     0.210 HD
ENDBRANCH   4  15
BRANCH   1  17
HETATM   17  C1  UNL     1     -31.223 -19.316  -3.489  1.00  0.00     0.198 C 
BRANCH  17  18
HETATM   18  O1  UNL     1     -31.954 -19.211  -4.647  1.00  0.00    -0.398 OA
ATOM     19  H1  UNL     1     -32.654 -19.852  -4.686  1.00  0.00     0.209 HD
ENDBRANCH  17  18
ENDBRANCH   1  17
BRANCH   5  20
HETATM   20  O5  UNL     1     -29.199 -18.861  -5.791  1.00  0.00    -0.390 OA
ATOM     21  H5  UNL     1     -28.582 -18.457  -6.392  1.00  0.00     0.210 HD
ENDBRANCH   5  20
TORSDOF 6
ENDMDL
MODEL 2
REMARK VINA RESULT: -7.001962299      1.247      1.673
REMARK  6 active torsions:
REMARK  status: ('A' for Active; 'I' for Inactive)
REMARK    1  A    between atoms: O1_1  and  C1_3 
REMARK    2  A    between atoms: C1_3  and  C2_4 
REMARK    3  A    between atoms: C3_6  and  N1_7 
REMARK    4  A    between atoms: C7_12  and  O3_13 
REMARK    5  A    between atoms: C9_16  and  O4_17 
REMARK    6  A    between atoms: C10_19  and  O5_20 
ROOT
HETATM    1  C2  UNL     1     -29.998 -18.604  -3.415  1.00  0.00     0.179 C 
HETATM    2  O2  UNL     1     -30.090 -17.413  -2.682  1.00  0.00    -0.354 OA
HETATM    3  C3  UNL     1     -28.959 -16.753  -3.103  1.00  0.00     0.259 C 
HETATM    4  C9  UNL     1     -28.926 -16.902  -4.628  1.00  0.00     0.198 C 
HETATM    5  C10 UNL     1     -29.874 -18.067  -4.825  1.00  0.00     0.182 C 
ENDROOT
BRANCH   3   6
HETATM    6  N1  UNL     1     -28.899 -15.378  -2.696  1.00  0.00    -0.335 N 
HETATM    7  C4  UNL     1     -28.829 -14.334  -3.524  1.00  0.00     0.095 A 
HETATM    8  C5  UNL     1     -28.772 -13.020  -3.081  1.00  0.00     0.039 A 
HETATM    9  C6  UNL     1     -28.787 -12.769  -1.729  1.00  0.00     0.046 A 
HETATM   10 BR1  UNL     1     -28.712 -10.993  -1.015  1.00  0.00    -0.048 Br
HETATM   11  C7  UNL     1     -28.859 -13.841  -0.866  1.00  0.00     0.098 A 
HETATM   12  C8  UNL     1     -28.913 -15.121  -1.374  1.00  0.00     0.131 A 
BRANCH  11  13
HETATM   13  O3  UNL     1     -28.878 -13.647   0.514  1.00  0.00    -0.358 OA
ATOM     14  H3  UNL     1     -29.515 -14.091   1.059  1.00  0.00     0.217 HD
ENDBRANCH  11  13
ENDBRANCH   3   6
BRANCH   4  15
HETATM   15  O4  UNL     1     -27.672 -17.294  -5.034  1.00  0.00    -0.388 OA
ATOM     16  H4  UNL     1     -27.352 -17.988  -4.471  1.00  0.00     0.210 HD
ENDBRANCH   4  15
BRANCH   1  17
HETATM   17  C1  UNL     1     -31.228 -19.461  -3.239  1.00  0.00     0.198 C 
BRANCH  17  18
HETATM   18  O1  UNL     1     -31.657 -19.999  -4.427  1.00  0.00    -0.398 OA
ATOM     19  H1  UNL     1     -31.882 -20.918  -4.342  1.00  0.00     0.209 HD
ENDBRANCH  17  18
ENDBRANCH   1  17
BRANCH   5  20
HETATM   20  O5  UNL     1     -29.349 -19.034  -5.666  1.00  0.00    -0.390 OA
ATOM     21  H5  UNL     1     -28.888 -19.695  -5.163  1.00  0.00     0.210 HD
ENDBRANCH   5  20
TORSDOF 6
ENDMDL
MODEL 3
REMARK VINA RESULT: -6.975245126      1.489      1.574
REMARK  6 active torsions:
REMARK  status: ('A' for Active; 'I' for Inactive)
REMARK    1  A    between atoms: O1_1  and  C1_3 
REMARK    2  A    between atoms: C1_3  and  C2_4 
REMARK    3  A    between atoms: C3_6  and  N1_7 
REMARK    4  A    between atoms: C7_12  and  O3_13 
REMARK    5  A    between atoms: C9_16  and  O4_17 
REMARK    6  A    between atoms: C10_19  and  O5_20 
ROOT
HETATM    1  C2  UNL     1     -29.516 -17.997  -3.920  1.00  0.00     0.179 C 
HETATM    2  O2  UNL     1     -29.899 -17.180  -2.847  1.00  0.00    -0.354 OA
HETATM    3  C3  UNL     1     -28.785 -16.385  -2.706  1.00  0.00     0.259 C 
HETATM    4  C9  UNL     1     -28.404 -15.937  -4.122  1.00  0.00     0.198 C 
HETATM    5  C10 UNL     1     -29.149 -16.958  -4.957  1.00  0.00     0.182 C 
ENDROOT
BRANCH   3   6
HETATM    6  N1  UNL     1     -28.971 -15.270  -1.822  1.00  0.00    -0.335 N 
HETATM    7  C4  UNL     1     -28.618 -15.242  -0.535  1.00  0.00     0.095 A 
HETATM    8  C5  UNL     1     -28.820 -14.138   0.281  1.00  0.00     0.039 A 
HETATM    9  C6  UNL     1     -29.410 -13.014  -0.248  1.00  0.00     0.046 A 
HETATM   10 BR1  UNL     1     -29.733 -11.439   0.793  1.00  0.00    -0.048 Br
HETATM   11  C7  UNL     1     -29.778 -13.033  -1.576  1.00  0.00     0.098 A 
HETATM   12  C8  UNL     1     -29.548 -14.163  -2.330  1.00  0.00     0.131 A 
BRANCH  11  13
HETATM   13  O3  UNL     1     -30.379 -11.923  -2.166  1.00  0.00    -0.358 OA
ATOM     14  H3  UNL     1     -30.915 -12.016  -2.944  1.00  0.00     0.217 HD
ENDBRANCH  11  13
ENDBRANCH   3   6
BRANCH   4  15
HETATM   15  O4  UNL     1     -27.056 -16.116  -4.323  1.00  0.00    -0.388 OA
ATOM     16  H4  UNL     1     -26.867 -16.134  -5.254  1.00  0.00     0.210 HD
ENDBRANCH   4  15
BRANCH   1  17
HETATM   17  C1  UNL     1     -30.650 -18.882  -4.376  1.00  0.00     0.198 C 
BRANCH  17  18
HETATM   18  O1  UNL     1     -31.188 -18.459  -5.566  1.00  0.00    -0.398 OA
ATOM     19  H1  UNL     1     -31.663 -17.641  -5.472  1.00  0.00     0.209 HD
ENDBRANCH  17  18
ENDBRANCH   1  17
BRANCH   5  20
HETATM   20  O5  UNL     1     -28.347 -17.517  -5.939  1.00  0.00    -0.390 OA
ATOM     21  H5  UNL     1     -27.491 -17.107  -5.940  1.00  0.00     0.210 HD
ENDBRANCH   5  20
TORSDOF 6
ENDMDL
MODEL 4
REMARK VINA RESULT: -6.765735144      2.078      2.963
REMARK  6 active torsions:
REMARK  status: ('A' for Active; 'I' for Inactive)
REMARK    1  A    between atoms: O1_1  and  C1_3 
REMARK    2  A    between atoms: C1_3  and  C2_4 
REMARK    3  A    between atoms: C3_6  and  N1_7 
REMARK    4  A    between atoms: C7_12  and  O3_13 
REMARK    5  A    between atoms: C9_16  and  O4_17 
REMARK    6  A    between atoms: C10_19  and  O5_20 
ROOT
HETATM    1  C2  UNL     1     -29.516 -17.294  -4.387  1.00  0.00     0.179 C 
HETATM    2  O2  UNL     1     -28.423 -16.488  -4.736  1.00  0.00    -0.354 OA
HETATM    3  C3  UNL     1     -28.529 -15.479  -3.807  1.00  0.00     0.259 C 
HETATM    4  C9  UNL     1     -28.781 -16.168  -2.461  1.00  0.00     0.198 C 
HETATM    5  C10 UNL     1     -29.240 -17.537  -2.919  1.00  0.00     0.182 C 
ENDROOT
BRANCH   3   6
HETATM    6  N1  UNL     1     -27.390 -14.607  -3.760  1.00  0.00    -0.335 N 
HETATM    7  C4  UNL     1     -26.118 -15.001  -3.831  1.00  0.00     0.095 A 
HETATM    8  C5  UNL     1     -25.048 -14.117  -3.780  1.00  0.00     0.039 A 
HETATM    9  C6  UNL     1     -25.299 -12.771  -3.649  1.00  0.00     0.046 A 
HETATM   10 BR1  UNL     1     -23.896 -11.470  -3.569  1.00  0.00    -0.048 Br
HETATM   11  C7  UNL     1     -26.611 -12.355  -3.575  1.00  0.00     0.098 A 
HETATM   12  C8  UNL     1     -27.624 -13.287  -3.632  1.00  0.00     0.131 A 
BRANCH  11  13
HETATM   13  O3  UNL     1     -26.925 -11.004  -3.443  1.00  0.00    -0.358 OA
ATOM     14  H3  UNL     1     -27.452 -10.560  -4.097  1.00  0.00     0.217 HD
ENDBRANCH  11  13
ENDBRANCH   3   6
BRANCH   4  15
HETATM   15  O4  UNL     1     -29.827 -15.558  -1.811  1.00  0.00    -0.388 OA
ATOM     16  H4  UNL     1     -29.715 -15.637  -0.871  1.00  0.00     0.210 HD
ENDBRANCH   4  15
BRANCH   1  17
HETATM   17  C1  UNL     1     -29.536 -18.576  -5.183  1.00  0.00     0.198 C 
BRANCH  17  18
HETATM   18  O1  UNL     1     -30.358 -19.521  -4.618  1.00  0.00    -0.398 OA
ATOM     19  H1  UNL     1     -29.872 -20.155  -4.105  1.00  0.00     0.209 HD
ENDBRANCH  17  18
ENDBRANCH   1  17
BRANCH   5  20
HETATM   20  O5  UNL     1     -30.394 -17.946  -2.272  1.00  0.00    -0.390 OA
ATOM     21  H5  UNL     1     -31.094 -18.086  -2.899  1.00  0.00     0.210 HD
ENDBRANCH   5  20
TORSDOF 6
ENDMDL
MODEL 5
REMARK VINA RESULT: -6.637463957      1.655      1.956
REMARK  6 active torsions:
REMARK  status: ('A' for Active; 'I' for Inactive)
REMARK    1  A    between atoms: O1_1  and  C1_3 
REMARK    2  A    between atoms: C1_3  and  C2_4 
REMARK    3  A    between atoms: C3_6  and  N1_7 
REMARK    4  A    between atoms: C7_12  and  O3_13 
REMARK    5  A    between atoms: C9_16  and  O4_17 
REMARK    6  A    between atoms: C10_19  and  O5_20 
ROOT
HETATM    1  C2  UNL     1     -29.206 -17.528  -3.592  1.00  0.00     0.179 C 
HETATM    2  O2  UNL     1     -29.552 -16.462  -2.749  1.00  0.00    -0.354 OA
HETATM    3  C3  UNL     1     -28.445 -15.655  -2.873  1.00  0.00     0.259 C 
HETATM    4  C9  UNL     1     -28.137 -15.588  -4.374  1.00  0.00     0.198 C 
HETATM    5  C10 UNL     1     -28.904 -16.792  -4.879  1.00  0.00     0.182 C 
ENDROOT
BRANCH   3   6
HETATM    6  N1  UNL     1     -28.607 -14.349  -2.299  1.00  0.00    -0.335 N 
HETATM    7  C4  UNL     1     -27.616 -13.493  -2.046  1.00  0.00     0.095 A 
HETATM    8  C5  UNL     1     -27.823 -12.239  -1.487  1.00  0.00     0.039 A 
HETATM    9  C6  UNL     1     -29.105 -11.849  -1.176  1.00  0.00     0.046 A 
HETATM   10 BR1  UNL     1     -29.498 -10.142  -0.404  1.00  0.00    -0.048 Br
HETATM   11  C7  UNL     1     -30.136 -12.727  -1.435  1.00  0.00     0.098 A 
HETATM   12  C8  UNL     1     -29.859 -13.957  -1.991  1.00  0.00     0.131 A 
BRANCH  11  13
HETATM   13  O3  UNL     1     -31.455 -12.386  -1.142  1.00  0.00    -0.358 OA
ATOM     14  H3  UNL     1     -32.138 -12.480  -1.794  1.00  0.00     0.217 HD
ENDBRANCH  11  13
ENDBRANCH   3   6
BRANCH   4  15
HETATM   15  O4  UNL     1     -26.797 -15.809  -4.587  1.00  0.00    -0.388 OA
ATOM     16  H4  UNL     1     -26.308 -15.011  -4.426  1.00  0.00     0.210 HD
ENDBRANCH   4  15
BRANCH   1  17
HETATM   17  C1  UNL     1     -30.346 -18.504  -3.748  1.00  0.00     0.198 C 
BRANCH  17  18
HETATM   18  O1  UNL     1     -30.128 -19.392  -4.772  1.00  0.00    -0.398 OA
ATOM     19  H1  UNL     1     -29.228 -19.373  -5.075  1.00  0.00     0.209 HD
ENDBRANCH  17  18
ENDBRANCH   1  17
BRANCH   5  20
HETATM   20  O5  UNL     1     -28.140 -17.584  -5.720  1.00  0.00    -0.390 OA
ATOM     21  H5  UNL     1     -28.297 -17.352  -6.628  1.00  0.00     0.210 HD
ENDBRANCH   5  20
TORSDOF 6
ENDMDL
