MODEL 1
REMARK VINA RESULT: -7.287009946      0.000      0.000
REMARK  6 active torsions:
REMARK  status: ('A' for Active; 'I' for Inactive)
REMARK    1  A    between atoms: C2_2  and  C3_3 
REMARK    2  A    between atoms: N2_11  and  O3_12 
REMARK    3  A    between atoms: O3_12  and  C7_13 
REMARK    4  A    between atoms: C8_14  and  O4_15 
REMARK    5  A    between atoms: C9_17  and  O5_18 
REMARK    6  A    between atoms: C10_20  and  O6_21 
ROOT
HETATM    1  C7  UNL     1     -24.790 -14.295  -3.997  1.00  0.00     0.204 C 
HETATM    2  C8  UNL     1     -23.885 -14.546  -5.196  1.00  0.00     0.182 C 
HETATM    3  C9  UNL     1     -22.446 -14.651  -4.899  1.00  0.00     0.179 C 
HETATM    4  C10 UNL     1     -21.897 -13.755  -3.808  1.00  0.00     0.164 C 
HETATM    5  C11 UNL     1     -22.851 -13.918  -2.643  1.00  0.00     0.100 A 
HETATM    6  S1  UNL     1     -23.698 -12.964  -1.640  1.00  0.00    -0.146 SA
HETATM    7  C12 UNL     1     -24.093 -13.176  -3.205  1.00  0.00     0.051 A 
HETATM    8  C13 UNL     1     -23.848 -11.971  -4.121  1.00  0.00     0.031 C 
ENDROOT
BRANCH   1   9
HETATM    9  O3  UNL     1     -26.003 -13.857  -4.282  1.00  0.00    -0.258 OA
BRANCH   9  10
HETATM   10  N2  UNL     1     -27.082 -13.992  -3.615  1.00  0.00    -0.143 N 
HETATM   11  C6  UNL     1     -27.699 -15.303  -3.559  1.00  0.00     0.342 C 
HETATM   12  C5  UNL     1     -28.931 -15.507  -2.806  1.00  0.00     0.313 C 
HETATM   13  O2  UNL     1     -27.151 -16.247  -4.173  1.00  0.00    -0.259 OA
HETATM   14  N1  UNL     1     -29.489 -14.385  -2.137  1.00  0.00    -0.335 N 
HETATM   15  O1  UNL     1     -29.505 -16.632  -2.733  1.00  0.00    -0.262 OA
HETATM   16  C3  UNL     1     -28.550 -13.365  -1.686  1.00  0.00     0.113 C 
ATOM     17  H1  UNL     1     -30.494 -14.298  -1.980  1.00  0.00     0.164 HD
HETATM   18  C4  UNL     1     -29.220 -12.183  -1.064  1.00  0.00     0.049 C 
HETATM   19  C14 UNL     1     -27.767 -12.992  -2.898  1.00  0.00     0.279 C 
HETATM   20  O7  UNL     1     -27.762 -11.783  -3.220  1.00  0.00    -0.268 OA
BRANCH  16  21
HETATM   21  C2  UNL     1     -27.686 -14.001  -0.625  1.00  0.00     0.036 C 
HETATM   22  C1  UNL     1     -27.097 -12.848   0.202  1.00  0.00     0.008 C 
ENDBRANCH  16  21
ENDBRANCH   9  10
ENDBRANCH   1   9
BRANCH   2  23
HETATM   23  O4  UNL     1     -24.290 -15.821  -5.674  1.00  0.00    -0.390 OA
ATOM     24  H4  UNL     1     -24.987 -15.627  -6.290  1.00  0.00     0.210 HD
ENDBRANCH   2  23
BRANCH   3  25
HETATM   25  O5  UNL     1     -21.724 -14.496  -6.077  1.00  0.00    -0.390 OA
ATOM     26  H5  UNL     1     -20.797 -14.579  -5.889  1.00  0.00     0.210 HD
ENDBRANCH   3  25
BRANCH   4  27
HETATM   27  O6  UNL     1     -20.679 -14.304  -3.411  1.00  0.00    -0.392 OA
ATOM     28  H6  UNL     1     -20.832 -14.741  -2.582  1.00  0.00     0.210 HD
ENDBRANCH   4  27
TORSDOF 6
ENDMDL
MODEL 2
REMARK VINA RESULT: -7.166447020      2.266      6.268
REMARK  6 active torsions:
REMARK  status: ('A' for Active; 'I' for Inactive)
REMARK    1  A    between atoms: C2_2  and  C3_3 
REMARK    2  A    between atoms: N2_11  and  O3_12 
REMARK    3  A    between atoms: O3_12  and  C7_13 
REMARK    4  A    between atoms: C8_14  and  O4_15 
REMARK    5  A    between atoms: C9_17  and  O5_18 
REMARK    6  A    between atoms: C10_20  and  O6_21 
ROOT
HETATM    1  C7  UNL     1     -26.631 -13.633  -2.891  1.00  0.00     0.204 C 
HETATM    2  C8  UNL     1     -27.746 -12.600  -2.809  1.00  0.00     0.182 C 
HETATM    3  C9  UNL     1     -28.767 -12.842  -1.776  1.00  0.00     0.179 C 
HETATM    4  C10 UNL     1     -29.153 -14.283  -1.509  1.00  0.00     0.164 C 
HETATM    5  C11 UNL     1     -27.841 -15.026  -1.363  1.00  0.00     0.100 A 
HETATM    6  S1  UNL     1     -27.138 -16.356  -1.970  1.00  0.00    -0.146 SA
HETATM    7  C12 UNL     1     -27.348 -14.993  -2.835  1.00  0.00     0.051 A 
HETATM    8  C13 UNL     1     -28.406 -15.063  -3.942  1.00  0.00     0.031 C 
ENDROOT
BRANCH   1   9
HETATM    9  O3  UNL     1     -25.927 -13.623  -4.008  1.00  0.00    -0.258 OA
BRANCH   9  10
HETATM   10  N2  UNL     1     -24.660 -13.578  -4.158  1.00  0.00    -0.143 N 
HETATM   11  C6  UNL     1     -23.978 -14.767  -4.630  1.00  0.00     0.342 C 
HETATM   12  C5  UNL     1     -22.532 -14.762  -4.821  1.00  0.00     0.313 C 
HETATM   13  O2  UNL     1     -24.659 -15.791  -4.867  1.00  0.00    -0.259 OA
HETATM   14  N1  UNL     1     -21.833 -13.560  -4.531  1.00  0.00    -0.335 N 
HETATM   15  O1  UNL     1     -21.897 -15.777  -5.229  1.00  0.00    -0.262 OA
HETATM   16  C3  UNL     1     -22.571 -12.317  -4.720  1.00  0.00     0.113 C 
ATOM     17  H1  UNL     1     -20.865 -13.566  -4.207  1.00  0.00     0.164 HD
HETATM   18  C4  UNL     1     -21.795 -11.105  -4.319  1.00  0.00     0.049 C 
HETATM   19  C14 UNL     1     -23.816 -12.477  -3.917  1.00  0.00     0.279 C 
HETATM   20  O7  UNL     1     -24.048 -11.603  -3.051  1.00  0.00    -0.268 OA
BRANCH  16  21
HETATM   21  C2  UNL     1     -22.860 -12.197  -6.197  1.00  0.00     0.036 C 
HETATM   22  C1  UNL     1     -21.529 -11.825  -6.869  1.00  0.00     0.008 C 
ENDBRANCH  16  21
ENDBRANCH   9  10
ENDBRANCH   1   9
BRANCH   2  23
HETATM   23  O4  UNL     1     -27.080 -11.400  -2.440  1.00  0.00    -0.390 OA
ATOM     24  H4  UNL     1     -27.549 -10.721  -2.911  1.00  0.00     0.210 HD
ENDBRANCH   2  23
BRANCH   3  25
HETATM   25  O5  UNL     1     -29.891 -12.072  -2.054  1.00  0.00    -0.390 OA
ATOM     26  H5  UNL     1     -29.674 -11.154  -1.948  1.00  0.00     0.210 HD
ENDBRANCH   3  25
BRANCH   4  27
HETATM   27  O6  UNL     1     -29.771 -14.309  -0.259  1.00  0.00    -0.392 OA
ATOM     28  H6  UNL     1     -29.286 -14.928   0.274  1.00  0.00     0.210 HD
ENDBRANCH   4  27
TORSDOF 6
ENDMDL
MODEL 3
REMARK VINA RESULT: -6.717456405      1.491      2.705
REMARK  6 active torsions:
REMARK  status: ('A' for Active; 'I' for Inactive)
REMARK    1  A    between atoms: C2_2  and  C3_3 
REMARK    2  A    between atoms: N2_11  and  O3_12 
REMARK    3  A    between atoms: O3_12  and  C7_13 
REMARK    4  A    between atoms: C8_14  and  O4_15 
REMARK    5  A    between atoms: C9_17  and  O5_18 
REMARK    6  A    between atoms: C10_20  and  O6_21 
ROOT
HETATM    1  C7  UNL     1     -24.313 -14.054  -3.753  1.00  0.00     0.204 C 
HETATM    2  C8  UNL     1     -23.941 -14.694  -5.084  1.00  0.00     0.182 C 
HETATM    3  C9  UNL     1     -22.519 -15.035  -5.253  1.00  0.00     0.179 C 
HETATM    4  C10 UNL     1     -21.503 -14.089  -4.646  1.00  0.00     0.164 C 
HETATM    5  C11 UNL     1     -21.985 -13.843  -3.232  1.00  0.00     0.100 A 
HETATM    6  S1  UNL     1     -22.285 -12.574  -2.266  1.00  0.00    -0.146 SA
HETATM    7  C12 UNL     1     -23.241 -12.977  -3.521  1.00  0.00     0.051 A 
HETATM    8  C13 UNL     1     -23.190 -12.031  -4.727  1.00  0.00     0.031 C 
ENDROOT
BRANCH   1   9
HETATM    9  O3  UNL     1     -25.481 -13.438  -3.725  1.00  0.00    -0.258 OA
BRANCH   9  10
HETATM   10  N2  UNL     1     -26.569 -13.806  -3.171  1.00  0.00    -0.143 N 
HETATM   11  C6  UNL     1     -27.667 -12.861  -3.111  1.00  0.00     0.342 C 
HETATM   12  C5  UNL     1     -28.932 -13.238  -2.491  1.00  0.00     0.313 C 
HETATM   13  O2  UNL     1     -27.500 -11.721  -3.602  1.00  0.00    -0.259 OA
HETATM   14  N1  UNL     1     -29.041 -14.550  -1.959  1.00  0.00    -0.335 N 
HETATM   15  O1  UNL     1     -29.915 -12.444  -2.415  1.00  0.00    -0.262 OA
HETATM   16  C3  UNL     1     -28.241 -15.582  -2.608  1.00  0.00     0.113 C 
ATOM     17  H1  UNL     1     -29.647 -14.759  -1.165  1.00  0.00     0.164 HD
HETATM   18  C4  UNL     1     -28.350 -16.916  -1.942  1.00  0.00     0.049 C 
HETATM   19  C14 UNL     1     -26.846 -15.061  -2.595  1.00  0.00     0.279 C 
HETATM   20  O7  UNL     1     -25.976 -15.783  -2.058  1.00  0.00    -0.268 OA
BRANCH  16  21
HETATM   21  C2  UNL     1     -28.777 -15.737  -4.010  1.00  0.00     0.036 C 
HETATM   22  C1  UNL     1     -28.768 -17.243  -4.314  1.00  0.00     0.008 C 
ENDBRANCH  16  21
ENDBRANCH   9  10
ENDBRANCH   1   9
BRANCH   2  23
HETATM   23  O4  UNL     1     -24.650 -15.926  -5.086  1.00  0.00    -0.390 OA
ATOM     24  H4  UNL     1     -25.465 -15.725  -4.639  1.00  0.00     0.210 HD
ENDBRANCH   2  23
BRANCH   3  25
HETATM   25  O5  UNL     1     -22.256 -15.244  -6.603  1.00  0.00    -0.390 OA
ATOM     26  H5  UNL     1     -21.390 -15.620  -6.698  1.00  0.00     0.210 HD
ENDBRANCH   3  25
BRANCH   4  27
HETATM   27  O6  UNL     1     -20.304 -14.793  -4.546  1.00  0.00    -0.392 OA
ATOM     28  H6  UNL     1     -19.902 -14.537  -3.725  1.00  0.00     0.210 HD
ENDBRANCH   4  27
TORSDOF 6
ENDMDL
MODEL 4
REMARK VINA RESULT: -6.705498248      2.072      5.880
REMARK  6 active torsions:
REMARK  status: ('A' for Active; 'I' for Inactive)
REMARK    1  A    between atoms: C2_2  and  C3_3 
REMARK    2  A    between atoms: N2_11  and  O3_12 
REMARK    3  A    between atoms: O3_12  and  C7_13 
REMARK    4  A    between atoms: C8_14  and  O4_15 
REMARK    5  A    between atoms: C9_17  and  O5_18 
REMARK    6  A    between atoms: C10_20  and  O6_21 
ROOT
HETATM    1  C7  UNL     1     -26.547 -14.858  -2.561  1.00  0.00     0.204 C 
HETATM    2  C8  UNL     1     -27.584 -15.951  -2.773  1.00  0.00     0.182 C 
HETATM    3  C9  UNL     1     -28.964 -15.605  -2.396  1.00  0.00     0.179 C 
HETATM    4  C10 UNL     1     -29.148 -14.721  -1.179  1.00  0.00     0.164 C 
HETATM    5  C11 UNL     1     -28.182 -13.571  -1.375  1.00  0.00     0.100 A 
HETATM    6  S1  UNL     1     -27.021 -12.818  -0.527  1.00  0.00    -0.146 SA
HETATM    7  C12 UNL     1     -26.835 -14.310  -1.153  1.00  0.00     0.051 A 
HETATM    8  C13 UNL     1     -26.812 -15.459  -0.138  1.00  0.00     0.031 C 
ENDROOT
BRANCH   1   9
HETATM    9  O3  UNL     1     -25.288 -15.259  -2.560  1.00  0.00    -0.258 OA
BRANCH   9  10
HETATM   10  N2  UNL     1     -24.264 -14.688  -3.063  1.00  0.00    -0.143 N 
HETATM   11  C6  UNL     1     -23.939 -14.951  -4.451  1.00  0.00     0.342 C 
HETATM   12  C5  UNL     1     -22.780 -14.319  -5.071  1.00  0.00     0.313 C 
HETATM   13  O2  UNL     1     -24.675 -15.731  -5.098  1.00  0.00    -0.259 OA
HETATM   14  N1  UNL     1     -21.997 -13.447  -4.268  1.00  0.00    -0.335 N 
HETATM   15  O1  UNL     1     -22.459 -14.522  -6.278  1.00  0.00    -0.262 OA
HETATM   16  C3  UNL     1     -22.698 -12.739  -3.204  1.00  0.00     0.113 C 
ATOM     17  H1  UNL     1     -20.998 -13.322  -4.429  1.00  0.00     0.164 HD
HETATM   18  C4  UNL     1     -21.793 -11.904  -2.357  1.00  0.00     0.049 C 
HETATM   19  C14 UNL     1     -23.383 -13.802  -2.414  1.00  0.00     0.279 C 
HETATM   20  O7  UNL     1     -23.129 -13.849  -1.189  1.00  0.00    -0.268 OA
BRANCH  16  21
HETATM   21  C2  UNL     1     -23.680 -11.805  -3.868  1.00  0.00     0.036 C 
HETATM   22  C1  UNL     1     -24.342 -10.999  -2.740  1.00  0.00     0.008 C 
ENDBRANCH  16  21
ENDBRANCH   9  10
ENDBRANCH   1   9
BRANCH   2  23
HETATM   23  O4  UNL     1     -27.592 -16.152  -4.181  1.00  0.00    -0.390 OA
ATOM     24  H4  UNL     1     -28.418 -16.592  -4.347  1.00  0.00     0.210 HD
ENDBRANCH   2  23
BRANCH   3  25
HETATM   25  O5  UNL     1     -29.712 -16.771  -2.277  1.00  0.00    -0.390 OA
ATOM     26  H5  UNL     1     -30.561 -16.562  -1.907  1.00  0.00     0.210 HD
ENDBRANCH   3  25
BRANCH   4  27
HETATM   27  O6  UNL     1     -30.432 -14.185  -1.260  1.00  0.00    -0.392 OA
ATOM     28  H6  UNL     1     -30.998 -14.748  -0.743  1.00  0.00     0.210 HD
ENDBRANCH   4  27
TORSDOF 6
ENDMDL
MODEL 5
REMARK VINA RESULT: -6.636431592      2.557      6.202
REMARK  6 active torsions:
REMARK  status: ('A' for Active; 'I' for Inactive)
REMARK    1  A    between atoms: C2_2  and  C3_3 
REMARK    2  A    between atoms: N2_11  and  O3_12 
REMARK    3  A    between atoms: O3_12  and  C7_13 
REMARK    4  A    between atoms: C8_14  and  O4_15 
REMARK    5  A    between atoms: C9_17  and  O5_18 
REMARK    6  A    between atoms: C10_20  and  O6_21 
ROOT
HETATM    1  C7  UNL     1     -26.593 -15.816  -2.672  1.00  0.00     0.204 C 
HETATM    2  C8  UNL     1     -27.090 -15.575  -1.253  1.00  0.00     0.182 C 
HETATM    3  C9  UNL     1     -28.140 -16.493  -0.779  1.00  0.00     0.179 C 
HETATM    4  C10 UNL     1     -29.170 -16.949  -1.793  1.00  0.00     0.164 C 
HETATM    5  C11 UNL     1     -28.370 -17.388  -3.002  1.00  0.00     0.100 A 
HETATM    6  S1  UNL     1     -28.358 -17.113  -4.601  1.00  0.00    -0.146 SA
HETATM    7  C12 UNL     1     -27.869 -16.008  -3.509  1.00  0.00     0.051 A 
HETATM    8  C13 UNL     1     -28.796 -14.802  -3.322  1.00  0.00     0.031 C 
ENDROOT
BRANCH   1   9
HETATM    9  O3  UNL     1     -25.929 -14.814  -3.220  1.00  0.00    -0.258 OA
BRANCH   9  10
HETATM   10  N2  UNL     1     -24.668 -14.657  -3.340  1.00  0.00    -0.143 N 
HETATM   11  C6  UNL     1     -24.008 -15.231  -4.496  1.00  0.00     0.342 C 
HETATM   12  C5  UNL     1     -22.570 -15.074  -4.678  1.00  0.00     0.313 C 
HETATM   13  O2  UNL     1     -24.702 -15.861  -5.327  1.00  0.00    -0.259 OA
HETATM   14  N1  UNL     1     -21.856 -14.345  -3.690  1.00  0.00    -0.335 N 
HETATM   15  O1  UNL     1     -21.953 -15.560  -5.670  1.00  0.00    -0.262 OA
HETATM   16  C3  UNL     1     -22.595 -13.297  -2.995  1.00  0.00     0.113 C 
ATOM     17  H1  UNL     1     -20.878 -14.543  -3.478  1.00  0.00     0.164 HD
HETATM   18  C4  UNL     1     -21.800 -12.631  -1.920  1.00  0.00     0.049 C 
HETATM   19  C14 UNL     1     -23.812 -13.969  -2.459  1.00  0.00     0.279 C 
HETATM   20  O7  UNL     1     -24.010 -13.882  -1.226  1.00  0.00    -0.268 OA
BRANCH  16  21
HETATM   21  C2  UNL     1     -22.933 -12.243  -4.021  1.00  0.00     0.036 C 
HETATM   22  C1  UNL     1     -23.637 -11.109  -3.261  1.00  0.00     0.008 C 
ENDBRANCH  16  21
ENDBRANCH   9  10
ENDBRANCH   1   9
BRANCH   2  23
HETATM   23  O4  UNL     1     -25.950 -15.817  -0.440  1.00  0.00    -0.390 OA
ATOM     24  H4  UNL     1     -26.254 -15.644   0.443  1.00  0.00     0.210 HD
ENDBRANCH   2  23
BRANCH   3  25
HETATM   25  O5  UNL     1     -28.756 -15.944   0.340  1.00  0.00    -0.390 OA
ATOM     26  H5  UNL     1     -28.902 -16.627   0.983  1.00  0.00     0.210 HD
ENDBRANCH   3  25
BRANCH   4  27
HETATM   27  O6  UNL     1     -29.770 -18.093  -1.270  1.00  0.00    -0.392 OA
ATOM     28  H6  UNL     1     -30.675 -17.869  -1.086  1.00  0.00     0.210 HD
ENDBRANCH   4  27
TORSDOF 6
ENDMDL
