MODEL 1
REMARK VINA RESULT: -6.725122510      0.000      0.000
REMARK  6 active torsions:
REMARK  status: ('A' for Active; 'I' for Inactive)
REMARK    1  A    between atoms: C2_2  and  S1_3 
REMARK    2  A    between atoms: S1_3  and  C3_6 
REMARK    3  A    between atoms: C5_10  and  C6_11 
REMARK    4  A    between atoms: C6_11  and  O4_12 
REMARK    5  A    between atoms: N2_14  and  O5_16 
REMARK    6  A    between atoms: C8_22  and  O7_24 
ROOT
HETATM    1  C3  UNL     1     -27.510 -16.355   0.299  1.00  0.00     0.206 C 
HETATM    2  C4  UNL     1     -27.755 -16.908  -1.082  1.00  0.00     0.241 C 
HETATM    3  O3  UNL     1     -27.622 -18.091  -1.391  1.00  0.00    -0.272 OA
HETATM    4  N1  UNL     1     -28.147 -15.784  -1.854  1.00  0.00    -0.314 N 
HETATM    5  C5  UNL     1     -28.729 -15.720  -3.182  1.00  0.00     0.267 C 
HETATM    6  N3  UNL     1     -28.974 -14.377  -3.630  1.00  0.00    -0.330 N 
ATOM      7  H3  UNL     1     -29.721 -14.201  -4.303  1.00  0.00     0.165 HD
HETATM    8  C7  UNL     1     -28.201 -13.304  -3.157  1.00  0.00     0.256 C 
HETATM    9  O6  UNL     1     -28.021 -12.302  -3.886  1.00  0.00    -0.270 OA
HETATM   10  C8  UNL     1     -27.590 -13.355  -1.776  1.00  0.00     0.155 C 
HETATM   11  C9  UNL     1     -28.288 -12.197  -1.035  1.00  0.00     0.059 C 
HETATM   12  C10 UNL     1     -27.898 -14.598  -1.094  1.00  0.00     0.138 C 
HETATM   13  C11 UNL     1     -26.853 -15.075  -0.072  1.00  0.00     0.035 C 
HETATM   14  C12 UNL     1     -25.533 -15.198  -0.750  1.00  0.00     0.014 C 
ENDROOT
BRANCH   5  15
HETATM   15  C6  UNL     1     -27.938 -16.391  -4.228  1.00  0.00     0.179 C 
HETATM   16  N2  UNL     1     -28.401 -17.199  -5.082  1.00  0.00    -0.248 N 
ATOM     17  H2  UNL     1     -29.396 -17.425  -5.069  1.00  0.00     0.196 HD
BRANCH  15  18
HETATM   18  O4  UNL     1     -26.562 -16.073  -4.233  1.00  0.00    -0.345 OA
ATOM     19  H4  UNL     1     -26.133 -16.158  -5.076  1.00  0.00     0.219 HD
ENDBRANCH  15  18
BRANCH  16  20
HETATM   20  O5  UNL     1     -27.598 -17.774  -6.017  1.00  0.00    -0.288 OA
ATOM     21  H5  UNL     1     -27.384 -17.326  -6.826  1.00  0.00     0.244 HD
ENDBRANCH  16  20
ENDBRANCH   5  15
BRANCH   1  22
HETATM   22  S1  UNL     1     -26.818 -17.427   1.410  1.00  0.00     0.157 S 
HETATM   23  O1  UNL     1     -27.883 -18.407   1.900  1.00  0.00    -0.227 OA
HETATM   24  O2  UNL     1     -25.690 -18.283   0.931  1.00  0.00    -0.227 OA
BRANCH  22  25
HETATM   25  C2  UNL     1     -26.250 -16.596   2.867  1.00  0.00     0.136 C 
HETATM   26  C1  UNL     1     -24.776 -16.376   2.869  1.00  0.00     0.021 C 
ENDBRANCH  22  25
ENDBRANCH   1  22
BRANCH  10  27
HETATM   27  O7  UNL     1     -26.289 -12.957  -1.911  1.00  0.00    -0.378 OA
ATOM     28  H7  UNL     1     -25.753 -13.720  -1.728  1.00  0.00     0.211 HD
ENDBRANCH  10  27
TORSDOF 6
ENDMDL
MODEL 2
REMARK VINA RESULT: -6.623164167      3.119      4.827
REMARK  6 active torsions:
REMARK  status: ('A' for Active; 'I' for Inactive)
REMARK    1  A    between atoms: C2_2  and  S1_3 
REMARK    2  A    between atoms: S1_3  and  C3_6 
REMARK    3  A    between atoms: C5_10  and  C6_11 
REMARK    4  A    between atoms: C6_11  and  O4_12 
REMARK    5  A    between atoms: N2_14  and  O5_16 
REMARK    6  A    between atoms: C8_22  and  O7_24 
ROOT
HETATM    1  C3  UNL     1     -25.823 -13.464  -2.365  1.00  0.00     0.206 C 
HETATM    2  C4  UNL     1     -26.513 -14.787  -2.150  1.00  0.00     0.241 C 
HETATM    3  O3  UNL     1     -26.183 -15.840  -2.693  1.00  0.00    -0.272 OA
HETATM    4  N1  UNL     1     -27.556 -14.503  -1.230  1.00  0.00    -0.314 N 
HETATM    5  C5  UNL     1     -28.405 -15.403  -0.473  1.00  0.00     0.267 C 
HETATM    6  N3  UNL     1     -29.364 -14.721   0.351  1.00  0.00    -0.330 N 
ATOM      7  H3  UNL     1     -29.707 -15.171   1.200  1.00  0.00     0.165 HD
HETATM    8  C7  UNL     1     -29.838 -13.445   0.005  1.00  0.00     0.256 C 
HETATM    9  O6  UNL     1     -30.989 -13.097   0.352  1.00  0.00    -0.270 OA
HETATM   10  C8  UNL     1     -28.964 -12.495  -0.781  1.00  0.00     0.155 C 
HETATM   11  C9  UNL     1     -28.744 -11.323   0.196  1.00  0.00     0.059 C 
HETATM   12  C10 UNL     1     -27.677 -13.083  -1.101  1.00  0.00     0.138 C 
HETATM   13  C11 UNL     1     -27.015 -12.577  -2.394  1.00  0.00     0.035 C 
HETATM   14  C12 UNL     1     -27.951 -12.788  -3.532  1.00  0.00     0.014 C 
ENDROOT
BRANCH   5  15
HETATM   15  C6  UNL     1     -29.149 -16.374  -1.294  1.00  0.00     0.179 C 
HETATM   16  N2  UNL     1     -29.493 -17.531  -0.918  1.00  0.00    -0.248 N 
ATOM     17  H2  UNL     1     -29.250 -17.843   0.022  1.00  0.00     0.196 HD
BRANCH  15  18
HETATM   18  O4  UNL     1     -29.477 -15.931  -2.594  1.00  0.00    -0.345 OA
ATOM     19  H4  UNL     1     -29.722 -16.617  -3.203  1.00  0.00     0.219 HD
ENDBRANCH  15  18
BRANCH  16  20
HETATM   20  O5  UNL     1     -30.181 -18.365  -1.741  1.00  0.00    -0.288 OA
ATOM     21  H5  UNL     1     -31.025 -18.723  -1.489  1.00  0.00     0.244 HD
ENDBRANCH  16  20
ENDBRANCH   5  15
BRANCH   1  22
HETATM   22  S1  UNL     1     -24.655 -13.432  -3.588  1.00  0.00     0.157 S 
HETATM   23  O1  UNL     1     -23.448 -14.265  -3.158  1.00  0.00    -0.227 OA
HETATM   24  O2  UNL     1     -25.043 -13.971  -4.927  1.00  0.00    -0.227 OA
BRANCH  22  25
HETATM   25  C2  UNL     1     -24.019 -11.801  -3.855  1.00  0.00     0.136 C 
HETATM   26  C1  UNL     1     -22.857 -11.780  -4.788  1.00  0.00     0.021 C 
ENDBRANCH  22  25
ENDBRANCH   1  22
BRANCH  10  27
HETATM   27  O7  UNL     1     -29.745 -11.983  -1.779  1.00  0.00    -0.378 OA
ATOM     28  H7  UNL     1     -29.189 -11.406  -2.289  1.00  0.00     0.211 HD
ENDBRANCH  10  27
TORSDOF 6
ENDMDL
MODEL 3
REMARK VINA RESULT: -6.495907922      1.268      1.588
REMARK  6 active torsions:
REMARK  status: ('A' for Active; 'I' for Inactive)
REMARK    1  A    between atoms: C2_2  and  S1_3 
REMARK    2  A    between atoms: S1_3  and  C3_6 
REMARK    3  A    between atoms: C5_10  and  C6_11 
REMARK    4  A    between atoms: C6_11  and  O4_12 
REMARK    5  A    between atoms: N2_14  and  O5_16 
REMARK    6  A    between atoms: C8_22  and  O7_24 
ROOT
HETATM    1  C3  UNL     1     -28.025 -16.045   0.372  1.00  0.00     0.206 C 
HETATM    2  C4  UNL     1     -27.686 -16.602  -0.988  1.00  0.00     0.241 C 
HETATM    3  O3  UNL     1     -27.140 -17.687  -1.179  1.00  0.00    -0.272 OA
HETATM    4  N1  UNL     1     -28.134 -15.613  -1.902  1.00  0.00    -0.314 N 
HETATM    5  C5  UNL     1     -28.294 -15.677  -3.343  1.00  0.00     0.267 C 
HETATM    6  N3  UNL     1     -28.764 -14.447  -3.917  1.00  0.00    -0.330 N 
ATOM      7  H3  UNL     1     -29.297 -14.470  -4.787  1.00  0.00     0.165 HD
HETATM    8  C7  UNL     1     -28.500 -13.212  -3.300  1.00  0.00     0.256 C 
HETATM    9  O6  UNL     1     -28.403 -12.179  -4.000  1.00  0.00    -0.270 OA
HETATM   10  C8  UNL     1     -28.334 -13.130  -1.801  1.00  0.00     0.155 C 
HETATM   11  C9  UNL     1     -29.516 -12.244  -1.360  1.00  0.00     0.059 C 
HETATM   12  C10 UNL     1     -28.465 -14.430  -1.170  1.00  0.00     0.138 C 
HETATM   13  C11 UNL     1     -27.677 -14.620   0.137  1.00  0.00     0.035 C 
HETATM   14  C12 UNL     1     -26.237 -14.339  -0.121  1.00  0.00     0.014 C 
ENDROOT
BRANCH   5  15
HETATM   15  C6  UNL     1     -27.074 -16.061  -4.075  1.00  0.00     0.179 C 
HETATM   16  N2  UNL     1     -25.992 -15.408  -4.076  1.00  0.00    -0.248 N 
ATOM     17  H2  UNL     1     -25.929 -14.544  -3.537  1.00  0.00     0.196 HD
BRANCH  15  18
HETATM   18  O4  UNL     1     -27.175 -17.258  -4.819  1.00  0.00    -0.345 OA
ATOM     19  H4  UNL     1     -26.437 -17.440  -5.389  1.00  0.00     0.219 HD
ENDBRANCH  15  18
BRANCH  16  20
HETATM   20  O5  UNL     1     -24.911 -15.836  -4.780  1.00  0.00    -0.288 OA
ATOM     21  H5  UNL     1     -24.199 -16.303  -4.357  1.00  0.00     0.244 HD
ENDBRANCH  16  20
ENDBRANCH   5  15
BRANCH   1  22
HETATM   22  S1  UNL     1     -27.418 -16.908   1.694  1.00  0.00     0.157 S 
HETATM   23  O1  UNL     1     -28.187 -18.220   1.838  1.00  0.00    -0.227 OA
HETATM   24  O2  UNL     1     -25.977 -17.303   1.656  1.00  0.00    -0.227 OA
BRANCH  22  25
HETATM   25  C2  UNL     1     -27.676 -16.050   3.221  1.00  0.00     0.136 C 
HETATM   26  C1  UNL     1     -29.119 -15.863   3.541  1.00  0.00     0.021 C 
ENDBRANCH  22  25
ENDBRANCH   1  22
BRANCH  10  27
HETATM   27  O7  UNL     1     -27.218 -12.373  -1.574  1.00  0.00    -0.378 OA
ATOM     28  H7  UNL     1     -27.492 -11.646  -1.027  1.00  0.00     0.211 HD
ENDBRANCH  10  27
TORSDOF 6
ENDMDL
MODEL 4
REMARK VINA RESULT: -6.449740295      2.892      5.440
REMARK  6 active torsions:
REMARK  status: ('A' for Active; 'I' for Inactive)
REMARK    1  A    between atoms: C2_2  and  S1_3 
REMARK    2  A    between atoms: S1_3  and  C3_6 
REMARK    3  A    between atoms: C5_10  and  C6_11 
REMARK    4  A    between atoms: C6_11  and  O4_12 
REMARK    5  A    between atoms: N2_14  and  O5_16 
REMARK    6  A    between atoms: C8_22  and  O7_24 
ROOT
HETATM    1  C3  UNL     1     -25.417 -14.736  -3.098  1.00  0.00     0.206 C 
HETATM    2  C4  UNL     1     -26.844 -14.248  -3.102  1.00  0.00     0.241 C 
HETATM    3  O3  UNL     1     -27.280 -13.385  -3.862  1.00  0.00    -0.272 OA
HETATM    4  N1  UNL     1     -27.482 -14.996  -2.080  1.00  0.00    -0.314 N 
HETATM    5  C5  UNL     1     -28.892 -15.139  -1.768  1.00  0.00     0.267 C 
HETATM    6  N3  UNL     1     -29.140 -15.983  -0.632  1.00  0.00    -0.330 N 
ATOM      7  H3  UNL     1     -30.024 -16.488  -0.566  1.00  0.00     0.165 HD
HETATM    8  C7  UNL     1     -28.185 -16.123   0.388  1.00  0.00     0.256 C 
HETATM    9  O6  UNL     1     -28.559 -16.368   1.557  1.00  0.00    -0.270 OA
HETATM   10  C8  UNL     1     -26.713 -15.979   0.079  1.00  0.00     0.155 C 
HETATM   11  C9  UNL     1     -26.146 -17.379   0.389  1.00  0.00     0.059 C 
HETATM   12  C10 UNL     1     -26.482 -15.683  -1.322  1.00  0.00     0.138 C 
HETATM   13  C11 UNL     1     -25.216 -14.864  -1.630  1.00  0.00     0.035 C 
HETATM   14  C12 UNL     1     -25.261 -13.592  -0.857  1.00  0.00     0.014 C 
ENDROOT
BRANCH   5  15
HETATM   15  C6  UNL     1     -29.595 -13.867  -1.527  1.00  0.00     0.179 C 
HETATM   16  N2  UNL     1     -29.083 -12.718  -1.654  1.00  0.00    -0.248 N 
ATOM     17  H2  UNL     1     -28.108 -12.635  -1.944  1.00  0.00     0.196 HD
BRANCH  15  18
HETATM   18  O4  UNL     1     -30.943 -13.995  -1.124  1.00  0.00    -0.345 OA
ATOM     19  H4  UNL     1     -31.169 -13.537  -0.324  1.00  0.00     0.219 HD
ENDBRANCH  15  18
BRANCH  16  20
HETATM   20  O5  UNL     1     -29.805 -11.592  -1.412  1.00  0.00    -0.288 OA
ATOM     21  H5  UNL     1     -29.412 -10.730  -1.479  1.00  0.00     0.244 HD
ENDBRANCH  16  20
ENDBRANCH   5  15
BRANCH   1  22
HETATM   22  S1  UNL     1     -24.339 -13.873  -4.075  1.00  0.00     0.157 S 
HETATM   23  O1  UNL     1     -24.540 -14.283  -5.534  1.00  0.00    -0.227 OA
HETATM   24  O2  UNL     1     -24.447 -12.382  -4.071  1.00  0.00    -0.227 OA
BRANCH  22  25
HETATM   25  C2  UNL     1     -22.652 -14.268  -3.712  1.00  0.00     0.136 C 
HETATM   26  C1  UNL     1     -21.973 -14.982  -4.830  1.00  0.00     0.021 C 
ENDBRANCH  22  25
ENDBRANCH   1  22
BRANCH  10  27
HETATM   27  O7  UNL     1     -26.190 -15.163   1.043  1.00  0.00    -0.378 OA
ATOM     28  H7  UNL     1     -25.602 -14.563   0.599  1.00  0.00     0.211 HD
ENDBRANCH  10  27
TORSDOF 6
ENDMDL
MODEL 5
REMARK VINA RESULT: -6.436184574      2.926      4.724
REMARK  6 active torsions:
REMARK  status: ('A' for Active; 'I' for Inactive)
REMARK    1  A    between atoms: C2_2  and  S1_3 
REMARK    2  A    between atoms: S1_3  and  C3_6 
REMARK    3  A    between atoms: C5_10  and  C6_11 
REMARK    4  A    between atoms: C6_11  and  O4_12 
REMARK    5  A    between atoms: N2_14  and  O5_16 
REMARK    6  A    between atoms: C8_22  and  O7_24 
ROOT
HETATM    1  C3  UNL     1     -29.591 -17.057  -3.800  1.00  0.00     0.206 C 
HETATM    2  C4  UNL     1     -28.258 -16.571  -4.311  1.00  0.00     0.241 C 
HETATM    3  O3  UNL     1     -27.617 -17.115  -5.208  1.00  0.00    -0.272 OA
HETATM    4  N1  UNL     1     -27.977 -15.414  -3.538  1.00  0.00    -0.314 N 
HETATM    5  C5  UNL     1     -26.965 -14.391  -3.721  1.00  0.00     0.267 C 
HETATM    6  N3  UNL     1     -26.993 -13.376  -2.705  1.00  0.00    -0.330 N 
ATOM      7  H3  UNL     1     -26.659 -12.437  -2.923  1.00  0.00     0.165 HD
HETATM    8  C7  UNL     1     -27.474 -13.656  -1.414  1.00  0.00     0.256 C 
HETATM    9  O6  UNL     1     -27.023 -13.021  -0.434  1.00  0.00    -0.270 OA
HETATM   10  C8  UNL     1     -28.530 -14.717  -1.209  1.00  0.00     0.155 C 
HETATM   11  C9  UNL     1     -29.734 -13.920  -0.667  1.00  0.00     0.059 C 
HETATM   12  C10 UNL     1     -28.913 -15.348  -2.457  1.00  0.00     0.138 C 
HETATM   13  C11 UNL     1     -29.393 -16.806  -2.348  1.00  0.00     0.035 C 
HETATM   14  C12 UNL     1     -28.332 -17.617  -1.689  1.00  0.00     0.014 C 
ENDROOT
BRANCH   5  15
HETATM   15  C6  UNL     1     -25.586 -14.903  -3.786  1.00  0.00     0.179 C 
HETATM   16  N2  UNL     1     -24.963 -15.179  -4.850  1.00  0.00    -0.248 N 
ATOM     17  H2  UNL     1     -25.426 -15.048  -5.749  1.00  0.00     0.196 HD
BRANCH  15  18
HETATM   18  O4  UNL     1     -24.955 -15.084  -2.534  1.00  0.00    -0.345 OA
ATOM     19  H4  UNL     1     -24.302 -15.773  -2.509  1.00  0.00     0.219 HD
ENDBRANCH  15  18
BRANCH  16  20
HETATM   20  O5  UNL     1     -23.687 -15.648  -4.820  1.00  0.00    -0.288 OA
ATOM     21  H5  UNL     1     -23.321 -16.131  -5.552  1.00  0.00     0.244 HD
ENDBRANCH  16  20
ENDBRANCH   5  15
BRANCH   1  22
HETATM   22  S1  UNL     1     -30.101 -18.560  -4.385  1.00  0.00     0.157 S 
HETATM   23  O1  UNL     1     -31.292 -18.360  -5.321  1.00  0.00    -0.227 OA
HETATM   24  O2  UNL     1     -29.117 -19.363  -5.173  1.00  0.00    -0.227 OA
BRANCH  22  25
HETATM   25  C2  UNL     1     -30.700 -19.607  -3.090  1.00  0.00     0.136 C 
HETATM   26  C1  UNL     1     -32.123 -20.008  -3.282  1.00  0.00     0.021 C 
ENDBRANCH  22  25
ENDBRANCH   1  22
BRANCH  10  27
HETATM   27  O7  UNL     1     -28.111 -15.485  -0.158  1.00  0.00    -0.378 OA
ATOM     28  H7  UNL     1     -27.512 -14.948   0.348  1.00  0.00     0.211 HD
ENDBRANCH  10  27
TORSDOF 6
ENDMDL
