MODEL 1
REMARK VINA RESULT: -7.521918397      0.000      0.000
REMARK  6 active torsions:
REMARK  status: ('A' for Active; 'I' for Inactive)
REMARK    1  A    between atoms: C4_5  and  O2_6 
REMARK    2  A    between atoms: C7_10  and  O3_11 
REMARK    3  A    between atoms: C9_14  and  O4_15 
REMARK    4  A    between atoms: C12_19  and  O5_20 
REMARK    5  A    between atoms: O5_20  and  S1_21 
REMARK    6  A    between atoms: C14_25  and  O8_26 
ROOT
HETATM    1  C1  UNL     1     -27.120 -13.752   0.427  1.00  0.00     0.023 C 
HETATM    2  C2  UNL     1     -26.948 -13.413  -0.826  1.00  0.00    -0.009 C 
HETATM    3  C3  UNL     1     -25.723 -12.745  -1.221  1.00  0.00     0.184 C 
HETATM    4  O1  UNL     1     -24.833 -12.377  -0.405  1.00  0.00    -0.290 OA
HETATM    5  C4  UNL     1     -25.526 -12.486  -2.696  1.00  0.00     0.199 C 
HETATM    6  C5  UNL     1     -25.990 -13.812  -3.365  1.00  0.00     0.054 C 
HETATM    7  C6  UNL     1     -25.082 -14.823  -2.875  1.00  0.00     0.016 C 
HETATM    8  C7  UNL     1     -27.423 -13.793  -3.241  1.00  0.00     0.084 C 
HETATM    9  C8  UNL     1     -27.964 -13.692  -1.809  1.00  0.00     0.096 C 
HETATM   10  C9  UNL     1     -28.558 -15.040  -1.964  1.00  0.00     0.095 C 
HETATM   11  C10 UNL     1     -27.917 -16.220  -1.420  1.00  0.00     0.010 C 
HETATM   12  C11 UNL     1     -27.909 -17.346  -2.135  1.00  0.00     0.008 C 
HETATM   13  C12 UNL     1     -28.567 -17.335  -3.483  1.00  0.00     0.194 C 
HETATM   14  C14 UNL     1     -28.140 -16.064  -4.245  1.00  0.00     0.162 C 
HETATM   15  C15 UNL     1     -28.391 -14.837  -3.467  1.00  0.00     0.092 C 
ENDROOT
BRANCH  13  16
HETATM   16  O5  UNL     1     -29.934 -17.457  -3.415  1.00  0.00    -0.264 OA
BRANCH  16  17
HETATM   17  S1  UNL     1     -30.531 -18.651  -4.430  1.00  0.00     0.262 S 
HETATM   18  C13 UNL     1     -31.744 -19.663  -3.622  1.00  0.00     0.194 C 
HETATM   19  O6  UNL     1     -29.443 -19.544  -4.948  1.00  0.00    -0.199 OA
HETATM   20  O7  UNL     1     -31.214 -17.963  -5.584  1.00  0.00    -0.199 OA
ENDBRANCH  16  17
ENDBRANCH  13  16
BRANCH  14  21
HETATM   21  O8  UNL     1     -28.889 -16.099  -5.427  1.00  0.00    -0.392 OA
ATOM     22  H8  UNL     1     -28.491 -15.435  -5.978  1.00  0.00     0.210 HD
ENDBRANCH  14  21
BRANCH  10  23
HETATM   23  O4  UNL     1     -29.916 -15.086  -1.543  1.00  0.00    -0.384 OA
ATOM     24  H4  UNL     1     -30.013 -15.454  -0.673  1.00  0.00     0.211 HD
ENDBRANCH  10  23
BRANCH   8  25
HETATM   25  O3  UNL     1     -27.828 -12.576  -3.886  1.00  0.00    -0.388 OA
ATOM     26  H3  UNL     1     -28.310 -12.100  -3.220  1.00  0.00     0.210 HD
ENDBRANCH   8  25
BRANCH   5  27
HETATM   27  O2  UNL     1     -24.215 -12.210  -3.003  1.00  0.00    -0.387 OA
ATOM     28  H2  UNL     1     -24.128 -11.774  -3.843  1.00  0.00     0.210 HD
ENDBRANCH   5  27
TORSDOF 6
ENDMDL
MODEL 2
REMARK VINA RESULT: -6.931558579      2.687      3.826
REMARK  6 active torsions:
REMARK  status: ('A' for Active; 'I' for Inactive)
REMARK    1  A    between atoms: C4_5  and  O2_6 
REMARK    2  A    between atoms: C7_10  and  O3_11 
REMARK    3  A    between atoms: C9_14  and  O4_15 
REMARK    4  A    between atoms: C12_19  and  O5_20 
REMARK    5  A    between atoms: O5_20  and  S1_21 
REMARK    6  A    between atoms: C14_25  and  O8_26 
ROOT
HETATM    1  C1  UNL     1     -29.822 -13.684   2.222  1.00  0.00     0.023 C 
HETATM    2  C2  UNL     1     -29.538 -12.612   1.525  1.00  0.00    -0.009 C 
HETATM    3  C3  UNL     1     -28.873 -11.498   2.173  1.00  0.00     0.184 C 
HETATM    4  O1  UNL     1     -28.628 -11.453   3.410  1.00  0.00    -0.290 OA
HETATM    5  C4  UNL     1     -28.462 -10.339   1.295  1.00  0.00     0.199 C 
HETATM    6  C5  UNL     1     -27.867 -11.028   0.034  1.00  0.00     0.054 C 
HETATM    7  C6  UNL     1     -26.722 -11.770   0.510  1.00  0.00     0.016 C 
HETATM    8  C7  UNL     1     -29.013 -11.548  -0.664  1.00  0.00     0.084 C 
HETATM    9  C8  UNL     1     -29.884 -12.531   0.129  1.00  0.00     0.096 C 
HETATM   10  C9  UNL     1     -29.519 -13.594  -0.835  1.00  0.00     0.095 C 
HETATM   11  C10 UNL     1     -28.497 -14.575  -0.532  1.00  0.00     0.010 C 
HETATM   12  C11 UNL     1     -27.641 -14.941  -1.489  1.00  0.00     0.008 C 
HETATM   13  C12 UNL     1     -27.779 -14.312  -2.843  1.00  0.00     0.194 C 
HETATM   14  C14 UNL     1     -27.974 -12.791  -2.677  1.00  0.00     0.162 C 
HETATM   15  C15 UNL     1     -29.091 -12.468  -1.771  1.00  0.00     0.092 C 
ENDROOT
BRANCH  13  16
HETATM   16  O5  UNL     1     -28.777 -14.877  -3.600  1.00  0.00    -0.264 OA
BRANCH  16  17
HETATM   17  S1  UNL     1     -28.380 -16.407  -4.160  1.00  0.00     0.262 S 
HETATM   18  C13 UNL     1     -28.943 -17.682  -3.062  1.00  0.00     0.194 C 
HETATM   19  O6  UNL     1     -26.902 -16.569  -4.352  1.00  0.00    -0.199 OA
HETATM   20  O7  UNL     1     -29.087 -16.603  -5.478  1.00  0.00    -0.199 OA
ENDBRANCH  16  17
ENDBRANCH  13  16
BRANCH  14  21
HETATM   21  O8  UNL     1     -28.201 -12.326  -3.977  1.00  0.00    -0.392 OA
ATOM     22  H8  UNL     1     -27.872 -11.434  -3.970  1.00  0.00     0.210 HD
ENDBRANCH  14  21
BRANCH  10  23
HETATM   23  O4  UNL     1     -30.652 -14.319  -1.298  1.00  0.00    -0.384 OA
ATOM     24  H4  UNL     1     -30.662 -15.215  -0.981  1.00  0.00     0.211 HD
ENDBRANCH  10  23
BRANCH   8  25
HETATM   25  O3  UNL     1     -29.848 -10.402  -0.895  1.00  0.00    -0.388 OA
ATOM     26  H3  UNL     1     -30.702 -10.765  -1.098  1.00  0.00     0.210 HD
ENDBRANCH   8  25
BRANCH   5  27
HETATM   27  O2  UNL     1     -27.529  -9.533   1.904  1.00  0.00    -0.387 OA
ATOM     28  H2  UNL     1     -26.731  -9.460   1.393  1.00  0.00     0.210 HD
ENDBRANCH   5  27
TORSDOF 6
ENDMDL
MODEL 3
REMARK VINA RESULT: -6.592161773      3.092      5.528
REMARK  6 active torsions:
REMARK  status: ('A' for Active; 'I' for Inactive)
REMARK    1  A    between atoms: C4_5  and  O2_6 
REMARK    2  A    between atoms: C7_10  and  O3_11 
REMARK    3  A    between atoms: C9_14  and  O4_15 
REMARK    4  A    between atoms: C12_19  and  O5_20 
REMARK    5  A    between atoms: O5_20  and  S1_21 
REMARK    6  A    between atoms: C14_25  and  O8_26 
ROOT
HETATM    1  C1  UNL     1     -29.155 -15.964  -1.386  1.00  0.00     0.023 C 
HETATM    2  C2  UNL     1     -29.049 -14.753  -1.872  1.00  0.00    -0.009 C 
HETATM    3  C3  UNL     1     -29.758 -13.664  -1.229  1.00  0.00     0.184 C 
HETATM    4  O1  UNL     1     -30.562 -13.823  -0.269  1.00  0.00    -0.290 OA
HETATM    5  C4  UNL     1     -29.503 -12.271  -1.757  1.00  0.00     0.199 C 
HETATM    6  C5  UNL     1     -27.962 -12.236  -1.967  1.00  0.00     0.054 C 
HETATM    7  C6  UNL     1     -27.395 -12.420  -0.652  1.00  0.00     0.016 C 
HETATM    8  C7  UNL     1     -27.741 -13.050  -3.133  1.00  0.00     0.084 C 
HETATM    9  C8  UNL     1     -28.241 -14.497  -3.037  1.00  0.00     0.096 C 
HETATM   10  C9  UNL     1     -26.838 -14.962  -3.139  1.00  0.00     0.095 C 
HETATM   11  C10 UNL     1     -26.084 -15.361  -1.968  1.00  0.00     0.010 C 
HETATM   12  C11 UNL     1     -24.801 -15.007  -1.868  1.00  0.00     0.008 C 
HETATM   13  C12 UNL     1     -24.198 -14.203  -2.980  1.00  0.00     0.194 C 
HETATM   14  C14 UNL     1     -25.168 -13.069  -3.370  1.00  0.00     0.162 C 
HETATM   15  C15 UNL     1     -26.517 -13.574  -3.685  1.00  0.00     0.092 C 
ENDROOT
BRANCH  13  16
HETATM   16  O5  UNL     1     -23.841 -14.968  -4.065  1.00  0.00    -0.264 OA
BRANCH  16  17
HETATM   17  S1  UNL     1     -22.346 -14.545  -4.695  1.00  0.00     0.262 S 
HETATM   18  C13 UNL     1     -21.321 -13.742  -3.490  1.00  0.00     0.194 C 
HETATM   19  O6  UNL     1     -22.474 -13.639  -5.884  1.00  0.00    -0.199 OA
HETATM   20  O7  UNL     1     -21.650 -15.820  -5.102  1.00  0.00    -0.199 OA
ENDBRANCH  16  17
ENDBRANCH  13  16
BRANCH  14  21
HETATM   21  O8  UNL     1     -24.565 -12.460  -4.476  1.00  0.00    -0.392 OA
ATOM     22  H8  UNL     1     -24.822 -11.548  -4.412  1.00  0.00     0.210 HD
ENDBRANCH  14  21
BRANCH  10  23
HETATM   23  O4  UNL     1     -26.679 -16.002  -4.097  1.00  0.00    -0.384 OA
ATOM     24  H4  UNL     1     -26.377 -16.812  -3.705  1.00  0.00     0.211 HD
ENDBRANCH  10  23
BRANCH   8  25
HETATM   25  O3  UNL     1     -28.541 -12.440  -4.159  1.00  0.00    -0.388 OA
ATOM     26  H3  UNL     1     -28.326 -11.516  -4.113  1.00  0.00     0.210 HD
ENDBRANCH   8  25
BRANCH   5  27
HETATM   27  O2  UNL     1     -29.903 -11.299  -0.871  1.00  0.00    -0.387 OA
ATOM     28  H2  UNL     1     -29.246 -10.621  -0.763  1.00  0.00     0.210 HD
ENDBRANCH   5  27
TORSDOF 6
ENDMDL
MODEL 4
REMARK VINA RESULT: -6.568838264      3.006      6.554
REMARK  6 active torsions:
REMARK  status: ('A' for Active; 'I' for Inactive)
REMARK    1  A    between atoms: C4_5  and  O2_6 
REMARK    2  A    between atoms: C7_10  and  O3_11 
REMARK    3  A    between atoms: C9_14  and  O4_15 
REMARK    4  A    between atoms: C12_19  and  O5_20 
REMARK    5  A    between atoms: O5_20  and  S1_21 
REMARK    6  A    between atoms: C14_25  and  O8_26 
ROOT
HETATM    1  C1  UNL     1     -27.326 -16.708  -3.651  1.00  0.00     0.023 C 
HETATM    2  C2  UNL     1     -27.799 -15.519  -3.375  1.00  0.00    -0.009 C 
HETATM    3  C3  UNL     1     -29.022 -15.401  -2.605  1.00  0.00     0.184 C 
HETATM    4  O1  UNL     1     -29.727 -16.388  -2.256  1.00  0.00    -0.290 OA
HETATM    5  C4  UNL     1     -29.455 -14.007  -2.212  1.00  0.00     0.199 C 
HETATM    6  C5  UNL     1     -28.132 -13.327  -1.758  1.00  0.00     0.054 C 
HETATM    7  C6  UNL     1     -27.685 -14.090  -0.615  1.00  0.00     0.016 C 
HETATM    8  C7  UNL     1     -27.413 -13.090  -2.982  1.00  0.00     0.084 C 
HETATM    9  C8  UNL     1     -27.119 -14.333  -3.831  1.00  0.00     0.096 C 
HETATM   10  C9  UNL     1     -25.672 -14.119  -3.599  1.00  0.00     0.095 C 
HETATM   11  C10 UNL     1     -24.941 -14.877  -2.604  1.00  0.00     0.010 C 
HETATM   12  C11 UNL     1     -24.032 -14.257  -1.850  1.00  0.00     0.008 C 
HETATM   13  C12 UNL     1     -23.810 -12.790  -2.069  1.00  0.00     0.194 C 
HETATM   14  C14 UNL     1     -25.175 -12.081  -2.175  1.00  0.00     0.162 C 
HETATM   15  C15 UNL     1     -26.044 -12.695  -3.196  1.00  0.00     0.092 C 
ENDROOT
BRANCH  13  16
HETATM   16  O5  UNL     1     -23.008 -12.524  -3.152  1.00  0.00    -0.264 OA
BRANCH  16  17
HETATM   17  S1  UNL     1     -21.428 -13.042  -2.935  1.00  0.00     0.262 S 
HETATM   18  C13 UNL     1     -20.258 -11.932  -3.676  1.00  0.00     0.194 C 
HETATM   19  O6  UNL     1     -21.203 -14.411  -3.505  1.00  0.00    -0.199 OA
HETATM   20  O7  UNL     1     -21.157 -13.059  -1.452  1.00  0.00    -0.199 OA
ENDBRANCH  16  17
ENDBRANCH  13  16
BRANCH  14  21
HETATM   21  O8  UNL     1     -24.855 -10.755  -2.487  1.00  0.00    -0.392 OA
ATOM     22  H8  UNL     1     -25.694 -10.346  -2.664  1.00  0.00     0.210 HD
ENDBRANCH  14  21
BRANCH  10  23
HETATM   23  O4  UNL     1     -24.913 -14.191  -4.800  1.00  0.00    -0.384 OA
ATOM     24  H4  UNL     1     -24.027 -13.869  -4.689  1.00  0.00     0.211 HD
ENDBRANCH  10  23
BRANCH   8  25
HETATM   25  O3  UNL     1     -28.303 -12.291  -3.777  1.00  0.00    -0.388 OA
ATOM     26  H3  UNL     1     -28.099 -11.395  -3.538  1.00  0.00     0.210 HD
ENDBRANCH   8  25
BRANCH   5  27
HETATM   27  O2  UNL     1     -30.379 -14.020  -1.194  1.00  0.00    -0.387 OA
ATOM     28  H2  UNL     1     -30.203 -13.350  -0.543  1.00  0.00     0.210 HD
ENDBRANCH   5  27
TORSDOF 6
ENDMDL
MODEL 5
REMARK VINA RESULT: -6.544560601      3.315      4.639
REMARK  6 active torsions:
REMARK  status: ('A' for Active; 'I' for Inactive)
REMARK    1  A    between atoms: C4_5  and  O2_6 
REMARK    2  A    between atoms: C7_10  and  O3_11 
REMARK    3  A    between atoms: C9_14  and  O4_15 
REMARK    4  A    between atoms: C12_19  and  O5_20 
REMARK    5  A    between atoms: O5_20  and  S1_21 
REMARK    6  A    between atoms: C14_25  and  O8_26 
ROOT
HETATM    1  C1  UNL     1     -26.549 -12.037  -0.148  1.00  0.00     0.023 C 
HETATM    2  C2  UNL     1     -27.531 -12.576  -0.826  1.00  0.00    -0.009 C 
HETATM    3  C3  UNL     1     -27.805 -12.111  -2.172  1.00  0.00     0.184 C 
HETATM    4  O1  UNL     1     -27.208 -11.137  -2.711  1.00  0.00    -0.290 OA
HETATM    5  C4  UNL     1     -28.868 -12.849  -2.952  1.00  0.00     0.199 C 
HETATM    6  C5  UNL     1     -28.574 -14.346  -2.646  1.00  0.00     0.054 C 
HETATM    7  C6  UNL     1     -27.254 -14.590  -3.179  1.00  0.00     0.016 C 
HETATM    8  C7  UNL     1     -29.011 -14.525  -1.287  1.00  0.00     0.084 C 
HETATM    9  C8  UNL     1     -28.340 -13.618  -0.247  1.00  0.00     0.096 C 
HETATM   10  C9  UNL     1     -27.743 -14.820   0.380  1.00  0.00     0.095 C 
HETATM   11  C10 UNL     1     -26.369 -15.204   0.129  1.00  0.00     0.010 C 
HETATM   12  C11 UNL     1     -26.073 -16.495  -0.036  1.00  0.00     0.008 C 
HETATM   13  C12 UNL     1     -27.188 -17.494   0.043  1.00  0.00     0.194 C 
HETATM   14  C14 UNL     1     -28.388 -16.981  -0.778  1.00  0.00     0.162 C 
HETATM   15  C15 UNL     1     -28.797 -15.622  -0.377  1.00  0.00     0.092 C 
ENDROOT
BRANCH  13  16
HETATM   16  O5  UNL     1     -27.544 -17.802   1.335  1.00  0.00    -0.264 OA
BRANCH  16  17
HETATM   17  S1  UNL     1     -26.425 -18.788   2.100  1.00  0.00     0.262 S 
HETATM   18  C13 UNL     1     -25.505 -17.911   3.339  1.00  0.00     0.194 C 
HETATM   19  O6  UNL     1     -25.452 -19.391   1.131  1.00  0.00    -0.199 OA
HETATM   20  O7  UNL     1     -27.191 -19.883   2.798  1.00  0.00    -0.199 OA
ENDBRANCH  16  17
ENDBRANCH  13  16
BRANCH  14  21
HETATM   21  O8  UNL     1     -29.397 -17.923  -0.546  1.00  0.00    -0.392 OA
ATOM     22  H8  UNL     1     -30.008 -17.477   0.029  1.00  0.00     0.210 HD
ENDBRANCH  14  21
BRANCH  10  23
HETATM   23  O4  UNL     1     -27.918 -14.839   1.791  1.00  0.00    -0.384 OA
ATOM     24  H4  UNL     1     -27.200 -15.269   2.239  1.00  0.00     0.211 HD
ENDBRANCH  10  23
BRANCH   8  25
HETATM   25  O3  UNL     1     -30.393 -14.134  -1.295  1.00  0.00    -0.388 OA
ATOM     26  H3  UNL     1     -30.559 -13.860  -2.190  1.00  0.00     0.210 HD
ENDBRANCH   8  25
BRANCH   5  27
HETATM   27  O2  UNL     1     -28.790 -12.596  -4.301  1.00  0.00    -0.387 OA
ATOM     28  H2  UNL     1     -29.263 -11.809  -4.546  1.00  0.00     0.210 HD
ENDBRANCH   5  27
TORSDOF 6
ENDMDL
