MODEL 1
REMARK VINA RESULT: -7.247741092      0.000      0.000
REMARK  9 active torsions:
REMARK  status: ('A' for Active; 'I' for Inactive)
REMARK    1  A    between atoms: N1_1  and  N2_4 
REMARK    2  A    between atoms: N2_4  and  C1_6 
REMARK    3  A    between atoms: C1_6  and  O1_8 
REMARK    4  A    between atoms: O1_8  and  C2_9 
REMARK    5  A    between atoms: C3_10  and  O2_11 
REMARK    6  A    between atoms: C4_13  and  O3_14 
REMARK    7  A    between atoms: C5_16  and  C6_17 
REMARK    8  A    between atoms: C6_17  and  O4_18 
REMARK    9  A    between atoms: C7_21  and  N3_22 
ROOT
HETATM    1  C2  UNL     1     -27.745 -16.129   0.892  1.00  0.00     0.211 C 
HETATM    2  C3  UNL     1     -27.337 -16.286   2.324  1.00  0.00     0.183 C 
HETATM    3  C4  UNL     1     -26.562 -17.526   2.638  1.00  0.00     0.180 C 
HETATM    4  C5  UNL     1     -25.682 -18.018   1.531  1.00  0.00     0.179 C 
HETATM    5  O5  UNL     1     -26.311 -17.996   0.297  1.00  0.00    -0.353 OA
HETATM    6  C7  UNL     1     -26.764 -16.765  -0.085  1.00  0.00     0.259 C 
ENDROOT
BRANCH   6   7
HETATM    7  N3  UNL     1     -27.440 -16.946  -1.373  1.00  0.00    -0.336 N 
HETATM    8  C8  UNL     1     -27.063 -16.275  -2.476  1.00  0.00     0.094 A 
HETATM    9  C9  UNL     1     -27.708 -16.456  -3.674  1.00  0.00     0.029 A 
HETATM   10  C10 UNL     1     -28.760 -17.330  -3.787  1.00  0.00    -0.023 A 
HETATM   11  C11 UNL     1     -29.454 -17.564  -4.967  1.00  0.00     0.012 A 
HETATM   12  C15 UNL     1     -29.159 -18.022  -2.678  1.00  0.00    -0.010 A 
HETATM   13  C12 UNL     1     -30.504 -18.450  -5.041  1.00  0.00     0.001 A 
HETATM   14  C13 UNL     1     -30.887 -19.136  -3.909  1.00  0.00     0.001 A 
HETATM   15  C14 UNL     1     -30.208 -18.915  -2.730  1.00  0.00     0.013 A 
HETATM   16  C16 UNL     1     -28.470 -17.803  -1.476  1.00  0.00     0.105 A 
ENDBRANCH   6   7
BRANCH   1  17
HETATM   17  O1  UNL     1     -28.045 -14.819   0.549  1.00  0.00    -0.313 OA
BRANCH  17  18
HETATM   18  C1  UNL     1     -29.235 -14.155   0.645  1.00  0.00     0.229 C 
HETATM   19  S1  UNL     1     -29.797 -13.490   2.015  1.00  0.00    -0.032 SA
BRANCH  18  20
HETATM   20  N2  UNL     1     -30.057 -14.023  -0.529  1.00  0.00    -0.277 N 
ATOM     21  H2  UNL     1     -29.756 -14.475  -1.392  1.00  0.00     0.189 HD
BRANCH  20  22
HETATM   22  N1  UNL     1     -31.249 -13.301  -0.530  1.00  0.00    -0.343 N 
ATOM     23  H12 UNL     1     -32.016 -13.650   0.043  1.00  0.00     0.176 HD
ATOM     24  H11 UNL     1     -31.373 -12.449  -1.078  1.00  0.00     0.176 HD
ENDBRANCH  20  22
ENDBRANCH  18  20
ENDBRANCH  17  18
ENDBRANCH   1  17
BRANCH   2  25
HETATM   25  O2  UNL     1     -26.527 -15.202   2.739  1.00  0.00    -0.390 OA
ATOM     26  H2  UNL     1     -26.758 -14.923   3.617  1.00  0.00     0.210 HD
ENDBRANCH   2  25
BRANCH   4  27
HETATM   27  C6  UNL     1     -25.254 -19.456   1.762  1.00  0.00     0.198 C 
BRANCH  27  28
HETATM   28  O4  UNL     1     -23.865 -19.561   1.792  1.00  0.00    -0.398 OA
ATOM     29  H4  UNL     1     -23.598 -20.446   2.013  1.00  0.00     0.209 HD
ENDBRANCH  27  28
ENDBRANCH   4  27
BRANCH   3  30
HETATM   30  O3  UNL     1     -27.479 -18.526   3.009  1.00  0.00    -0.390 OA
ATOM     31  H3  UNL     1     -27.005 -19.189   3.499  1.00  0.00     0.210 HD
ENDBRANCH   3  30
TORSDOF 9
ENDMDL
MODEL 2
REMARK VINA RESULT: -7.002454150      3.566      4.591
REMARK  9 active torsions:
REMARK  status: ('A' for Active; 'I' for Inactive)
REMARK    1  A    between atoms: N1_1  and  N2_4 
REMARK    2  A    between atoms: N2_4  and  C1_6 
REMARK    3  A    between atoms: C1_6  and  O1_8 
REMARK    4  A    between atoms: O1_8  and  C2_9 
REMARK    5  A    between atoms: C3_10  and  O2_11 
REMARK    6  A    between atoms: C4_13  and  O3_14 
REMARK    7  A    between atoms: C5_16  and  C6_17 
REMARK    8  A    between atoms: C6_17  and  O4_18 
REMARK    9  A    between atoms: C7_21  and  N3_22 
ROOT
HETATM    1  C2  UNL     1     -27.217 -13.155  -2.321  1.00  0.00     0.211 C 
HETATM    2  C3  UNL     1     -26.173 -12.082  -2.264  1.00  0.00     0.183 C 
HETATM    3  C4  UNL     1     -24.813 -12.486  -2.737  1.00  0.00     0.180 C 
HETATM    4  C5  UNL     1     -24.802 -13.509  -3.830  1.00  0.00     0.179 C 
HETATM    5  O5  UNL     1     -25.693 -14.546  -3.600  1.00  0.00    -0.353 OA
HETATM    6  C7  UNL     1     -26.992 -14.151  -3.451  1.00  0.00     0.259 C 
ENDROOT
BRANCH   6   7
HETATM    7  N3  UNL     1     -27.769 -15.362  -3.166  1.00  0.00    -0.336 N 
HETATM    8  C8  UNL     1     -27.812 -15.908  -1.938  1.00  0.00     0.094 A 
HETATM    9  C9  UNL     1     -28.545 -17.042  -1.690  1.00  0.00     0.029 A 
HETATM   10  C10 UNL     1     -29.259 -17.656  -2.687  1.00  0.00    -0.023 A 
HETATM   11  C11 UNL     1     -30.023 -18.802  -2.505  1.00  0.00     0.012 A 
HETATM   12  C15 UNL     1     -29.229 -17.117  -3.943  1.00  0.00    -0.010 A 
HETATM   13  C12 UNL     1     -30.728 -19.389  -3.532  1.00  0.00     0.001 A 
HETATM   14  C13 UNL     1     -30.682 -18.825  -4.788  1.00  0.00     0.001 A 
HETATM   15  C14 UNL     1     -29.928 -17.688  -4.985  1.00  0.00     0.013 A 
HETATM   16  C16 UNL     1     -28.466 -15.957  -4.148  1.00  0.00     0.105 A 
ENDBRANCH   6   7
BRANCH   1  17
HETATM   17  O1  UNL     1     -28.512 -12.658  -2.315  1.00  0.00    -0.313 OA
BRANCH  17  18
HETATM   18  C1  UNL     1     -29.383 -12.537  -1.270  1.00  0.00     0.229 C 
HETATM   19  S1  UNL     1     -29.391 -11.287  -0.234  1.00  0.00    -0.032 SA
BRANCH  18  20
HETATM   20  N2  UNL     1     -30.363 -13.567  -1.055  1.00  0.00    -0.277 N 
ATOM     21  H2  UNL     1     -30.134 -14.525  -1.319  1.00  0.00     0.189 HD
BRANCH  20  22
HETATM   22  N1  UNL     1     -31.614 -13.306  -0.498  1.00  0.00    -0.343 N 
ATOM     23  H12 UNL     1     -32.344 -12.954  -1.116  1.00  0.00     0.176 HD
ATOM     24  H11 UNL     1     -31.816 -13.456   0.490  1.00  0.00     0.176 HD
ENDBRANCH  20  22
ENDBRANCH  18  20
ENDBRANCH  17  18
ENDBRANCH   1  17
BRANCH   2  25
HETATM   25  O2  UNL     1     -26.549 -10.971  -3.055  1.00  0.00    -0.390 OA
ATOM     26  H2  UNL     1     -25.798 -10.424  -3.249  1.00  0.00     0.210 HD
ENDBRANCH   2  25
BRANCH   4  27
HETATM   27  C6  UNL     1     -23.434 -14.152  -3.972  1.00  0.00     0.198 C 
BRANCH  27  28
HETATM   28  O4  UNL     1     -23.522 -15.357  -4.665  1.00  0.00    -0.398 OA
ATOM     29  H4  UNL     1     -23.124 -16.062  -4.168  1.00  0.00     0.209 HD
ENDBRANCH  27  28
ENDBRANCH   4  27
BRANCH   3  30
HETATM   30  O3  UNL     1     -24.090 -12.955  -1.626  1.00  0.00    -0.390 OA
ATOM     31  H3  UNL     1     -24.104 -12.276  -0.961  1.00  0.00     0.210 HD
ENDBRANCH   3  30
TORSDOF 9
ENDMDL
MODEL 3
REMARK VINA RESULT: -6.944607940      3.637      4.736
REMARK  9 active torsions:
REMARK  status: ('A' for Active; 'I' for Inactive)
REMARK    1  A    between atoms: N1_1  and  N2_4 
REMARK    2  A    between atoms: N2_4  and  C1_6 
REMARK    3  A    between atoms: C1_6  and  O1_8 
REMARK    4  A    between atoms: O1_8  and  C2_9 
REMARK    5  A    between atoms: C3_10  and  O2_11 
REMARK    6  A    between atoms: C4_13  and  O3_14 
REMARK    7  A    between atoms: C5_16  and  C6_17 
REMARK    8  A    between atoms: C6_17  and  O4_18 
REMARK    9  A    between atoms: C7_21  and  N3_22 
ROOT
HETATM    1  C2  UNL     1     -27.636 -12.561  -1.666  1.00  0.00     0.211 C 
HETATM    2  C3  UNL     1     -26.724 -11.390  -1.466  1.00  0.00     0.183 C 
HETATM    3  C4  UNL     1     -25.325 -11.577  -1.957  1.00  0.00     0.180 C 
HETATM    4  C5  UNL     1     -25.189 -12.458  -3.160  1.00  0.00     0.179 C 
HETATM    5  O5  UNL     1     -25.954 -13.610  -3.068  1.00  0.00    -0.353 OA
HETATM    6  C7  UNL     1     -27.291 -13.387  -2.898  1.00  0.00     0.259 C 
ENDROOT
BRANCH   6   7
HETATM    7  N3  UNL     1     -27.924 -14.704  -2.769  1.00  0.00    -0.336 N 
HETATM    8  C8  UNL     1     -28.083 -15.303  -1.576  1.00  0.00     0.094 A 
HETATM    9  C9  UNL     1     -28.678 -16.536  -1.473  1.00  0.00     0.029 A 
HETATM   10  C10 UNL     1     -29.130 -17.199  -2.587  1.00  0.00    -0.023 A 
HETATM   11  C11 UNL     1     -29.742 -18.446  -2.555  1.00  0.00     0.012 A 
HETATM   12  C15 UNL     1     -28.978 -16.607  -3.809  1.00  0.00    -0.010 A 
HETATM   13  C12 UNL     1     -30.185 -19.078  -3.695  1.00  0.00     0.001 A 
HETATM   14  C13 UNL     1     -30.021 -18.460  -4.915  1.00  0.00     0.001 A 
HETATM   15  C14 UNL     1     -29.415 -17.222  -4.963  1.00  0.00     0.013 A 
HETATM   16  C16 UNL     1     -28.365 -15.346  -3.863  1.00  0.00     0.105 A 
ENDBRANCH   6   7
BRANCH   1  17
HETATM   17  O1  UNL     1     -28.980 -12.221  -1.626  1.00  0.00    -0.313 OA
BRANCH  17  18
HETATM   18  C1  UNL     1     -29.743 -11.847  -0.557  1.00  0.00     0.229 C 
HETATM   19  S1  UNL     1     -30.416 -12.891   0.488  1.00  0.00    -0.032 SA
BRANCH  18  20
HETATM   20  N2  UNL     1     -29.977 -10.447  -0.321  1.00  0.00    -0.277 N 
ATOM     21  H2  UNL     1     -30.817 -10.018  -0.707  1.00  0.00     0.189 HD
BRANCH  20  22
HETATM   22  N1  UNL     1     -29.098  -9.655   0.415  1.00  0.00    -0.343 N 
ATOM     23  H12 UNL     1     -29.359  -9.420   1.373  1.00  0.00     0.176 HD
ATOM     24  H11 UNL     1     -28.217  -9.312   0.032  1.00  0.00     0.176 HD
ENDBRANCH  20  22
ENDBRANCH  18  20
ENDBRANCH  17  18
ENDBRANCH   1  17
BRANCH   2  25
HETATM   25  O2  UNL     1     -27.223 -10.244  -2.131  1.00  0.00    -0.390 OA
ATOM     26  H2  UNL     1     -28.172 -10.216  -2.090  1.00  0.00     0.210 HD
ENDBRANCH   2  25
BRANCH   4  27
HETATM   27  C6  UNL     1     -23.755 -12.918  -3.350  1.00  0.00     0.198 C 
BRANCH  27  28
HETATM   28  O4  UNL     1     -23.546 -14.156  -2.746  1.00  0.00    -0.398 OA
ATOM     29  H4  UNL     1     -23.595 -14.082  -1.800  1.00  0.00     0.209 HD
ENDBRANCH  27  28
ENDBRANCH   4  27
BRANCH   3  30
HETATM   30  O3  UNL     1     -24.558 -12.086  -0.894  1.00  0.00    -0.390 OA
ATOM     31  H3  UNL     1     -23.643 -11.905  -1.080  1.00  0.00     0.210 HD
ENDBRANCH   3  30
TORSDOF 9
ENDMDL
MODEL 4
REMARK VINA RESULT: -6.924988447      3.116      6.308
REMARK  9 active torsions:
REMARK  status: ('A' for Active; 'I' for Inactive)
REMARK    1  A    between atoms: N1_1  and  N2_4 
REMARK    2  A    between atoms: N2_4  and  C1_6 
REMARK    3  A    between atoms: C1_6  and  O1_8 
REMARK    4  A    between atoms: O1_8  and  C2_9 
REMARK    5  A    between atoms: C3_10  and  O2_11 
REMARK    6  A    between atoms: C4_13  and  O3_14 
REMARK    7  A    between atoms: C5_16  and  C6_17 
REMARK    8  A    between atoms: C6_17  and  O4_18 
REMARK    9  A    between atoms: C7_21  and  N3_22 
ROOT
HETATM    1  C2  UNL     1     -28.391 -15.308  -2.380  1.00  0.00     0.211 C 
HETATM    2  C3  UNL     1     -28.671 -14.162  -3.303  1.00  0.00     0.183 C 
HETATM    3  C4  UNL     1     -28.452 -12.802  -2.722  1.00  0.00     0.180 C 
HETATM    4  C5  UNL     1     -27.356 -12.718  -1.706  1.00  0.00     0.179 C 
HETATM    5  O5  UNL     1     -27.386 -13.764  -0.798  1.00  0.00    -0.353 OA
HETATM    6  C7  UNL     1     -27.298 -15.005  -1.363  1.00  0.00     0.259 C 
ENDROOT
BRANCH   6   7
HETATM    7  N3  UNL     1     -27.400 -15.975  -0.267  1.00  0.00    -0.336 N 
HETATM    8  C8  UNL     1     -28.430 -15.966   0.597  1.00  0.00     0.094 A 
HETATM    9  C9  UNL     1     -28.509 -16.882   1.617  1.00  0.00     0.029 A 
HETATM   10  C10 UNL     1     -27.538 -17.836   1.789  1.00  0.00    -0.023 A 
HETATM   11  C11 UNL     1     -27.557 -18.792   2.797  1.00  0.00     0.012 A 
HETATM   12  C15 UNL     1     -26.483 -17.862   0.921  1.00  0.00    -0.010 A 
HETATM   13  C12 UNL     1     -26.565 -19.736   2.935  1.00  0.00     0.001 A 
HETATM   14  C13 UNL     1     -25.512 -19.741   2.047  1.00  0.00     0.001 A 
HETATM   15  C14 UNL     1     -25.479 -18.799   1.041  1.00  0.00     0.013 A 
HETATM   16  C16 UNL     1     -26.446 -16.906  -0.106  1.00  0.00     0.105 A 
ENDBRANCH   6   7
BRANCH   1  17
HETATM   17  O1  UNL     1     -28.165 -16.504  -3.046  1.00  0.00    -0.313 OA
BRANCH  17  18
HETATM   18  C1  UNL     1     -29.065 -17.455  -3.435  1.00  0.00     0.229 C 
HETATM   19  S1  UNL     1     -29.820 -18.464  -2.411  1.00  0.00    -0.032 SA
BRANCH  18  20
HETATM   20  N2  UNL     1     -29.378 -17.590  -4.832  1.00  0.00    -0.277 N 
ATOM     21  H2  UNL     1     -29.893 -18.414  -5.143  1.00  0.00     0.189 HD
BRANCH  20  22
HETATM   22  N1  UNL     1     -29.005 -16.636  -5.778  1.00  0.00    -0.343 N 
ATOM     23  H12 UNL     1     -28.009 -16.466  -5.913  1.00  0.00     0.176 HD
ATOM     24  H11 UNL     1     -29.688 -16.114  -6.328  1.00  0.00     0.176 HD
ENDBRANCH  20  22
ENDBRANCH  18  20
ENDBRANCH  17  18
ENDBRANCH   1  17
BRANCH   2  25
HETATM   25  O2  UNL     1     -27.852 -14.232  -4.456  1.00  0.00    -0.390 OA
ATOM     26  H2  UNL     1     -27.973 -13.465  -5.004  1.00  0.00     0.210 HD
ENDBRANCH   2  25
BRANCH   4  27
HETATM   27  C6  UNL     1     -27.456 -11.444  -0.886  1.00  0.00     0.198 C 
BRANCH  27  28
HETATM   28  O4  UNL     1     -27.557 -10.328  -1.714  1.00  0.00    -0.398 OA
ATOM     29  H4  UNL     1     -28.294  -9.785  -1.461  1.00  0.00     0.209 HD
ENDBRANCH  27  28
ENDBRANCH   4  27
BRANCH   3  30
HETATM   30  O3  UNL     1     -29.668 -12.372  -2.159  1.00  0.00    -0.390 OA
ATOM     31  H3  UNL     1     -29.469 -11.712  -1.505  1.00  0.00     0.210 HD
ENDBRANCH   3  30
TORSDOF 9
ENDMDL
MODEL 5
REMARK VINA RESULT: -6.896320397      3.251      6.375
REMARK  9 active torsions:
REMARK  status: ('A' for Active; 'I' for Inactive)
REMARK    1  A    between atoms: N1_1  and  N2_4 
REMARK    2  A    between atoms: N2_4  and  C1_6 
REMARK    3  A    between atoms: C1_6  and  O1_8 
REMARK    4  A    between atoms: O1_8  and  C2_9 
REMARK    5  A    between atoms: C3_10  and  O2_11 
REMARK    6  A    between atoms: C4_13  and  O3_14 
REMARK    7  A    between atoms: C5_16  and  C6_17 
REMARK    8  A    between atoms: C6_17  and  O4_18 
REMARK    9  A    between atoms: C7_21  and  N3_22 
ROOT
HETATM    1  C2  UNL     1     -28.450 -15.573  -2.474  1.00  0.00     0.211 C 
HETATM    2  C3  UNL     1     -28.704 -14.494  -3.481  1.00  0.00     0.183 C 
HETATM    3  C4  UNL     1     -28.368 -13.108  -3.033  1.00  0.00     0.180 C 
HETATM    4  C5  UNL     1     -27.216 -13.013  -2.081  1.00  0.00     0.179 C 
HETATM    5  O5  UNL     1     -27.266 -13.974  -1.083  1.00  0.00    -0.353 OA
HETATM    6  C7  UNL     1     -27.289 -15.261  -1.539  1.00  0.00     0.259 C 
ENDROOT
BRANCH   6   7
HETATM    7  N3  UNL     1     -27.396 -16.124  -0.359  1.00  0.00    -0.336 N 
HETATM    8  C8  UNL     1     -28.419 -16.022   0.507  1.00  0.00     0.094 A 
HETATM    9  C9  UNL     1     -28.503 -16.839   1.608  1.00  0.00     0.029 A 
HETATM   10  C10 UNL     1     -27.543 -17.787   1.861  1.00  0.00    -0.023 A 
HETATM   11  C11 UNL     1     -27.568 -18.647   2.952  1.00  0.00     0.012 A 
HETATM   12  C15 UNL     1     -26.495 -17.907   0.993  1.00  0.00    -0.010 A 
HETATM   13  C12 UNL     1     -26.587 -19.587   3.170  1.00  0.00     0.001 A 
HETATM   14  C13 UNL     1     -25.541 -19.689   2.280  1.00  0.00     0.001 A 
HETATM   15  C14 UNL     1     -25.502 -18.843   1.192  1.00  0.00     0.013 A 
HETATM   16  C16 UNL     1     -26.453 -17.051  -0.118  1.00  0.00     0.105 A 
ENDBRANCH   6   7
BRANCH   1  17
HETATM   17  O1  UNL     1     -28.338 -16.834  -3.041  1.00  0.00    -0.313 OA
BRANCH  17  18
HETATM   18  C1  UNL     1     -29.316 -17.753  -3.299  1.00  0.00     0.229 C 
HETATM   19  S1  UNL     1     -29.864 -18.103  -4.786  1.00  0.00    -0.032 SA
BRANCH  18  20
HETATM   20  N2  UNL     1     -29.910 -18.467  -2.200  1.00  0.00    -0.277 N 
ATOM     21  H2  UNL     1     -29.763 -18.120  -1.253  1.00  0.00     0.189 HD
BRANCH  20  22
HETATM   22  N1  UNL     1     -30.678 -19.615  -2.382  1.00  0.00    -0.343 N 
ATOM     23  H12 UNL     1     -31.247 -19.677  -3.226  1.00  0.00     0.176 HD
ATOM     24  H11 UNL     1     -30.688 -20.381  -1.708  1.00  0.00     0.176 HD
ENDBRANCH  20  22
ENDBRANCH  18  20
ENDBRANCH  17  18
ENDBRANCH   1  17
BRANCH   2  25
HETATM   25  O2  UNL     1     -27.953 -14.718  -4.659  1.00  0.00    -0.390 OA
ATOM     26  H2  UNL     1     -28.485 -15.137  -5.326  1.00  0.00     0.210 HD
ENDBRANCH   2  25
BRANCH   4  27
HETATM   27  C6  UNL     1     -27.192 -11.670  -1.373  1.00  0.00     0.198 C 
BRANCH  27  28
HETATM   28  O4  UNL     1     -27.203 -10.625  -2.293  1.00  0.00    -0.398 OA
ATOM     29  H4  UNL     1     -28.065 -10.524  -2.679  1.00  0.00     0.209 HD
ENDBRANCH  27  28
ENDBRANCH   4  27
BRANCH   3  30
HETATM   30  O3  UNL     1     -29.522 -12.548  -2.455  1.00  0.00    -0.390 OA
ATOM     31  H3  UNL     1     -29.313 -11.660  -2.188  1.00  0.00     0.210 HD
ENDBRANCH   3  30
TORSDOF 9
ENDMDL
