MODEL 1
REMARK VINA RESULT: -7.049327015      0.000      0.000
REMARK  4 active torsions:
REMARK  status: ('A' for Active; 'I' for Inactive)
REMARK    1  A    between atoms: C6_10  and  O1_11 
REMARK    2  A    between atoms: C8_14  and  C9_15 
REMARK    3  A    between atoms: C9_15  and  N2_16 
REMARK    4  A    between atoms: N2_16  and  S2_18 
ROOT
HETATM    1  C1  UNL     1     -29.302 -11.066   0.629  1.00  0.00     0.040 C 
HETATM    2  C2  UNL     1     -29.425 -12.445   0.057  1.00  0.00     0.071 C 
HETATM    3  C3  UNL     1     -30.636 -13.193   0.541  1.00  0.00     0.040 C 
HETATM    4  S1  UNL     1     -29.297 -12.450  -1.766  1.00  0.00    -0.118 SA
HETATM    5  C4  UNL     1     -28.645 -14.069  -2.077  1.00  0.00     0.195 C 
HETATM    6  C5  UNL     1     -27.745 -14.173  -3.302  1.00  0.00     0.242 C 
HETATM    7  N1  UNL     1     -28.525 -14.650  -4.403  1.00  0.00    -0.041 N 
ATOM      8  H11 UNL     1     -28.148 -14.392  -5.315  1.00  0.00     0.280 HD
ATOM      9  H12 UNL     1     -29.422 -14.175  -4.505  1.00  0.00     0.280 HD
HETATM   10  C6  UNL     1     -28.642 -16.071  -4.206  1.00  0.00     0.320 C 
HETATM   11  C7  UNL     1     -27.300 -16.501  -3.729  1.00  0.00     0.084 C 
HETATM   12  C8  UNL     1     -26.810 -15.195  -2.964  1.00  0.00     0.093 C 
HETATM   13  C11 UNL     1     -27.018 -15.558  -1.503  1.00  0.00     0.243 C 
HETATM   14  O4  UNL     1     -26.605 -16.585  -0.895  1.00  0.00    -0.271 OA
HETATM   15  N3  UNL     1     -27.777 -14.455  -1.006  1.00  0.00    -0.273 N 
HETATM   16  S3  UNL     1     -27.977 -13.488   0.436  1.00  0.00    -0.029 SA
ENDROOT
BRANCH  12  17
HETATM   17  C9  UNL     1     -25.348 -15.163  -3.194  1.00  0.00     0.153 C 
BRANCH  17  18
HETATM   18  N2  UNL     1     -24.840 -13.921  -3.659  1.00  0.00    -0.319 N 
ATOM     19  H2  UNL     1     -25.057 -12.975  -3.344  1.00  0.00     0.172 HD
BRANCH  18  20
HETATM   20  S2  UNL     1     -23.734 -14.450  -4.926  1.00  0.00     0.222 S 
HETATM   21  C10 UNL     1     -22.147 -14.800  -4.421  1.00  0.00     0.185 C 
HETATM   22  O2  UNL     1     -24.400 -15.824  -5.349  1.00  0.00    -0.206 OA
HETATM   23  O3  UNL     1     -23.879 -13.623  -6.154  1.00  0.00    -0.206 OA
ENDBRANCH  18  20
ENDBRANCH  17  18
ENDBRANCH  12  17
BRANCH  10  24
HETATM   24  O1  UNL     1     -28.983 -16.699  -5.417  1.00  0.00    -0.370 OA
ATOM     25  H1  UNL     1     -29.792 -16.336  -5.756  1.00  0.00     0.212 HD
ENDBRANCH  10  24
TORSDOF 4
ENDMDL
MODEL 2
REMARK VINA RESULT: -6.916310044      3.230      4.666
REMARK  4 active torsions:
REMARK  status: ('A' for Active; 'I' for Inactive)
REMARK    1  A    between atoms: C6_10  and  O1_11 
REMARK    2  A    between atoms: C8_14  and  C9_15 
REMARK    3  A    between atoms: C9_15  and  N2_16 
REMARK    4  A    between atoms: N2_16  and  S2_18 
ROOT
HETATM    1  C1  UNL     1     -26.172 -17.260   3.253  1.00  0.00     0.040 C 
HETATM    2  C2  UNL     1     -26.262 -17.762   1.844  1.00  0.00     0.071 C 
HETATM    3  C3  UNL     1     -25.391 -18.957   1.573  1.00  0.00     0.040 C 
HETATM    4  S1  UNL     1     -27.990 -18.037   1.318  1.00  0.00    -0.118 SA
HETATM    5  C4  UNL     1     -27.879 -17.784  -0.434  1.00  0.00     0.195 C 
HETATM    6  C5  UNL     1     -29.133 -17.209  -1.079  1.00  0.00     0.242 C 
HETATM    7  N1  UNL     1     -29.898 -18.285  -1.629  1.00  0.00    -0.041 N 
ATOM      8  H11 UNL     1     -30.892 -18.074  -1.726  1.00  0.00     0.280 HD
ATOM      9  H12 UNL     1     -30.005 -19.077  -0.995  1.00  0.00     0.280 HD
HETATM   10  C6  UNL     1     -29.255 -18.622  -2.871  1.00  0.00     0.320 C 
HETATM   11  C7  UNL     1     -28.878 -17.313  -3.471  1.00  0.00     0.084 C 
HETATM   12  C8  UNL     1     -28.640 -16.432  -2.169  1.00  0.00     0.093 C 
HETATM   13  C11 UNL     1     -27.125 -16.381  -2.064  1.00  0.00     0.243 C 
HETATM   14  O4  UNL     1     -26.299 -16.047  -2.958  1.00  0.00    -0.271 OA
HETATM   15  N3  UNL     1     -26.885 -16.793  -0.717  1.00  0.00    -0.273 N 
HETATM   16  S3  UNL     1     -25.802 -16.488   0.621  1.00  0.00    -0.029 SA
ENDROOT
BRANCH  12  17
HETATM   17  C9  UNL     1     -29.088 -15.076  -2.558  1.00  0.00     0.153 C 
BRANCH  17  18
HETATM   18  N2  UNL     1     -28.587 -14.612  -3.805  1.00  0.00    -0.319 N 
ATOM     19  H2  UNL     1     -28.520 -15.103  -4.696  1.00  0.00     0.172 HD
BRANCH  18  20
HETATM   20  S2  UNL     1     -28.113 -12.964  -3.398  1.00  0.00     0.222 S 
HETATM   21  C10 UNL     1     -28.302 -12.525  -1.764  1.00  0.00     0.185 C 
HETATM   22  O2  UNL     1     -26.556 -13.020  -3.686  1.00  0.00    -0.206 OA
HETATM   23  O3  UNL     1     -28.600 -11.991  -4.413  1.00  0.00    -0.206 OA
ENDBRANCH  18  20
ENDBRANCH  17  18
ENDBRANCH  12  17
BRANCH  10  24
HETATM   24  O1  UNL     1     -30.144 -19.330  -3.699  1.00  0.00    -0.370 OA
ATOM     25  H1  UNL     1     -30.146 -18.955  -4.571  1.00  0.00     0.212 HD
ENDBRANCH  10  24
TORSDOF 4
ENDMDL
MODEL 3
REMARK VINA RESULT: -6.858886485      3.306      4.941
REMARK  4 active torsions:
REMARK  status: ('A' for Active; 'I' for Inactive)
REMARK    1  A    between atoms: C6_10  and  O1_11 
REMARK    2  A    between atoms: C8_14  and  C9_15 
REMARK    3  A    between atoms: C9_15  and  N2_16 
REMARK    4  A    between atoms: N2_16  and  S2_18 
ROOT
HETATM    1  C1  UNL     1     -26.130 -17.034   3.116  1.00  0.00     0.040 C 
HETATM    2  C2  UNL     1     -26.235 -17.561   1.718  1.00  0.00     0.071 C 
HETATM    3  C3  UNL     1     -25.340 -18.739   1.449  1.00  0.00     0.040 C 
HETATM    4  S1  UNL     1     -27.965 -17.888   1.231  1.00  0.00    -0.118 SA
HETATM    5  C4  UNL     1     -27.895 -17.662  -0.526  1.00  0.00     0.195 C 
HETATM    6  C5  UNL     1     -29.175 -17.128  -1.156  1.00  0.00     0.242 C 
HETATM    7  N1  UNL     1     -29.924 -18.232  -1.672  1.00  0.00    -0.041 N 
ATOM      8  H11 UNL     1     -30.924 -18.047  -1.753  1.00  0.00     0.280 HD
ATOM      9  H12 UNL     1     -29.999 -19.015  -1.024  1.00  0.00     0.280 HD
HETATM   10  C6  UNL     1     -29.297 -18.574  -2.922  1.00  0.00     0.320 C 
HETATM   11  C7  UNL     1     -28.965 -17.267  -3.550  1.00  0.00     0.084 C 
HETATM   12  C8  UNL     1     -28.724 -16.358  -2.268  1.00  0.00     0.093 C 
HETATM   13  C11 UNL     1     -27.208 -16.268  -2.194  1.00  0.00     0.243 C 
HETATM   14  O4  UNL     1     -26.408 -15.929  -3.110  1.00  0.00    -0.271 OA
HETATM   15  N3  UNL     1     -26.932 -16.651  -0.846  1.00  0.00    -0.273 N 
HETATM   16  S3  UNL     1     -25.831 -16.298   0.465  1.00  0.00    -0.029 SA
ENDROOT
BRANCH  12  17
HETATM   17  C9  UNL     1     -29.212 -15.020  -2.670  1.00  0.00     0.153 C 
BRANCH  17  18
HETATM   18  N2  UNL     1     -29.731 -14.227  -1.611  1.00  0.00    -0.319 N 
ATOM     19  H2  UNL     1     -30.433 -14.464  -0.910  1.00  0.00     0.172 HD
BRANCH  18  20
HETATM   20  S2  UNL     1     -28.839 -12.723  -1.835  1.00  0.00     0.222 S 
HETATM   21  C10 UNL     1     -27.202 -12.761  -1.372  1.00  0.00     0.185 C 
HETATM   22  O2  UNL     1     -28.871 -12.586  -3.413  1.00  0.00    -0.206 OA
HETATM   23  O3  UNL     1     -29.633 -11.547  -1.387  1.00  0.00    -0.206 OA
ENDBRANCH  18  20
ENDBRANCH  17  18
ENDBRANCH  12  17
BRANCH  10  24
HETATM   24  O1  UNL     1     -30.185 -19.317  -3.720  1.00  0.00    -0.370 OA
ATOM     25  H1  UNL     1     -29.956 -20.238  -3.691  1.00  0.00     0.212 HD
ENDBRANCH  10  24
TORSDOF 4
ENDMDL
MODEL 4
REMARK VINA RESULT: -6.715190126      1.136      1.211
REMARK  4 active torsions:
REMARK  status: ('A' for Active; 'I' for Inactive)
REMARK    1  A    between atoms: C6_10  and  O1_11 
REMARK    2  A    between atoms: C8_14  and  C9_15 
REMARK    3  A    between atoms: C9_15  and  N2_16 
REMARK    4  A    between atoms: N2_16  and  S2_18 
ROOT
HETATM    1  C1  UNL     1     -29.713 -11.078   0.219  1.00  0.00     0.040 C 
HETATM    2  C2  UNL     1     -29.373 -12.494  -0.135  1.00  0.00     0.071 C 
HETATM    3  C3  UNL     1     -30.097 -13.514   0.698  1.00  0.00     0.040 C 
HETATM    4  S1  UNL     1     -29.547 -12.819  -1.924  1.00  0.00    -0.118 SA
HETATM    5  C4  UNL     1     -28.368 -14.121  -2.171  1.00  0.00     0.195 C 
HETATM    6  C5  UNL     1     -27.709 -14.137  -3.544  1.00  0.00     0.242 C 
HETATM    7  N1  UNL     1     -28.404 -15.074  -4.373  1.00  0.00    -0.041 N 
ATOM      8  H11 UNL     1     -28.310 -14.887  -5.371  1.00  0.00     0.280 HD
ATOM      9  H12 UNL     1     -29.419 -14.986  -4.329  1.00  0.00     0.280 HD
HETATM   10  C6  UNL     1     -27.919 -16.371  -3.980  1.00  0.00     0.320 C 
HETATM   11  C7  UNL     1     -26.458 -16.183  -3.767  1.00  0.00     0.084 C 
HETATM   12  C8  UNL     1     -26.406 -14.663  -3.300  1.00  0.00     0.093 C 
HETATM   13  C11 UNL     1     -26.217 -14.775  -1.796  1.00  0.00     0.243 C 
HETATM   14  O4  UNL     1     -25.343 -15.439  -1.174  1.00  0.00    -0.271 OA
HETATM   15  N3  UNL     1     -27.259 -13.944  -1.282  1.00  0.00    -0.273 N 
HETATM   16  S3  UNL     1     -27.590 -12.845   0.036  1.00  0.00    -0.029 SA
ENDROOT
BRANCH  12  17
HETATM   17  C9  UNL     1     -25.132 -14.153  -3.855  1.00  0.00     0.153 C 
BRANCH  17  18
HETATM   18  N2  UNL     1     -24.035 -15.051  -3.763  1.00  0.00    -0.319 N 
ATOM     19  H2  UNL     1     -23.750 -15.645  -2.984  1.00  0.00     0.172 HD
BRANCH  18  20
HETATM   20  S2  UNL     1     -23.297 -14.863  -5.353  1.00  0.00     0.222 S 
HETATM   21  C10 UNL     1     -23.043 -13.260  -5.862  1.00  0.00     0.185 C 
HETATM   22  O2  UNL     1     -21.870 -15.502  -5.099  1.00  0.00    -0.206 OA
HETATM   23  O3  UNL     1     -23.901 -15.793  -6.346  1.00  0.00    -0.206 OA
ENDBRANCH  18  20
ENDBRANCH  17  18
ENDBRANCH  12  17
BRANCH  10  24
HETATM   24  O1  UNL     1     -28.174 -17.309  -4.995  1.00  0.00    -0.370 OA
ATOM     25  H1  UNL     1     -27.357 -17.661  -5.327  1.00  0.00     0.212 HD
ENDBRANCH  10  24
TORSDOF 4
ENDMDL
MODEL 5
REMARK VINA RESULT: -6.618737434      3.169      5.172
REMARK  4 active torsions:
REMARK  status: ('A' for Active; 'I' for Inactive)
REMARK    1  A    between atoms: C6_10  and  O1_11 
REMARK    2  A    between atoms: C8_14  and  C9_15 
REMARK    3  A    between atoms: C9_15  and  N2_16 
REMARK    4  A    between atoms: N2_16  and  S2_18 
ROOT
HETATM    1  C1  UNL     1     -26.074 -17.395   3.128  1.00  0.00     0.040 C 
HETATM    2  C2  UNL     1     -26.190 -17.801   1.690  1.00  0.00     0.071 C 
HETATM    3  C3  UNL     1     -25.311 -18.962   1.319  1.00  0.00     0.040 C 
HETATM    4  S1  UNL     1     -27.926 -18.064   1.186  1.00  0.00    -0.118 SA
HETATM    5  C4  UNL     1     -27.859 -17.691  -0.547  1.00  0.00     0.195 C 
HETATM    6  C5  UNL     1     -29.135 -17.091  -1.123  1.00  0.00     0.242 C 
HETATM    7  N1  UNL     1     -29.900 -18.137  -1.728  1.00  0.00    -0.041 N 
ATOM      8  H11 UNL     1     -30.897 -17.934  -1.788  1.00  0.00     0.280 HD
ATOM      9  H12 UNL     1     -29.981 -18.972  -1.148  1.00  0.00     0.280 HD
HETATM   10  C6  UNL     1     -29.281 -18.379  -3.004  1.00  0.00     0.320 C 
HETATM   11  C7  UNL     1     -28.934 -17.028  -3.521  1.00  0.00     0.084 C 
HETATM   12  C8  UNL     1     -28.678 -16.234  -2.167  1.00  0.00     0.093 C 
HETATM   13  C11 UNL     1     -27.161 -16.169  -2.093  1.00  0.00     0.243 C 
HETATM   14  O4  UNL     1     -26.360 -15.763  -2.980  1.00  0.00    -0.271 OA
HETATM   15  N3  UNL     1     -26.885 -16.668  -0.783  1.00  0.00    -0.273 N 
HETATM   16  S3  UNL     1     -25.775 -16.440   0.548  1.00  0.00    -0.029 SA
ENDROOT
BRANCH  12  17
HETATM   17  C9  UNL     1     -29.151 -14.861  -2.452  1.00  0.00     0.153 C 
BRANCH  17  18
HETATM   18  N2  UNL     1     -29.904 -14.256  -1.410  1.00  0.00    -0.319 N 
ATOM     19  H2  UNL     1     -30.704 -14.623  -0.894  1.00  0.00     0.172 HD
BRANCH  18  20
HETATM   20  S2  UNL     1     -29.086 -12.703  -1.247  1.00  0.00     0.222 S 
HETATM   21  C10 UNL     1     -29.798 -11.606  -0.159  1.00  0.00     0.185 C 
HETATM   22  O2  UNL     1     -27.706 -13.156  -0.613  1.00  0.00    -0.206 OA
HETATM   23  O3  UNL     1     -28.676 -12.162  -2.571  1.00  0.00    -0.206 OA
ENDBRANCH  18  20
ENDBRANCH  17  18
ENDBRANCH  12  17
BRANCH  10  24
HETATM   24  O1  UNL     1     -30.180 -19.042  -3.858  1.00  0.00    -0.370 OA
ATOM     25  H1  UNL     1     -29.879 -18.984  -4.757  1.00  0.00     0.212 HD
ENDBRANCH  10  24
TORSDOF 4
ENDMDL
