MODEL 1
REMARK VINA RESULT: -7.146019113      0.000      0.000
REMARK  9 active torsions:
REMARK  status: ('A' for Active; 'I' for Inactive)
REMARK    1  A    between atoms: S1_2  and  C2_5 
REMARK    2  A    between atoms: C2_5  and  C3_6 
REMARK    3  A    between atoms: C6_9  and  C7_10 
REMARK    4  A    between atoms: C8_11  and  C9_12 
REMARK    5  A    between atoms: C10_14  and  C11_15 
REMARK    6  A    between atoms: C11_15  and  O4_16 
REMARK    7  A    between atoms: C12_18  and  O5_19 
REMARK    8  A    between atoms: C13_21  and  O6_22 
REMARK    9  A    between atoms: C14_24  and  O7_25 
ROOT
HETATM    1  C9  UNL     1     -28.221 -15.783  -3.585  1.00  0.00     0.232 C 
HETATM    2  O3  UNL     1     -28.414 -16.034  -2.286  1.00  0.00    -0.361 OA
HETATM    3  C10 UNL     1     -29.112 -17.085  -1.857  1.00  0.00     0.178 C 
HETATM    4  C12 UNL     1     -29.274 -18.243  -2.774  1.00  0.00     0.180 C 
HETATM    5  C13 UNL     1     -29.773 -17.673  -4.109  1.00  0.00     0.181 C 
HETATM    6  C14 UNL     1     -28.629 -16.801  -4.581  1.00  0.00     0.190 C 
ENDROOT
BRANCH   1   7
HETATM    7  C8  UNL     1     -26.791 -15.433  -3.786  1.00  0.00    -0.066 C 
HETATM    8  C7  UNL     1     -25.630 -15.164  -3.967  1.00  0.00    -0.064 C 
BRANCH   8   9
HETATM    9  C6  UNL     1     -24.250 -14.836  -4.206  1.00  0.00     0.017 A 
HETATM   10  C5  UNL     1     -23.651 -15.218  -5.384  1.00  0.00     0.021 A 
HETATM   11  C4  UNL     1     -22.335 -14.943  -5.692  1.00  0.00     0.009 A 
HETATM   12  C3  UNL     1     -21.613 -14.244  -4.738  1.00  0.00    -0.044 A 
HETATM   13  C16 UNL     1     -22.158 -13.834  -3.541  1.00  0.00     0.009 A 
HETATM   14  C15 UNL     1     -23.480 -14.145  -3.302  1.00  0.00     0.021 A 
BRANCH  12  15
HETATM   15  C2  UNL     1     -20.199 -13.928  -5.028  1.00  0.00     0.178 C 
BRANCH  15  16
HETATM   16  S1  UNL     1     -20.077 -12.377  -5.900  1.00  0.00     0.144 S 
HETATM   17  C1  UNL     1     -18.409 -12.306  -6.564  1.00  0.00     0.161 C 
HETATM   18  O1  UNL     1     -21.102 -12.367  -6.973  1.00  0.00    -0.228 OA
HETATM   19  O2  UNL     1     -20.199 -11.218  -4.954  1.00  0.00    -0.228 OA
ENDBRANCH  15  16
ENDBRANCH  12  15
ENDBRANCH   8   9
ENDBRANCH   1   7
BRANCH   6  20
HETATM   20  O7  UNL     1     -27.586 -17.670  -4.947  1.00  0.00    -0.389 OA
ATOM     21  H7  UNL     1     -26.804 -17.217  -5.241  1.00  0.00     0.210 HD
ENDBRANCH   6  20
BRANCH   3  22
HETATM   22  C11 UNL     1     -28.515 -17.578  -0.538  1.00  0.00     0.198 C 
BRANCH  22  23
HETATM   23  O4  UNL     1     -29.483 -17.613   0.468  1.00  0.00    -0.398 OA
ATOM     24  H4  UNL     1     -29.231 -18.210   1.164  1.00  0.00     0.209 HD
ENDBRANCH  22  23
ENDBRANCH   3  22
BRANCH   5  25
HETATM   25  O6  UNL     1     -29.997 -18.736  -4.940  1.00  0.00    -0.390 OA
ATOM     26  H6  UNL     1     -29.191 -19.239  -4.972  1.00  0.00     0.210 HD
ENDBRANCH   5  25
BRANCH   4  27
HETATM   27  O5  UNL     1     -30.159 -19.175  -2.279  1.00  0.00    -0.390 OA
ATOM     28  H5  UNL     1     -29.712 -19.907  -1.870  1.00  0.00     0.210 HD
ENDBRANCH   4  27
TORSDOF 9
ENDMDL
MODEL 2
REMARK VINA RESULT: -7.088203851      1.456      1.552
REMARK  9 active torsions:
REMARK  status: ('A' for Active; 'I' for Inactive)
REMARK    1  A    between atoms: S1_2  and  C2_5 
REMARK    2  A    between atoms: C2_5  and  C3_6 
REMARK    3  A    between atoms: C6_9  and  C7_10 
REMARK    4  A    between atoms: C8_11  and  C9_12 
REMARK    5  A    between atoms: C10_14  and  C11_15 
REMARK    6  A    between atoms: C11_15  and  O4_16 
REMARK    7  A    between atoms: C12_18  and  O5_19 
REMARK    8  A    between atoms: C13_21  and  O6_22 
REMARK    9  A    between atoms: C14_24  and  O7_25 
ROOT
HETATM    1  C9  UNL     1     -28.500 -15.728  -3.575  1.00  0.00     0.232 C 
HETATM    2  O3  UNL     1     -28.614 -16.015  -2.275  1.00  0.00    -0.361 OA
HETATM    3  C10 UNL     1     -29.176 -17.141  -1.838  1.00  0.00     0.178 C 
HETATM    4  C12 UNL     1     -29.247 -18.298  -2.768  1.00  0.00     0.180 C 
HETATM    5  C13 UNL     1     -29.856 -17.769  -4.074  1.00  0.00     0.181 C 
HETATM    6  C14 UNL     1     -28.833 -16.771  -4.573  1.00  0.00     0.190 C 
ENDROOT
BRANCH   1   7
HETATM    7  C8  UNL     1     -27.125 -15.221  -3.824  1.00  0.00    -0.066 C 
HETATM    8  C7  UNL     1     -26.004 -14.831  -4.034  1.00  0.00    -0.064 C 
BRANCH   8   9
HETATM    9  C6  UNL     1     -24.669 -14.370  -4.309  1.00  0.00     0.017 A 
HETATM   10  C5  UNL     1     -23.883 -15.052  -5.208  1.00  0.00     0.021 A 
HETATM   11  C4  UNL     1     -22.595 -14.677  -5.529  1.00  0.00     0.009 A 
HETATM   12  C3  UNL     1     -22.105 -13.550  -4.888  1.00  0.00    -0.044 A 
HETATM   13  C16 UNL     1     -22.844 -12.826  -3.979  1.00  0.00     0.009 A 
HETATM   14  C15 UNL     1     -24.124 -13.261  -3.709  1.00  0.00     0.021 A 
BRANCH  12  15
HETATM   15  C2  UNL     1     -20.728 -13.113  -5.203  1.00  0.00     0.178 C 
BRANCH  15  16
HETATM   16  S1  UNL     1     -19.543 -14.231  -4.475  1.00  0.00     0.144 S 
HETATM   17  C1  UNL     1     -18.277 -13.198  -3.726  1.00  0.00     0.161 C 
HETATM   18  O1  UNL     1     -20.248 -15.062  -3.468  1.00  0.00    -0.228 OA
HETATM   19  O2  UNL     1     -18.850 -15.040  -5.531  1.00  0.00    -0.228 OA
ENDBRANCH  15  16
ENDBRANCH  12  15
ENDBRANCH   8   9
ENDBRANCH   1   7
BRANCH   6  20
HETATM   20  O7  UNL     1     -27.717 -17.517  -4.992  1.00  0.00    -0.389 OA
ATOM     21  H7  UNL     1     -27.918 -18.141  -5.680  1.00  0.00     0.210 HD
ENDBRANCH   6  20
BRANCH   3  22
HETATM   22  C11 UNL     1     -28.479 -17.583  -0.551  1.00  0.00     0.198 C 
BRANCH  22  23
HETATM   23  O4  UNL     1     -29.393 -17.705   0.498  1.00  0.00    -0.398 OA
ATOM     24  H4  UNL     1     -29.003 -18.151   1.241  1.00  0.00     0.209 HD
ENDBRANCH  22  23
ENDBRANCH   3  22
BRANCH   5  25
HETATM   25  O6  UNL     1     -29.995 -18.840  -4.914  1.00  0.00    -0.390 OA
ATOM     26  H6  UNL     1     -30.749 -19.334  -4.613  1.00  0.00     0.210 HD
ENDBRANCH   5  25
BRANCH   4  27
HETATM   27  O5  UNL     1     -30.005 -19.327  -2.256  1.00  0.00    -0.390 OA
ATOM     28  H5  UNL     1     -29.479 -20.094  -2.059  1.00  0.00     0.210 HD
ENDBRANCH   4  27
TORSDOF 9
ENDMDL
MODEL 3
REMARK VINA RESULT: -6.980667971      0.839      1.356
REMARK  9 active torsions:
REMARK  status: ('A' for Active; 'I' for Inactive)
REMARK    1  A    between atoms: S1_2  and  C2_5 
REMARK    2  A    between atoms: C2_5  and  C3_6 
REMARK    3  A    between atoms: C6_9  and  C7_10 
REMARK    4  A    between atoms: C8_11  and  C9_12 
REMARK    5  A    between atoms: C10_14  and  C11_15 
REMARK    6  A    between atoms: C11_15  and  O4_16 
REMARK    7  A    between atoms: C12_18  and  O5_19 
REMARK    8  A    between atoms: C13_21  and  O6_22 
REMARK    9  A    between atoms: C14_24  and  O7_25 
ROOT
HETATM    1  C9  UNL     1     -27.940 -15.503  -3.366  1.00  0.00     0.232 C 
HETATM    2  O3  UNL     1     -28.110 -15.738  -2.061  1.00  0.00    -0.361 OA
HETATM    3  C10 UNL     1     -28.849 -16.750  -1.607  1.00  0.00     0.178 C 
HETATM    4  C12 UNL     1     -29.094 -17.902  -2.513  1.00  0.00     0.180 C 
HETATM    5  C13 UNL     1     -29.599 -17.314  -3.838  1.00  0.00     0.181 C 
HETATM    6  C14 UNL     1     -28.426 -16.503  -4.346  1.00  0.00     0.190 C 
ENDROOT
BRANCH   1   7
HETATM    7  C8  UNL     1     -26.500 -15.228  -3.608  1.00  0.00    -0.066 C 
HETATM    8  C7  UNL     1     -25.332 -15.020  -3.822  1.00  0.00    -0.064 C 
BRANCH   8   9
HETATM    9  C6  UNL     1     -23.944 -14.764  -4.100  1.00  0.00     0.017 A 
HETATM   10  C5  UNL     1     -23.202 -14.000  -3.229  1.00  0.00     0.021 A 
HETATM   11  C4  UNL     1     -21.868 -13.709  -3.420  1.00  0.00     0.009 A 
HETATM   12  C3  UNL     1     -21.281 -14.232  -4.561  1.00  0.00    -0.044 A 
HETATM   13  C16 UNL     1     -21.972 -15.003  -5.470  1.00  0.00     0.009 A 
HETATM   14  C15 UNL     1     -23.303 -15.253  -5.212  1.00  0.00     0.021 A 
BRANCH  12  15
HETATM   15  C2  UNL     1     -19.852 -13.944  -4.805  1.00  0.00     0.178 C 
BRANCH  15  16
HETATM   16  S1  UNL     1     -19.680 -12.521  -5.867  1.00  0.00     0.144 S 
HETATM   17  C1  UNL     1     -19.543 -11.098  -4.779  1.00  0.00     0.161 C 
HETATM   18  O1  UNL     1     -18.463 -12.705  -6.695  1.00  0.00    -0.228 OA
HETATM   19  O2  UNL     1     -20.923 -12.306  -6.681  1.00  0.00    -0.228 OA
ENDBRANCH  15  16
ENDBRANCH  12  15
ENDBRANCH   8   9
ENDBRANCH   1   7
BRANCH   6  20
HETATM   20  O7  UNL     1     -27.439 -17.427  -4.734  1.00  0.00    -0.389 OA
ATOM     21  H7  UNL     1     -27.773 -18.310  -4.841  1.00  0.00     0.210 HD
ENDBRANCH   6  20
BRANCH   3  22
HETATM   22  C11 UNL     1     -28.243 -17.267  -0.303  1.00  0.00     0.198 C 
BRANCH  22  23
HETATM   23  O4  UNL     1     -29.240 -17.590   0.621  1.00  0.00    -0.398 OA
ATOM     24  H4  UNL     1     -29.136 -18.479   0.938  1.00  0.00     0.209 HD
ENDBRANCH  22  23
ENDBRANCH   3  22
BRANCH   5  25
HETATM   25  O6  UNL     1     -29.900 -18.368  -4.656  1.00  0.00    -0.390 OA
ATOM     26  H6  UNL     1     -29.823 -18.057  -5.551  1.00  0.00     0.210 HD
ENDBRANCH   5  25
BRANCH   4  27
HETATM   27  O5  UNL     1     -30.012 -18.785  -1.989  1.00  0.00    -0.390 OA
ATOM     28  H5  UNL     1     -29.778 -19.689  -2.167  1.00  0.00     0.210 HD
ENDBRANCH   4  27
TORSDOF 9
ENDMDL
MODEL 4
REMARK VINA RESULT: -6.976524385      1.481      1.865
REMARK  9 active torsions:
REMARK  status: ('A' for Active; 'I' for Inactive)
REMARK    1  A    between atoms: S1_2  and  C2_5 
REMARK    2  A    between atoms: C2_5  and  C3_6 
REMARK    3  A    between atoms: C6_9  and  C7_10 
REMARK    4  A    between atoms: C8_11  and  C9_12 
REMARK    5  A    between atoms: C10_14  and  C11_15 
REMARK    6  A    between atoms: C11_15  and  O4_16 
REMARK    7  A    between atoms: C12_18  and  O5_19 
REMARK    8  A    between atoms: C13_21  and  O6_22 
REMARK    9  A    between atoms: C14_24  and  O7_25 
ROOT
HETATM    1  C9  UNL     1     -28.391 -15.755  -3.550  1.00  0.00     0.232 C 
HETATM    2  O3  UNL     1     -28.586 -16.041  -2.259  1.00  0.00    -0.361 OA
HETATM    3  C10 UNL     1     -29.183 -17.163  -1.858  1.00  0.00     0.178 C 
HETATM    4  C12 UNL     1     -29.207 -18.319  -2.792  1.00  0.00     0.180 C 
HETATM    5  C13 UNL     1     -29.731 -17.784  -4.132  1.00  0.00     0.181 C 
HETATM    6  C14 UNL     1     -28.671 -16.795  -4.567  1.00  0.00     0.190 C 
ENDROOT
BRANCH   1   7
HETATM    7  C8  UNL     1     -26.999 -15.260  -3.713  1.00  0.00    -0.066 C 
HETATM    8  C7  UNL     1     -25.878 -14.842  -3.859  1.00  0.00    -0.064 C 
BRANCH   8   9
HETATM    9  C6  UNL     1     -24.547 -14.321  -4.023  1.00  0.00     0.017 A 
HETATM   10  C5  UNL     1     -23.948 -13.640  -2.989  1.00  0.00     0.021 A 
HETATM   11  C4  UNL     1     -22.676 -13.111  -3.063  1.00  0.00     0.009 A 
HETATM   12  C3  UNL     1     -22.001 -13.296  -4.259  1.00  0.00    -0.044 A 
HETATM   13  C16 UNL     1     -22.549 -13.968  -5.329  1.00  0.00     0.009 A 
HETATM   14  C15 UNL     1     -23.825 -14.470  -5.182  1.00  0.00     0.021 A 
BRANCH  12  15
HETATM   15  C2  UNL     1     -20.636 -12.744  -4.381  1.00  0.00     0.178 C 
BRANCH  15  16
HETATM   16  S1  UNL     1     -19.424 -14.014  -4.061  1.00  0.00     0.144 S 
HETATM   17  C1  UNL     1     -18.805 -14.530  -5.667  1.00  0.00     0.161 C 
HETATM   18  O1  UNL     1     -18.354 -13.432  -3.216  1.00  0.00    -0.228 OA
HETATM   19  O2  UNL     1     -20.067 -15.226  -3.453  1.00  0.00    -0.228 OA
ENDBRANCH  15  16
ENDBRANCH  12  15
ENDBRANCH   8   9
ENDBRANCH   1   7
BRANCH   6  20
HETATM   20  O7  UNL     1     -27.537 -17.550  -4.918  1.00  0.00    -0.389 OA
ATOM     21  H7  UNL     1     -27.696 -18.487  -4.919  1.00  0.00     0.210 HD
ENDBRANCH   6  20
BRANCH   3  22
HETATM   22  C11 UNL     1     -28.570 -17.612  -0.532  1.00  0.00     0.198 C 
BRANCH  22  23
HETATM   23  O4  UNL     1     -29.531 -17.639   0.482  1.00  0.00    -0.398 OA
ATOM     24  H4  UNL     1     -29.478 -18.446   0.981  1.00  0.00     0.209 HD
ENDBRANCH  22  23
ENDBRANCH   3  22
BRANCH   5  25
HETATM   25  O6  UNL     1     -29.827 -18.853  -4.980  1.00  0.00    -0.390 OA
ATOM     26  H6  UNL     1     -29.785 -19.638  -4.446  1.00  0.00     0.210 HD
ENDBRANCH   5  25
BRANCH   4  27
HETATM   27  O5  UNL     1     -30.004 -19.342  -2.329  1.00  0.00    -0.390 OA
ATOM     28  H5  UNL     1     -30.918 -19.086  -2.279  1.00  0.00     0.210 HD
ENDBRANCH   4  27
TORSDOF 9
ENDMDL
MODEL 5
REMARK VINA RESULT: -6.363586025      5.860      7.749
REMARK  9 active torsions:
REMARK  status: ('A' for Active; 'I' for Inactive)
REMARK    1  A    between atoms: S1_2  and  C2_5 
REMARK    2  A    between atoms: C2_5  and  C3_6 
REMARK    3  A    between atoms: C6_9  and  C7_10 
REMARK    4  A    between atoms: C8_11  and  C9_12 
REMARK    5  A    between atoms: C10_14  and  C11_15 
REMARK    6  A    between atoms: C11_15  and  O4_16 
REMARK    7  A    between atoms: C12_18  and  O5_19 
REMARK    8  A    between atoms: C13_21  and  O6_22 
REMARK    9  A    between atoms: C14_24  and  O7_25 
ROOT
HETATM    1  C9  UNL     1     -29.100 -16.954  -2.058  1.00  0.00     0.232 C 
HETATM    2  O3  UNL     1     -30.013 -17.928  -2.003  1.00  0.00    -0.361 OA
HETATM    3  C10 UNL     1     -30.482 -18.532  -3.095  1.00  0.00     0.178 C 
HETATM    4  C12 UNL     1     -29.663 -18.476  -4.334  1.00  0.00     0.180 C 
HETATM    5  C13 UNL     1     -29.301 -17.000  -4.550  1.00  0.00     0.181 C 
HETATM    6  C14 UNL     1     -28.442 -16.658  -3.352  1.00  0.00     0.190 C 
ENDROOT
BRANCH   1   7
HETATM    7  C8  UNL     1     -28.067 -17.221  -1.024  1.00  0.00    -0.066 C 
HETATM    8  C7  UNL     1     -27.244 -17.433  -0.168  1.00  0.00    -0.064 C 
BRANCH   8   9
HETATM    9  C6  UNL     1     -26.277 -17.702   0.863  1.00  0.00     0.017 A 
HETATM   10  C5  UNL     1     -25.745 -18.964   0.987  1.00  0.00     0.021 A 
HETATM   11  C4  UNL     1     -24.813 -19.305   1.945  1.00  0.00     0.009 A 
HETATM   12  C3  UNL     1     -24.421 -18.294   2.809  1.00  0.00    -0.044 A 
HETATM   13  C16 UNL     1     -24.919 -17.012   2.734  1.00  0.00     0.009 A 
HETATM   14  C15 UNL     1     -25.847 -16.745   1.749  1.00  0.00     0.021 A 
BRANCH  12  15
HETATM   15  C2  UNL     1     -23.425 -18.617   3.852  1.00  0.00     0.178 C 
BRANCH  15  16
HETATM   16  S1  UNL     1     -24.243 -19.046   5.378  1.00  0.00     0.144 S 
HETATM   17  C1  UNL     1     -23.067 -20.027   6.317  1.00  0.00     0.161 C 
HETATM   18  O1  UNL     1     -24.602 -17.790   6.080  1.00  0.00    -0.228 OA
HETATM   19  O2  UNL     1     -25.421 -19.939   5.122  1.00  0.00    -0.228 OA
ENDBRANCH  15  16
ENDBRANCH  12  15
ENDBRANCH   8   9
ENDBRANCH   1   7
BRANCH   6  20
HETATM   20  O7  UNL     1     -27.223 -17.340  -3.525  1.00  0.00    -0.389 OA
ATOM     21  H7  UNL     1     -27.261 -18.251  -3.258  1.00  0.00     0.210 HD
ENDBRANCH   6  20
BRANCH   3  22
HETATM   22  C11 UNL     1     -30.786 -19.993  -2.768  1.00  0.00     0.198 C 
BRANCH  22  23
HETATM   23  O4  UNL     1     -31.812 -20.486  -3.579  1.00  0.00    -0.398 OA
ATOM     24  H4  UNL     1     -31.503 -21.201  -4.124  1.00  0.00     0.209 HD
ENDBRANCH  22  23
ENDBRANCH   3  22
BRANCH   5  25
HETATM   25  O6  UNL     1     -28.610 -16.926  -5.728  1.00  0.00    -0.390 OA
ATOM     26  H6  UNL     1     -28.593 -17.801  -6.098  1.00  0.00     0.210 HD
ENDBRANCH   5  25
BRANCH   4  27
HETATM   27  O5  UNL     1     -30.340 -18.979  -5.423  1.00  0.00    -0.390 OA
ATOM     28  H5  UNL     1     -29.748 -19.255  -6.113  1.00  0.00     0.210 HD
ENDBRANCH   4  27
TORSDOF 9
ENDMDL
