MODEL 1
REMARK VINA RESULT: -7.250460331      0.000      0.000
REMARK  6 active torsions:
REMARK  status: ('A' for Active; 'I' for Inactive)
REMARK    1  A    between atoms: C2_2  and  C3_3 
REMARK    2  A    between atoms: C7_8  and  C8_9 
REMARK    3  A    between atoms: C8_9  and  O2_12 
REMARK    4  A    between atoms: C12_15  and  O3_16 
REMARK    5  A    between atoms: C15_20  and  C16_21 
REMARK    6  A    between atoms: C16_21  and  O4_22 
ROOT
HETATM    1  C3  UNL     1      26.396  14.903 -15.546  1.00  0.00    -0.007 C 
HETATM    2  C4  UNL     1      26.544  15.937 -16.674  1.00  0.00     0.007 C 
HETATM    3  C5  UNL     1      27.438  17.029 -16.047  1.00  0.00     0.033 C 
HETATM    4  C6  UNL     1      26.683  17.181 -14.777  1.00  0.00     0.127 C 
HETATM    5  O1  UNL     1      27.096  17.910 -13.798  1.00  0.00    -0.377 OA
HETATM    6  C7  UNL     1      26.554  18.945 -13.161  1.00  0.00     0.158 C 
HETATM    7  C11 UNL     1      26.467  18.788 -11.631  1.00  0.00     0.069 C 
HETATM    8  C12 UNL     1      25.351  18.028 -11.087  1.00  0.00     0.151 C 
HETATM    9  C13 UNL     1      25.534  16.692 -10.489  1.00  0.00     0.088 A 
HETATM   10  C14 UNL     1      24.448  15.673 -10.463  1.00  0.00     0.072 C 
HETATM   11  C15 UNL     1      24.550  14.586 -11.480  1.00  0.00    -0.057 C 
HETATM   12  C17 UNL     1      25.228  14.485 -12.654  1.00  0.00    -0.009 C 
HETATM   13  C18 UNL     1      26.062  15.615 -13.110  1.00  0.00     0.088 C 
HETATM   14  C19 UNL     1      27.043  15.799 -11.995  1.00  0.00     0.165 C 
HETATM   15  O5  UNL     1      28.221  15.856 -12.272  1.00  0.00    -0.294 OA
HETATM   16  C20 UNL     1      26.763  15.917 -10.598  1.00  0.00     0.112 A 
HETATM   17  C21 UNL     1      26.835  14.517  -9.929  1.00  0.00     0.049 C 
HETATM   18  N1  UNL     1      26.619  16.791  -9.592  1.00  0.00    -0.391 N 
ATOM     19  H1  UNL     1      27.017  17.225  -8.759  1.00  0.00     0.155 HD
HETATM   20  C22 UNL     1      26.752  15.670 -14.343  1.00  0.00     0.033 C 
ENDROOT
BRANCH   6  21
HETATM   21  C8  UNL     1      25.427  19.690 -13.759  1.00  0.00     0.077 C 
HETATM   22  C9  UNL     1      24.388  18.666 -14.262  1.00  0.00     0.048 C 
HETATM   23  C10 UNL     1      25.922  20.370 -15.020  1.00  0.00     0.048 C 
BRANCH  21  24
HETATM   24  O2  UNL     1      24.793  20.619 -12.994  1.00  0.00    -0.388 OA
ATOM     25  H2  UNL     1      24.871  21.533 -13.242  1.00  0.00     0.210 HD
ENDBRANCH  21  24
ENDBRANCH   6  21
BRANCH   8  26
HETATM   26  O3  UNL     1      24.844  18.760  -9.951  1.00  0.00    -0.393 OA
ATOM     27  H3  UNL     1      23.922  18.548  -9.865  1.00  0.00     0.210 HD
ENDBRANCH   8  26
BRANCH   1  28
HETATM   28  C2  UNL     1      27.462  13.862 -15.919  1.00  0.00     0.000 C 
HETATM   29  C1  UNL     1      28.482  13.654 -14.874  1.00  0.00     0.005 C 
ENDBRANCH   1  28
BRANCH  11  30
HETATM   30  C16 UNL     1      23.759  13.339 -11.177  1.00  0.00     0.198 C 
BRANCH  30  31
HETATM   31  O4  UNL     1      22.919  13.093 -12.259  1.00  0.00    -0.397 OA
ATOM     32  H4  UNL     1      22.652  12.182 -12.219  1.00  0.00     0.209 HD
ENDBRANCH  30  31
ENDBRANCH  11  30
TORSDOF 6
ENDMDL
MODEL 2
REMARK VINA RESULT: -7.245107795      2.234      4.637
REMARK  6 active torsions:
REMARK  status: ('A' for Active; 'I' for Inactive)
REMARK    1  A    between atoms: C2_2  and  C3_3 
REMARK    2  A    between atoms: C7_8  and  C8_9 
REMARK    3  A    between atoms: C8_9  and  O2_12 
REMARK    4  A    between atoms: C12_15  and  O3_16 
REMARK    5  A    between atoms: C15_20  and  C16_21 
REMARK    6  A    between atoms: C16_21  and  O4_22 
ROOT
HETATM    1  C3  UNL     1      24.354  14.164  -9.953  1.00  0.00    -0.007 C 
HETATM    2  C4  UNL     1      22.832  14.337 -10.079  1.00  0.00     0.007 C 
HETATM    3  C5  UNL     1      22.611  14.495 -11.599  1.00  0.00     0.033 C 
HETATM    4  C6  UNL     1      23.658  15.522 -11.833  1.00  0.00     0.127 C 
HETATM    5  O1  UNL     1      23.992  15.929 -13.009  1.00  0.00    -0.377 OA
HETATM    6  C7  UNL     1      23.997  17.135 -13.571  1.00  0.00     0.158 C 
HETATM    7  C11 UNL     1      25.344  17.553 -14.191  1.00  0.00     0.069 C 
HETATM    8  C12 UNL     1      26.361  18.099 -13.303  1.00  0.00     0.151 C 
HETATM    9  C13 UNL     1      27.579  17.343 -12.954  1.00  0.00     0.088 A 
HETATM   10  C14 UNL     1      28.316  17.563 -11.678  1.00  0.00     0.072 C 
HETATM   11  C15 UNL     1      28.087  16.546 -10.610  1.00  0.00    -0.057 C 
HETATM   12  C17 UNL     1      27.099  15.635 -10.404  1.00  0.00    -0.009 C 
HETATM   13  C18 UNL     1      25.981  15.546 -11.364  1.00  0.00     0.088 C 
HETATM   14  C19 UNL     1      26.660  15.243 -12.664  1.00  0.00     0.165 C 
HETATM   15  O5  UNL     1      26.249  14.312 -13.321  1.00  0.00    -0.294 OA
HETATM   16  C20 UNL     1      27.768  15.929 -13.250  1.00  0.00     0.112 A 
HETATM   17  C21 UNL     1      29.094  15.240 -12.827  1.00  0.00     0.049 C 
HETATM   18  N1  UNL     1      28.114  16.848 -14.162  1.00  0.00    -0.391 N 
ATOM     19  H1  UNL     1      28.497  17.050 -15.087  1.00  0.00     0.155 HD
HETATM   20  C22 UNL     1      24.855  14.701 -11.227  1.00  0.00     0.033 C 
ENDROOT
BRANCH   6  21
HETATM   21  C8  UNL     1      23.235  18.249 -12.970  1.00  0.00     0.077 C 
HETATM   22  C9  UNL     1      21.734  17.896 -13.041  1.00  0.00     0.048 C 
HETATM   23  C10 UNL     1      23.376  19.461 -13.869  1.00  0.00     0.048 C 
BRANCH  21  24
HETATM   24  O2  UNL     1      23.539  18.624 -11.699  1.00  0.00    -0.388 OA
ATOM     25  H2  UNL     1      23.276  19.491 -11.411  1.00  0.00     0.210 HD
ENDBRANCH  21  24
ENDBRANCH   6  21
BRANCH   8  26
HETATM   26  O3  UNL     1      26.940  19.244 -13.965  1.00  0.00    -0.393 OA
ATOM     27  H3  UNL     1      26.955  19.957 -13.336  1.00  0.00     0.210 HD
ENDBRANCH   8  26
BRANCH   1  28
HETATM   28  C2  UNL     1      24.499  12.638  -9.858  1.00  0.00     0.000 C 
HETATM   29  C1  UNL     1      23.873  12.054  -8.656  1.00  0.00     0.005 C 
ENDBRANCH   1  28
BRANCH  11  30
HETATM   30  C16 UNL     1      29.140  16.488  -9.534  1.00  0.00     0.198 C 
BRANCH  30  31
HETATM   31  O4  UNL     1      28.643  17.151  -8.415  1.00  0.00    -0.397 OA
ATOM     32  H4  UNL     1      28.524  16.509  -7.725  1.00  0.00     0.209 HD
ENDBRANCH  30  31
ENDBRANCH  11  30
TORSDOF 6
ENDMDL
MODEL 3
REMARK VINA RESULT: -7.243723215      2.007      4.024
REMARK  6 active torsions:
REMARK  status: ('A' for Active; 'I' for Inactive)
REMARK    1  A    between atoms: C2_2  and  C3_3 
REMARK    2  A    between atoms: C7_8  and  C8_9 
REMARK    3  A    between atoms: C8_9  and  O2_12 
REMARK    4  A    between atoms: C12_15  and  O3_16 
REMARK    5  A    between atoms: C15_20  and  C16_21 
REMARK    6  A    between atoms: C16_21  and  O4_22 
ROOT
HETATM    1  C3  UNL     1      25.963  18.789 -15.786  1.00  0.00    -0.007 C 
HETATM    2  C4  UNL     1      24.575  19.343 -16.147  1.00  0.00     0.007 C 
HETATM    3  C5  UNL     1      24.094  19.994 -14.831  1.00  0.00     0.033 C 
HETATM    4  C6  UNL     1      24.403  18.852 -13.935  1.00  0.00     0.127 C 
HETATM    5  O1  UNL     1      24.306  18.920 -12.652  1.00  0.00    -0.377 OA
HETATM    6  C7  UNL     1      23.600  18.218 -11.768  1.00  0.00     0.158 C 
HETATM    7  C11 UNL     1      24.428  17.604 -10.622  1.00  0.00     0.069 C 
HETATM    8  C12 UNL     1      25.120  16.350 -10.879  1.00  0.00     0.151 C 
HETATM    9  C13 UNL     1      26.588  16.282 -11.008  1.00  0.00     0.088 A 
HETATM   10  C14 UNL     1      27.271  15.227 -11.807  1.00  0.00     0.072 C 
HETATM   11  C15 UNL     1      27.761  15.646 -13.154  1.00  0.00    -0.057 C 
HETATM   12  C17 UNL     1      27.436  16.685 -13.968  1.00  0.00    -0.009 C 
HETATM   13  C18 UNL     1      26.409  17.653 -13.537  1.00  0.00     0.088 C 
HETATM   14  C19 UNL     1      26.956  18.194 -12.252  1.00  0.00     0.165 C 
HETATM   15  O5  UNL     1      27.006  19.396 -12.113  1.00  0.00    -0.294 OA
HETATM   16  C20 UNL     1      27.447  17.453 -11.133  1.00  0.00     0.112 A 
HETATM   17  C21 UNL     1      28.981  17.254 -11.267  1.00  0.00     0.049 C 
HETATM   18  N1  UNL     1      27.128  16.993  -9.914  1.00  0.00    -0.391 N 
ATOM     19  H1  UNL     1      27.215  17.090  -8.902  1.00  0.00     0.155 HD
HETATM   20  C22 UNL     1      25.924  18.728 -14.317  1.00  0.00     0.033 C 
ENDROOT
BRANCH   6  21
HETATM   21  C8  UNL     1      22.461  17.386 -12.206  1.00  0.00     0.077 C 
HETATM   22  C9  UNL     1      21.385  18.319 -12.801  1.00  0.00     0.048 C 
HETATM   23  C10 UNL     1      21.803  16.795 -10.975  1.00  0.00     0.048 C 
BRANCH  21  24
HETATM   24  O2  UNL     1      22.702  16.377 -13.086  1.00  0.00    -0.388 OA
ATOM     25  H2  UNL     1      23.017  15.548 -12.743  1.00  0.00     0.210 HD
ENDBRANCH  21  24
ENDBRANCH   6  21
BRANCH   8  26
HETATM   26  O3  UNL     1      24.915  15.502  -9.729  1.00  0.00    -0.393 OA
ATOM     27  H3  UNL     1      25.708  15.535  -9.207  1.00  0.00     0.210 HD
ENDBRANCH   8  26
BRANCH   1  28
HETATM   28  C2  UNL     1      26.896  19.891 -16.307  1.00  0.00     0.000 C 
HETATM   29  C1  UNL     1      28.006  19.387 -17.140  1.00  0.00     0.005 C 
ENDBRANCH   1  28
BRANCH  11  30
HETATM   30  C16 UNL     1      28.827  14.768 -13.757  1.00  0.00     0.198 C 
BRANCH  30  31
HETATM   31  O4  UNL     1      29.582  15.550 -14.627  1.00  0.00    -0.397 OA
ATOM     32  H4  UNL     1      29.318  15.336 -15.515  1.00  0.00     0.209 HD
ENDBRANCH  30  31
ENDBRANCH  11  30
TORSDOF 6
ENDMDL
MODEL 4
REMARK VINA RESULT: -7.021523565      1.901      4.484
REMARK  6 active torsions:
REMARK  status: ('A' for Active; 'I' for Inactive)
REMARK    1  A    between atoms: C2_2  and  C3_3 
REMARK    2  A    between atoms: C7_8  and  C8_9 
REMARK    3  A    between atoms: C8_9  and  O2_12 
REMARK    4  A    between atoms: C12_15  and  O3_16 
REMARK    5  A    between atoms: C15_20  and  C16_21 
REMARK    6  A    between atoms: C16_21  and  O4_22 
ROOT
HETATM    1  C3  UNL     1      25.508  19.187 -15.346  1.00  0.00    -0.007 C 
HETATM    2  C4  UNL     1      24.034  19.619 -15.284  1.00  0.00     0.007 C 
HETATM    3  C5  UNL     1      23.803  19.897 -13.783  1.00  0.00     0.033 C 
HETATM    4  C6  UNL     1      24.396  18.638 -13.266  1.00  0.00     0.127 C 
HETATM    5  O1  UNL     1      24.578  18.411 -12.012  1.00  0.00    -0.377 OA
HETATM    6  C7  UNL     1      24.146  17.446 -11.203  1.00  0.00     0.158 C 
HETATM    7  C11 UNL     1      25.253  16.712 -10.423  1.00  0.00     0.069 C 
HETATM    8  C12 UNL     1      25.974  15.647 -11.105  1.00  0.00     0.151 C 
HETATM    9  C13 UNL     1      27.378  15.803 -11.530  1.00  0.00     0.088 A 
HETATM   10  C14 UNL     1      27.953  15.048 -12.678  1.00  0.00     0.072 C 
HETATM   11  C15 UNL     1      28.098  15.812 -13.952  1.00  0.00    -0.057 C 
HETATM   12  C17 UNL     1      27.516  16.951 -14.412  1.00  0.00    -0.009 C 
HETATM   13  C18 UNL     1      26.533  17.658 -13.568  1.00  0.00     0.088 C 
HETATM   14  C19 UNL     1      27.303  17.972 -12.323  1.00  0.00     0.165 C 
HETATM   15  O5  UNL     1      27.282  19.111 -11.910  1.00  0.00    -0.294 OA
HETATM   16  C20 UNL     1      28.087  17.076 -11.534  1.00  0.00     0.112 A 
HETATM   17  C21 UNL     1      29.565  17.116 -12.009  1.00  0.00     0.049 C 
HETATM   18  N1  UNL     1      28.084  16.324 -10.424  1.00  0.00    -0.391 N 
ATOM     19  H1  UNL     1      28.384  16.208  -9.455  1.00  0.00     0.155 HD
HETATM   20  C22 UNL     1      25.800  18.803 -13.957  1.00  0.00     0.033 C 
ENDROOT
BRANCH   6  21
HETATM   21  C8  UNL     1      23.011  16.587 -11.598  1.00  0.00     0.077 C 
HETATM   22  C9  UNL     1      21.733  17.453 -11.608  1.00  0.00     0.048 C 
HETATM   23  C10 UNL     1      22.770  15.579 -10.491  1.00  0.00     0.048 C 
BRANCH  21  24
HETATM   24  O2  UNL     1      23.094  15.913 -12.777  1.00  0.00    -0.388 OA
ATOM     25  H2  UNL     1      22.290  15.739 -13.252  1.00  0.00     0.210 HD
ENDBRANCH  21  24
ENDBRANCH   6  21
BRANCH   8  26
HETATM   26  O3  UNL     1      26.098  14.549 -10.176  1.00  0.00    -0.393 OA
ATOM     27  H3  UNL     1      25.535  14.739  -9.435  1.00  0.00     0.210 HD
ENDBRANCH   8  26
BRANCH   1  28
HETATM   28  C2  UNL     1      26.209  20.490 -15.757  1.00  0.00     0.000 C 
HETATM   29  C1  UNL     1      27.356  20.289 -16.664  1.00  0.00     0.005 C 
ENDBRANCH   1  28
BRANCH  11  30
HETATM   30  C16 UNL     1      29.073  15.235 -14.945  1.00  0.00     0.198 C 
BRANCH  30  31
HETATM   31  O4  UNL     1      29.157  16.115 -16.022  1.00  0.00    -0.397 OA
ATOM     32  H4  UNL     1      30.060  16.403 -16.093  1.00  0.00     0.209 HD
ENDBRANCH  30  31
ENDBRANCH  11  30
TORSDOF 6
ENDMDL
MODEL 5
REMARK VINA RESULT: -6.988507228      1.740      4.054
REMARK  6 active torsions:
REMARK  status: ('A' for Active; 'I' for Inactive)
REMARK    1  A    between atoms: C2_2  and  C3_3 
REMARK    2  A    between atoms: C7_8  and  C8_9 
REMARK    3  A    between atoms: C8_9  and  O2_12 
REMARK    4  A    between atoms: C12_15  and  O3_16 
REMARK    5  A    between atoms: C15_20  and  C16_21 
REMARK    6  A    between atoms: C16_21  and  O4_22 
ROOT
HETATM    1  C3  UNL     1      27.091  16.588 -16.179  1.00  0.00    -0.007 C 
HETATM    2  C4  UNL     1      28.579  16.202 -16.232  1.00  0.00     0.007 C 
HETATM    3  C5  UNL     1      28.708  15.111 -15.148  1.00  0.00     0.033 C 
HETATM    4  C6  UNL     1      28.004  15.842 -14.064  1.00  0.00     0.127 C 
HETATM    5  O1  UNL     1      27.711  15.305 -12.930  1.00  0.00    -0.377 OA
HETATM    6  C7  UNL     1      28.023  15.629 -11.677  1.00  0.00     0.158 C 
HETATM    7  C11 UNL     1      26.817  15.778 -10.729  1.00  0.00     0.069 C 
HETATM    8  C12 UNL     1      26.092  17.040 -10.744  1.00  0.00     0.151 C 
HETATM    9  C13 UNL     1      24.737  17.154 -11.316  1.00  0.00     0.088 A 
HETATM   10  C14 UNL     1      24.211  18.431 -11.874  1.00  0.00     0.072 C 
HETATM   11  C15 UNL     1      24.211  18.540 -13.363  1.00  0.00    -0.057 C 
HETATM   12  C17 UNL     1      24.892  17.875 -14.333  1.00  0.00    -0.009 C 
HETATM   13  C18 UNL     1      25.845  16.813 -13.955  1.00  0.00     0.088 C 
HETATM   14  C19 UNL     1      24.999  15.838 -13.197  1.00  0.00     0.165 C 
HETATM   15  O5  UNL     1      25.053  14.669 -13.511  1.00  0.00    -0.294 OA
HETATM   16  C20 UNL     1      24.104  16.114 -12.117  1.00  0.00     0.112 A 
HETATM   17  C21 UNL     1      22.673  16.352 -12.670  1.00  0.00     0.049 C 
HETATM   18  N1  UNL     1      23.977  16.091 -10.783  1.00  0.00    -0.391 N 
ATOM     19  H1  UNL     1      23.596  15.627  -9.957  1.00  0.00     0.155 HD
HETATM   20  C22 UNL     1      26.670  16.101 -14.856  1.00  0.00     0.033 C 
ENDROOT
BRANCH   6  21
HETATM   21  C8  UNL     1      29.134  16.561 -11.396  1.00  0.00     0.077 C 
HETATM   22  C9  UNL     1      30.445  15.903 -11.875  1.00  0.00     0.048 C 
HETATM   23  C10 UNL     1      29.296  16.666  -9.893  1.00  0.00     0.048 C 
BRANCH  21  24
HETATM   24  O2  UNL     1      29.062  17.820 -11.906  1.00  0.00    -0.388 OA
ATOM     25  H2  UNL     1      29.856  18.341 -11.928  1.00  0.00     0.210 HD
ENDBRANCH  21  24
ENDBRANCH   6  21
BRANCH   8  26
HETATM   26  O3  UNL     1      25.832  17.403  -9.371  1.00  0.00    -0.393 OA
ATOM     27  H3  UNL     1      25.956  16.623  -8.844  1.00  0.00     0.210 HD
ENDBRANCH   8  26
BRANCH   1  28
HETATM   28  C2  UNL     1      26.501  15.758 -17.328  1.00  0.00     0.000 C 
HETATM   29  C1  UNL     1      25.183  15.170 -17.022  1.00  0.00     0.005 C 
ENDBRANCH   1  28
BRANCH  11  30
HETATM   30  C16 UNL     1      23.285  19.581 -13.936  1.00  0.00     0.198 C 
BRANCH  30  31
HETATM   31  O4  UNL     1      23.762  20.833 -13.556  1.00  0.00    -0.397 OA
ATOM     32  H4  UNL     1      23.013  21.393 -13.391  1.00  0.00     0.209 HD
ENDBRANCH  30  31
ENDBRANCH  11  30
TORSDOF 6
ENDMDL
