MODEL 1
REMARK VINA RESULT: -7.778659807      0.000      0.000
REMARK  6 active torsions:
REMARK  status: ('A' for Active; 'I' for Inactive)
REMARK    1  A    between atoms: C2_2  and  C3_3 
REMARK    2  A    between atoms: C5_5  and  C6_6 
REMARK    3  A    between atoms: C16_18  and  C18_20 
REMARK    4  A    between atoms: C19_22  and  O4_23 
REMARK    5  A    between atoms: C20_25  and  O5_26 
REMARK    6  A    between atoms: C22_30  and  O7_31 
ROOT
HETATM    1  C3  UNL     1      27.916  15.697 -10.699  1.00  0.00     0.127 C 
HETATM    2  C4  UNL     1      28.433  15.442 -12.034  1.00  0.00     0.032 C 
HETATM    3  C5  UNL     1      27.800  15.316 -13.220  1.00  0.00     0.026 C 
HETATM    4  C7  UNL     1      26.348  15.406 -13.447  1.00  0.00    -0.007 C 
HETATM    5  C8  UNL     1      25.847  14.565 -14.598  1.00  0.00     0.021 C 
HETATM    6  C9  UNL     1      25.873  16.802 -13.784  1.00  0.00     0.021 C 
HETATM    7  C10 UNL     1      25.705  14.848 -12.181  1.00  0.00     0.039 C 
HETATM    8  C11 UNL     1      24.297  14.367 -12.376  1.00  0.00     0.020 C 
HETATM    9  C12 UNL     1      23.935  13.553 -11.128  1.00  0.00     0.047 C 
HETATM   10  C13 UNL     1      24.074  14.405  -9.953  1.00  0.00    -0.046 C 
HETATM   11  C14 UNL     1      23.592  13.958  -8.790  1.00  0.00    -0.020 C 
HETATM   12  C15 UNL     1      22.953  12.644  -8.761  1.00  0.00     0.046 C 
HETATM   13  C16 UNL     1      22.212  12.246  -9.993  1.00  0.00     0.039 C 
HETATM   14  C17 UNL     1      20.723  12.476  -9.673  1.00  0.00     0.026 C 
HETATM   15  C19 UNL     1      22.498  13.086 -11.199  1.00  0.00     0.141 C 
HETATM   16  C20 UNL     1      24.740  15.714 -10.041  1.00  0.00     0.185 C 
HETATM   17  C21 UNL     1      25.975  15.578 -10.953  1.00  0.00     0.126 C 
HETATM   18  O6  UNL     1      26.958  14.858 -10.206  1.00  0.00    -0.352 OA
HETATM   19  C22 UNL     1      26.819  16.735 -10.821  1.00  0.00     0.198 C 
ENDROOT
BRANCH   3  20
HETATM   20  C6  UNL     1      28.720  15.066 -14.287  1.00  0.00     0.205 C 
HETATM   21  O1  UNL     1      29.163  13.888 -14.537  1.00  0.00    -0.644 OA
HETATM   22  O2  UNL     1      29.165  16.091 -15.088  1.00  0.00    -0.644 OA
ENDBRANCH   3  20
BRANCH   1  23
HETATM   23  C2  UNL     1      28.937  15.989  -9.668  1.00  0.00     0.007 C 
HETATM   24  C1  UNL     1      30.158  16.374  -9.910  1.00  0.00     0.010 C 
ENDBRANCH   1  23
BRANCH  19  25
HETATM   25  O7  UNL     1      26.684  17.342  -9.552  1.00  0.00    -0.389 OA
ATOM     26  H7  UNL     1      26.005  16.865  -9.089  1.00  0.00     0.210 HD
ENDBRANCH  19  25
BRANCH  16  27
HETATM   27  O5  UNL     1      23.870  16.695 -10.461  1.00  0.00    -0.388 OA
ATOM     28  H5  UNL     1      24.332  17.491 -10.697  1.00  0.00     0.210 HD
ENDBRANCH  16  27
BRANCH  15  29
HETATM   29  O4  UNL     1      22.350  12.244 -12.324  1.00  0.00    -0.394 OA
ATOM     30  H4  UNL     1      21.529  11.772 -12.246  1.00  0.00     0.210 HD
ENDBRANCH  15  29
BRANCH  13  31
HETATM   31  C18 UNL     1      22.418  10.804 -10.248  1.00  0.00     0.243 C 
HETATM   32  O3  UNL     1      23.533  10.361 -10.418  1.00  0.00    -0.306 OA
ENDBRANCH  13  31
TORSDOF 6
ENDMDL
MODEL 2
REMARK VINA RESULT: -7.092713719      0.910      1.101
REMARK  6 active torsions:
REMARK  status: ('A' for Active; 'I' for Inactive)
REMARK    1  A    between atoms: C2_2  and  C3_3 
REMARK    2  A    between atoms: C5_5  and  C6_6 
REMARK    3  A    between atoms: C16_18  and  C18_20 
REMARK    4  A    between atoms: C19_22  and  O4_23 
REMARK    5  A    between atoms: C20_25  and  O5_26 
REMARK    6  A    between atoms: C22_30  and  O7_31 
ROOT
HETATM    1  C3  UNL     1      28.396  15.984 -11.447  1.00  0.00     0.127 C 
HETATM    2  C4  UNL     1      28.716  15.944 -12.865  1.00  0.00     0.032 C 
HETATM    3  C5  UNL     1      27.924  16.042 -13.955  1.00  0.00     0.026 C 
HETATM    4  C7  UNL     1      26.462  16.217 -13.957  1.00  0.00    -0.007 C 
HETATM    5  C8  UNL     1      25.766  15.601 -15.148  1.00  0.00     0.021 C 
HETATM    6  C9  UNL     1      26.025  17.664 -13.990  1.00  0.00     0.021 C 
HETATM    7  C10 UNL     1      25.964  15.472 -12.723  1.00  0.00     0.039 C 
HETATM    8  C11 UNL     1      24.518  15.078 -12.794  1.00  0.00     0.020 C 
HETATM    9  C12 UNL     1      24.280  14.075 -11.658  1.00  0.00     0.047 C 
HETATM   10  C13 UNL     1      24.622  14.709 -10.391  1.00  0.00    -0.046 C 
HETATM   11  C14 UNL     1      24.275  14.087  -9.260  1.00  0.00    -0.020 C 
HETATM   12  C15 UNL     1      23.574  12.809  -9.358  1.00  0.00     0.046 C 
HETATM   13  C16 UNL     1      22.654  12.651 -10.522  1.00  0.00     0.039 C 
HETATM   14  C17 UNL     1      21.236  12.871  -9.962  1.00  0.00     0.026 C 
HETATM   15  C19 UNL     1      22.824  13.674 -11.602  1.00  0.00     0.141 C 
HETATM   16  C20 UNL     1      25.343  15.992 -10.355  1.00  0.00     0.185 C 
HETATM   17  C21 UNL     1      26.435  15.973 -11.442  1.00  0.00     0.126 C 
HETATM   18  O6  UNL     1      27.468  15.105 -10.969  1.00  0.00    -0.352 OA
HETATM   19  C22 UNL     1      27.352  17.063 -11.242  1.00  0.00     0.198 C 
ENDROOT
BRANCH   3  20
HETATM   20  C6  UNL     1      28.679  15.948 -15.166  1.00  0.00     0.205 C 
HETATM   21  O1  UNL     1      28.898  16.971 -15.910  1.00  0.00    -0.644 OA
HETATM   22  O2  UNL     1      29.201  14.745 -15.580  1.00  0.00    -0.644 OA
ENDBRANCH   3  20
BRANCH   1  23
HETATM   23  C2  UNL     1      29.560  16.063 -10.536  1.00  0.00     0.007 C 
HETATM   24  C1  UNL     1      30.715  16.588 -10.838  1.00  0.00     0.010 C 
ENDBRANCH   1  23
BRANCH  19  25
HETATM   25  O7  UNL     1      27.421  17.448  -9.884  1.00  0.00    -0.389 OA
ATOM     26  H7  UNL     1      26.809  18.165  -9.769  1.00  0.00     0.210 HD
ENDBRANCH  19  25
BRANCH  16  27
HETATM   27  O5  UNL     1      24.480  17.057 -10.482  1.00  0.00    -0.388 OA
ATOM     28  H5  UNL     1      24.406  17.340 -11.386  1.00  0.00     0.210 HD
ENDBRANCH  16  27
BRANCH  15  29
HETATM   29  O4  UNL     1      22.480  13.041 -12.818  1.00  0.00    -0.394 OA
ATOM     30  H4  UNL     1      23.077  13.336 -13.495  1.00  0.00     0.210 HD
ENDBRANCH  15  29
BRANCH  13  31
HETATM   31  C18 UNL     1      22.744  11.267 -11.037  1.00  0.00     0.243 C 
HETATM   32  O3  UNL     1      23.286  10.401 -10.387  1.00  0.00    -0.306 OA
ENDBRANCH  13  31
TORSDOF 6
ENDMDL
MODEL 3
REMARK VINA RESULT: -6.999282848      2.255      3.372
REMARK  6 active torsions:
REMARK  status: ('A' for Active; 'I' for Inactive)
REMARK    1  A    between atoms: C2_2  and  C3_3 
REMARK    2  A    between atoms: C5_5  and  C6_6 
REMARK    3  A    between atoms: C16_18  and  C18_20 
REMARK    4  A    between atoms: C19_22  and  O4_23 
REMARK    5  A    between atoms: C20_25  and  O5_26 
REMARK    6  A    between atoms: C22_30  and  O7_31 
ROOT
HETATM    1  C3  UNL     1      27.706  16.874 -13.514  1.00  0.00     0.127 C 
HETATM    2  C4  UNL     1      27.067  17.719 -14.511  1.00  0.00     0.032 C 
HETATM    3  C5  UNL     1      25.952  18.479 -14.445  1.00  0.00     0.026 C 
HETATM    4  C7  UNL     1      25.069  18.632 -13.278  1.00  0.00    -0.007 C 
HETATM    5  C8  UNL     1      23.622  18.893 -13.624  1.00  0.00     0.021 C 
HETATM    6  C9  UNL     1      25.443  19.792 -12.383  1.00  0.00     0.021 C 
HETATM    7  C10 UNL     1      25.113  17.287 -12.558  1.00  0.00     0.039 C 
HETATM    8  C11 UNL     1      23.932  17.035 -11.668  1.00  0.00     0.020 C 
HETATM    9  C12 UNL     1      23.969  15.547 -11.300  1.00  0.00     0.047 C 
HETATM   10  C13 UNL     1      25.236  15.256 -10.640  1.00  0.00    -0.046 C 
HETATM   11  C14 UNL     1      25.375  14.071 -10.039  1.00  0.00    -0.020 C 
HETATM   12  C15 UNL     1      24.254  13.135 -10.078  1.00  0.00     0.046 C 
HETATM   13  C16 UNL     1      22.891  13.741 -10.058  1.00  0.00     0.039 C 
HETATM   14  C17 UNL     1      22.388  13.581  -8.612  1.00  0.00     0.026 C 
HETATM   15  C19 UNL     1      22.852  15.212 -10.338  1.00  0.00     0.141 C 
HETATM   16  C20 UNL     1      26.335  16.233 -10.646  1.00  0.00     0.185 C 
HETATM   17  C21 UNL     1      26.410  16.881 -12.042  1.00  0.00     0.126 C 
HETATM   18  O6  UNL     1      26.960  15.897 -12.921  1.00  0.00    -0.352 OA
HETATM   19  C22 UNL     1      27.645  17.603 -12.188  1.00  0.00     0.198 C 
ENDROOT
BRANCH   3  20
HETATM   20  C6  UNL     1      25.696  19.148 -15.683  1.00  0.00     0.205 C 
HETATM   21  O1  UNL     1      25.254  18.523 -16.713  1.00  0.00    -0.644 OA
HETATM   22  O2  UNL     1      25.916  20.499 -15.813  1.00  0.00    -0.644 OA
ENDBRANCH   3  20
BRANCH   1  23
HETATM   23  C2  UNL     1      29.044  16.360 -13.882  1.00  0.00     0.007 C 
HETATM   24  C1  UNL     1      29.285  15.515 -14.844  1.00  0.00     0.010 C 
ENDBRANCH   1  23
BRANCH  19  25
HETATM   25  O7  UNL     1      28.668  17.064 -11.375  1.00  0.00    -0.389 OA
ATOM     26  H7  UNL     1      28.368  17.126 -10.476  1.00  0.00     0.210 HD
ENDBRANCH  19  25
BRANCH  16  27
HETATM   27  O5  UNL     1      26.194  17.156  -9.634  1.00  0.00    -0.388 OA
ATOM     28  H5  UNL     1      25.708  17.920  -9.925  1.00  0.00     0.210 HD
ENDBRANCH  16  27
BRANCH  15  29
HETATM   29  O4  UNL     1      21.615  15.471 -10.969  1.00  0.00    -0.394 OA
ATOM     30  H4  UNL     1      21.778  15.946 -11.776  1.00  0.00     0.210 HD
ENDBRANCH  15  29
BRANCH  13  31
HETATM   31  C18 UNL     1      21.997  12.974 -10.953  1.00  0.00     0.243 C 
HETATM   32  O3  UNL     1      22.388  12.589 -12.033  1.00  0.00    -0.306 OA
ENDBRANCH  13  31
TORSDOF 6
ENDMDL
MODEL 4
REMARK VINA RESULT: -6.576241718      2.948      6.400
REMARK  6 active torsions:
REMARK  status: ('A' for Active; 'I' for Inactive)
REMARK    1  A    between atoms: C2_2  and  C3_3 
REMARK    2  A    between atoms: C5_5  and  C6_6 
REMARK    3  A    between atoms: C16_18  and  C18_20 
REMARK    4  A    between atoms: C19_22  and  O4_23 
REMARK    5  A    between atoms: C20_25  and  O5_26 
REMARK    6  A    between atoms: C22_30  and  O7_31 
ROOT
HETATM    1  C3  UNL     1      26.151  18.370 -12.944  1.00  0.00     0.127 C 
HETATM    2  C4  UNL     1      24.755  18.091 -12.648  1.00  0.00     0.032 C 
HETATM    3  C5  UNL     1      24.115  16.924 -12.413  1.00  0.00     0.026 C 
HETATM    4  C7  UNL     1      24.722  15.583 -12.408  1.00  0.00    -0.007 C 
HETATM    5  C8  UNL     1      23.785  14.477 -12.834  1.00  0.00     0.021 C 
HETATM    6  C9  UNL     1      25.207  15.143 -11.045  1.00  0.00     0.021 C 
HETATM    7  C10 UNL     1      25.837  15.639 -13.447  1.00  0.00     0.039 C 
HETATM    8  C11 UNL     1      26.242  14.296 -13.978  1.00  0.00     0.020 C 
HETATM    9  C12 UNL     1      27.106  14.556 -15.218  1.00  0.00     0.047 C 
HETATM   10  C13 UNL     1      28.253  15.368 -14.829  1.00  0.00    -0.046 C 
HETATM   11  C14 UNL     1      29.246  15.519 -15.711  1.00  0.00    -0.020 C 
HETATM   12  C15 UNL     1      29.127  14.862 -17.011  1.00  0.00     0.046 C 
HETATM   13  C16 UNL     1      28.410  13.554 -17.023  1.00  0.00     0.039 C 
HETATM   14  C17 UNL     1      29.511  12.479 -17.087  1.00  0.00     0.026 C 
HETATM   15  C19 UNL     1      27.626  13.253 -15.783  1.00  0.00     0.141 C 
HETATM   16  C20 UNL     1      28.310  16.017 -13.510  1.00  0.00     0.185 C 
HETATM   17  C21 UNL     1      26.914  16.578 -13.177  1.00  0.00     0.126 C 
HETATM   18  O6  UNL     1      26.728  17.730 -14.003  1.00  0.00    -0.352 OA
HETATM   19  C22 UNL     1      26.996  17.477 -12.057  1.00  0.00     0.198 C 
ENDROOT
BRANCH   3  20
HETATM   20  C6  UNL     1      22.721  17.127 -12.164  1.00  0.00     0.205 C 
HETATM   21  O1  UNL     1      22.235  17.111 -10.977  1.00  0.00    -0.644 OA
HETATM   22  O2  UNL     1      21.845  17.349 -13.201  1.00  0.00    -0.644 OA
ENDBRANCH   3  20
BRANCH   1  23
HETATM   23  C2  UNL     1      26.529  19.801 -12.927  1.00  0.00     0.007 C 
HETATM   24  C1  UNL     1      26.531  20.589 -13.966  1.00  0.00     0.010 C 
ENDBRANCH   1  23
BRANCH  19  25
HETATM   25  O7  UNL     1      28.269  18.082 -11.961  1.00  0.00    -0.389 OA
ATOM     26  H7  UNL     1      28.773  17.567 -11.341  1.00  0.00     0.210 HD
ENDBRANCH  19  25
BRANCH  16  27
HETATM   27  O5  UNL     1      28.786  15.158 -12.546  1.00  0.00    -0.388 OA
ATOM     28  H5  UNL     1      29.049  15.626 -11.762  1.00  0.00     0.210 HD
ENDBRANCH  16  27
BRANCH  15  29
HETATM   29  O4  UNL     1      26.526  12.460 -16.181  1.00  0.00    -0.394 OA
ATOM     30  H4  UNL     1      25.888  13.017 -16.610  1.00  0.00     0.210 HD
ENDBRANCH  15  29
BRANCH  13  31
HETATM   31  C18 UNL     1      27.587  13.454 -18.248  1.00  0.00     0.243 C 
HETATM   32  O3  UNL     1      27.576  12.434 -18.902  1.00  0.00    -0.306 OA
ENDBRANCH  13  31
TORSDOF 6
ENDMDL
MODEL 5
REMARK VINA RESULT: -6.572369312      3.319      6.838
REMARK  6 active torsions:
REMARK  status: ('A' for Active; 'I' for Inactive)
REMARK    1  A    between atoms: C2_2  and  C3_3 
REMARK    2  A    between atoms: C5_5  and  C6_6 
REMARK    3  A    between atoms: C16_18  and  C18_20 
REMARK    4  A    between atoms: C19_22  and  O4_23 
REMARK    5  A    between atoms: C20_25  and  O5_26 
REMARK    6  A    between atoms: C22_30  and  O7_31 
ROOT
HETATM    1  C3  UNL     1      25.239  18.487 -14.278  1.00  0.00     0.127 C 
HETATM    2  C4  UNL     1      24.860  18.095 -12.929  1.00  0.00     0.032 C 
HETATM    3  C5  UNL     1      25.489  17.314 -12.024  1.00  0.00     0.026 C 
HETATM    4  C7  UNL     1      26.780  16.633 -12.208  1.00  0.00    -0.007 C 
HETATM    5  C8  UNL     1      26.913  15.338 -11.441  1.00  0.00     0.021 C 
HETATM    6  C9  UNL     1      27.967  17.450 -11.749  1.00  0.00     0.021 C 
HETATM    7  C10 UNL     1      26.841  16.275 -13.690  1.00  0.00     0.039 C 
HETATM    8  C11 UNL     1      27.788  15.155 -14.006  1.00  0.00     0.020 C 
HETATM    9  C12 UNL     1      27.482  14.712 -15.442  1.00  0.00     0.047 C 
HETATM   10  C13 UNL     1      27.653  15.854 -16.332  1.00  0.00    -0.046 C 
HETATM   11  C14 UNL     1      27.655  15.630 -17.650  1.00  0.00    -0.020 C 
HETATM   12  C15 UNL     1      27.484  14.258 -18.122  1.00  0.00     0.046 C 
HETATM   13  C16 UNL     1      28.064  13.189 -17.259  1.00  0.00     0.039 C 
HETATM   14  C17 UNL     1      29.384  12.779 -17.939  1.00  0.00     0.026 C 
HETATM   15  C19 UNL     1      28.442  13.629 -15.879  1.00  0.00     0.141 C 
HETATM   16  C20 UNL     1      27.806  17.216 -15.798  1.00  0.00     0.185 C 
HETATM   17  C21 UNL     1      26.832  17.394 -14.617  1.00  0.00     0.126 C 
HETATM   18  O6  UNL     1      25.523  17.504 -15.181  1.00  0.00    -0.352 OA
HETATM   19  C22 UNL     1      26.725  18.785 -14.269  1.00  0.00     0.198 C 
ENDROOT
BRANCH   3  20
HETATM   20  C6  UNL     1      24.738  17.202 -10.812  1.00  0.00     0.205 C 
HETATM   21  O1  UNL     1      24.550  18.205 -10.034  1.00  0.00    -0.644 OA
HETATM   22  O2  UNL     1      24.184  16.001 -10.434  1.00  0.00    -0.644 OA
ENDBRANCH   3  20
BRANCH   1  23
HETATM   23  C2  UNL     1      24.397  19.537 -14.893  1.00  0.00     0.007 C 
HETATM   24  C1  UNL     1      23.154  19.777 -14.586  1.00  0.00     0.010 C 
ENDBRANCH   1  23
BRANCH  19  25
HETATM   25  O7  UNL     1      26.982  19.626 -15.375  1.00  0.00    -0.389 OA
ATOM     26  H7  UNL     1      27.920  19.606 -15.525  1.00  0.00     0.210 HD
ENDBRANCH  19  25
BRANCH  16  27
HETATM   27  O5  UNL     1      29.114  17.479 -15.457  1.00  0.00    -0.388 OA
ATOM     28  H5  UNL     1      29.197  18.319 -15.019  1.00  0.00     0.210 HD
ENDBRANCH  16  27
BRANCH  15  29
HETATM   29  O4  UNL     1      28.276  12.508 -15.036  1.00  0.00    -0.394 OA
ATOM     30  H4  UNL     1      27.684  12.741 -14.330  1.00  0.00     0.210 HD
ENDBRANCH  15  29
BRANCH  13  31
HETATM   31  C18 UNL     1      27.160  12.018 -17.249  1.00  0.00     0.243 C 
HETATM   32  O3  UNL     1      27.607  10.893 -17.299  1.00  0.00    -0.306 OA
ENDBRANCH  13  31
TORSDOF 6
ENDMDL
