MODEL 1
REMARK VINA RESULT: -6.543625147      0.000      0.000
REMARK  7 active torsions:
REMARK  status: ('A' for Active; 'I' for Inactive)
REMARK    1  A    between atoms: C4_4  and  O1_5 
REMARK    2  A    between atoms: C6_8  and  O2_9 
REMARK    3  A    between atoms: O2_9  and  C7_10 
REMARK    4  A    between atoms: C12_16  and  C13_17 
REMARK    5  A    between atoms: C13_17  and  O4_18 
REMARK    6  A    between atoms: C17_26  and  C19_28 
REMARK    7  A    between atoms: C19_28  and  C20_29 
REMARK       I    between atoms: C20_29  and  N2_31 
ROOT
HETATM    1  C1  UNL     1      24.085  17.668 -14.409  1.00  0.00     0.016 C 
HETATM    2  C2  UNL     1      25.329  17.749 -13.959  1.00  0.00    -0.065 C 
HETATM    3  C3  UNL     1      26.702  17.532 -14.452  1.00  0.00     0.090 C 
HETATM    4  C4  UNL     1      27.147  17.385 -13.015  1.00  0.00     0.088 C 
HETATM    5  C5  UNL     1      26.911  15.930 -12.679  1.00  0.00     0.058 C 
HETATM    6  C6  UNL     1      25.685  15.890 -11.857  1.00  0.00     0.148 C 
HETATM    7  C9  UNL     1      25.396  17.363 -11.457  1.00  0.00    -0.004 C 
HETATM    8  C10 UNL     1      23.941  17.548 -11.188  1.00  0.00     0.019 C 
HETATM    9  C11 UNL     1      26.184  17.765 -10.254  1.00  0.00     0.019 C 
HETATM   10  C12 UNL     1      25.907  18.129 -12.643  1.00  0.00     0.046 C 
HETATM   11  C14 UNL     1      26.858  15.170 -14.001  1.00  0.00     0.030 C 
HETATM   12  C15 UNL     1      25.753  14.168 -14.044  1.00  0.00     0.013 C 
HETATM   13  C16 UNL     1      26.928  16.163 -15.077  1.00  0.00     0.173 A 
HETATM   14  N1  UNL     1      28.320  16.181 -15.713  1.00  0.00    -0.051 N 
ATOM     15  H11 UNL     1      29.190  15.653 -15.628  1.00  0.00     0.279 HD
ATOM     16  H12 UNL     1      29.144  16.782 -15.695  1.00  0.00     0.279 HD
HETATM   17  C17 UNL     1      27.049  16.083 -16.495  1.00  0.00     0.165 A 
HETATM   18  C18 UNL     1      26.851  14.807 -17.265  1.00  0.00     0.049 C 
ENDROOT
BRANCH  17  19
HETATM   19  C19 UNL     1      26.773  17.350 -17.245  1.00  0.00     0.143 C 
BRANCH  19  20
HETATM   20  C20 UNL     1      27.990  17.903 -17.859  1.00  0.00     0.219 C 
HETATM   21  O5  UNL     1      28.743  18.766 -17.339  1.00  0.00    -0.274 OA
HETATM   22  N2  UNL     1      28.375  17.430 -19.171  1.00  0.00    -0.365 N 
HETATM   23  C21 UNL     1      29.560  17.971 -19.766  1.00  0.00     0.149 C 
ATOM     24  H2  UNL     1      27.818  16.729 -19.660  1.00  0.00     0.161 HD
ENDBRANCH  19  20
ENDBRANCH  17  19
BRANCH   4  25
HETATM   25  O1  UNL     1      28.359  17.922 -12.675  1.00  0.00    -0.387 OA
ATOM     26  H1  UNL     1      29.137  17.474 -12.987  1.00  0.00     0.210 HD
ENDBRANCH   4  25
BRANCH  10  27
HETATM   27  C13 UNL     1      26.018  19.601 -12.469  1.00  0.00     0.182 C 
BRANCH  27  28
HETATM   28  O4  UNL     1      24.804  20.240 -12.655  1.00  0.00    -0.400 OA
ATOM     29  H4  UNL     1      24.109  19.844 -12.141  1.00  0.00     0.209 HD
ENDBRANCH  27  28
ENDBRANCH  10  27
BRANCH   6  30
HETATM   30  O2  UNL     1      25.924  15.272 -10.580  1.00  0.00    -0.315 OA
BRANCH  30  31
HETATM   31  C7  UNL     1      25.261  14.171 -10.120  1.00  0.00     0.255 C 
HETATM   32  C8  UNL     1      24.021  13.741 -10.782  1.00  0.00     0.126 C 
HETATM   33  O3  UNL     1      25.699  13.532  -9.150  1.00  0.00    -0.266 OA
ENDBRANCH  30  31
ENDBRANCH   6  30
TORSDOF 7
ENDMDL
MODEL 2
REMARK VINA RESULT: -6.525188698      3.037      5.213
REMARK  7 active torsions:
REMARK  status: ('A' for Active; 'I' for Inactive)
REMARK    1  A    between atoms: C4_4  and  O1_5 
REMARK    2  A    between atoms: C6_8  and  O2_9 
REMARK    3  A    between atoms: O2_9  and  C7_10 
REMARK    4  A    between atoms: C12_16  and  C13_17 
REMARK    5  A    between atoms: C13_17  and  O4_18 
REMARK    6  A    between atoms: C17_26  and  C19_28 
REMARK    7  A    between atoms: C19_28  and  C20_29 
REMARK       I    between atoms: C20_29  and  N2_31 
ROOT
HETATM    1  C1  UNL     1      27.577  14.835 -13.740  1.00  0.00     0.016 C 
HETATM    2  C2  UNL     1      27.541  16.130 -13.460  1.00  0.00    -0.065 C 
HETATM    3  C3  UNL     1      28.095  17.064 -12.462  1.00  0.00     0.090 C 
HETATM    4  C4  UNL     1      26.981  18.024 -12.806  1.00  0.00     0.088 C 
HETATM    5  C5  UNL     1      25.818  17.602 -11.937  1.00  0.00     0.058 C 
HETATM    6  C6  UNL     1      24.886  16.872 -12.821  1.00  0.00     0.148 C 
HETATM    7  C9  UNL     1      25.371  17.154 -14.270  1.00  0.00    -0.004 C 
HETATM    8  C10 UNL     1      24.954  16.046 -15.177  1.00  0.00     0.019 C 
HETATM    9  C11 UNL     1      24.833  18.450 -14.781  1.00  0.00     0.019 C 
HETATM   10  C12 UNL     1      26.856  17.286 -14.098  1.00  0.00     0.046 C 
HETATM   11  C14 UNL     1      26.397  16.807 -10.771  1.00  0.00     0.030 C 
HETATM   12  C15 UNL     1      25.608  15.579 -10.464  1.00  0.00     0.013 C 
HETATM   13  C16 UNL     1      27.835  16.657 -11.018  1.00  0.00     0.173 A 
HETATM   14  N1  UNL     1      28.643  17.605 -10.129  1.00  0.00    -0.051 N 
ATOM     15  H11 UNL     1      28.456  18.268  -9.376  1.00  0.00     0.279 HD
ATOM     16  H12 UNL     1      29.157  18.479 -10.239  1.00  0.00     0.279 HD
HETATM   17  C17 UNL     1      28.924  16.141 -10.258  1.00  0.00     0.165 A 
HETATM   18  C18 UNL     1      28.740  15.327  -9.007  1.00  0.00     0.049 C 
ENDROOT
BRANCH  17  19
HETATM   19  C19 UNL     1      30.191  15.896 -11.019  1.00  0.00     0.143 C 
BRANCH  19  20
HETATM   20  C20 UNL     1      31.300  16.728 -10.525  1.00  0.00     0.219 C 
HETATM   21  O5  UNL     1      31.453  17.111  -9.336  1.00  0.00    -0.274 OA
HETATM   22  N2  UNL     1      32.314  17.152 -11.466  1.00  0.00    -0.365 N 
HETATM   23  C21 UNL     1      33.392  17.961 -10.982  1.00  0.00     0.149 C 
ATOM     24  H2  UNL     1      32.263  16.882 -12.448  1.00  0.00     0.161 HD
ENDBRANCH  19  20
ENDBRANCH  17  19
BRANCH   4  25
HETATM   25  O1  UNL     1      27.289  19.357 -12.841  1.00  0.00    -0.387 OA
ATOM     26  H1  UNL     1      26.980  19.896 -12.122  1.00  0.00     0.210 HD
ENDBRANCH   4  25
BRANCH  10  27
HETATM   27  C13 UNL     1      27.603  17.820 -15.266  1.00  0.00     0.182 C 
BRANCH  27  28
HETATM   28  O4  UNL     1      27.283  19.140 -15.529  1.00  0.00    -0.400 OA
ATOM     29  H4  UNL     1      28.056  19.674 -15.670  1.00  0.00     0.209 HD
ENDBRANCH  27  28
ENDBRANCH  10  27
BRANCH   6  30
HETATM   30  O2  UNL     1      23.578  17.469 -12.819  1.00  0.00    -0.315 OA
BRANCH  30  31
HETATM   31  C7  UNL     1      22.601  17.185 -11.907  1.00  0.00     0.255 C 
HETATM   32  C8  UNL     1      21.725  16.025 -12.121  1.00  0.00     0.126 C 
HETATM   33  O3  UNL     1      22.451  17.899 -10.903  1.00  0.00    -0.266 OA
ENDBRANCH  30  31
ENDBRANCH   6  30
TORSDOF 7
ENDMDL
MODEL 3
REMARK VINA RESULT: -6.461611367      2.688      6.488
REMARK  7 active torsions:
REMARK  status: ('A' for Active; 'I' for Inactive)
REMARK    1  A    between atoms: C4_4  and  O1_5 
REMARK    2  A    between atoms: C6_8  and  O2_9 
REMARK    3  A    between atoms: O2_9  and  C7_10 
REMARK    4  A    between atoms: C12_16  and  C13_17 
REMARK    5  A    between atoms: C13_17  and  O4_18 
REMARK    6  A    between atoms: C17_26  and  C19_28 
REMARK    7  A    between atoms: C19_28  and  C20_29 
REMARK       I    between atoms: C20_29  and  N2_31 
ROOT
HETATM    1  C1  UNL     1      26.006  14.303 -13.897  1.00  0.00     0.016 C 
HETATM    2  C2  UNL     1      26.987  15.158 -14.147  1.00  0.00    -0.065 C 
HETATM    3  C3  UNL     1      27.770  16.187 -13.436  1.00  0.00     0.090 C 
HETATM    4  C4  UNL     1      28.109  16.793 -14.777  1.00  0.00     0.088 C 
HETATM    5  C5  UNL     1      26.957  17.719 -15.092  1.00  0.00     0.058 C 
HETATM    6  C6  UNL     1      26.129  17.020 -16.097  1.00  0.00     0.148 C 
HETATM    7  C9  UNL     1      26.986  15.822 -16.591  1.00  0.00    -0.004 C 
HETATM    8  C10 UNL     1      26.104  14.730 -17.094  1.00  0.00     0.019 C 
HETATM    9  C11 UNL     1      27.933  16.239 -17.668  1.00  0.00     0.019 C 
HETATM   10  C12 UNL     1      27.780  15.462 -15.368  1.00  0.00     0.046 C 
HETATM   11  C14 UNL     1      26.272  18.046 -13.769  1.00  0.00     0.030 C 
HETATM   12  C15 UNL     1      24.784  18.000 -13.864  1.00  0.00     0.013 C 
HETATM   13  C16 UNL     1      26.920  17.236 -12.732  1.00  0.00     0.173 A 
HETATM   14  N1  UNL     1      27.866  18.090 -11.885  1.00  0.00    -0.051 N 
ATOM     15  H11 UNL     1      28.125  19.075 -11.812  1.00  0.00     0.279 HD
ATOM     16  H12 UNL     1      28.873  18.227 -11.795  1.00  0.00     0.279 HD
HETATM   17  C17 UNL     1      26.825  17.182 -11.311  1.00  0.00     0.165 A 
HETATM   18  C18 UNL     1      25.727  17.855 -10.535  1.00  0.00     0.049 C 
ENDROOT
BRANCH  17  19
HETATM   19  C19 UNL     1      27.447  15.984 -10.662  1.00  0.00     0.143 C 
BRANCH  19  20
HETATM   20  C20 UNL     1      28.596  16.348  -9.818  1.00  0.00     0.219 C 
HETATM   21  O5  UNL     1      28.526  16.835  -8.659  1.00  0.00    -0.274 OA
HETATM   22  N2  UNL     1      29.928  16.138 -10.340  1.00  0.00    -0.365 N 
HETATM   23  C21 UNL     1      31.044  16.493  -9.516  1.00  0.00     0.149 C 
ATOM     24  H2  UNL     1      30.070  15.745 -11.271  1.00  0.00     0.161 HD
ENDBRANCH  19  20
ENDBRANCH  17  19
BRANCH   4  25
HETATM   25  O1  UNL     1      29.376  17.286 -14.940  1.00  0.00    -0.387 OA
ATOM     26  H1  UNL     1      29.705  17.874 -14.271  1.00  0.00     0.210 HD
ENDBRANCH   4  25
BRANCH  10  27
HETATM   27  C13 UNL     1      28.900  14.508 -15.577  1.00  0.00     0.182 C 
BRANCH  27  28
HETATM   28  O4  UNL     1      28.450  13.228 -15.848  1.00  0.00    -0.400 OA
ATOM     29  H4  UNL     1      29.152  12.655 -16.134  1.00  0.00     0.209 HD
ENDBRANCH  27  28
ENDBRANCH  10  27
BRANCH   6  30
HETATM   30  O2  UNL     1      25.980  17.800 -17.295  1.00  0.00    -0.315 OA
BRANCH  30  31
HETATM   31  C7  UNL     1      25.426  19.047 -17.341  1.00  0.00     0.255 C 
HETATM   32  C8  UNL     1      26.284  20.214 -17.595  1.00  0.00     0.126 C 
HETATM   33  O3  UNL     1      24.206  19.201 -17.170  1.00  0.00    -0.266 OA
ENDBRANCH  30  31
ENDBRANCH   6  30
TORSDOF 7
ENDMDL
MODEL 4
REMARK VINA RESULT: -6.389944764      3.279      4.986
REMARK  7 active torsions:
REMARK  status: ('A' for Active; 'I' for Inactive)
REMARK    1  A    between atoms: C4_4  and  O1_5 
REMARK    2  A    between atoms: C6_8  and  O2_9 
REMARK    3  A    between atoms: O2_9  and  C7_10 
REMARK    4  A    between atoms: C12_16  and  C13_17 
REMARK    5  A    between atoms: C13_17  and  O4_18 
REMARK    6  A    between atoms: C17_26  and  C19_28 
REMARK    7  A    between atoms: C19_28  and  C20_29 
REMARK       I    between atoms: C20_29  and  N2_31 
ROOT
HETATM    1  C1  UNL     1      26.024  16.245 -14.363  1.00  0.00     0.016 C 
HETATM    2  C2  UNL     1      25.955  17.349 -13.635  1.00  0.00    -0.065 C 
HETATM    3  C3  UNL     1      26.581  17.923 -12.428  1.00  0.00     0.090 C 
HETATM    4  C4  UNL     1      25.383  18.833 -12.292  1.00  0.00     0.088 C 
HETATM    5  C5  UNL     1      24.362  18.026 -11.523  1.00  0.00     0.058 C 
HETATM    6  C6  UNL     1      23.366  17.568 -12.513  1.00  0.00     0.148 C 
HETATM    7  C9  UNL     1      23.649  18.384 -13.805  1.00  0.00    -0.004 C 
HETATM    8  C10 UNL     1      23.180  17.630 -15.003  1.00  0.00     0.019 C 
HETATM    9  C11 UNL     1      22.984  19.720 -13.761  1.00  0.00     0.019 C 
HETATM   10  C12 UNL     1      25.136  18.586 -13.744  1.00  0.00     0.046 C 
HETATM   11  C14 UNL     1      25.125  16.931 -10.783  1.00  0.00     0.030 C 
HETATM   12  C15 UNL     1      24.447  15.605 -10.861  1.00  0.00     0.013 C 
HETATM   13  C16 UNL     1      26.526  17.014 -11.209  1.00  0.00     0.173 A 
HETATM   14  N1  UNL     1      27.389  17.661 -10.123  1.00  0.00    -0.051 N 
ATOM     15  H11 UNL     1      27.264  17.998  -9.168  1.00  0.00     0.279 HD
ATOM     16  H12 UNL     1      27.838  18.562  -9.962  1.00  0.00     0.279 HD
HETATM   17  C17 UNL     1      27.728  16.369 -10.796  1.00  0.00     0.165 A 
HETATM   18  C18 UNL     1      27.746  15.155  -9.909  1.00  0.00     0.049 C 
ENDROOT
BRANCH  17  19
HETATM   19  C19 UNL     1      28.900  16.526 -11.715  1.00  0.00     0.143 C 
BRANCH  19  20
HETATM   20  C20 UNL     1      30.111  16.955 -10.996  1.00  0.00     0.219 C 
HETATM   21  O5  UNL     1      30.183  17.191  -9.763  1.00  0.00    -0.274 OA
HETATM   22  N2  UNL     1      31.335  17.124 -11.749  1.00  0.00    -0.365 N 
HETATM   23  C21 UNL     1      32.511  17.541 -11.047  1.00  0.00     0.149 C 
ATOM     24  H2  UNL     1      31.360  16.950 -12.754  1.00  0.00     0.161 HD
ENDBRANCH  19  20
ENDBRANCH  17  19
BRANCH   4  25
HETATM   25  O1  UNL     1      25.614  20.117 -11.878  1.00  0.00    -0.387 OA
ATOM     26  H1  UNL     1      24.980  20.778 -12.131  1.00  0.00     0.210 HD
ENDBRANCH   4  25
BRANCH  10  27
HETATM   27  C13 UNL     1      25.700  19.563 -14.711  1.00  0.00     0.182 C 
BRANCH  27  28
HETATM   28  O4  UNL     1      25.278  20.856 -14.452  1.00  0.00    -0.400 OA
ATOM     29  H4  UNL     1      25.185  21.021 -13.521  1.00  0.00     0.209 HD
ENDBRANCH  27  28
ENDBRANCH  10  27
BRANCH   6  30
HETATM   30  O2  UNL     1      22.039  18.000 -12.167  1.00  0.00    -0.315 OA
BRANCH  30  31
HETATM   31  C7  UNL     1      21.109  17.216 -11.548  1.00  0.00     0.255 C 
HETATM   32  C8  UNL     1      20.879  15.846 -12.030  1.00  0.00     0.126 C 
HETATM   33  O3  UNL     1      20.459  17.651 -10.584  1.00  0.00    -0.266 OA
ENDBRANCH  30  31
ENDBRANCH   6  30
TORSDOF 7
ENDMDL
MODEL 5
REMARK VINA RESULT: -6.358757970      2.914      5.592
REMARK  7 active torsions:
REMARK  status: ('A' for Active; 'I' for Inactive)
REMARK    1  A    between atoms: C4_4  and  O1_5 
REMARK    2  A    between atoms: C6_8  and  O2_9 
REMARK    3  A    between atoms: O2_9  and  C7_10 
REMARK    4  A    between atoms: C12_16  and  C13_17 
REMARK    5  A    between atoms: C13_17  and  O4_18 
REMARK    6  A    between atoms: C17_26  and  C19_28 
REMARK    7  A    between atoms: C19_28  and  C20_29 
REMARK       I    between atoms: C20_29  and  N2_31 
ROOT
HETATM    1  C1  UNL     1      26.463  15.768 -15.321  1.00  0.00     0.016 C 
HETATM    2  C2  UNL     1      26.670  16.972 -14.807  1.00  0.00    -0.065 C 
HETATM    3  C3  UNL     1      27.135  17.573 -13.542  1.00  0.00     0.090 C 
HETATM    4  C4  UNL     1      26.436  18.851 -13.943  1.00  0.00     0.088 C 
HETATM    5  C5  UNL     1      25.009  18.681 -13.476  1.00  0.00     0.058 C 
HETATM    6  C6  UNL     1      24.214  18.370 -14.681  1.00  0.00     0.148 C 
HETATM    7  C9  UNL     1      25.141  18.676 -15.889  1.00  0.00    -0.004 C 
HETATM    8  C10 UNL     1      24.736  17.860 -17.070  1.00  0.00     0.019 C 
HETATM    9  C11 UNL     1      25.108  20.126 -16.247  1.00  0.00     0.019 C 
HETATM   10  C12 UNL     1      26.502  18.348 -15.348  1.00  0.00     0.046 C 
HETATM   11  C14 UNL     1      25.020  17.613 -12.386  1.00  0.00     0.030 C 
HETATM   12  C15 UNL     1      23.898  16.640 -12.523  1.00  0.00     0.013 C 
HETATM   13  C16 UNL     1      26.386  17.083 -12.311  1.00  0.00     0.173 A 
HETATM   14  N1  UNL     1      27.118  17.636 -11.086  1.00  0.00    -0.051 N 
ATOM     15  H11 UNL     1      26.897  18.226 -10.284  1.00  0.00     0.279 HD
ATOM     16  H12 UNL     1      27.842  18.329 -10.897  1.00  0.00     0.279 HD
HETATM   17  C17 UNL     1      27.053  16.182 -11.432  1.00  0.00     0.165 A 
HETATM   18  C18 UNL     1      26.328  15.308 -10.446  1.00  0.00     0.049 C 
ENDROOT
BRANCH  17  19
HETATM   19  C19 UNL     1      28.381  15.675 -11.903  1.00  0.00     0.143 C 
BRANCH  19  20
HETATM   20  C20 UNL     1      29.501  16.356 -11.234  1.00  0.00     0.219 C 
HETATM   21  O5  UNL     1      30.132  17.344 -11.689  1.00  0.00    -0.274 OA
HETATM   22  N2  UNL     1      29.930  15.867  -9.941  1.00  0.00    -0.365 N 
HETATM   23  C21 UNL     1      31.019  16.531  -9.293  1.00  0.00     0.149 C 
ATOM     24  H2  UNL     1      29.468  15.070  -9.503  1.00  0.00     0.161 HD
ENDBRANCH  19  20
ENDBRANCH  17  19
BRANCH   4  25
HETATM   25  O1  UNL     1      27.062  20.030 -13.641  1.00  0.00    -0.387 OA
ATOM     26  H1  UNL     1      27.993  19.994 -13.453  1.00  0.00     0.210 HD
ENDBRANCH   4  25
BRANCH  10  27
HETATM   27  C13 UNL     1      27.656  18.782 -16.178  1.00  0.00     0.182 C 
BRANCH  27  28
HETATM   28  O4  UNL     1      27.758  20.160 -16.246  1.00  0.00    -0.400 OA
ATOM     29  H4  UNL     1      28.322  20.511 -15.568  1.00  0.00     0.209 HD
ENDBRANCH  27  28
ENDBRANCH  10  27
BRANCH   6  30
HETATM   30  O2  UNL     1      23.148  19.317 -14.871  1.00  0.00    -0.315 OA
BRANCH  30  31
HETATM   31  C7  UNL     1      22.459  19.917 -13.856  1.00  0.00     0.255 C 
HETATM   32  C8  UNL     1      21.336  19.210 -13.225  1.00  0.00     0.126 C 
HETATM   33  O3  UNL     1      22.775  21.052 -13.465  1.00  0.00    -0.266 OA
ENDBRANCH  30  31
ENDBRANCH   6  30
TORSDOF 7
ENDMDL
