MODEL 1
REMARK VINA RESULT: -7.429263862      0.000      0.000
REMARK  7 active torsions:
REMARK  status: ('A' for Active; 'I' for Inactive)
REMARK    1  A    between atoms: C2_2  and  C4_4 
REMARK    2  A    between atoms: C4_4  and  O1_5 
REMARK    3  A    between atoms: C4_4  and  C5_7 
REMARK    4  A    between atoms: C14_16  and  O2_17 
REMARK    5  A    between atoms: C15_19  and  N1_20 
REMARK    6  A    between atoms: C20_26  and  O4_27 
REMARK    7  A    between atoms: C22_30  and  O5_31 
ROOT
HETATM    1  C5  UNL     1      28.481  16.387 -10.551  1.00  0.00     0.045 C 
HETATM    2  C6  UNL     1      27.433  15.276 -10.276  1.00  0.00     0.020 C 
HETATM    3  C7  UNL     1      26.405  15.675 -11.313  1.00  0.00    -0.031 C 
HETATM    4  C8  UNL     1      26.991  15.402 -12.653  1.00  0.00     0.016 C 
HETATM    5  C9  UNL     1      25.068  15.049 -11.173  1.00  0.00    -0.001 C 
HETATM    6  C10 UNL     1      25.011  13.841 -10.291  1.00  0.00     0.007 C 
HETATM    7  C11 UNL     1      23.726  13.118 -10.633  1.00  0.00     0.012 C 
HETATM    8  C12 UNL     1      22.512  13.959 -10.533  1.00  0.00    -0.011 C 
HETATM    9  C13 UNL     1      21.610  13.580  -9.351  1.00  0.00     0.018 C 
HETATM   10  C14 UNL     1      21.676  13.853 -11.803  1.00  0.00     0.147 C 
HETATM   11  C15 UNL     1      22.046  15.266 -12.176  1.00  0.00     0.123 C 
HETATM   12  C17 UNL     1      22.637  15.389 -10.787  1.00  0.00     0.023 C 
HETATM   13  C18 UNL     1      23.994  16.004 -10.702  1.00  0.00    -0.001 C 
HETATM   14  C19 UNL     1      23.944  17.290 -11.495  1.00  0.00     0.037 C 
HETATM   15  C20 UNL     1      25.349  17.797 -11.855  1.00  0.00     0.126 C 
HETATM   16  C21 UNL     1      26.278  17.122 -10.948  1.00  0.00     0.052 C 
HETATM   17  C22 UNL     1      27.691  17.607 -10.880  1.00  0.00     0.132 C 
ENDROOT
BRANCH   1  18
HETATM   18  C4  UNL     1      29.440  16.466  -9.413  1.00  0.00     0.128 C 
BRANCH  18  19
HETATM   19  C2  UNL     1      30.867  16.378  -9.824  1.00  0.00     0.006 C 
HETATM   20  C1  UNL     1      31.638  17.626  -9.298  1.00  0.00     0.012 C 
HETATM   21  C3  UNL     1      31.081  16.488 -11.343  1.00  0.00     0.012 C 
ENDBRANCH  18  19
BRANCH  18  22
HETATM   22  O1  UNL     1      29.159  17.410  -8.448  1.00  0.00    -0.395 OA
ATOM     23  H1  UNL     1      28.432  17.201  -7.873  1.00  0.00     0.210 HD
ENDBRANCH  18  22
ENDBRANCH   1  18
BRANCH  17  24
HETATM   24  O5  UNL     1      28.105  18.228 -12.054  1.00  0.00    -0.395 OA
ATOM     25  H5  UNL     1      27.808  17.782 -12.839  1.00  0.00     0.210 HD
ENDBRANCH  17  24
BRANCH  15  26
HETATM   26  O4  UNL     1      25.407  19.189 -11.801  1.00  0.00    -0.395 OA
ATOM     27  H4  UNL     1      24.767  19.579 -12.383  1.00  0.00     0.210 HD
ENDBRANCH  15  26
BRANCH  11  28
HETATM   28  N1  UNL     1      20.940  16.177 -12.413  1.00  0.00    -0.163 NA
HETATM   29  C16 UNL     1      20.090  16.143 -13.464  1.00  0.00     0.315 A 
HETATM   30  O3  UNL     1      21.102  17.154 -13.334  1.00  0.00    -0.284 OA
ENDBRANCH  11  28
BRANCH  10  31
HETATM   31  O2  UNL     1      22.133  12.885 -12.702  1.00  0.00    -0.393 OA
ATOM     32  H2  UNL     1      21.464  12.564 -13.295  1.00  0.00     0.210 HD
ENDBRANCH  10  31
TORSDOF 7
ENDMDL
MODEL 2
REMARK VINA RESULT: -7.137368468      2.652      4.781
REMARK  7 active torsions:
REMARK  status: ('A' for Active; 'I' for Inactive)
REMARK    1  A    between atoms: C2_2  and  C4_4 
REMARK    2  A    between atoms: C4_4  and  O1_5 
REMARK    3  A    between atoms: C4_4  and  C5_7 
REMARK    4  A    between atoms: C14_16  and  O2_17 
REMARK    5  A    between atoms: C15_19  and  N1_20 
REMARK    6  A    between atoms: C20_26  and  O4_27 
REMARK    7  A    between atoms: C22_30  and  O5_31 
ROOT
HETATM    1  C5  UNL     1      27.744  16.249 -10.012  1.00  0.00     0.045 C 
HETATM    2  C6  UNL     1      27.681  17.545 -10.865  1.00  0.00     0.020 C 
HETATM    3  C7  UNL     1      26.264  17.408 -11.378  1.00  0.00    -0.031 C 
HETATM    4  C8  UNL     1      25.348  17.601 -10.222  1.00  0.00     0.016 C 
HETATM    5  C9  UNL     1      25.897  18.294 -12.509  1.00  0.00    -0.001 C 
HETATM    6  C10 UNL     1      26.812  19.454 -12.743  1.00  0.00     0.007 C 
HETATM    7  C11 UNL     1      26.048  20.442 -13.597  1.00  0.00     0.012 C 
HETATM    8  C12 UNL     1      25.514  19.871 -14.854  1.00  0.00    -0.011 C 
HETATM    9  C13 UNL     1      26.235  20.386 -16.107  1.00  0.00     0.018 C 
HETATM   10  C14 UNL     1      24.033  20.195 -15.008  1.00  0.00     0.147 C 
HETATM   11  C15 UNL     1      23.681  18.751 -14.760  1.00  0.00     0.123 C 
HETATM   12  C17 UNL     1      25.162  18.456 -14.877  1.00  0.00     0.023 C 
HETATM   13  C18 UNL     1      25.740  17.568 -13.827  1.00  0.00    -0.001 C 
HETATM   14  C19 UNL     1      24.848  16.351 -13.740  1.00  0.00     0.037 C 
HETATM   15  C20 UNL     1      25.063  15.575 -12.432  1.00  0.00     0.126 C 
HETATM   16  C21 UNL     1      26.356  16.007 -11.900  1.00  0.00     0.052 C 
HETATM   17  C22 UNL     1      26.960  15.235 -10.771  1.00  0.00     0.132 C 
ENDROOT
BRANCH   1  18
HETATM   18  C4  UNL     1      29.163  15.930  -9.687  1.00  0.00     0.128 C 
BRANCH  18  19
HETATM   19  C2  UNL     1      30.125  16.990 -10.093  1.00  0.00     0.006 C 
HETATM   20  C1  UNL     1      31.142  16.405 -11.118  1.00  0.00     0.012 C 
HETATM   21  C3  UNL     1      31.051  17.453  -8.955  1.00  0.00     0.012 C 
ENDBRANCH  18  19
BRANCH  18  22
HETATM   22  O1  UNL     1      29.390  15.367  -8.450  1.00  0.00    -0.395 OA
ATOM     23  H1  UNL     1      29.361  14.418  -8.422  1.00  0.00     0.210 HD
ENDBRANCH  18  22
ENDBRANCH   1  18
BRANCH  17  24
HETATM   24  O5  UNL     1      26.008  14.584  -9.993  1.00  0.00    -0.395 OA
ATOM     25  H5  UNL     1      25.152  14.995 -10.026  1.00  0.00     0.210 HD
ENDBRANCH  17  24
BRANCH  15  26
HETATM   26  O4  UNL     1      24.962  14.200 -12.643  1.00  0.00    -0.395 OA
ATOM     27  H4  UNL     1      24.876  14.004 -13.568  1.00  0.00     0.210 HD
ENDBRANCH  15  26
BRANCH  11  28
HETATM   28  N1  UNL     1      22.882  18.100 -15.784  1.00  0.00    -0.163 NA
HETATM   29  C16 UNL     1      21.590  18.367 -16.077  1.00  0.00     0.315 A 
HETATM   30  O3  UNL     1      21.985  17.165 -15.398  1.00  0.00    -0.284 OA
ENDBRANCH  11  28
BRANCH  10  31
HETATM   31  O2  UNL     1      23.543  21.078 -14.040  1.00  0.00    -0.393 OA
ATOM     32  H2  UNL     1      23.739  20.817 -13.148  1.00  0.00     0.210 HD
ENDBRANCH  10  31
TORSDOF 7
ENDMDL
MODEL 3
REMARK VINA RESULT: -7.030321286      1.009      1.251
REMARK  7 active torsions:
REMARK  status: ('A' for Active; 'I' for Inactive)
REMARK    1  A    between atoms: C2_2  and  C4_4 
REMARK    2  A    between atoms: C4_4  and  O1_5 
REMARK    3  A    between atoms: C4_4  and  C5_7 
REMARK    4  A    between atoms: C14_16  and  O2_17 
REMARK    5  A    between atoms: C15_19  and  N1_20 
REMARK    6  A    between atoms: C20_26  and  O4_27 
REMARK    7  A    between atoms: C22_30  and  O5_31 
ROOT
HETATM    1  C5  UNL     1      27.799  16.280 -10.777  1.00  0.00     0.045 C 
HETATM    2  C6  UNL     1      26.948  15.057 -10.340  1.00  0.00     0.020 C 
HETATM    3  C7  UNL     1      25.773  15.256 -11.273  1.00  0.00    -0.031 C 
HETATM    4  C8  UNL     1      26.249  14.985 -12.656  1.00  0.00     0.016 C 
HETATM    5  C9  UNL     1      24.557  14.469 -10.958  1.00  0.00    -0.001 C 
HETATM    6  C10 UNL     1      24.757  13.317 -10.023  1.00  0.00     0.007 C 
HETATM    7  C11 UNL     1      23.556  12.413 -10.189  1.00  0.00     0.012 C 
HETATM    8  C12 UNL     1      22.255  13.090  -9.992  1.00  0.00    -0.011 C 
HETATM    9  C13 UNL     1      21.540  12.667  -8.702  1.00  0.00     0.018 C 
HETATM   10  C14 UNL     1      21.314  12.801 -11.157  1.00  0.00     0.147 C 
HETATM   11  C15 UNL     1      21.446  14.226 -11.630  1.00  0.00     0.123 C 
HETATM   12  C17 UNL     1      22.155  14.508 -10.321  1.00  0.00     0.023 C 
HETATM   13  C18 UNL     1      23.416  15.300 -10.414  1.00  0.00    -0.001 C 
HETATM   14  C19 UNL     1      23.108  16.519 -11.253  1.00  0.00     0.037 C 
HETATM   15  C20 UNL     1      24.385  17.185 -11.787  1.00  0.00     0.126 C 
HETATM   16  C21 UNL     1      25.487  16.693 -10.960  1.00  0.00     0.052 C 
HETATM   17  C22 UNL     1      26.819  17.363 -11.070  1.00  0.00     0.132 C 
ENDROOT
BRANCH   1  18
HETATM   18  C4  UNL     1      28.850  16.551  -9.757  1.00  0.00     0.128 C 
BRANCH  18  19
HETATM   19  C2  UNL     1      30.122  17.070 -10.329  1.00  0.00     0.006 C 
HETATM   20  C1  UNL     1      30.438  16.322 -11.659  1.00  0.00     0.012 C 
HETATM   21  C3  UNL     1      31.361  16.744  -9.478  1.00  0.00     0.012 C 
ENDBRANCH  18  19
BRANCH  18  22
HETATM   22  O1  UNL     1      28.427  17.167  -8.599  1.00  0.00    -0.395 OA
ATOM     23  H1  UNL     1      27.604  17.637  -8.664  1.00  0.00     0.210 HD
ENDBRANCH  18  22
ENDBRANCH   1  18
BRANCH  17  24
HETATM   24  O5  UNL     1      27.020  17.963 -12.309  1.00  0.00    -0.395 OA
ATOM     25  H5  UNL     1      26.470  18.725 -12.450  1.00  0.00     0.210 HD
ENDBRANCH  17  24
BRANCH  15  26
HETATM   26  O4  UNL     1      24.257  18.573 -11.802  1.00  0.00    -0.395 OA
ATOM     27  H4  UNL     1      24.814  18.960 -12.467  1.00  0.00     0.210 HD
ENDBRANCH  15  26
BRANCH  11  28
HETATM   28  N1  UNL     1      20.206  14.968 -11.783  1.00  0.00    -0.163 NA
HETATM   29  C16 UNL     1      19.262  14.757 -12.727  1.00  0.00     0.315 A 
HETATM   30  O3  UNL     1      20.134  15.898 -12.762  1.00  0.00    -0.284 OA
ENDBRANCH  11  28
BRANCH  10  31
HETATM   31  O2  UNL     1      21.804  11.851 -12.057  1.00  0.00    -0.393 OA
ATOM     32  H2  UNL     1      21.341  11.832 -12.886  1.00  0.00     0.210 HD
ENDBRANCH  10  31
TORSDOF 7
ENDMDL
MODEL 4
REMARK VINA RESULT: -6.930697975      2.512      4.417
REMARK  7 active torsions:
REMARK  status: ('A' for Active; 'I' for Inactive)
REMARK    1  A    between atoms: C2_2  and  C4_4 
REMARK    2  A    between atoms: C4_4  and  O1_5 
REMARK    3  A    between atoms: C4_4  and  C5_7 
REMARK    4  A    between atoms: C14_16  and  O2_17 
REMARK    5  A    between atoms: C15_19  and  N1_20 
REMARK    6  A    between atoms: C20_26  and  O4_27 
REMARK    7  A    between atoms: C22_30  and  O5_31 
ROOT
HETATM    1  C5  UNL     1      28.167  16.697 -11.073  1.00  0.00     0.045 C 
HETATM    2  C6  UNL     1      27.692  17.790 -12.068  1.00  0.00     0.020 C 
HETATM    3  C7  UNL     1      26.203  17.690 -11.818  1.00  0.00    -0.031 C 
HETATM    4  C8  UNL     1      25.944  18.206 -10.447  1.00  0.00     0.016 C 
HETATM    5  C9  UNL     1      25.333  18.357 -12.817  1.00  0.00    -0.001 C 
HETATM    6  C10 UNL     1      26.015  19.349 -13.707  1.00  0.00     0.007 C 
HETATM    7  C11 UNL     1      24.926  20.210 -14.307  1.00  0.00     0.012 C 
HETATM    8  C12 UNL     1      23.866  19.448 -15.005  1.00  0.00    -0.011 C 
HETATM    9  C13 UNL     1      23.899  19.622 -16.529  1.00  0.00     0.018 C 
HETATM   10  C14 UNL     1      22.485  19.878 -14.523  1.00  0.00     0.147 C 
HETATM   11  C15 UNL     1      22.309  18.557 -13.818  1.00  0.00     0.123 C 
HETATM   12  C17 UNL     1      23.560  18.101 -14.539  1.00  0.00     0.023 C 
HETATM   13  C18 UNL     1      24.578  17.395 -13.707  1.00  0.00    -0.001 C 
HETATM   14  C19 UNL     1      23.848  16.315 -12.941  1.00  0.00     0.037 C 
HETATM   15  C20 UNL     1      24.666  15.807 -11.745  1.00  0.00     0.126 C 
HETATM   16  C21 UNL     1      26.052  16.210 -11.989  1.00  0.00     0.052 C 
HETATM   17  C22 UNL     1      27.128  15.631 -11.127  1.00  0.00     0.132 C 
ENDROOT
BRANCH   1  18
HETATM   18  C4  UNL     1      29.573  16.313 -11.381  1.00  0.00     0.128 C 
BRANCH  18  19
HETATM   19  C2  UNL     1      30.475  16.340 -10.198  1.00  0.00     0.006 C 
HETATM   20  C1  UNL     1      29.759  17.056  -9.014  1.00  0.00     0.012 C 
HETATM   21  C3  UNL     1      31.724  17.218 -10.392  1.00  0.00     0.012 C 
ENDBRANCH  18  19
BRANCH  18  22
HETATM   22  O1  UNL     1      29.737  15.237 -12.226  1.00  0.00    -0.395 OA
ATOM     23  H1  UNL     1      30.259  14.522 -11.880  1.00  0.00     0.210 HD
ENDBRANCH  18  22
ENDBRANCH   1  18
BRANCH  17  24
HETATM   24  O5  UNL     1      26.667  15.250  -9.871  1.00  0.00    -0.395 OA
ATOM     25  H5  UNL     1      27.063  14.447  -9.554  1.00  0.00     0.210 HD
ENDBRANCH  17  24
BRANCH  15  26
HETATM   26  O4  UNL     1      24.493  14.435 -11.567  1.00  0.00    -0.395 OA
ATOM     27  H4  UNL     1      24.431  14.217 -10.644  1.00  0.00     0.210 HD
ENDBRANCH  15  26
BRANCH  11  28
HETATM   28  N1  UNL     1      21.127  17.792 -14.176  1.00  0.00    -0.163 NA
HETATM   29  C16 UNL     1      19.847  18.126 -13.898  1.00  0.00     0.315 A 
HETATM   30  O3  UNL     1      20.523  17.060 -13.213  1.00  0.00    -0.284 OA
ENDBRANCH  11  28
BRANCH  10  31
HETATM   31  O2  UNL     1      22.504  20.985 -13.668  1.00  0.00    -0.393 OA
ATOM     32  H2  UNL     1      22.377  20.766 -12.753  1.00  0.00     0.210 HD
ENDBRANCH  10  31
TORSDOF 7
ENDMDL
MODEL 5
REMARK VINA RESULT: -6.883144221      2.873      4.779
REMARK  7 active torsions:
REMARK  status: ('A' for Active; 'I' for Inactive)
REMARK    1  A    between atoms: C2_2  and  C4_4 
REMARK    2  A    between atoms: C4_4  and  O1_5 
REMARK    3  A    between atoms: C4_4  and  C5_7 
REMARK    4  A    between atoms: C14_16  and  O2_17 
REMARK    5  A    between atoms: C15_19  and  N1_20 
REMARK    6  A    between atoms: C20_26  and  O4_27 
REMARK    7  A    between atoms: C22_30  and  O5_31 
ROOT
HETATM    1  C5  UNL     1      26.719  18.227 -13.987  1.00  0.00     0.045 C 
HETATM    2  C6  UNL     1      25.313  17.576 -13.893  1.00  0.00     0.020 C 
HETATM    3  C7  UNL     1      25.406  17.044 -12.479  1.00  0.00    -0.031 C 
HETATM    4  C8  UNL     1      25.408  18.214 -11.561  1.00  0.00     0.016 C 
HETATM    5  C9  UNL     1      24.370  16.057 -12.091  1.00  0.00    -0.001 C 
HETATM    6  C10 UNL     1      23.167  16.000 -12.979  1.00  0.00     0.007 C 
HETATM    7  C11 UNL     1      22.082  15.301 -12.190  1.00  0.00     0.012 C 
HETATM    8  C12 UNL     1      22.471  13.971 -11.669  1.00  0.00    -0.011 C 
HETATM    9  C13 UNL     1      21.759  12.811 -12.376  1.00  0.00     0.018 C 
HETATM   10  C14 UNL     1      22.162  13.863 -10.180  1.00  0.00     0.147 C 
HETATM   11  C15 UNL     1      23.635  13.893  -9.862  1.00  0.00     0.123 C 
HETATM   12  C17 UNL     1      23.875  13.738 -11.350  1.00  0.00     0.023 C 
HETATM   13  C18 UNL     1      24.895  14.645 -11.950  1.00  0.00    -0.001 C 
HETATM   14  C19 UNL     1      26.132  14.548 -11.086  1.00  0.00     0.037 C 
HETATM   15  C20 UNL     1      27.089  15.727 -11.321  1.00  0.00     0.126 C 
HETATM   16  C21 UNL     1      26.711  16.320 -12.604  1.00  0.00     0.052 C 
HETATM   17  C22 UNL     1      27.628  17.324 -13.227  1.00  0.00     0.132 C 
ENDROOT
BRANCH   1  18
HETATM   18  C4  UNL     1      27.050  18.504 -15.413  1.00  0.00     0.128 C 
BRANCH  18  19
HETATM   19  C2  UNL     1      26.563  19.825 -15.896  1.00  0.00     0.006 C 
HETATM   20  C1  UNL     1      27.657  20.490 -16.785  1.00  0.00     0.012 C 
HETATM   21  C3  UNL     1      26.386  20.865 -14.777  1.00  0.00     0.012 C 
ENDBRANCH  18  19
BRANCH  18  22
HETATM   22  O1  UNL     1      28.321  18.158 -15.820  1.00  0.00    -0.395 OA
ATOM     23  H1  UNL     1      29.005  18.287 -15.173  1.00  0.00     0.210 HD
ENDBRANCH  18  22
ENDBRANCH   1  18
BRANCH  17  24
HETATM   24  O5  UNL     1      28.409  17.994 -12.291  1.00  0.00    -0.395 OA
ATOM     25  H5  UNL     1      28.895  17.409 -11.720  1.00  0.00     0.210 HD
ENDBRANCH  17  24
BRANCH  15  26
HETATM   26  O4  UNL     1      28.419  15.313 -11.252  1.00  0.00    -0.395 OA
ATOM     27  H4  UNL     1      28.869  15.733 -10.529  1.00  0.00     0.210 HD
ENDBRANCH  15  26
BRANCH  11  28
HETATM   28  N1  UNL     1      24.145  12.781  -9.078  1.00  0.00    -0.163 NA
HETATM   29  C16 UNL     1      23.966  12.594  -7.752  1.00  0.00     0.315 A 
HETATM   30  O3  UNL     1      25.232  12.991  -8.302  1.00  0.00    -0.284 OA
ENDBRANCH  11  28
BRANCH  10  31
HETATM   31  O2  UNL     1      21.444  14.950  -9.671  1.00  0.00    -0.393 OA
ATOM     32  H2  UNL     1      21.886  15.405  -8.964  1.00  0.00     0.210 HD
ENDBRANCH  10  31
TORSDOF 7
ENDMDL
