MODEL 1
REMARK VINA RESULT: -7.413666438      0.000      0.000
REMARK  6 active torsions:
REMARK  status: ('A' for Active; 'I' for Inactive)
REMARK    1  A    between atoms: C3_3  and  C4_4 
REMARK    2  A    between atoms: C6_7  and  C7_8 
REMARK    3  A    between atoms: C9_11  and  O3_12 
REMARK    4  A    between atoms: C10_14  and  C11_15 
REMARK    5  A    between atoms: C13_19  and  O6_20 
REMARK    6  A    between atoms: C14_22  and  O7_23 
ROOT
HETATM    1  C4  UNL     1      24.907  15.720 -14.599  1.00  0.00     0.090 C 
HETATM    2  C5  UNL     1      24.376  17.093 -14.800  1.00  0.00     0.149 C 
HETATM    3  O1  UNL     1      23.585  17.468 -15.610  1.00  0.00    -0.296 OA
HETATM    4  C6  UNL     1      25.013  18.004 -13.776  1.00  0.00     0.161 C 
HETATM    5  C9  UNL     1      25.654  16.995 -12.843  1.00  0.00     0.101 C 
HETATM    6  C10 UNL     1      26.424  17.605 -11.797  1.00  0.00     0.155 C 
HETATM    7  C12 UNL     1      27.836  17.203 -11.499  1.00  0.00    -0.020 A 
HETATM    8  C13 UNL     1      28.407  17.005 -10.362  1.00  0.00     0.077 A 
HETATM    9  C14 UNL     1      29.675  16.677 -10.892  1.00  0.00     0.186 A 
HETATM   10  C15 UNL     1      29.070  16.926 -12.207  1.00  0.00     0.076 A 
HETATM   11  C16 UNL     1      29.103  15.725 -13.066  1.00  0.00    -0.012 C 
HETATM   12  C17 UNL     1      28.254  14.863 -13.553  1.00  0.00    -0.086 C 
HETATM   13  C18 UNL     1      28.842  13.795 -14.399  1.00  0.00     0.043 C 
HETATM   14  C19 UNL     1      26.759  14.796 -13.390  1.00  0.00     0.046 C 
HETATM   15  C20 UNL     1      26.240  16.107 -13.888  1.00  0.00     0.007 C 
HETATM   16  C21 UNL     1      27.029  16.772 -14.953  1.00  0.00     0.020 C 
ENDROOT
BRANCH   1  17
HETATM   17  C3  UNL     1      25.139  15.000 -15.850  1.00  0.00    -0.018 C 
HETATM   18  C2  UNL     1      24.803  13.728 -15.938  1.00  0.00    -0.034 C 
HETATM   19  C1  UNL     1      25.009  12.924 -17.184  1.00  0.00     0.036 C 
ENDBRANCH   1  17
BRANCH   4  20
HETATM   20  C7  UNL     1      24.129  19.010 -13.272  1.00  0.00     0.137 C 
HETATM   21  C8  UNL     1      24.329  20.451 -13.502  1.00  0.00     0.091 C 
HETATM   22  O2  UNL     1      23.144  18.709 -12.615  1.00  0.00    -0.297 OA
ENDBRANCH   4  20
BRANCH   5  23
HETATM   23  O3  UNL     1      24.571  16.228 -12.312  1.00  0.00    -0.387 OA
ATOM     24  H3  UNL     1      24.569  16.408 -11.379  1.00  0.00     0.210 HD
ENDBRANCH   5  23
BRANCH   6  25
HETATM   25  C11 UNL     1      25.630  17.569 -10.536  1.00  0.00     0.184 C 
HETATM   26  O4  UNL     1      25.043  18.551 -10.050  1.00  0.00    -0.647 OA
HETATM   27  O5  UNL     1      25.545  16.363  -9.869  1.00  0.00    -0.647 OA
ENDBRANCH   6  25
BRANCH   8  28
HETATM   28  O6  UNL     1      28.002  17.069  -8.996  1.00  0.00    -0.362 OA
ATOM     29  H6  UNL     1      28.416  16.897  -8.157  1.00  0.00     0.217 HD
ENDBRANCH   8  28
BRANCH   9  30
HETATM   30  O7  UNL     1      30.755  17.530 -10.580  1.00  0.00    -0.388 OA
ATOM     31  H7  UNL     1      30.673  18.447 -10.813  1.00  0.00     0.210 HD
ENDBRANCH   9  30
TORSDOF 6
ENDMDL
MODEL 2
REMARK VINA RESULT: -7.014895557      2.561      5.789
REMARK  6 active torsions:
REMARK  status: ('A' for Active; 'I' for Inactive)
REMARK    1  A    between atoms: C3_3  and  C4_4 
REMARK    2  A    between atoms: C6_7  and  C7_8 
REMARK    3  A    between atoms: C9_11  and  O3_12 
REMARK    4  A    between atoms: C10_14  and  C11_15 
REMARK    5  A    between atoms: C13_19  and  O6_20 
REMARK    6  A    between atoms: C14_22  and  O7_23 
ROOT
HETATM    1  C4  UNL     1      25.759  15.103 -11.103  1.00  0.00     0.090 C 
HETATM    2  C5  UNL     1      27.136  15.349 -10.600  1.00  0.00     0.149 C 
HETATM    3  O1  UNL     1      27.661  14.891  -9.632  1.00  0.00    -0.296 OA
HETATM    4  C6  UNL     1      27.819  16.316 -11.539  1.00  0.00     0.161 C 
HETATM    5  C9  UNL     1      26.857  16.318 -12.711  1.00  0.00     0.101 C 
HETATM    6  C10 UNL     1      27.226  17.245 -13.741  1.00  0.00     0.155 C 
HETATM    7  C12 UNL     1      26.264  18.246 -14.305  1.00  0.00    -0.020 A 
HETATM    8  C13 UNL     1      26.066  18.590 -15.530  1.00  0.00     0.077 A 
HETATM    9  C14 UNL     1      25.056  19.538 -15.253  1.00  0.00     0.186 A 
HETATM   10  C15 UNL     1      25.275  19.198 -13.841  1.00  0.00     0.076 A 
HETATM   11  C16 UNL     1      24.056  18.655 -13.209  1.00  0.00    -0.012 C 
HETATM   12  C17 UNL     1      23.634  17.508 -12.754  1.00  0.00    -0.086 C 
HETATM   13  C18 UNL     1      22.259  17.510 -12.194  1.00  0.00     0.043 C 
HETATM   14  C19 UNL     1      24.339  16.179 -12.706  1.00  0.00     0.046 C 
HETATM   15  C20 UNL     1      25.593  16.417 -11.926  1.00  0.00     0.007 C 
HETATM   16  C21 UNL     1      25.539  17.478 -10.891  1.00  0.00     0.020 C 
ENDROOT
BRANCH   1  17
HETATM   17  C3  UNL     1      24.764  14.991 -10.038  1.00  0.00    -0.018 C 
HETATM   18  C2  UNL     1      24.278  13.805  -9.726  1.00  0.00    -0.034 C 
HETATM   19  C1  UNL     1      23.257  13.611  -8.648  1.00  0.00     0.036 C 
ENDBRANCH   1  17
BRANCH   4  20
HETATM   20  C7  UNL     1      29.210  16.042 -11.733  1.00  0.00     0.137 C 
HETATM   21  C8  UNL     1      30.284  16.913 -11.226  1.00  0.00     0.091 C 
HETATM   22  O2  UNL     1      29.576  15.048 -12.342  1.00  0.00    -0.297 OA
ENDBRANCH   4  20
BRANCH   5  23
HETATM   23  O3  UNL     1      26.851  14.975 -13.199  1.00  0.00    -0.387 OA
ATOM     24  H3  UNL     1      26.740  15.049 -14.140  1.00  0.00     0.210 HD
ENDBRANCH   5  23
BRANCH   6  25
HETATM   25  C11 UNL     1      27.857  16.490 -14.860  1.00  0.00     0.184 C 
HETATM   26  O4  UNL     1      27.296  15.582 -15.497  1.00  0.00    -0.647 OA
HETATM   27  O5  UNL     1      29.152  16.826 -15.206  1.00  0.00    -0.647 OA
ENDBRANCH   6  25
BRANCH   8  28
HETATM   28  O6  UNL     1      26.615  18.216 -16.793  1.00  0.00    -0.362 OA
ATOM     29  H6  UNL     1      26.556  18.546 -17.682  1.00  0.00     0.217 HD
ENDBRANCH   8  28
BRANCH   9  30
HETATM   30  O7  UNL     1      25.320  20.887 -15.572  1.00  0.00    -0.388 OA
ATOM     31  H7  UNL     1      24.689  21.538 -15.289  1.00  0.00     0.210 HD
ENDBRANCH   9  30
TORSDOF 6
ENDMDL
MODEL 3
REMARK VINA RESULT: -6.675784990      2.298      4.723
REMARK  6 active torsions:
REMARK  status: ('A' for Active; 'I' for Inactive)
REMARK    1  A    between atoms: C3_3  and  C4_4 
REMARK    2  A    between atoms: C6_7  and  C7_8 
REMARK    3  A    between atoms: C9_11  and  O3_12 
REMARK    4  A    between atoms: C10_14  and  C11_15 
REMARK    5  A    between atoms: C13_19  and  O6_20 
REMARK    6  A    between atoms: C14_22  and  O7_23 
ROOT
HETATM    1  C4  UNL     1      25.544  18.545 -14.161  1.00  0.00     0.090 C 
HETATM    2  C5  UNL     1      26.281  17.847 -15.247  1.00  0.00     0.149 C 
HETATM    3  O1  UNL     1      26.359  18.147 -16.398  1.00  0.00    -0.296 OA
HETATM    4  C6  UNL     1      26.958  16.631 -14.657  1.00  0.00     0.161 C 
HETATM    5  C9  UNL     1      26.801  16.898 -13.173  1.00  0.00     0.101 C 
HETATM    6  C10 UNL     1      27.291  15.828 -12.353  1.00  0.00     0.155 C 
HETATM    7  C12 UNL     1      26.473  15.213 -11.258  1.00  0.00    -0.020 A 
HETATM    8  C13 UNL     1      26.824  14.878 -10.065  1.00  0.00     0.077 A 
HETATM    9  C14 UNL     1      25.556  14.391  -9.674  1.00  0.00     0.186 A 
HETATM   10  C15 UNL     1      25.126  14.728 -11.037  1.00  0.00     0.076 A 
HETATM   11  C16 UNL     1      24.037  15.726 -11.040  1.00  0.00    -0.012 C 
HETATM   12  C17 UNL     1      23.877  16.977 -11.370  1.00  0.00    -0.086 C 
HETATM   13  C18 UNL     1      22.511  17.522 -11.164  1.00  0.00     0.043 C 
HETATM   14  C19 UNL     1      24.872  17.953 -11.938  1.00  0.00     0.046 C 
HETATM   15  C20 UNL     1      25.373  17.328 -13.201  1.00  0.00     0.007 C 
HETATM   16  C21 UNL     1      24.430  16.439 -13.921  1.00  0.00     0.020 C 
ENDROOT
BRANCH   1  17
HETATM   17  C3  UNL     1      24.259  19.092 -14.591  1.00  0.00    -0.018 C 
HETATM   18  C2  UNL     1      23.636  19.966 -13.825  1.00  0.00    -0.034 C 
HETATM   19  C1  UNL     1      22.318  20.570 -14.197  1.00  0.00     0.036 C 
ENDBRANCH   1  17
BRANCH   4  20
HETATM   20  C7  UNL     1      28.244  16.358 -15.221  1.00  0.00     0.137 C 
HETATM   21  C8  UNL     1      28.569  15.107 -15.927  1.00  0.00     0.091 C 
HETATM   22  O2  UNL     1      29.150  17.173 -15.141  1.00  0.00    -0.297 OA
ENDBRANCH   4  20
BRANCH   5  23
HETATM   23  O3  UNL     1      27.517  18.110 -12.928  1.00  0.00    -0.387 OA
ATOM     24  H3  UNL     1      28.140  17.901 -12.241  1.00  0.00     0.210 HD
ENDBRANCH   5  23
BRANCH   6  25
HETATM   25  C11 UNL     1      28.624  16.214 -11.809  1.00  0.00     0.184 C 
HETATM   26  O4  UNL     1      28.835  17.237 -11.134  1.00  0.00    -0.647 OA
HETATM   27  O5  UNL     1      29.689  15.378 -12.076  1.00  0.00    -0.647 OA
ENDBRANCH   6  25
BRANCH   8  28
HETATM   28  O6  UNL     1      28.030  14.932  -9.307  1.00  0.00    -0.362 OA
ATOM     29  H6  UNL     1      28.866  14.480  -9.330  1.00  0.00     0.217 HD
ENDBRANCH   8  28
BRANCH   9  30
HETATM   30  O7  UNL     1      25.453  13.020  -9.355  1.00  0.00    -0.388 OA
ATOM     31  H7  UNL     1      25.241  12.792  -8.458  1.00  0.00     0.210 HD
ENDBRANCH   9  30
TORSDOF 6
ENDMDL
MODEL 4
REMARK VINA RESULT: -6.574915261      1.089      1.111
REMARK  6 active torsions:
REMARK  status: ('A' for Active; 'I' for Inactive)
REMARK    1  A    between atoms: C3_3  and  C4_4 
REMARK    2  A    between atoms: C6_7  and  C7_8 
REMARK    3  A    between atoms: C9_11  and  O3_12 
REMARK    4  A    between atoms: C10_14  and  C11_15 
REMARK    5  A    between atoms: C13_19  and  O6_20 
REMARK    6  A    between atoms: C14_22  and  O7_23 
ROOT
HETATM    1  C4  UNL     1      25.477  16.297 -15.327  1.00  0.00     0.090 C 
HETATM    2  C5  UNL     1      25.246  17.744 -15.580  1.00  0.00     0.149 C 
HETATM    3  O1  UNL     1      24.681  18.251 -16.500  1.00  0.00    -0.296 OA
HETATM    4  C6  UNL     1      25.861  18.529 -14.445  1.00  0.00     0.161 C 
HETATM    5  C9  UNL     1      26.144  17.426 -13.444  1.00  0.00     0.101 C 
HETATM    6  C10 UNL     1      26.829  17.891 -12.273  1.00  0.00     0.155 C 
HETATM    7  C12 UNL     1      28.076  17.239 -11.757  1.00  0.00    -0.020 A 
HETATM    8  C13 UNL     1      28.406  16.948 -10.547  1.00  0.00     0.077 A 
HETATM    9  C14 UNL     1      29.662  16.388 -10.871  1.00  0.00     0.186 A 
HETATM   10  C15 UNL     1      29.338  16.734 -12.261  1.00  0.00     0.076 A 
HETATM   11  C16 UNL     1      29.292  15.542 -13.130  1.00  0.00    -0.012 C 
HETATM   12  C17 UNL     1      28.392  14.848 -13.769  1.00  0.00    -0.086 C 
HETATM   13  C18 UNL     1      28.907  13.683 -14.532  1.00  0.00     0.043 C 
HETATM   14  C19 UNL     1      26.904  15.057 -13.854  1.00  0.00     0.046 C 
HETATM   15  C20 UNL     1      26.723  16.438 -14.400  1.00  0.00     0.007 C 
HETATM   16  C21 UNL     1      27.784  16.939 -15.306  1.00  0.00     0.020 C 
ENDROOT
BRANCH   1  17
HETATM   17  C3  UNL     1      25.776  15.538 -16.540  1.00  0.00    -0.018 C 
HETATM   18  C2  UNL     1      24.933  14.610 -16.949  1.00  0.00    -0.034 C 
HETATM   19  C1  UNL     1      25.170  13.791 -18.180  1.00  0.00     0.036 C 
ENDBRANCH   1  17
BRANCH   4  20
HETATM   20  C7  UNL     1      25.105  19.684 -14.069  1.00  0.00     0.137 C 
HETATM   21  C8  UNL     1      23.661  19.648 -13.784  1.00  0.00     0.091 C 
HETATM   22  O2  UNL     1      25.639  20.778 -13.965  1.00  0.00    -0.297 OA
ENDBRANCH   4  20
BRANCH   5  23
HETATM   23  O3  UNL     1      24.867  16.876 -13.115  1.00  0.00    -0.387 OA
ATOM     24  H3  UNL     1      24.815  16.910 -12.166  1.00  0.00     0.210 HD
ENDBRANCH   5  23
BRANCH   6  25
HETATM   25  C11 UNL     1      25.846  18.012 -11.159  1.00  0.00     0.184 C 
HETATM   26  O4  UNL     1      25.384  19.089 -10.746  1.00  0.00    -0.647 OA
HETATM   27  O5  UNL     1      25.425  16.846 -10.550  1.00  0.00    -0.647 OA
ENDBRANCH   6  25
BRANCH   8  28
HETATM   28  O6  UNL     1      27.800  17.095  -9.264  1.00  0.00    -0.362 OA
ATOM     29  H6  UNL     1      27.719  17.797  -8.629  1.00  0.00     0.217 HD
ENDBRANCH   8  28
BRANCH   9  30
HETATM   30  O7  UNL     1      30.814  17.030 -10.367  1.00  0.00    -0.388 OA
ATOM     31  H7  UNL     1      31.580  16.494 -10.201  1.00  0.00     0.210 HD
ENDBRANCH   9  30
TORSDOF 6
ENDMDL
MODEL 5
REMARK VINA RESULT: -6.512454655      2.501      4.977
REMARK  6 active torsions:
REMARK  status: ('A' for Active; 'I' for Inactive)
REMARK    1  A    between atoms: C3_3  and  C4_4 
REMARK    2  A    between atoms: C6_7  and  C7_8 
REMARK    3  A    between atoms: C9_11  and  O3_12 
REMARK    4  A    between atoms: C10_14  and  C11_15 
REMARK    5  A    between atoms: C13_19  and  O6_20 
REMARK    6  A    between atoms: C14_22  and  O7_23 
ROOT
HETATM    1  C4  UNL     1      26.932  17.936 -16.093  1.00  0.00     0.090 C 
HETATM    2  C5  UNL     1      27.299  16.623 -16.686  1.00  0.00     0.149 C 
HETATM    3  O1  UNL     1      27.481  16.356 -17.834  1.00  0.00    -0.296 OA
HETATM    4  C6  UNL     1      27.417  15.613 -15.568  1.00  0.00     0.161 C 
HETATM    5  C9  UNL     1      27.403  16.517 -14.351  1.00  0.00     0.101 C 
HETATM    6  C10 UNL     1      27.414  15.794 -13.112  1.00  0.00     0.155 C 
HETATM    7  C12 UNL     1      26.429  16.061 -12.016  1.00  0.00    -0.020 A 
HETATM    8  C13 UNL     1      26.623  16.154 -10.747  1.00  0.00     0.077 A 
HETATM    9  C14 UNL     1      25.273  16.401 -10.411  1.00  0.00     0.186 A 
HETATM   10  C15 UNL     1      25.004  16.269 -11.850  1.00  0.00     0.076 A 
HETATM   11  C16 UNL     1      24.429  17.504 -12.419  1.00  0.00    -0.012 C 
HETATM   12  C17 UNL     1      24.798  18.457 -13.229  1.00  0.00    -0.086 C 
HETATM   13  C18 UNL     1      23.785  19.512 -13.478  1.00  0.00     0.043 C 
HETATM   14  C19 UNL     1      26.102  18.641 -13.958  1.00  0.00     0.046 C 
HETATM   15  C20 UNL     1      26.283  17.404 -14.779  1.00  0.00     0.007 C 
HETATM   16  C21 UNL     1      25.047  16.729 -15.243  1.00  0.00     0.020 C 
ENDROOT
BRANCH   1  17
HETATM   17  C3  UNL     1      25.985  18.695 -16.907  1.00  0.00    -0.018 C 
HETATM   18  C2  UNL     1      26.285  19.926 -17.274  1.00  0.00    -0.034 C 
HETATM   19  C1  UNL     1      25.367  20.766 -18.107  1.00  0.00     0.036 C 
ENDBRANCH   1  17
BRANCH   4  20
HETATM   20  C7  UNL     1      28.466  14.660 -15.763  1.00  0.00     0.137 C 
HETATM   21  C8  UNL     1      28.240  13.206 -15.817  1.00  0.00     0.091 C 
HETATM   22  O2  UNL     1      29.626  15.022 -15.896  1.00  0.00    -0.297 OA
ENDBRANCH   4  20
BRANCH   5  23
HETATM   23  O3  UNL     1      28.561  17.344 -14.481  1.00  0.00    -0.387 OA
ATOM     24  H3  UNL     1      28.249  18.156 -14.865  1.00  0.00     0.210 HD
ENDBRANCH   5  23
BRANCH   6  25
HETATM   25  C11 UNL     1      28.794  15.833 -12.549  1.00  0.00     0.184 C 
HETATM   26  O4  UNL     1      29.575  14.867 -12.541  1.00  0.00    -0.647 OA
HETATM   27  O5  UNL     1      29.225  17.025 -11.999  1.00  0.00    -0.647 OA
ENDBRANCH   6  25
BRANCH   8  28
HETATM   28  O6  UNL     1      27.752  16.057  -9.880  1.00  0.00    -0.362 OA
ATOM     29  H6  UNL     1      28.603  16.477  -9.826  1.00  0.00     0.217 HD
ENDBRANCH   8  28
BRANCH   9  30
HETATM   30  O7  UNL     1      24.613  15.446  -9.608  1.00  0.00    -0.388 OA
ATOM     31  H7  UNL     1      23.825  15.722  -9.155  1.00  0.00     0.210 HD
ENDBRANCH   9  30
TORSDOF 6
ENDMDL
