MODEL 1
REMARK VINA RESULT: -7.552671222      0.000      0.000
REMARK  7 active torsions:
REMARK  status: ('A' for Active; 'I' for Inactive)
REMARK    1  A    between atoms: C3_5  and  N2_6 
REMARK    2  A    between atoms: N2_6  and  C4_8 
REMARK    3  A    between atoms: C4_8  and  C5_9 
REMARK    4  A    between atoms: C5_9  and  N3_10 
REMARK    5  A    between atoms: C8_14  and  C9_15 
REMARK    6  A    between atoms: C10_16  and  C11_17 
REMARK    7  A    between atoms: C12_18  and  O1_19 
ROOT
HETATM    1  C1  UNL     1     -25.821 -14.708  -0.440  1.00  0.00     0.070 C 
HETATM    2  C2  UNL     1     -25.174 -14.414  -1.782  1.00  0.00     0.033 A 
HETATM    3  N1  UNL     1     -24.137 -13.633  -1.888  1.00  0.00    -0.339 N 
ATOM      4  H1  UNL     1     -23.732 -13.192  -1.063  1.00  0.00     0.168 HD
HETATM    5  C3  UNL     1     -23.617 -13.420  -3.095  1.00  0.00     0.146 A 
HETATM    6  S1  UNL     1     -24.628 -14.355  -4.114  1.00  0.00    -0.043 SA
HETATM    7  C8  UNL     1     -25.675 -14.978  -2.923  1.00  0.00     0.084 A 
ENDROOT
BRANCH   7   8
HETATM    8  C9  UNL     1     -26.815 -15.877  -3.055  1.00  0.00    -0.051 C 
HETATM    9  C10 UNL     1     -27.752 -16.624  -3.186  1.00  0.00    -0.051 C 
BRANCH   9  10
HETATM   10  C11 UNL     1     -28.862 -17.531  -3.364  1.00  0.00     0.137 A 
HETATM   11  C12 UNL     1     -29.564 -18.057  -2.295  1.00  0.00     0.168 A 
HETATM   12  N4  UNL     1     -30.610 -18.909  -2.460  1.00  0.00    -0.288 N 
HETATM   13  C13 UNL     1     -30.992 -19.267  -3.720  1.00  0.00     0.329 A 
ATOM     14  H4  UNL     1     -31.106 -19.278  -1.649  1.00  0.00     0.172 HD
HETATM   15  O2  UNL     1     -31.962 -20.056  -3.811  1.00  0.00    -0.247 OA
HETATM   16  N5  UNL     1     -30.324 -18.767  -4.778  1.00  0.00    -0.274 N 
HETATM   17  C14 UNL     1     -29.277 -17.915  -4.626  1.00  0.00     0.272 A 
ATOM     18  H5  UNL     1     -30.613 -19.036  -5.719  1.00  0.00     0.173 HD
HETATM   19  O3  UNL     1     -28.638 -17.436  -5.587  1.00  0.00    -0.266 OA
BRANCH  11  20
HETATM   20  O1  UNL     1     -29.213 -17.724  -1.002  1.00  0.00    -0.345 OA
ATOM     21  H1  UNL     1     -29.595 -18.191  -0.268  1.00  0.00     0.219 HD
ENDBRANCH  11  20
ENDBRANCH   9  10
ENDBRANCH   7   8
BRANCH   5  22
HETATM   22  N2  UNL     1     -22.586 -12.686  -3.445  1.00  0.00    -0.366 N 
ATOM     23  H2  UNL     1     -21.641 -13.069  -3.454  1.00  0.00     0.162 HD
BRANCH  22  24
HETATM   24  C4  UNL     1     -22.845 -11.319  -3.814  1.00  0.00     0.166 C 
BRANCH  24  25
HETATM   25  C5  UNL     1     -22.806 -11.127  -5.318  1.00  0.00     0.076 C 
BRANCH  25  26
HETATM   26  N3  UNL     1     -21.540 -10.884  -5.870  1.00  0.00    -0.400 N 
HETATM   27  C6  UNL     1     -20.931 -11.861  -6.680  1.00  0.00     0.148 C 
HETATM   28  C7  UNL     1     -21.012  -9.583  -5.886  1.00  0.00     0.148 C 
ENDBRANCH  25  26
ENDBRANCH  24  25
ENDBRANCH  22  24
ENDBRANCH   5  22
TORSDOF 7
ENDMDL
MODEL 2
REMARK VINA RESULT: -7.505557557      1.069      1.318
REMARK  7 active torsions:
REMARK  status: ('A' for Active; 'I' for Inactive)
REMARK    1  A    between atoms: C3_5  and  N2_6 
REMARK    2  A    between atoms: N2_6  and  C4_8 
REMARK    3  A    between atoms: C4_8  and  C5_9 
REMARK    4  A    between atoms: C5_9  and  N3_10 
REMARK    5  A    between atoms: C8_14  and  C9_15 
REMARK    6  A    between atoms: C10_16  and  C11_17 
REMARK    7  A    between atoms: C12_18  and  O1_19 
ROOT
HETATM    1  C1  UNL     1     -27.725 -12.501  -2.358  1.00  0.00     0.070 C 
HETATM    2  C2  UNL     1     -26.396 -12.967  -2.924  1.00  0.00     0.033 A 
HETATM    3  N1  UNL     1     -25.363 -12.177  -2.994  1.00  0.00    -0.339 N 
ATOM      4  H1  UNL     1     -25.424 -11.212  -2.668  1.00  0.00     0.168 HD
HETATM    5  C3  UNL     1     -24.226 -12.651  -3.499  1.00  0.00     0.146 A 
HETATM    6  S1  UNL     1     -24.631 -14.269  -3.889  1.00  0.00    -0.043 SA
HETATM    7  C8  UNL     1     -26.256 -14.251  -3.377  1.00  0.00     0.084 A 
ENDROOT
BRANCH   7   8
HETATM    8  C9  UNL     1     -27.258 -15.309  -3.401  1.00  0.00    -0.051 C 
HETATM    9  C10 UNL     1     -28.090 -16.181  -3.444  1.00  0.00    -0.051 C 
BRANCH   9  10
HETATM   10  C11 UNL     1     -29.083 -17.227  -3.521  1.00  0.00     0.137 A 
HETATM   11  C12 UNL     1     -29.565 -17.872  -2.398  1.00  0.00     0.168 A 
HETATM   12  N4  UNL     1     -30.501 -18.855  -2.468  1.00  0.00    -0.288 N 
HETATM   13  C13 UNL     1     -30.990 -19.230  -3.685  1.00  0.00     0.329 A 
ATOM     14  H4  UNL     1     -30.835 -19.309  -1.618  1.00  0.00     0.172 HD
HETATM   15  O2  UNL     1     -31.850 -20.143  -3.689  1.00  0.00    -0.247 OA
HETATM   16  N5  UNL     1     -30.536 -18.617  -4.795  1.00  0.00    -0.274 N 
HETATM   17  C14 UNL     1     -29.600 -17.633  -4.738  1.00  0.00     0.272 A 
ATOM     18  H5  UNL     1     -30.904 -18.899  -5.703  1.00  0.00     0.173 HD
HETATM   19  O3  UNL     1     -29.160 -17.047  -5.749  1.00  0.00    -0.266 OA
BRANCH  11  20
HETATM   20  O1  UNL     1     -29.100 -17.526  -1.145  1.00  0.00    -0.345 OA
ATOM     21  H1  UNL     1     -29.108 -18.162  -0.439  1.00  0.00     0.219 HD
ENDBRANCH  11  20
ENDBRANCH   9  10
ENDBRANCH   7   8
BRANCH   5  22
HETATM   22  N2  UNL     1     -23.070 -12.053  -3.664  1.00  0.00    -0.366 N 
ATOM     23  H2  UNL     1     -22.209 -12.448  -3.285  1.00  0.00     0.162 HD
BRANCH  22  24
HETATM   24  C4  UNL     1     -23.067 -10.815  -4.400  1.00  0.00     0.166 C 
BRANCH  24  25
HETATM   25  C5  UNL     1     -22.780 -11.039  -5.872  1.00  0.00     0.076 C 
BRANCH  25  26
HETATM   26  N3  UNL     1     -21.433 -10.957  -6.252  1.00  0.00    -0.400 N 
HETATM   27  C6  UNL     1     -20.683  -9.811  -5.923  1.00  0.00     0.148 C 
HETATM   28  C7  UNL     1     -20.743 -12.105  -6.673  1.00  0.00     0.148 C 
ENDBRANCH  25  26
ENDBRANCH  24  25
ENDBRANCH  22  24
ENDBRANCH   5  22
TORSDOF 7
ENDMDL
MODEL 3
REMARK VINA RESULT: -7.497195133      0.871      1.948
REMARK  7 active torsions:
REMARK  status: ('A' for Active; 'I' for Inactive)
REMARK    1  A    between atoms: C3_5  and  N2_6 
REMARK    2  A    between atoms: N2_6  and  C4_8 
REMARK    3  A    between atoms: C4_8  and  C5_9 
REMARK    4  A    between atoms: C5_9  and  N3_10 
REMARK    5  A    between atoms: C8_14  and  C9_15 
REMARK    6  A    between atoms: C10_16  and  C11_17 
REMARK    7  A    between atoms: C12_18  and  O1_19 
ROOT
HETATM    1  C1  UNL     1     -25.673 -14.296  -1.034  1.00  0.00     0.070 C 
HETATM    2  C2  UNL     1     -24.953 -14.224  -2.369  1.00  0.00     0.033 A 
HETATM    3  N1  UNL     1     -23.871 -13.518  -2.529  1.00  0.00    -0.339 N 
ATOM      4  H1  UNL     1     -23.477 -12.987  -1.752  1.00  0.00     0.168 HD
HETATM    5  C3  UNL     1     -23.289 -13.501  -3.726  1.00  0.00     0.146 A 
HETATM    6  S1  UNL     1     -24.306 -14.517  -4.657  1.00  0.00    -0.043 SA
HETATM    7  C8  UNL     1     -25.437 -14.915  -3.446  1.00  0.00     0.084 A 
ENDROOT
BRANCH   7   8
HETATM    8  C9  UNL     1     -26.619 -15.766  -3.511  1.00  0.00    -0.051 C 
HETATM    9  C10 UNL     1     -27.584 -16.486  -3.576  1.00  0.00    -0.051 C 
BRANCH   9  10
HETATM   10  C11 UNL     1     -28.724 -17.369  -3.658  1.00  0.00     0.137 A 
HETATM   11  C12 UNL     1     -29.537 -17.424  -4.775  1.00  0.00     0.168 A 
HETATM   12  N4  UNL     1     -30.610 -18.255  -4.854  1.00  0.00    -0.288 N 
HETATM   13  C13 UNL     1     -30.907 -19.069  -3.800  1.00  0.00     0.329 A 
ATOM     14  H4  UNL     1     -31.188 -18.270  -5.694  1.00  0.00     0.172 HD
HETATM   15  O2  UNL     1     -31.908 -19.813  -3.930  1.00  0.00    -0.247 OA
HETATM   16  N5  UNL     1     -30.130 -19.034  -2.701  1.00  0.00    -0.274 N 
HETATM   17  C14 UNL     1     -29.055 -18.207  -2.609  1.00  0.00     0.272 A 
ATOM     18  H5  UNL     1     -30.354 -19.645  -1.915  1.00  0.00     0.173 HD
HETATM   19  O3  UNL     1     -28.317 -18.153  -1.603  1.00  0.00    -0.266 OA
BRANCH  11  20
HETATM   20  O1  UNL     1     -29.275 -16.618  -5.865  1.00  0.00    -0.345 OA
ATOM     21  H1  UNL     1     -29.577 -16.871  -6.729  1.00  0.00     0.219 HD
ENDBRANCH  11  20
ENDBRANCH   9  10
ENDBRANCH   7   8
BRANCH   5  22
HETATM   22  N2  UNL     1     -22.205 -12.874  -4.121  1.00  0.00    -0.366 N 
ATOM     23  H2  UNL     1     -21.720 -12.218  -3.509  1.00  0.00     0.162 HD
BRANCH  22  24
HETATM   24  C4  UNL     1     -21.730 -13.152  -5.452  1.00  0.00     0.166 C 
BRANCH  24  25
HETATM   25  C5  UNL     1     -22.010 -12.002  -6.399  1.00  0.00     0.076 C 
BRANCH  25  26
HETATM   26  N3  UNL     1     -21.112 -10.927  -6.336  1.00  0.00    -0.400 N 
HETATM   27  C6  UNL     1     -21.532  -9.695  -5.798  1.00  0.00     0.148 C 
HETATM   28  C7  UNL     1     -19.735 -11.142  -6.511  1.00  0.00     0.148 C 
ENDBRANCH  25  26
ENDBRANCH  24  25
ENDBRANCH  22  24
ENDBRANCH   5  22
TORSDOF 7
ENDMDL
MODEL 4
REMARK VINA RESULT: -7.446309969      1.081      2.124
REMARK  7 active torsions:
REMARK  status: ('A' for Active; 'I' for Inactive)
REMARK    1  A    between atoms: C3_5  and  N2_6 
REMARK    2  A    between atoms: N2_6  and  C4_8 
REMARK    3  A    between atoms: C4_8  and  C5_9 
REMARK    4  A    between atoms: C5_9  and  N3_10 
REMARK    5  A    between atoms: C8_14  and  C9_15 
REMARK    6  A    between atoms: C10_16  and  C11_17 
REMARK    7  A    between atoms: C12_18  and  O1_19 
ROOT
HETATM    1  C1  UNL     1     -27.578 -12.517  -2.747  1.00  0.00     0.070 C 
HETATM    2  C2  UNL     1     -26.229 -13.042  -3.208  1.00  0.00     0.033 A 
HETATM    3  N1  UNL     1     -25.180 -12.274  -3.276  1.00  0.00    -0.339 N 
ATOM      4  H1  UNL     1     -25.240 -11.288  -3.021  1.00  0.00     0.168 HD
HETATM    5  C3  UNL     1     -24.027 -12.799  -3.685  1.00  0.00     0.146 A 
HETATM    6  S1  UNL     1     -24.441 -14.434  -3.984  1.00  0.00    -0.043 SA
HETATM    7  C8  UNL     1     -26.090 -14.356  -3.562  1.00  0.00     0.084 A 
ENDROOT
BRANCH   7   8
HETATM    8  C9  UNL     1     -27.109 -15.399  -3.568  1.00  0.00    -0.051 C 
HETATM    9  C10 UNL     1     -27.963 -16.249  -3.588  1.00  0.00    -0.051 C 
BRANCH   9  10
HETATM   10  C11 UNL     1     -28.995 -17.258  -3.635  1.00  0.00     0.137 A 
HETATM   11  C12 UNL     1     -29.730 -17.511  -4.778  1.00  0.00     0.168 A 
HETATM   12  N4  UNL     1     -30.701 -18.462  -4.824  1.00  0.00    -0.288 N 
HETATM   13  C13 UNL     1     -30.970 -19.201  -3.710  1.00  0.00     0.329 A 
ATOM     14  H4  UNL     1     -31.223 -18.622  -5.685  1.00  0.00     0.172 HD
HETATM   15  O2  UNL     1     -31.875 -20.062  -3.811  1.00  0.00    -0.247 OA
HETATM   16  N5  UNL     1     -30.267 -18.974  -2.583  1.00  0.00    -0.274 N 
HETATM   17  C14 UNL     1     -29.295 -18.026  -2.524  1.00  0.00     0.272 A 
ATOM     18  H5  UNL     1     -30.470 -19.529  -1.752  1.00  0.00     0.173 HD
HETATM   19  O3  UNL     1     -28.627 -17.793  -1.494  1.00  0.00    -0.266 OA
BRANCH  11  20
HETATM   20  O1  UNL     1     -29.493 -16.788  -5.930  1.00  0.00    -0.345 OA
ATOM     21  H1  UNL     1     -28.638 -16.404  -6.086  1.00  0.00     0.219 HD
ENDBRANCH  11  20
ENDBRANCH   9  10
ENDBRANCH   7   8
BRANCH   5  22
HETATM   22  N2  UNL     1     -22.853 -12.231  -3.829  1.00  0.00    -0.366 N 
ATOM     23  H2  UNL     1     -21.996 -12.703  -3.538  1.00  0.00     0.162 HD
BRANCH  22  24
HETATM   24  C4  UNL     1     -22.824 -10.915  -4.412  1.00  0.00     0.166 C 
BRANCH  24  25
HETATM   25  C5  UNL     1     -22.514 -10.966  -5.896  1.00  0.00     0.076 C 
BRANCH  25  26
HETATM   26  N3  UNL     1     -21.158 -10.869  -6.241  1.00  0.00    -0.400 N 
HETATM   27  C6  UNL     1     -20.426  -9.721  -5.884  1.00  0.00     0.148 C 
HETATM   28  C7  UNL     1     -20.449 -12.009  -6.655  1.00  0.00     0.148 C 
ENDBRANCH  25  26
ENDBRANCH  24  25
ENDBRANCH  22  24
ENDBRANCH   5  22
TORSDOF 7
ENDMDL
MODEL 5
REMARK VINA RESULT: -7.328207030      1.386      2.092
REMARK  7 active torsions:
REMARK  status: ('A' for Active; 'I' for Inactive)
REMARK    1  A    between atoms: C3_5  and  N2_6 
REMARK    2  A    between atoms: N2_6  and  C4_8 
REMARK    3  A    between atoms: C4_8  and  C5_9 
REMARK    4  A    between atoms: C5_9  and  N3_10 
REMARK    5  A    between atoms: C8_14  and  C9_15 
REMARK    6  A    between atoms: C10_16  and  C11_17 
REMARK    7  A    between atoms: C12_18  and  O1_19 
ROOT
HETATM    1  C1  UNL     1     -25.522 -15.115  -0.341  1.00  0.00     0.070 C 
HETATM    2  C2  UNL     1     -25.077 -14.540  -1.674  1.00  0.00     0.033 A 
HETATM    3  N1  UNL     1     -24.089 -13.697  -1.762  1.00  0.00    -0.339 N 
ATOM      4  H1  UNL     1     -23.585 -13.397  -0.928  1.00  0.00     0.168 HD
HETATM    5  C3  UNL     1     -23.748 -13.234  -2.963  1.00  0.00     0.146 A 
HETATM    6  S1  UNL     1     -24.863 -14.016  -4.002  1.00  0.00    -0.043 SA
HETATM    7  C8  UNL     1     -25.716 -14.908  -2.826  1.00  0.00     0.084 A 
ENDROOT
BRANCH   7   8
HETATM    8  C9  UNL     1     -26.836 -15.827  -2.979  1.00  0.00    -0.051 C 
HETATM    9  C10 UNL     1     -27.759 -16.589  -3.128  1.00  0.00    -0.051 C 
BRANCH   9  10
HETATM   10  C11 UNL     1     -28.855 -17.507  -3.329  1.00  0.00     0.137 A 
HETATM   11  C12 UNL     1     -29.566 -18.052  -2.276  1.00  0.00     0.168 A 
HETATM   12  N4  UNL     1     -30.599 -18.915  -2.463  1.00  0.00    -0.288 N 
HETATM   13  C13 UNL     1     -30.958 -19.267  -3.732  1.00  0.00     0.329 A 
ATOM     14  H4  UNL     1     -31.102 -19.297  -1.663  1.00  0.00     0.172 HD
HETATM   15  O2  UNL     1     -31.917 -20.067  -3.844  1.00  0.00    -0.247 OA
HETATM   16  N5  UNL     1     -30.281 -18.750  -4.775  1.00  0.00    -0.274 N 
HETATM   17  C14 UNL     1     -29.246 -17.886  -4.600  1.00  0.00     0.272 A 
ATOM     18  H5  UNL     1     -30.552 -19.014  -5.722  1.00  0.00     0.173 HD
HETATM   19  O3  UNL     1     -28.600 -17.391  -5.548  1.00  0.00    -0.266 OA
BRANCH  11  20
HETATM   20  O1  UNL     1     -29.239 -17.725  -0.975  1.00  0.00    -0.345 OA
ATOM     21  H1  UNL     1     -29.919 -17.646  -0.316  1.00  0.00     0.219 HD
ENDBRANCH  11  20
ENDBRANCH   9  10
ENDBRANCH   7   8
BRANCH   5  22
HETATM   22  N2  UNL     1     -22.798 -12.392  -3.296  1.00  0.00    -0.366 N 
ATOM     23  H2  UNL     1     -21.819 -12.588  -3.089  1.00  0.00     0.162 HD
BRANCH  22  24
HETATM   24  C4  UNL     1     -23.195 -11.180  -3.966  1.00  0.00     0.166 C 
BRANCH  24  25
HETATM   25  C5  UNL     1     -23.631 -10.112  -2.982  1.00  0.00     0.076 C 
BRANCH  25  26
HETATM   26  N3  UNL     1     -24.930  -9.614  -3.156  1.00  0.00    -0.400 N 
HETATM   27  C6  UNL     1     -25.141  -8.475  -3.955  1.00  0.00     0.148 C 
HETATM   28  C7  UNL     1     -26.042 -10.398  -2.807  1.00  0.00     0.148 C 
ENDBRANCH  25  26
ENDBRANCH  24  25
ENDBRANCH  22  24
ENDBRANCH   5  22
TORSDOF 7
ENDMDL
