MODEL 1
REMARK VINA RESULT: -6.516937534      0.000      0.000
REMARK  7 active torsions:
REMARK  status: ('A' for Active; 'I' for Inactive)
REMARK    1  A    between atoms: C3_3  and  O1_4 
REMARK    2  A    between atoms: C8_12  and  C9_13 
REMARK    3  A    between atoms: C9_13  and  N1_14 
REMARK       I    between atoms: N1_14  and  C10_16 
REMARK    4  A    between atoms: C10_16  and  C11_18 
REMARK    5  A    between atoms: C11_18  and  O5_20 
REMARK    6  A    between atoms: C11_18  and  C13_22 
REMARK    7  A    between atoms: C16_25  and  O6_26 
ROOT
HETATM    1  C1  UNL     1     -31.768 -19.480  -3.727  1.00  0.00     0.015 C 
HETATM    2  C2  UNL     1     -30.744 -18.855  -3.609  1.00  0.00    -0.077 C 
HETATM    3  C3  UNL     1     -29.485 -18.088  -3.490  1.00  0.00     0.141 C 
HETATM    4  C4  UNL     1     -29.364 -17.231  -4.702  1.00  0.00     0.219 C 
HETATM    5  O2  UNL     1     -28.416 -16.223  -4.593  1.00  0.00    -0.379 OA
HETATM    6  C5  UNL     1     -28.654 -15.422  -3.460  1.00  0.00     0.159 C 
HETATM    7  C6  UNL     1     -28.401 -16.291  -2.265  1.00  0.00     0.045 C 
HETATM    8  C7  UNL     1     -28.334 -15.401  -1.048  1.00  0.00     0.175 C 
HETATM    9  O3  UNL     1     -27.228 -14.570  -1.221  1.00  0.00    -0.381 OA
HETATM   10  C8  UNL     1     -27.511 -13.613  -2.142  1.00  0.00     0.170 C 
HETATM   11  C16 UNL     1     -27.871 -14.170  -3.505  1.00  0.00     0.178 C 
HETATM   12  C17 UNL     1     -29.525 -17.293  -2.196  1.00  0.00     0.063 C 
ENDROOT
BRANCH   3  13
HETATM   13  O1  UNL     1     -28.449 -19.017  -3.375  1.00  0.00    -0.375 OA
ATOM     14  H1  UNL     1     -28.462 -19.341  -2.482  1.00  0.00     0.211 HD
ENDBRANCH   3  13
BRANCH  11  15
HETATM   15  O6  UNL     1     -28.627 -13.176  -4.149  1.00  0.00    -0.390 OA
ATOM     16  H6  UNL     1     -28.335 -13.096  -5.049  1.00  0.00     0.210 HD
ENDBRANCH  11  15
BRANCH  10  17
HETATM   17  C9  UNL     1     -26.451 -12.597  -2.360  1.00  0.00     0.157 C 
BRANCH  17  18
HETATM   18  N1  UNL     1     -25.529 -12.788  -3.419  1.00  0.00    -0.356 N 
HETATM   19  C10 UNL     1     -24.284 -13.435  -3.424  1.00  0.00     0.252 C 
HETATM   20  O4  UNL     1     -23.859 -13.955  -2.366  1.00  0.00    -0.270 OA
ATOM     21  H1  UNL     1     -25.814 -12.395  -4.317  1.00  0.00     0.162 HD
BRANCH  19  22
HETATM   22  C11 UNL     1     -23.489 -13.492  -4.691  1.00  0.00     0.137 C 
HETATM   23  C12 UNL     1     -22.270 -14.378  -4.527  1.00  0.00     0.057 C 
BRANCH  22  24
HETATM   24  O5  UNL     1     -24.263 -14.043  -5.707  1.00  0.00    -0.380 OA
ATOM     25  H5  UNL     1     -23.721 -14.205  -6.471  1.00  0.00     0.211 HD
ENDBRANCH  22  24
BRANCH  22  26
HETATM   26  C13 UNL     1     -22.999 -12.125  -5.095  1.00  0.00     0.021 C 
HETATM   27  C14 UNL     1     -21.935 -11.717  -4.098  1.00  0.00     0.013 C 
HETATM   28  C15 UNL     1     -22.446 -12.061  -6.474  1.00  0.00     0.013 C 
ENDBRANCH  22  26
ENDBRANCH  19  22
ENDBRANCH  17  18
ENDBRANCH  10  17
TORSDOF 7
ENDMDL
MODEL 2
REMARK VINA RESULT: -6.505515493      2.270      8.462
REMARK  7 active torsions:
REMARK  status: ('A' for Active; 'I' for Inactive)
REMARK    1  A    between atoms: C3_3  and  O1_4 
REMARK    2  A    between atoms: C8_12  and  C9_13 
REMARK    3  A    between atoms: C9_13  and  N1_14 
REMARK       I    between atoms: N1_14  and  C10_16 
REMARK    4  A    between atoms: C10_16  and  C11_18 
REMARK    5  A    between atoms: C11_18  and  O5_20 
REMARK    6  A    between atoms: C11_18  and  C13_22 
REMARK    7  A    between atoms: C16_25  and  O6_26 
ROOT
HETATM    1  C1  UNL     1     -19.100  -8.501  -4.760  1.00  0.00     0.015 C 
HETATM    2  C2  UNL     1     -20.066  -9.151  -5.071  1.00  0.00    -0.077 C 
HETATM    3  C3  UNL     1     -21.239  -9.956  -5.474  1.00  0.00     0.141 C 
HETATM    4  C4  UNL     1     -20.735 -11.153  -6.202  1.00  0.00     0.219 C 
HETATM    5  O2  UNL     1     -21.677 -12.160  -6.359  1.00  0.00    -0.379 OA
HETATM    6  C5  UNL     1     -22.221 -12.546  -5.118  1.00  0.00     0.159 C 
HETATM    7  C6  UNL     1     -23.017 -11.377  -4.623  1.00  0.00     0.045 C 
HETATM    8  C7  UNL     1     -23.867 -11.849  -3.468  1.00  0.00     0.175 C 
HETATM    9  O3  UNL     1     -24.756 -12.791  -3.985  1.00  0.00    -0.381 OA
HETATM   10  C8  UNL     1     -24.101 -13.956  -4.228  1.00  0.00     0.170 C 
HETATM   11  C16 UNL     1     -22.966 -13.817  -5.223  1.00  0.00     0.178 C 
HETATM   12  C17 UNL     1     -22.037 -10.304  -4.227  1.00  0.00     0.063 C 
ENDROOT
BRANCH   3  13
HETATM   13  O1  UNL     1     -22.046  -9.137  -6.267  1.00  0.00    -0.375 OA
ATOM     14  H1  UNL     1     -21.468  -8.553  -6.744  1.00  0.00     0.211 HD
ENDBRANCH   3  13
BRANCH  11  15
HETATM   15  O6  UNL     1     -22.091 -14.887  -4.973  1.00  0.00    -0.390 OA
ATOM     16  H6  UNL     1     -21.665 -15.138  -5.784  1.00  0.00     0.210 HD
ENDBRANCH  11  15
BRANCH  10  17
HETATM   17  C9  UNL     1     -24.946 -15.082  -4.696  1.00  0.00     0.157 C 
BRANCH  17  18
HETATM   18  N1  UNL     1     -25.945 -15.593  -3.830  1.00  0.00    -0.356 N 
HETATM   19  C10 UNL     1     -27.274 -15.182  -3.647  1.00  0.00     0.252 C 
HETATM   20  O4  UNL     1     -27.720 -14.227  -4.325  1.00  0.00    -0.270 OA
ATOM     21  H1  UNL     1     -25.653 -16.380  -3.250  1.00  0.00     0.162 HD
BRANCH  19  22
HETATM   22  C11 UNL     1     -28.133 -15.892  -2.647  1.00  0.00     0.137 C 
HETATM   23  C12 UNL     1     -27.403 -16.062  -1.329  1.00  0.00     0.057 C 
BRANCH  22  24
HETATM   24  O5  UNL     1     -29.275 -15.141  -2.390  1.00  0.00    -0.380 OA
ATOM     25  H5  UNL     1     -29.757 -15.527  -1.668  1.00  0.00     0.211 HD
ENDBRANCH  22  24
BRANCH  22  26
HETATM   26  C13 UNL     1     -28.514 -17.269  -3.129  1.00  0.00     0.021 C 
HETATM   27  C14 UNL     1     -29.370 -17.900  -2.051  1.00  0.00     0.013 C 
HETATM   28  C15 UNL     1     -29.249 -17.277  -4.422  1.00  0.00     0.013 C 
ENDBRANCH  22  26
ENDBRANCH  19  22
ENDBRANCH  17  18
ENDBRANCH  10  17
TORSDOF 7
ENDMDL
MODEL 3
REMARK VINA RESULT: -6.492148820      2.243      3.148
REMARK  7 active torsions:
REMARK  status: ('A' for Active; 'I' for Inactive)
REMARK    1  A    between atoms: C3_3  and  O1_4 
REMARK    2  A    between atoms: C8_12  and  C9_13 
REMARK    3  A    between atoms: C9_13  and  N1_14 
REMARK       I    between atoms: N1_14  and  C10_16 
REMARK    4  A    between atoms: C10_16  and  C11_18 
REMARK    5  A    between atoms: C11_18  and  O5_20 
REMARK    6  A    between atoms: C11_18  and  C13_22 
REMARK    7  A    between atoms: C16_25  and  O6_26 
ROOT
HETATM    1  C1  UNL     1     -29.561 -18.069  -2.639  1.00  0.00     0.015 C 
HETATM    2  C2  UNL     1     -28.733 -17.290  -3.036  1.00  0.00    -0.077 C 
HETATM    3  C3  UNL     1     -27.733 -16.324  -3.540  1.00  0.00     0.141 C 
HETATM    4  C4  UNL     1     -28.469 -15.114  -4.000  1.00  0.00     0.219 C 
HETATM    5  O2  UNL     1     -27.663 -14.000  -4.196  1.00  0.00    -0.379 OA
HETATM    6  C5  UNL     1     -26.921 -13.699  -3.038  1.00  0.00     0.159 C 
HETATM    7  C6  UNL     1     -25.948 -14.824  -2.855  1.00  0.00     0.045 C 
HETATM    8  C7  UNL     1     -24.930 -14.396  -1.825  1.00  0.00     0.175 C 
HETATM    9  O3  UNL     1     -24.242 -13.312  -2.369  1.00  0.00    -0.381 OA
HETATM   10  C8  UNL     1     -25.027 -12.204  -2.334  1.00  0.00     0.170 C 
HETATM   11  C16 UNL     1     -26.319 -12.352  -3.112  1.00  0.00     0.178 C 
HETATM   12  C17 UNL     1     -26.738 -16.034  -2.428  1.00  0.00     0.063 C 
ENDROOT
BRANCH   3  13
HETATM   13  O1  UNL     1     -27.032 -16.958  -4.568  1.00  0.00    -0.375 OA
ATOM     14  H1  UNL     1     -27.134 -17.894  -4.440  1.00  0.00     0.211 HD
ENDBRANCH   3  13
BRANCH  11  15
HETATM   15  O6  UNL     1     -27.215 -11.416  -2.568  1.00  0.00    -0.390 OA
ATOM     16  H6  UNL     1     -27.692 -11.821  -1.853  1.00  0.00     0.210 HD
ENDBRANCH  11  15
BRANCH  10  17
HETATM   17  C9  UNL     1     -24.387 -10.949  -2.799  1.00  0.00     0.157 C 
BRANCH  17  18
HETATM   18  N1  UNL     1     -23.635 -10.970  -4.000  1.00  0.00    -0.356 N 
HETATM   19  C10 UNL     1     -22.303 -10.594  -4.235  1.00  0.00     0.252 C 
HETATM   20  O4  UNL     1     -21.608 -10.172  -3.282  1.00  0.00    -0.270 OA
ATOM     21  H1  UNL     1     -24.138 -11.310  -4.820  1.00  0.00     0.162 HD
BRANCH  19  22
HETATM   22  C11 UNL     1     -21.741 -10.704  -5.618  1.00  0.00     0.137 C 
HETATM   23  C12 UNL     1     -22.506 -11.727  -6.434  1.00  0.00     0.057 C 
BRANCH  22  24
HETATM   24  O5  UNL     1     -21.861  -9.483  -6.274  1.00  0.00    -0.380 OA
ATOM     25  H5  UNL     1     -22.560  -9.532  -6.916  1.00  0.00     0.211 HD
ENDBRANCH  22  24
BRANCH  22  26
HETATM   26  C13 UNL     1     -20.298 -11.140  -5.592  1.00  0.00     0.021 C 
HETATM   27  C14 UNL     1     -20.209 -12.443  -6.358  1.00  0.00     0.013 C 
HETATM   28  C15 UNL     1     -19.354 -10.150  -6.175  1.00  0.00     0.013 C 
ENDBRANCH  22  26
ENDBRANCH  19  22
ENDBRANCH  17  18
ENDBRANCH  10  17
TORSDOF 7
ENDMDL
MODEL 4
REMARK VINA RESULT: -6.381790691      1.367      1.781
REMARK  7 active torsions:
REMARK  status: ('A' for Active; 'I' for Inactive)
REMARK    1  A    between atoms: C3_3  and  O1_4 
REMARK    2  A    between atoms: C8_12  and  C9_13 
REMARK    3  A    between atoms: C9_13  and  N1_14 
REMARK       I    between atoms: N1_14  and  C10_16 
REMARK    4  A    between atoms: C10_16  and  C11_18 
REMARK    5  A    between atoms: C11_18  and  O5_20 
REMARK    6  A    between atoms: C11_18  and  C13_22 
REMARK    7  A    between atoms: C16_25  and  O6_26 
ROOT
HETATM    1  C1  UNL     1     -30.799 -19.208  -2.956  1.00  0.00     0.015 C 
HETATM    2  C2  UNL     1     -29.914 -18.412  -2.769  1.00  0.00    -0.077 C 
HETATM    3  C3  UNL     1     -28.818 -17.441  -2.561  1.00  0.00     0.141 C 
HETATM    4  C4  UNL     1     -28.446 -16.892  -3.894  1.00  0.00     0.219 C 
HETATM    5  O2  UNL     1     -27.668 -15.743  -3.838  1.00  0.00    -0.379 OA
HETATM    6  C5  UNL     1     -28.289 -14.745  -3.063  1.00  0.00     0.159 C 
HETATM    7  C6  UNL     1     -28.298 -15.248  -1.652  1.00  0.00     0.045 C 
HETATM    8  C7  UNL     1     -28.659 -14.094  -0.748  1.00  0.00     0.175 C 
HETATM    9  O3  UNL     1     -27.633 -13.157  -0.868  1.00  0.00    -0.381 OA
HETATM   10  C8  UNL     1     -27.739 -12.509  -2.057  1.00  0.00     0.170 C 
HETATM   11  C16 UNL     1     -27.648 -13.428  -3.258  1.00  0.00     0.178 C 
HETATM   12  C17 UNL     1     -29.294 -16.377  -1.586  1.00  0.00     0.063 C 
ENDROOT
BRANCH   3  13
HETATM   13  O1  UNL     1     -27.771 -18.130  -1.945  1.00  0.00    -0.375 OA
ATOM     14  H1  UNL     1     -27.204 -18.451  -2.636  1.00  0.00     0.211 HD
ENDBRANCH   3  13
BRANCH  11  15
HETATM   15  O6  UNL     1     -28.286 -12.757  -4.315  1.00  0.00    -0.390 OA
ATOM     16  H6  UNL     1     -29.063 -13.242  -4.569  1.00  0.00     0.210 HD
ENDBRANCH  11  15
BRANCH  10  17
HETATM   17  C9  UNL     1     -26.763 -11.414  -2.280  1.00  0.00     0.157 C 
BRANCH  17  18
HETATM   18  N1  UNL     1     -25.574 -11.693  -2.999  1.00  0.00    -0.356 N 
HETATM   19  C10 UNL     1     -24.400 -12.338  -2.582  1.00  0.00     0.252 C 
HETATM   20  O4  UNL     1     -24.319 -12.767  -1.408  1.00  0.00    -0.270 OA
ATOM     21  H1  UNL     1     -25.572 -11.377  -3.969  1.00  0.00     0.162 HD
BRANCH  19  22
HETATM   22  C11 UNL     1     -23.268 -12.501  -3.548  1.00  0.00     0.137 C 
HETATM   23  C12 UNL     1     -22.772 -11.155  -4.035  1.00  0.00     0.057 C 
BRANCH  22  24
HETATM   24  O5  UNL     1     -22.198 -13.128  -2.917  1.00  0.00    -0.380 OA
ATOM     25  H5  UNL     1     -21.578 -13.438  -3.568  1.00  0.00     0.211 HD
ENDBRANCH  22  24
BRANCH  22  26
HETATM   26  C13 UNL     1     -23.689 -13.290  -4.762  1.00  0.00     0.021 C 
HETATM   27  C14 UNL     1     -22.471 -13.433  -5.649  1.00  0.00     0.013 C 
HETATM   28  C15 UNL     1     -24.244 -14.634  -4.450  1.00  0.00     0.013 C 
ENDBRANCH  22  26
ENDBRANCH  19  22
ENDBRANCH  17  18
ENDBRANCH  10  17
TORSDOF 7
ENDMDL
MODEL 5
REMARK VINA RESULT: -6.362086050      2.793      3.894
REMARK  7 active torsions:
REMARK  status: ('A' for Active; 'I' for Inactive)
REMARK    1  A    between atoms: C3_3  and  O1_4 
REMARK    2  A    between atoms: C8_12  and  C9_13 
REMARK    3  A    between atoms: C9_13  and  N1_14 
REMARK       I    between atoms: N1_14  and  C10_16 
REMARK    4  A    between atoms: C10_16  and  C11_18 
REMARK    5  A    between atoms: C11_18  and  O5_20 
REMARK    6  A    between atoms: C11_18  and  C13_22 
REMARK    7  A    between atoms: C16_25  and  O6_26 
ROOT
HETATM    1  C1  UNL     1     -29.472 -17.932  -2.287  1.00  0.00     0.015 C 
HETATM    2  C2  UNL     1     -28.996 -16.964  -2.823  1.00  0.00    -0.077 C 
HETATM    3  C3  UNL     1     -28.434 -15.762  -3.477  1.00  0.00     0.141 C 
HETATM    4  C4  UNL     1     -29.036 -14.569  -2.820  1.00  0.00     0.219 C 
HETATM    5  O2  UNL     1     -28.378 -13.378  -3.093  1.00  0.00    -0.379 OA
HETATM    6  C5  UNL     1     -27.010 -13.467  -2.768  1.00  0.00     0.159 C 
HETATM    7  C6  UNL     1     -26.408 -14.444  -3.731  1.00  0.00     0.045 C 
HETATM    8  C7  UNL     1     -24.906 -14.333  -3.629  1.00  0.00     0.175 C 
HETATM    9  O3  UNL     1     -24.572 -13.046  -4.052  1.00  0.00    -0.381 OA
HETATM   10  C8  UNL     1     -24.896 -12.147  -3.087  1.00  0.00     0.170 C 
HETATM   11  C16 UNL     1     -26.371 -12.135  -2.739  1.00  0.00     0.178 C 
HETATM   12  C17 UNL     1     -26.919 -15.812  -3.358  1.00  0.00     0.063 C 
ENDROOT
BRANCH   3  13
HETATM   13  O1  UNL     1     -28.746 -15.851  -4.836  1.00  0.00    -0.375 OA
ATOM     14  H1  UNL     1     -28.239 -16.571  -5.193  1.00  0.00     0.211 HD
ENDBRANCH   3  13
BRANCH  11  15
HETATM   15  O6  UNL     1     -26.465 -11.606  -1.441  1.00  0.00    -0.390 OA
ATOM     16  H6  UNL     1     -25.604 -11.607  -1.041  1.00  0.00     0.210 HD
ENDBRANCH  11  15
BRANCH  10  17
HETATM   17  C9  UNL     1     -24.509 -10.741  -3.364  1.00  0.00     0.157 C 
BRANCH  17  18
HETATM   18  N1  UNL     1     -23.318 -10.490  -4.089  1.00  0.00    -0.356 N 
HETATM   19  C10 UNL     1     -22.637  -9.284  -4.312  1.00  0.00     0.252 C 
HETATM   20  O4  UNL     1     -23.087  -8.225  -3.817  1.00  0.00    -0.270 OA
ATOM     21  H1  UNL     1     -22.891 -11.313  -4.516  1.00  0.00     0.162 HD
BRANCH  19  22
HETATM   22  C11 UNL     1     -21.386  -9.287  -5.135  1.00  0.00     0.137 C 
HETATM   23  C12 UNL     1     -20.358 -10.238  -4.555  1.00  0.00     0.057 C 
BRANCH  22  24
HETATM   24  O5  UNL     1     -21.671  -9.728  -6.423  1.00  0.00    -0.380 OA
ATOM     25  H5  UNL     1     -22.303  -9.145  -6.829  1.00  0.00     0.211 HD
ENDBRANCH  22  24
BRANCH  22  26
HETATM   26  C13 UNL     1     -20.754  -7.919  -5.182  1.00  0.00     0.021 C 
HETATM   27  C14 UNL     1     -19.615  -7.917  -4.185  1.00  0.00     0.013 C 
HETATM   28  C15 UNL     1     -20.248  -7.530  -6.525  1.00  0.00     0.013 C 
ENDBRANCH  22  26
ENDBRANCH  19  22
ENDBRANCH  17  18
ENDBRANCH  10  17
TORSDOF 7
ENDMDL
