MODEL 1
REMARK VINA RESULT: -6.086431841      0.000      0.000
REMARK  11 active torsions:
REMARK  status: ('A' for Active; 'I' for Inactive)
REMARK    1  A    between atoms: C3_3  and  C4_4 
REMARK    2  A    between atoms: C5_5  and  C6_6 
REMARK    3  A    between atoms: C6_6  and  C7_7 
REMARK    4  A    between atoms: C7_7  and  C8_8 
REMARK    5  A    between atoms: C8_8  and  C9_9 
REMARK    6  A    between atoms: C10_10  and  C11_11 
REMARK    7  A    between atoms: C11_11  and  O1_12 
REMARK    8  A    between atoms: C13_16  and  O3_17 
REMARK    9  A    between atoms: C16_22  and  C17_23 
REMARK   10  A    between atoms: C17_23  and  O5_25 
REMARK   11  A    between atoms: C19_27  and  O6_28 
ROOT
HETATM    1  C1  UNL     1      -1.637  32.710  27.702  1.00  0.00     0.113 C 
HETATM    2  C2  UNL     1      -0.734  32.809  28.867  1.00  0.00    -0.097 C 
HETATM    3  C3  UNL     1      -0.000  32.891  29.824  1.00  0.00    -0.015 C 
ENDROOT
BRANCH   3   4
HETATM    4  C4  UNL     1       0.882  32.989  30.933  1.00  0.00    -0.015 C 
HETATM    5  C5  UNL     1       1.644  33.064  31.863  1.00  0.00    -0.092 C 
BRANCH   5   6
HETATM    6  C6  UNL     1       2.603  33.156  32.991  1.00  0.00     0.096 C 
BRANCH   6   7
HETATM    7  C7  UNL     1       3.815  33.889  32.438  1.00  0.00     0.024 C 
BRANCH   7   8
HETATM    8  C8  UNL     1       4.770  32.824  31.916  1.00  0.00     0.095 C 
BRANCH   8   9
HETATM    9  C9  UNL     1       4.442  32.451  30.543  1.00  0.00    -0.103 C 
HETATM   10  C10 UNL     1       4.152  32.140  29.414  1.00  0.00    -0.066 C 
BRANCH  10  11
HETATM   11  C11 UNL     1       3.775  31.745  28.037  1.00  0.00     0.144 C 
HETATM   12  C12 UNL     1       3.191  32.953  27.382  1.00  0.00     0.223 C 
HETATM   13  O2  UNL     1       2.208  32.694  26.462  1.00  0.00    -0.347 OA
HETATM   14  C13 UNL     1       2.366  31.521  25.767  1.00  0.00     0.217 C 
HETATM   15  C14 UNL     1       2.285  30.345  26.684  1.00  0.00     0.191 C 
HETATM   16  C19 UNL     1       1.159  31.324  24.872  1.00  0.00     0.214 C 
HETATM   17  C15 UNL     1       2.756  30.631  28.085  1.00  0.00     0.091 C 
HETATM   18  O4  UNL     1       0.910  30.086  26.763  1.00  0.00    -0.370 OA
HETATM   19  C16 UNL     1       0.394  30.208  25.496  1.00  0.00     0.184 C 
BRANCH  11  20
HETATM   20  O1  UNL     1       4.966  31.315  27.421  1.00  0.00    -0.375 OA
ATOM     21  H1  UNL     1       4.706  30.943  26.586  1.00  0.00     0.211 HD
ENDBRANCH  11  20
BRANCH  14  22
HETATM   22  O3  UNL     1       3.489  31.511  24.944  1.00  0.00    -0.361 OA
ATOM     23  H3  UNL     1       4.027  30.735  25.046  1.00  0.00     0.213 HD
ENDBRANCH  14  22
BRANCH  19  24
HETATM   24  C17 UNL     1       0.543  28.889  24.780  1.00  0.00     0.145 C 
HETATM   25  C18 UNL     1      -0.292  27.875  25.571  1.00  0.00     0.042 C 
BRANCH  24  26
HETATM   26  O5  UNL     1      -0.012  28.917  23.499  1.00  0.00    -0.393 OA
ATOM     27  H5  UNL     1      -0.770  28.350  23.423  1.00  0.00     0.210 HD
ENDBRANCH  24  26
ENDBRANCH  19  24
BRANCH  16  28
HETATM   28  O6  UNL     1       0.364  32.472  24.844  1.00  0.00    -0.387 OA
ATOM     29  H6  UNL     1      -0.488  32.306  25.230  1.00  0.00     0.210 HD
ENDBRANCH  16  28
ENDBRANCH  10  11
ENDBRANCH   8   9
ENDBRANCH   7   8
ENDBRANCH   6   7
ENDBRANCH   5   6
ENDBRANCH   3   4
TORSDOF 11
ENDMDL
MODEL 2
REMARK VINA RESULT: -5.938319279      2.365      4.653
REMARK  11 active torsions:
REMARK  status: ('A' for Active; 'I' for Inactive)
REMARK    1  A    between atoms: C3_3  and  C4_4 
REMARK    2  A    between atoms: C5_5  and  C6_6 
REMARK    3  A    between atoms: C6_6  and  C7_7 
REMARK    4  A    between atoms: C7_7  and  C8_8 
REMARK    5  A    between atoms: C8_8  and  C9_9 
REMARK    6  A    between atoms: C10_10  and  C11_11 
REMARK    7  A    between atoms: C11_11  and  O1_12 
REMARK    8  A    between atoms: C13_16  and  O3_17 
REMARK    9  A    between atoms: C16_22  and  C17_23 
REMARK   10  A    between atoms: C17_23  and  O5_25 
REMARK   11  A    between atoms: C19_27  and  O6_28 
ROOT
HETATM    1  C1  UNL     1       3.456  34.101  31.386  1.00  0.00     0.113 C 
HETATM    2  C2  UNL     1       2.137  33.770  31.964  1.00  0.00    -0.097 C 
HETATM    3  C3  UNL     1       1.059  33.506  32.441  1.00  0.00    -0.015 C 
ENDROOT
BRANCH   3   4
HETATM    4  C4  UNL     1      -0.207  33.171  32.991  1.00  0.00    -0.015 C 
HETATM    5  C5  UNL     1      -1.291  32.894  33.441  1.00  0.00    -0.092 C 
BRANCH   5   6
HETATM    6  C6  UNL     1      -2.633  32.550  33.970  1.00  0.00     0.096 C 
BRANCH   6   7
HETATM    7  C7  UNL     1      -3.623  33.276  33.074  1.00  0.00     0.024 C 
BRANCH   7   8
HETATM    8  C8  UNL     1      -3.909  32.350  31.899  1.00  0.00     0.095 C 
BRANCH   8   9
HETATM    9  C9  UNL     1      -2.969  32.582  30.806  1.00  0.00    -0.103 C 
HETATM   10  C10 UNL     1      -2.176  32.771  29.917  1.00  0.00    -0.066 C 
BRANCH  10  11
HETATM   11  C11 UNL     1      -1.184  33.011  28.842  1.00  0.00     0.144 C 
HETATM   12  C12 UNL     1      -1.952  33.181  27.572  1.00  0.00     0.223 C 
HETATM   13  O2  UNL     1      -1.311  32.735  26.446  1.00  0.00    -0.347 OA
HETATM   14  C13 UNL     1       0.054  32.872  26.469  1.00  0.00     0.217 C 
HETATM   15  C14 UNL     1       0.655  32.033  27.549  1.00  0.00     0.191 C 
HETATM   16  C19 UNL     1       0.624  32.246  25.211  1.00  0.00     0.214 C 
HETATM   17  C15 UNL     1      -0.250  31.830  28.735  1.00  0.00     0.091 C 
HETATM   18  O4  UNL     1       0.814  30.781  26.939  1.00  0.00    -0.370 OA
HETATM   19  C16 UNL     1       1.294  30.998  25.672  1.00  0.00     0.184 C 
BRANCH  11  20
HETATM   20  O1  UNL     1      -0.487  34.175  29.216  1.00  0.00    -0.375 OA
ATOM     21  H1  UNL     1       0.255  34.234  28.626  1.00  0.00     0.211 HD
ENDBRANCH  11  20
BRANCH  14  22
HETATM   22  O3  UNL     1       0.479  34.199  26.491  1.00  0.00    -0.361 OA
ATOM     23  H3  UNL     1       1.238  34.363  25.945  1.00  0.00     0.213 HD
ENDBRANCH  14  22
BRANCH  19  24
HETATM   24  C17 UNL     1       2.798  31.096  25.729  1.00  0.00     0.145 C 
HETATM   25  C18 UNL     1       3.290  29.780  26.342  1.00  0.00     0.042 C 
BRANCH  24  26
HETATM   26  O5  UNL     1       3.373  31.160  24.460  1.00  0.00    -0.393 OA
ATOM     27  H5  UNL     1       2.778  31.519  23.812  1.00  0.00     0.210 HD
ENDBRANCH  24  26
ENDBRANCH  19  24
BRANCH  16  28
HETATM   28  O6  UNL     1      -0.392  31.922  24.310  1.00  0.00    -0.387 OA
ATOM     29  H6  UNL     1      -0.182  31.128  23.832  1.00  0.00     0.210 HD
ENDBRANCH  16  28
ENDBRANCH  10  11
ENDBRANCH   8   9
ENDBRANCH   7   8
ENDBRANCH   6   7
ENDBRANCH   5   6
ENDBRANCH   3   4
TORSDOF 11
ENDMDL
MODEL 3
REMARK VINA RESULT: -5.894378573      3.262      6.407
REMARK  11 active torsions:
REMARK  status: ('A' for Active; 'I' for Inactive)
REMARK    1  A    between atoms: C3_3  and  C4_4 
REMARK    2  A    between atoms: C5_5  and  C6_6 
REMARK    3  A    between atoms: C6_6  and  C7_7 
REMARK    4  A    between atoms: C7_7  and  C8_8 
REMARK    5  A    between atoms: C8_8  and  C9_9 
REMARK    6  A    between atoms: C10_10  and  C11_11 
REMARK    7  A    between atoms: C11_11  and  O1_12 
REMARK    8  A    between atoms: C13_16  and  O3_17 
REMARK    9  A    between atoms: C16_22  and  C17_23 
REMARK   10  A    between atoms: C17_23  and  O5_25 
REMARK   11  A    between atoms: C19_27  and  O6_28 
ROOT
HETATM    1  C1  UNL     1      -2.193  26.594  23.074  1.00  0.00     0.113 C 
HETATM    2  C2  UNL     1      -0.790  26.265  23.401  1.00  0.00    -0.097 C 
HETATM    3  C3  UNL     1       0.356  25.989  23.667  1.00  0.00    -0.015 C 
ENDROOT
BRANCH   3   4
HETATM    4  C4  UNL     1       1.705  25.687  23.992  1.00  0.00    -0.015 C 
HETATM    5  C5  UNL     1       2.855  25.449  24.263  1.00  0.00    -0.092 C 
BRANCH   5   6
HETATM    6  C6  UNL     1       4.275  25.181  24.599  1.00  0.00     0.096 C 
BRANCH   6   7
HETATM    7  C7  UNL     1       4.894  26.543  24.866  1.00  0.00     0.024 C 
BRANCH   7   8
HETATM    8  C8  UNL     1       4.481  26.943  26.276  1.00  0.00     0.095 C 
BRANCH   8   9
HETATM    9  C9  UNL     1       3.882  28.274  26.291  1.00  0.00    -0.103 C 
HETATM   10  C10 UNL     1       3.373  29.368  26.318  1.00  0.00    -0.066 C 
BRANCH  10  11
HETATM   11  C11 UNL     1       2.726  30.700  26.360  1.00  0.00     0.144 C 
HETATM   12  C12 UNL     1       1.683  30.644  27.428  1.00  0.00     0.223 C 
HETATM   13  O2  UNL     1       0.576  31.419  27.196  1.00  0.00    -0.347 OA
HETATM   14  C13 UNL     1       0.823  32.582  26.511  1.00  0.00     0.217 C 
HETATM   15  C14 UNL     1       1.322  32.293  25.134  1.00  0.00     0.191 C 
HETATM   16  C19 UNL     1      -0.499  33.274  26.243  1.00  0.00     0.214 C 
HETATM   17  C15 UNL     1       2.092  31.003  25.024  1.00  0.00     0.091 C 
HETATM   18  O4  UNL     1       0.147  32.130  24.388  1.00  0.00    -0.370 OA
HETATM   19  C16 UNL     1      -0.730  33.111  24.780  1.00  0.00     0.184 C 
BRANCH  11  20
HETATM   20  O1  UNL     1       3.753  31.617  26.652  1.00  0.00    -0.375 OA
ATOM     21  H1  UNL     1       4.389  31.526  25.952  1.00  0.00     0.211 HD
ENDBRANCH  11  20
BRANCH  14  22
HETATM   22  O3  UNL     1       1.619  33.483  27.215  1.00  0.00    -0.361 OA
ATOM     23  H3  UNL     1       1.156  34.269  27.481  1.00  0.00     0.213 HD
ENDBRANCH  14  22
BRANCH  19  24
HETATM   24  C17 UNL     1      -0.460  34.357  23.975  1.00  0.00     0.145 C 
HETATM   25  C18 UNL     1      -1.666  34.536  23.045  1.00  0.00     0.042 C 
BRANCH  24  26
HETATM   26  O5  UNL     1      -0.424  35.503  24.771  1.00  0.00    -0.393 OA
ATOM     27  H5  UNL     1      -1.280  35.902  24.867  1.00  0.00     0.210 HD
ENDBRANCH  24  26
ENDBRANCH  19  24
BRANCH  16  28
HETATM   28  O6  UNL     1      -1.536  32.661  26.948  1.00  0.00    -0.387 OA
ATOM     29  H6  UNL     1      -1.652  31.760  26.669  1.00  0.00     0.210 HD
ENDBRANCH  16  28
ENDBRANCH  10  11
ENDBRANCH   8   9
ENDBRANCH   7   8
ENDBRANCH   6   7
ENDBRANCH   5   6
ENDBRANCH   3   4
TORSDOF 11
ENDMDL
MODEL 4
REMARK VINA RESULT: -5.774291301      2.028      7.026
REMARK  11 active torsions:
REMARK  status: ('A' for Active; 'I' for Inactive)
REMARK    1  A    between atoms: C3_3  and  C4_4 
REMARK    2  A    between atoms: C5_5  and  C6_6 
REMARK    3  A    between atoms: C6_6  and  C7_7 
REMARK    4  A    between atoms: C7_7  and  C8_8 
REMARK    5  A    between atoms: C8_8  and  C9_9 
REMARK    6  A    between atoms: C10_10  and  C11_11 
REMARK    7  A    between atoms: C11_11  and  O1_12 
REMARK    8  A    between atoms: C13_16  and  O3_17 
REMARK    9  A    between atoms: C16_22  and  C17_23 
REMARK   10  A    between atoms: C17_23  and  O5_25 
REMARK   11  A    between atoms: C19_27  and  O6_28 
ROOT
HETATM    1  C1  UNL     1       5.138  28.667  27.551  1.00  0.00     0.113 C 
HETATM    2  C2  UNL     1       4.072  28.044  26.740  1.00  0.00    -0.097 C 
HETATM    3  C3  UNL     1       3.200  27.529  26.080  1.00  0.00    -0.015 C 
ENDROOT
BRANCH   3   4
HETATM    4  C4  UNL     1       2.181  26.940  25.287  1.00  0.00    -0.015 C 
HETATM    5  C5  UNL     1       1.304  26.454  24.618  1.00  0.00    -0.092 C 
BRANCH   5   6
HETATM    6  C6  UNL     1       0.213  25.879  23.793  1.00  0.00     0.096 C 
BRANCH   6   7
HETATM    7  C7  UNL     1      -0.198  26.985  22.834  1.00  0.00     0.024 C 
BRANCH   7   8
HETATM    8  C8  UNL     1      -1.294  27.782  23.529  1.00  0.00     0.095 C 
BRANCH   8   9
HETATM    9  C9  UNL     1      -0.731  28.872  24.320  1.00  0.00    -0.103 C 
HETATM   10  C10 UNL     1      -0.246  29.766  24.968  1.00  0.00    -0.066 C 
BRANCH  10  11
HETATM   11  C11 UNL     1       0.372  30.850  25.768  1.00  0.00     0.144 C 
HETATM   12  C12 UNL     1       1.581  31.307  25.020  1.00  0.00     0.223 C 
HETATM   13  O2  UNL     1       2.616  31.742  25.806  1.00  0.00    -0.347 OA
HETATM   14  C13 UNL     1       2.233  32.357  26.972  1.00  0.00     0.217 C 
HETATM   15  C14 UNL     1       1.514  31.401  27.865  1.00  0.00     0.191 C 
HETATM   16  C19 UNL     1       3.476  32.686  27.774  1.00  0.00     0.214 C 
HETATM   17  C15 UNL     1       0.764  30.324  27.127  1.00  0.00     0.091 C 
HETATM   18  O4  UNL     1       2.549  30.767  28.566  1.00  0.00    -0.370 OA
HETATM   19  C16 UNL     1       3.459  31.733  28.919  1.00  0.00     0.184 C 
BRANCH  11  20
HETATM   20  O1  UNL     1      -0.610  31.854  25.877  1.00  0.00    -0.375 OA
ATOM     21  H1  UNL     1      -0.650  32.078  26.800  1.00  0.00     0.211 HD
ENDBRANCH  11  20
BRANCH  14  22
HETATM   22  O3  UNL     1       1.550  33.554  26.769  1.00  0.00    -0.361 OA
ATOM     23  H3  UNL     1       1.046  33.834  27.524  1.00  0.00     0.213 HD
ENDBRANCH  14  22
BRANCH  19  24
HETATM   24  C17 UNL     1       3.032  32.352  30.225  1.00  0.00     0.145 C 
HETATM   25  C18 UNL     1       4.070  31.917  31.267  1.00  0.00     0.042 C 
BRANCH  24  26
HETATM   26  O5  UNL     1       3.090  33.746  30.194  1.00  0.00    -0.393 OA
ATOM     27  H5  UNL     1       3.923  34.079  30.508  1.00  0.00     0.210 HD
ENDBRANCH  24  26
ENDBRANCH  19  24
BRANCH  16  28
HETATM   28  O6  UNL     1       4.630  32.481  27.016  1.00  0.00    -0.387 OA
ATOM     29  H6  UNL     1       5.281  31.997  27.511  1.00  0.00     0.210 HD
ENDBRANCH  16  28
ENDBRANCH  10  11
ENDBRANCH   8   9
ENDBRANCH   7   8
ENDBRANCH   6   7
ENDBRANCH   5   6
ENDBRANCH   3   4
TORSDOF 11
ENDMDL
MODEL 5
REMARK VINA RESULT: -5.737962573      3.522      7.862
REMARK  11 active torsions:
REMARK  status: ('A' for Active; 'I' for Inactive)
REMARK    1  A    between atoms: C3_3  and  C4_4 
REMARK    2  A    between atoms: C5_5  and  C6_6 
REMARK    3  A    between atoms: C6_6  and  C7_7 
REMARK    4  A    between atoms: C7_7  and  C8_8 
REMARK    5  A    between atoms: C8_8  and  C9_9 
REMARK    6  A    between atoms: C10_10  and  C11_11 
REMARK    7  A    between atoms: C11_11  and  O1_12 
REMARK    8  A    between atoms: C13_16  and  O3_17 
REMARK    9  A    between atoms: C16_22  and  C17_23 
REMARK   10  A    between atoms: C17_23  and  O5_25 
REMARK   11  A    between atoms: C19_27  and  O6_28 
ROOT
HETATM    1  C1  UNL     1      -4.839  21.767  23.909  1.00  0.00     0.113 C 
HETATM    2  C2  UNL     1      -3.821  22.805  23.644  1.00  0.00    -0.097 C 
HETATM    3  C3  UNL     1      -2.994  23.659  23.429  1.00  0.00    -0.015 C 
ENDROOT
BRANCH   3   4
HETATM    4  C4  UNL     1      -2.006  24.645  23.167  1.00  0.00    -0.015 C 
HETATM    5  C5  UNL     1      -1.181  25.496  22.947  1.00  0.00    -0.092 C 
BRANCH   5   6
HETATM    6  C6  UNL     1      -0.180  26.560  22.690  1.00  0.00     0.096 C 
BRANCH   6   7
HETATM    7  C7  UNL     1       0.987  26.253  23.614  1.00  0.00     0.024 C 
BRANCH   7   8
HETATM    8  C8  UNL     1       0.545  26.635  25.020  1.00  0.00     0.095 C 
BRANCH   8   9
HETATM    9  C9  UNL     1       0.702  28.069  25.249  1.00  0.00    -0.103 C 
HETATM   10  C10 UNL     1       0.819  29.251  25.456  1.00  0.00    -0.066 C 
BRANCH  10  11
HETATM   11  C11 UNL     1       0.939  30.704  25.721  1.00  0.00     0.144 C 
HETATM   12  C12 UNL     1       0.712  30.899  27.185  1.00  0.00     0.223 C 
HETATM   13  O2  UNL     1       0.112  32.084  27.524  1.00  0.00    -0.347 OA
HETATM   14  C13 UNL     1       0.433  33.143  26.712  1.00  0.00     0.217 C 
HETATM   15  C14 UNL     1      -0.051  32.910  25.319  1.00  0.00     0.191 C 
HETATM   16  C19 UNL     1      -0.379  34.346  27.146  1.00  0.00     0.214 C 
HETATM   17  C15 UNL     1      -0.099  31.458  24.926  1.00  0.00     0.091 C 
HETATM   18  O4  UNL     1      -1.375  33.367  25.353  1.00  0.00    -0.370 OA
HETATM   19  C16 UNL     1      -1.390  34.539  26.068  1.00  0.00     0.184 C 
BRANCH  11  20
HETATM   20  O1  UNL     1       2.241  31.061  25.321  1.00  0.00    -0.375 OA
ATOM     21  H1  UNL     1       2.820  30.734  26.000  1.00  0.00     0.211 HD
ENDBRANCH  11  20
BRANCH  14  22
HETATM   22  O3  UNL     1       1.775  33.511  26.783  1.00  0.00    -0.361 OA
ATOM     23  H3  UNL     1       2.341  32.987  26.228  1.00  0.00     0.213 HD
ENDBRANCH  14  22
BRANCH  19  24
HETATM   24  C17 UNL     1      -1.080  35.683  25.136  1.00  0.00     0.145 C 
HETATM   25  C18 UNL     1      -1.532  35.234  23.741  1.00  0.00     0.042 C 
BRANCH  24  26
HETATM   26  O5  UNL     1      -1.832  36.822  25.428  1.00  0.00    -0.393 OA
ATOM     27  H5  UNL     1      -2.560  36.937  24.828  1.00  0.00     0.210 HD
ENDBRANCH  24  26
ENDBRANCH  19  24
BRANCH  16  28
HETATM   28  O6  UNL     1      -1.032  34.100  28.355  1.00  0.00    -0.387 OA
ATOM     29  H6  UNL     1      -1.925  33.809  28.207  1.00  0.00     0.210 HD
ENDBRANCH  16  28
ENDBRANCH  10  11
ENDBRANCH   8   9
ENDBRANCH   7   8
ENDBRANCH   6   7
ENDBRANCH   5   6
ENDBRANCH   3   4
TORSDOF 11
ENDMDL
