MODEL 1
REMARK VINA RESULT: -6.987214421      0.000      0.000
REMARK  6 active torsions:
REMARK  status: ('A' for Active; 'I' for Inactive)
REMARK    1  A    between atoms: C3_3  and  O1_4 
REMARK    2  A    between atoms: C9_11  and  O2_12 
REMARK    3  A    between atoms: C10_14  and  O3_15 
REMARK    4  A    between atoms: C12_17  and  O4_18 
REMARK    5  A    between atoms: C13_20  and  N1_21 
REMARK    6  A    between atoms: N1_21  and  S1_23 
ROOT
HETATM    1  C1  UNL     1       2.886  31.863  25.326  1.00  0.00     0.017 C 
HETATM    2  C2  UNL     1       2.431  31.455  26.492  1.00  0.00    -0.054 C 
HETATM    3  C3  UNL     1       3.417  31.263  27.594  1.00  0.00     0.146 C 
HETATM    4  C4  UNL     1       2.988  32.228  28.692  1.00  0.00     0.037 C 
HETATM    5  C5  UNL     1       1.612  31.795  29.088  1.00  0.00     0.013 C 
HETATM    6  C6  UNL     1       0.580  32.005  27.958  1.00  0.00    -0.032 C 
HETATM    7  C7  UNL     1      -0.695  31.518  28.623  1.00  0.00     0.016 C 
HETATM    8  C8  UNL     1       0.581  33.475  27.702  1.00  0.00     0.044 C 
HETATM    9  C9  UNL     1      -0.671  33.890  26.966  1.00  0.00     0.150 C 
HETATM   10  C10 UNL     1      -0.461  33.515  25.512  1.00  0.00     0.180 C 
HETATM   11  C12 UNL     1      -0.785  32.097  25.264  1.00  0.00     0.173 C 
HETATM   12  C13 UNL     1       0.111  31.026  25.647  1.00  0.00     0.133 C 
HETATM   13  C15 UNL     1       1.008  31.158  26.819  1.00  0.00     0.050 C 
ENDROOT
BRANCH  12  14
HETATM   14  N1  UNL     1      -0.698  29.805  25.835  1.00  0.00    -0.312 N 
ATOM     15  H1  UNL     1      -1.299  29.654  26.645  1.00  0.00     0.172 HD
BRANCH  14  16
HETATM   16  S1  UNL     1      -0.534  28.677  24.580  1.00  0.00     0.223 S 
HETATM   17  C14 UNL     1      -0.774  27.042  25.175  1.00  0.00     0.185 C 
HETATM   18  O5  UNL     1      -1.482  28.976  23.435  1.00  0.00    -0.206 OA
HETATM   19  O6  UNL     1       0.880  28.788  24.042  1.00  0.00    -0.206 OA
ENDBRANCH  14  16
ENDBRANCH  12  14
BRANCH  11  20
HETATM   20  O4  UNL     1      -1.034  32.016  23.863  1.00  0.00    -0.391 OA
ATOM     21  H4  UNL     1      -0.277  31.565  23.505  1.00  0.00     0.210 HD
ENDBRANCH  11  20
BRANCH  10  22
HETATM   22  O3  UNL     1      -1.355  34.273  24.704  1.00  0.00    -0.385 OA
HETATM   23  C11 UNL     1      -0.686  35.155  23.878  1.00  0.00     0.202 C 
ENDBRANCH  10  22
BRANCH   9  24
HETATM   24  O2  UNL     1      -0.832  35.274  27.044  1.00  0.00    -0.393 OA
ATOM     25  H2  UNL     1      -1.145  35.516  27.908  1.00  0.00     0.210 HD
ENDBRANCH   9  24
BRANCH   3  26
HETATM   26  O1  UNL     1       4.719  31.511  27.178  1.00  0.00    -0.391 OA
ATOM     27  H1  UNL     1       5.316  31.610  27.911  1.00  0.00     0.210 HD
ENDBRANCH   3  26
TORSDOF 6
ENDMDL
MODEL 2
REMARK VINA RESULT: -6.728562348      1.194      1.384
REMARK  6 active torsions:
REMARK  status: ('A' for Active; 'I' for Inactive)
REMARK    1  A    between atoms: C3_3  and  O1_4 
REMARK    2  A    between atoms: C9_11  and  O2_12 
REMARK    3  A    between atoms: C10_14  and  O3_15 
REMARK    4  A    between atoms: C12_17  and  O4_18 
REMARK    5  A    between atoms: C13_20  and  N1_21 
REMARK    6  A    between atoms: N1_21  and  S1_23 
ROOT
HETATM    1  C1  UNL     1       2.963  31.874  26.091  1.00  0.00     0.017 C 
HETATM    2  C2  UNL     1       2.711  31.098  27.125  1.00  0.00    -0.054 C 
HETATM    3  C3  UNL     1       3.860  30.689  27.983  1.00  0.00     0.146 C 
HETATM    4  C4  UNL     1       3.546  31.241  29.367  1.00  0.00     0.037 C 
HETATM    5  C5  UNL     1       2.270  30.577  29.782  1.00  0.00     0.013 C 
HETATM    6  C6  UNL     1       1.072  31.008  28.909  1.00  0.00    -0.032 C 
HETATM    7  C7  UNL     1      -0.060  30.223  29.548  1.00  0.00     0.016 C 
HETATM    8  C8  UNL     1       0.951  32.480  29.115  1.00  0.00     0.044 C 
HETATM    9  C9  UNL     1      -0.417  32.968  28.705  1.00  0.00     0.150 C 
HETATM   10  C10 UNL     1      -0.406  33.060  27.191  1.00  0.00     0.180 C 
HETATM   11  C12 UNL     1      -0.684  31.753  26.565  1.00  0.00     0.173 C 
HETATM   12  C13 UNL     1       0.318  30.711  26.487  1.00  0.00     0.133 C 
HETATM   13  C15 UNL     1       1.372  30.580  27.522  1.00  0.00     0.050 C 
ENDROOT
BRANCH  12  14
HETATM   14  N1  UNL     1      -0.384  29.414  26.394  1.00  0.00    -0.312 N 
ATOM     15  H1  UNL     1      -0.894  29.000  27.174  1.00  0.00     0.172 HD
BRANCH  14  16
HETATM   16  S1  UNL     1      -0.261  28.680  24.871  1.00  0.00     0.223 S 
HETATM   17  C14 UNL     1      -0.626  26.965  24.974  1.00  0.00     0.185 C 
HETATM   18  O5  UNL     1      -1.156  29.358  23.852  1.00  0.00    -0.206 OA
HETATM   19  O6  UNL     1       1.170  28.837  24.397  1.00  0.00    -0.206 OA
ENDBRANCH  14  16
ENDBRANCH  12  14
BRANCH  11  20
HETATM   20  O4  UNL     1      -1.134  32.063  25.248  1.00  0.00    -0.391 OA
ATOM     21  H4  UNL     1      -0.344  32.263  24.760  1.00  0.00     0.210 HD
ENDBRANCH  11  20
BRANCH  10  22
HETATM   22  O3  UNL     1      -1.452  33.930  26.772  1.00  0.00    -0.385 OA
HETATM   23  C11 UNL     1      -0.966  35.069  26.162  1.00  0.00     0.202 C 
ENDBRANCH  10  22
BRANCH   9  24
HETATM   24  O2  UNL     1      -0.642  34.245  29.221  1.00  0.00    -0.393 OA
ATOM     25  H2  UNL     1      -1.564  34.464  29.154  1.00  0.00     0.210 HD
ENDBRANCH   9  24
BRANCH   3  26
HETATM   26  O1  UNL     1       5.069  31.175  27.502  1.00  0.00    -0.391 OA
ATOM     27  H1  UNL     1       5.653  31.438  28.204  1.00  0.00     0.210 HD
ENDBRANCH   3  26
TORSDOF 6
ENDMDL
MODEL 3
REMARK VINA RESULT: -6.403081483      2.073      4.090
REMARK  6 active torsions:
REMARK  status: ('A' for Active; 'I' for Inactive)
REMARK    1  A    between atoms: C3_3  and  O1_4 
REMARK    2  A    between atoms: C9_11  and  O2_12 
REMARK    3  A    between atoms: C10_14  and  O3_15 
REMARK    4  A    between atoms: C12_17  and  O4_18 
REMARK    5  A    between atoms: C13_20  and  N1_21 
REMARK    6  A    between atoms: N1_21  and  S1_23 
ROOT
HETATM    1  C1  UNL     1      -0.159  29.674  28.701  1.00  0.00     0.017 C 
HETATM    2  C2  UNL     1      -0.748  30.579  27.946  1.00  0.00    -0.054 C 
HETATM    3  C3  UNL     1      -1.984  31.225  28.473  1.00  0.00     0.146 C 
HETATM    4  C4  UNL     1      -1.657  32.709  28.562  1.00  0.00     0.037 C 
HETATM    5  C5  UNL     1      -1.353  33.136  27.160  1.00  0.00     0.013 C 
HETATM    6  C6  UNL     1      -0.065  32.485  26.612  1.00  0.00    -0.032 C 
HETATM    7  C7  UNL     1       0.011  33.094  25.224  1.00  0.00     0.016 C 
HETATM    8  C8  UNL     1       1.023  32.955  27.518  1.00  0.00     0.044 C 
HETATM    9  C9  UNL     1       2.373  32.784  26.865  1.00  0.00     0.150 C 
HETATM   10  C10 UNL     1       2.734  31.317  26.998  1.00  0.00     0.180 C 
HETATM   11  C12 UNL     1       2.116  30.507  25.931  1.00  0.00     0.173 C 
HETATM   12  C13 UNL     1       0.715  30.142  25.958  1.00  0.00     0.133 C 
HETATM   13  C15 UNL     1      -0.295  31.020  26.597  1.00  0.00     0.050 C 
ENDROOT
BRANCH  12  14
HETATM   14  N1  UNL     1       0.283  29.901  24.566  1.00  0.00    -0.312 N 
ATOM     15  H1  UNL     1       0.357  30.603  23.830  1.00  0.00     0.172 HD
BRANCH  14  16
HETATM   16  S1  UNL     1      -0.347  28.348  24.307  1.00  0.00     0.223 S 
HETATM   17  C14 UNL     1      -0.371  27.427  25.803  1.00  0.00     0.185 C 
HETATM   18  O5  UNL     1      -1.731  28.405  23.690  1.00  0.00    -0.206 OA
HETATM   19  O6  UNL     1       0.562  27.640  23.323  1.00  0.00    -0.206 OA
ENDBRANCH  14  16
ENDBRANCH  12  14
BRANCH  11  20
HETATM   20  O4  UNL     1       2.903  29.320  25.867  1.00  0.00    -0.391 OA
ATOM     21  H4  UNL     1       2.486  28.785  25.201  1.00  0.00     0.210 HD
ENDBRANCH  11  20
BRANCH  10  22
HETATM   22  O3  UNL     1       4.141  31.170  26.842  1.00  0.00    -0.385 OA
HETATM   23  C11 UNL     1       4.757  30.794  28.020  1.00  0.00     0.202 C 
ENDBRANCH  10  22
BRANCH   9  24
HETATM   24  O2  UNL     1       3.331  33.536  27.549  1.00  0.00    -0.393 OA
ATOM     25  H2  UNL     1       4.164  33.080  27.543  1.00  0.00     0.210 HD
ENDBRANCH   9  24
BRANCH   3  26
HETATM   26  O1  UNL     1      -2.356  30.709  29.708  1.00  0.00    -0.391 OA
ATOM     27  H1  UNL     1      -2.462  31.390  30.363  1.00  0.00     0.210 HD
ENDBRANCH   3  26
TORSDOF 6
ENDMDL
MODEL 4
REMARK VINA RESULT: -6.353122423      2.152      4.830
REMARK  6 active torsions:
REMARK  status: ('A' for Active; 'I' for Inactive)
REMARK    1  A    between atoms: C3_3  and  O1_4 
REMARK    2  A    between atoms: C9_11  and  O2_12 
REMARK    3  A    between atoms: C10_14  and  O3_15 
REMARK    4  A    between atoms: C12_17  and  O4_18 
REMARK    5  A    between atoms: C13_20  and  N1_21 
REMARK    6  A    between atoms: N1_21  and  S1_23 
ROOT
HETATM    1  C1  UNL     1      -0.745  30.780  28.096  1.00  0.00     0.017 C 
HETATM    2  C2  UNL     1       0.246  31.632  28.262  1.00  0.00    -0.054 C 
HETATM    3  C3  UNL     1       0.377  32.295  29.591  1.00  0.00     0.146 C 
HETATM    4  C4  UNL     1       1.742  31.875  30.118  1.00  0.00     0.037 C 
HETATM    5  C5  UNL     1       2.733  32.400  29.127  1.00  0.00     0.013 C 
HETATM    6  C6  UNL     1       2.616  31.707  27.753  1.00  0.00    -0.032 C 
HETATM    7  C7  UNL     1       3.720  32.398  26.974  1.00  0.00     0.016 C 
HETATM    8  C8  UNL     1       2.901  30.267  28.020  1.00  0.00     0.044 C 
HETATM    9  C9  UNL     1       3.269  29.549  26.744  1.00  0.00     0.150 C 
HETATM   10  C10 UNL     1       1.969  29.279  26.010  1.00  0.00     0.180 C 
HETATM   11  C12 UNL     1       1.534  30.451  25.226  1.00  0.00     0.173 C 
HETATM   12  C13 UNL     1       0.919  31.605  25.847  1.00  0.00     0.133 C 
HETATM   13  C15 UNL     1       1.259  32.003  27.234  1.00  0.00     0.050 C 
ENDROOT
BRANCH  12  14
HETATM   14  N1  UNL     1       1.159  32.771  24.973  1.00  0.00    -0.312 N 
ATOM     15  H1  UNL     1       2.091  33.130  24.767  1.00  0.00     0.172 HD
BRANCH  14  16
HETATM   16  S1  UNL     1      -0.259  33.457  24.345  1.00  0.00     0.223 S 
HETATM   17  C14 UNL     1      -1.165  34.281  25.605  1.00  0.00     0.185 C 
HETATM   18  O5  UNL     1       0.040  34.399  23.196  1.00  0.00    -0.206 OA
HETATM   19  O6  UNL     1      -1.114  32.330  23.800  1.00  0.00    -0.206 OA
ENDBRANCH  14  16
ENDBRANCH  12  14
BRANCH  11  20
HETATM   20  O4  UNL     1       0.647  29.926  24.241  1.00  0.00    -0.391 OA
ATOM     21  H4  UNL     1       0.069  29.342  24.718  1.00  0.00     0.210 HD
ENDBRANCH  11  20
BRANCH  10  22
HETATM   22  O3  UNL     1       2.175  28.229  25.072  1.00  0.00    -0.385 OA
HETATM   23  C11 UNL     1       1.445  27.100  25.388  1.00  0.00     0.202 C 
ENDBRANCH  10  22
BRANCH   9  24
HETATM   24  O2  UNL     1       3.867  28.324  27.042  1.00  0.00    -0.393 OA
ATOM     25  H2  UNL     1       3.826  27.751  26.286  1.00  0.00     0.210 HD
ENDBRANCH   9  24
BRANCH   3  26
HETATM   26  O1  UNL     1      -0.642  31.927  30.460  1.00  0.00    -0.391 OA
ATOM     27  H1  UNL     1      -0.894  31.018  30.350  1.00  0.00     0.210 HD
ENDBRANCH   3  26
TORSDOF 6
ENDMDL
MODEL 5
REMARK VINA RESULT: -6.179454500      2.379      4.947
REMARK  6 active torsions:
REMARK  status: ('A' for Active; 'I' for Inactive)
REMARK    1  A    between atoms: C3_3  and  O1_4 
REMARK    2  A    between atoms: C9_11  and  O2_12 
REMARK    3  A    between atoms: C10_14  and  O3_15 
REMARK    4  A    between atoms: C12_17  and  O4_18 
REMARK    5  A    between atoms: C13_20  and  N1_21 
REMARK    6  A    between atoms: N1_21  and  S1_23 
ROOT
HETATM    1  C1  UNL     1       0.108  30.014  28.716  1.00  0.00     0.017 C 
HETATM    2  C2  UNL     1       0.714  31.148  29.002  1.00  0.00    -0.054 C 
HETATM    3  C3  UNL     1       0.605  31.661  30.398  1.00  0.00     0.146 C 
HETATM    4  C4  UNL     1       2.034  31.721  30.919  1.00  0.00     0.037 C 
HETATM    5  C5  UNL     1       2.747  32.682  30.020  1.00  0.00     0.013 C 
HETATM    6  C6  UNL     1       2.880  32.151  28.576  1.00  0.00    -0.032 C 
HETATM    7  C7  UNL     1       3.639  33.284  27.909  1.00  0.00     0.016 C 
HETATM    8  C8  UNL     1       3.682  30.900  28.696  1.00  0.00     0.044 C 
HETATM    9  C9  UNL     1       4.275  30.516  27.362  1.00  0.00     0.150 C 
HETATM   10  C10 UNL     1       3.160  29.866  26.565  1.00  0.00     0.180 C 
HETATM   11  C12 UNL     1       2.312  30.873  25.898  1.00  0.00     0.173 C 
HETATM   12  C13 UNL     1       1.319  31.640  26.620  1.00  0.00     0.133 C 
HETATM   13  C15 UNL     1       1.504  31.980  28.051  1.00  0.00     0.050 C 
ENDROOT
BRANCH  12  14
HETATM   14  N1  UNL     1       1.099  32.901  25.884  1.00  0.00    -0.312 N 
ATOM     15  H1  UNL     1       1.818  33.616  25.775  1.00  0.00     0.172 HD
BRANCH  14  16
HETATM   16  S1  UNL     1      -0.462  33.050  25.238  1.00  0.00     0.223 S 
HETATM   17  C14 UNL     1      -0.689  34.634  24.513  1.00  0.00     0.185 C 
HETATM   18  O5  UNL     1      -0.756  31.953  24.234  1.00  0.00    -0.206 OA
HETATM   19  O6  UNL     1      -1.449  32.900  26.379  1.00  0.00    -0.206 OA
ENDBRANCH  14  16
ENDBRANCH  12  14
BRANCH  11  20
HETATM   20  O4  UNL     1       1.672  30.169  24.836  1.00  0.00    -0.391 OA
ATOM     21  H4  UNL     1       1.287  30.846  24.291  1.00  0.00     0.210 HD
ENDBRANCH  11  20
BRANCH  10  22
HETATM   22  O3  UNL     1       3.731  29.078  25.526  1.00  0.00    -0.385 OA
HETATM   23  C11 UNL     1       3.491  27.730  25.706  1.00  0.00     0.202 C 
ENDBRANCH  10  22
BRANCH   9  24
HETATM   24  O2  UNL     1       5.290  29.574  27.545  1.00  0.00    -0.393 OA
ATOM     25  H2  UNL     1       5.011  28.914  28.168  1.00  0.00     0.210 HD
ENDBRANCH   9  24
BRANCH   3  26
HETATM   26  O1  UNL     1      -0.194  30.848  31.192  1.00  0.00    -0.391 OA
ATOM     27  H1  UNL     1       0.309  30.394  31.858  1.00  0.00     0.210 HD
ENDBRANCH   3  26
TORSDOF 6
ENDMDL
