MODEL 1
REMARK VINA RESULT: -7.471559991      0.000      0.000
REMARK  6 active torsions:
REMARK  status: ('A' for Active; 'I' for Inactive)
REMARK    1  A    between atoms: C9_17  and  N5_18 
REMARK    2  A    between atoms: N5_18  and  C10_20 
REMARK    3  A    between atoms: C10_20  and  C11_21 
REMARK    4  A    between atoms: C10_20  and  C14_24 
REMARK    5  A    between atoms: C14_24  and  O3_26 
REMARK    6  A    between atoms: C14_24  and  O4_28 
ROOT
HETATM    1  C1  UNL     1       1.968  32.025  26.372  1.00  0.00     0.051 C 
HETATM    2  C2  UNL     1       2.106  30.603  26.109  1.00  0.00    -0.018 A 
HETATM    3  C3  UNL     1       3.217  29.873  26.570  1.00  0.00     0.119 A 
HETATM    4  C4  UNL     1       4.201  30.608  27.314  1.00  0.00     0.105 C 
HETATM    5  N1  UNL     1       5.015  31.186  27.921  1.00  0.00    -0.191 NA
HETATM    6  C5  UNL     1       3.337  28.529  26.315  1.00  0.00     0.270 A 
HETATM    7  O1  UNL     1       4.333  27.911  26.738  1.00  0.00    -0.266 OA
HETATM    8  N2  UNL     1       2.417  27.855  25.622  1.00  0.00    -0.302 N 
HETATM    9  C6  UNL     1       2.544  26.421  25.348  1.00  0.00     0.161 C 
HETATM   10  C7  UNL     1       1.329  28.526  25.159  1.00  0.00     0.128 A 
HETATM   11  N3  UNL     1       0.429  27.793  24.463  1.00  0.00    -0.293 N 
ATOM     12  H3  UNL     1       0.570  26.795  24.303  1.00  0.00     0.172 HD
HETATM   13  C8  UNL     1      -0.649  28.422  23.994  1.00  0.00     0.327 A 
HETATM   14  O2  UNL     1      -1.540  27.790  23.328  1.00  0.00    -0.247 OA
HETATM   15  N4  UNL     1      -0.869  29.730  24.185  1.00  0.00    -0.294 N 
ATOM     16  H4  UNL     1      -1.714  30.153  23.802  1.00  0.00     0.172 HD
HETATM   17  C9  UNL     1       0.013  30.512  24.882  1.00  0.00     0.124 A 
HETATM   18  C16 UNL     1       1.170  29.878  25.395  1.00  0.00     0.060 A 
ENDROOT
BRANCH  17  19
HETATM   19  N5  UNL     1      -0.132  31.712  25.090  1.00  0.00    -0.343 N 
ATOM     20  H5  UNL     1       0.714  32.037  25.559  1.00  0.00     0.167 HD
BRANCH  19  21
HETATM   21  C10 UNL     1      -0.970  32.814  24.954  1.00  0.00     0.053 C 
BRANCH  21  22
HETATM   22  C11 UNL     1      -1.306  33.677  26.127  1.00  0.00     0.029 C 
HETATM   23  C12 UNL     1      -0.486  34.862  26.413  1.00  0.00     0.016 C 
HETATM   24  C13 UNL     1      -1.557  32.832  27.392  1.00  0.00     0.016 C 
ENDBRANCH  21  22
BRANCH  21  25
HETATM   25  C14 UNL     1      -0.872  33.560  23.642  1.00  0.00     0.196 C 
HETATM   26  C15 UNL     1      -1.512  34.934  23.715  1.00  0.00     0.086 C 
BRANCH  25  27
HETATM   27  O3  UNL     1      -1.642  32.893  22.654  1.00  0.00    -0.361 OA
ATOM     28  H3  UNL     1      -2.400  33.419  22.428  1.00  0.00     0.213 HD
ENDBRANCH  25  27
BRANCH  25  29
HETATM   29  O4  UNL     1       0.378  33.745  23.124  1.00  0.00    -0.361 OA
ATOM     30  H4  UNL     1       0.964  34.317  23.605  1.00  0.00     0.213 HD
ENDBRANCH  25  29
ENDBRANCH  21  25
ENDBRANCH  19  21
ENDBRANCH  17  19
TORSDOF 6
ENDMDL
MODEL 2
REMARK VINA RESULT: -7.157049781      4.150      6.193
REMARK  6 active torsions:
REMARK  status: ('A' for Active; 'I' for Inactive)
REMARK    1  A    between atoms: C9_17  and  N5_18 
REMARK    2  A    between atoms: N5_18  and  C10_20 
REMARK    3  A    between atoms: C10_20  and  C11_21 
REMARK    4  A    between atoms: C10_20  and  C14_24 
REMARK    5  A    between atoms: C14_24  and  O3_26 
REMARK    6  A    between atoms: C14_24  and  O4_28 
ROOT
HETATM    1  C1  UNL     1       0.145  32.966  30.017  1.00  0.00     0.051 C 
HETATM    2  C2  UNL     1       1.447  32.767  30.630  1.00  0.00    -0.018 A 
HETATM    3  C3  UNL     1       1.676  33.067  31.985  1.00  0.00     0.119 A 
HETATM    4  C4  UNL     1       0.557  33.578  32.726  1.00  0.00     0.105 C 
HETATM    5  N1  UNL     1      -0.341  33.994  33.347  1.00  0.00    -0.191 NA
HETATM    6  C5  UNL     1       2.912  32.876  32.553  1.00  0.00     0.270 A 
HETATM    7  O1  UNL     1       3.082  33.152  33.757  1.00  0.00    -0.266 OA
HETATM    8  N2  UNL     1       3.946  32.402  31.857  1.00  0.00    -0.302 N 
HETATM    9  C6  UNL     1       5.264  32.198  32.462  1.00  0.00     0.161 C 
HETATM   10  C7  UNL     1       3.764  32.100  30.544  1.00  0.00     0.128 A 
HETATM   11  N3  UNL     1       4.847  31.623  29.887  1.00  0.00    -0.293 N 
ATOM     12  H3  UNL     1       5.741  31.501  30.361  1.00  0.00     0.172 HD
HETATM   13  C8  UNL     1       4.701  31.319  28.597  1.00  0.00     0.327 A 
HETATM   14  O2  UNL     1       5.683  30.862  27.915  1.00  0.00    -0.247 OA
HETATM   15  N4  UNL     1       3.542  31.464  27.942  1.00  0.00    -0.294 N 
ATOM     16  H4  UNL     1       3.493  31.212  26.954  1.00  0.00     0.172 HD
HETATM   17  C9  UNL     1       2.420  31.942  28.563  1.00  0.00     0.124 A 
HETATM   18  C16 UNL     1       2.536  32.278  29.934  1.00  0.00     0.060 A 
ENDROOT
BRANCH  17  19
HETATM   19  N5  UNL     1       1.331  32.098  28.019  1.00  0.00    -0.343 N 
ATOM     20  H5  UNL     1       0.781  32.710  28.622  1.00  0.00     0.167 HD
BRANCH  19  21
HETATM   21  C10 UNL     1       0.535  31.786  26.922  1.00  0.00     0.053 C 
BRANCH  21  22
HETATM   22  C11 UNL     1      -0.196  30.485  26.845  1.00  0.00     0.029 C 
HETATM   23  C12 UNL     1      -0.668  29.844  28.080  1.00  0.00     0.016 C 
HETATM   24  C13 UNL     1       0.531  29.487  25.921  1.00  0.00     0.016 C 
ENDBRANCH  21  22
BRANCH  21  25
HETATM   25  C14 UNL     1      -0.195  32.947  26.284  1.00  0.00     0.196 C 
HETATM   26  C15 UNL     1      -0.004  32.986  24.779  1.00  0.00     0.086 C 
BRANCH  25  27
HETATM   27  O3  UNL     1       0.380  34.170  26.718  1.00  0.00    -0.361 OA
ATOM     28  H3  UNL     1       1.079  34.424  26.128  1.00  0.00     0.213 HD
ENDBRANCH  25  27
BRANCH  25  29
HETATM   29  O4  UNL     1      -1.540  33.031  26.503  1.00  0.00    -0.361 OA
ATOM     30  H4  UNL     1      -2.109  32.864  25.761  1.00  0.00     0.213 HD
ENDBRANCH  25  29
ENDBRANCH  21  25
ENDBRANCH  19  21
ENDBRANCH  17  19
TORSDOF 6
ENDMDL
MODEL 3
REMARK VINA RESULT: -7.127960912      1.612      2.225
REMARK  6 active torsions:
REMARK  status: ('A' for Active; 'I' for Inactive)
REMARK    1  A    between atoms: C9_17  and  N5_18 
REMARK    2  A    between atoms: N5_18  and  C10_20 
REMARK    3  A    between atoms: C10_20  and  C11_21 
REMARK    4  A    between atoms: C10_20  and  C14_24 
REMARK    5  A    between atoms: C14_24  and  O3_26 
REMARK    6  A    between atoms: C14_24  and  O4_28 
ROOT
HETATM    1  C1  UNL     1       2.744  32.066  26.885  1.00  0.00     0.051 C 
HETATM    2  C2  UNL     1       2.649  30.679  26.461  1.00  0.00    -0.018 A 
HETATM    3  C3  UNL     1       3.646  29.740  26.783  1.00  0.00     0.119 A 
HETATM    4  C4  UNL     1       4.758  30.226  27.552  1.00  0.00     0.105 C 
HETATM    5  N1  UNL     1       5.672  30.601  28.176  1.00  0.00    -0.191 NA
HETATM    6  C5  UNL     1       3.546  28.433  26.377  1.00  0.00     0.270 A 
HETATM    7  O1  UNL     1       4.447  27.626  26.679  1.00  0.00    -0.266 OA
HETATM    8  N2  UNL     1       2.509  27.990  25.663  1.00  0.00    -0.302 N 
HETATM    9  C6  UNL     1       2.401  26.596  25.228  1.00  0.00     0.161 C 
HETATM   10  C7  UNL     1       1.525  28.868  25.332  1.00  0.00     0.128 A 
HETATM   11  N3  UNL     1       0.498  28.365  24.607  1.00  0.00    -0.293 N 
ATOM     12  H3  UNL     1       0.476  27.383  24.333  1.00  0.00     0.172 HD
HETATM   13  C8  UNL     1      -0.483  29.200  24.265  1.00  0.00     0.327 A 
HETATM   14  O2  UNL     1      -1.484  28.792  23.581  1.00  0.00    -0.247 OA
HETATM   15  N4  UNL     1      -0.489  30.495  24.609  1.00  0.00    -0.294 N 
ATOM     16  H4  UNL     1      -1.270  31.084  24.318  1.00  0.00     0.172 HD
HETATM   17  C9  UNL     1       0.527  31.049  25.341  1.00  0.00     0.124 A 
HETATM   18  C16 UNL     1       1.588  30.192  25.722  1.00  0.00     0.060 A 
ENDROOT
BRANCH  17  19
HETATM   19  N5  UNL     1       0.579  32.225  25.686  1.00  0.00    -0.343 N 
ATOM     20  H5  UNL     1       1.566  32.460  25.796  1.00  0.00     0.167 HD
BRANCH  19  21
HETATM   21  C10 UNL     1      -0.148  33.372  25.990  1.00  0.00     0.053 C 
BRANCH  21  22
HETATM   22  C11 UNL     1      -0.880  34.125  24.928  1.00  0.00     0.029 C 
HETATM   23  C12 UNL     1      -0.464  33.989  23.526  1.00  0.00     0.016 C 
HETATM   24  C13 UNL     1      -1.087  35.600  25.327  1.00  0.00     0.016 C 
ENDBRANCH  21  22
BRANCH  21  25
HETATM   25  C14 UNL     1      -0.826  33.384  27.342  1.00  0.00     0.196 C 
HETATM   26  C15 UNL     1      -0.258  32.334  28.279  1.00  0.00     0.086 C 
BRANCH  25  27
HETATM   27  O3  UNL     1      -2.184  32.995  27.200  1.00  0.00    -0.361 OA
ATOM     28  H3  UNL     1      -2.237  32.055  27.077  1.00  0.00     0.213 HD
ENDBRANCH  25  27
BRANCH  25  29
HETATM   29  O4  UNL     1      -0.813  34.562  28.033  1.00  0.00    -0.361 OA
ATOM     30  H4  UNL     1      -1.124  34.540  28.930  1.00  0.00     0.213 HD
ENDBRANCH  25  29
ENDBRANCH  21  25
ENDBRANCH  19  21
ENDBRANCH  17  19
TORSDOF 6
ENDMDL
MODEL 4
REMARK VINA RESULT: -7.118815572      2.709      3.275
REMARK  6 active torsions:
REMARK  status: ('A' for Active; 'I' for Inactive)
REMARK    1  A    between atoms: C9_17  and  N5_18 
REMARK    2  A    between atoms: N5_18  and  C10_20 
REMARK    3  A    between atoms: C10_20  and  C11_21 
REMARK    4  A    between atoms: C10_20  and  C14_24 
REMARK    5  A    between atoms: C14_24  and  O3_26 
REMARK    6  A    between atoms: C14_24  and  O4_28 
ROOT
HETATM    1  C1  UNL     1      -0.193  30.318  28.096  1.00  0.00     0.051 C 
HETATM    2  C2  UNL     1      -0.241  28.949  27.609  1.00  0.00    -0.018 A 
HETATM    3  C3  UNL     1      -0.266  27.855  28.492  1.00  0.00     0.119 A 
HETATM    4  C4  UNL     1      -0.243  28.163  29.895  1.00  0.00     0.105 C 
HETATM    5  N1  UNL     1      -0.223  28.391  31.040  1.00  0.00    -0.191 NA
HETATM    6  C5  UNL     1      -0.311  26.566  28.021  1.00  0.00     0.270 A 
HETATM    7  O1  UNL     1      -0.332  25.617  28.830  1.00  0.00    -0.266 OA
HETATM    8  N2  UNL     1      -0.333  26.289  26.716  1.00  0.00    -0.302 N 
HETATM    9  C6  UNL     1      -0.380  24.915  26.212  1.00  0.00     0.161 C 
HETATM   10  C7  UNL     1      -0.310  27.321  25.831  1.00  0.00     0.128 A 
HETATM   11  N3  UNL     1      -0.333  26.982  24.521  1.00  0.00    -0.293 N 
ATOM     12  H3  UNL     1      -0.366  26.006  24.227  1.00  0.00     0.172 HD
HETATM   13  C8  UNL     1      -0.310  27.972  23.627  1.00  0.00     0.327 A 
HETATM   14  O2  UNL     1      -0.330  27.723  22.372  1.00  0.00    -0.247 OA
HETATM   15  N4  UNL     1      -0.267  29.265  23.974  1.00  0.00    -0.294 N 
ATOM     16  H4  UNL     1      -0.253  29.976  23.243  1.00  0.00     0.172 HD
HETATM   17  C9  UNL     1      -0.242  29.656  25.286  1.00  0.00     0.124 A 
HETATM   18  C16 UNL     1      -0.265  28.632  26.264  1.00  0.00     0.060 A 
ENDROOT
BRANCH  17  19
HETATM   19  N5  UNL     1      -0.203  30.822  25.667  1.00  0.00    -0.343 N 
ATOM     20  H5  UNL     1      -0.844  30.898  26.458  1.00  0.00     0.167 HD
BRANCH  19  21
HETATM   21  C10 UNL     1       0.350  32.082  25.470  1.00  0.00     0.053 C 
BRANCH  21  22
HETATM   22  C11 UNL     1       1.822  32.306  25.597  1.00  0.00     0.029 C 
HETATM   23  C12 UNL     1       2.755  31.258  25.161  1.00  0.00     0.016 C 
HETATM   24  C13 UNL     1       2.189  32.859  26.988  1.00  0.00     0.016 C 
ENDBRANCH  21  22
BRANCH  21  25
HETATM   25  C14 UNL     1      -0.321  32.943  24.423  1.00  0.00     0.196 C 
HETATM   26  C15 UNL     1      -0.969  34.176  25.025  1.00  0.00     0.086 C 
BRANCH  25  27
HETATM   27  O3  UNL     1      -1.418  32.241  23.858  1.00  0.00    -0.361 OA
ATOM     28  H3  UNL     1      -2.206  32.765  23.930  1.00  0.00     0.213 HD
ENDBRANCH  25  27
BRANCH  25  29
HETATM   29  O4  UNL     1       0.455  33.383  23.389  1.00  0.00    -0.361 OA
ATOM     30  H4  UNL     1       0.213  34.209  22.990  1.00  0.00     0.213 HD
ENDBRANCH  25  29
ENDBRANCH  21  25
ENDBRANCH  19  21
ENDBRANCH  17  19
TORSDOF 6
ENDMDL
MODEL 5
REMARK VINA RESULT: -7.090642584      1.603      2.032
REMARK  6 active torsions:
REMARK  status: ('A' for Active; 'I' for Inactive)
REMARK    1  A    between atoms: C9_17  and  N5_18 
REMARK    2  A    between atoms: N5_18  and  C10_20 
REMARK    3  A    between atoms: C10_20  and  C11_21 
REMARK    4  A    between atoms: C10_20  and  C14_24 
REMARK    5  A    between atoms: C14_24  and  O3_26 
REMARK    6  A    between atoms: C14_24  and  O4_28 
ROOT
HETATM    1  C1  UNL     1       2.126  29.718  26.615  1.00  0.00     0.051 C 
HETATM    2  C2  UNL     1       1.991  28.488  25.853  1.00  0.00    -0.018 A 
HETATM    3  C3  UNL     1       2.908  27.430  25.993  1.00  0.00     0.119 A 
HETATM    4  C4  UNL     1       3.979  27.631  26.928  1.00  0.00     0.105 C 
HETATM    5  N1  UNL     1       4.859  27.775  27.683  1.00  0.00    -0.191 NA
HETATM    6  C5  UNL     1       2.770  26.273  25.267  1.00  0.00     0.270 A 
HETATM    7  O1  UNL     1       3.600  25.354  25.415  1.00  0.00    -0.266 OA
HETATM    8  N2  UNL     1       1.771  26.095  24.401  1.00  0.00    -0.302 N 
HETATM    9  C6  UNL     1       1.623  24.861  23.626  1.00  0.00     0.161 C 
HETATM   10  C7  UNL     1       0.865  27.095  24.238  1.00  0.00     0.128 A 
HETATM   11  N3  UNL     1      -0.126  26.860  23.346  1.00  0.00    -0.293 N 
ATOM     12  H3  UNL     1      -0.179  25.980  22.834  1.00  0.00     0.172 HD
HETATM   13  C8  UNL     1      -1.031  27.822  23.162  1.00  0.00     0.327 A 
HETATM   14  O2  UNL     1      -1.995  27.667  22.335  1.00  0.00    -0.247 OA
HETATM   15  N4  UNL     1      -0.995  28.990  23.817  1.00  0.00    -0.294 N 
ATOM     16  H4  UNL     1      -1.717  29.686  23.633  1.00  0.00     0.172 HD
HETATM   17  C9  UNL     1      -0.013  29.273  24.727  1.00  0.00     0.124 A 
HETATM   18  C16 UNL     1       0.967  28.275  24.949  1.00  0.00     0.060 A 
ENDROOT
BRANCH  17  19
HETATM   19  N5  UNL     1       0.075  30.321  25.358  1.00  0.00    -0.343 N 
ATOM     20  H5  UNL     1       0.931  30.266  25.911  1.00  0.00     0.167 HD
BRANCH  19  21
HETATM   21  C10 UNL     1      -0.507  31.554  25.634  1.00  0.00     0.053 C 
BRANCH  21  22
HETATM   22  C11 UNL     1      -0.421  32.161  26.996  1.00  0.00     0.029 C 
HETATM   23  C12 UNL     1       0.858  32.711  27.465  1.00  0.00     0.016 C 
HETATM   24  C13 UNL     1      -1.080  31.256  28.056  1.00  0.00     0.016 C 
ENDBRANCH  21  22
BRANCH  21  25
HETATM   25  C14 UNL     1      -0.491  32.560  24.504  1.00  0.00     0.196 C 
HETATM   26  C15 UNL     1      -0.929  33.940  24.958  1.00  0.00     0.086 C 
BRANCH  25  27
HETATM   27  O3  UNL     1      -1.467  32.209  23.536  1.00  0.00    -0.361 OA
ATOM     28  H3  UNL     1      -1.494  32.868  22.853  1.00  0.00     0.213 HD
ENDBRANCH  25  27
BRANCH  25  29
HETATM   29  O4  UNL     1       0.692  32.731  23.842  1.00  0.00    -0.361 OA
ATOM     30  H4  UNL     1       0.748  32.381  22.961  1.00  0.00     0.213 HD
ENDBRANCH  25  29
ENDBRANCH  21  25
ENDBRANCH  19  21
ENDBRANCH  17  19
TORSDOF 6
ENDMDL
