MODEL 1
REMARK VINA RESULT: -7.591773398      0.000      0.000
REMARK  7 active torsions:
REMARK  status: ('A' for Active; 'I' for Inactive)
REMARK    1  A    between atoms: C8_9  and  O2_10 
REMARK    2  A    between atoms: C9_12  and  O3_13 
REMARK    3  A    between atoms: C10_15  and  O4_16 
REMARK    4  A    between atoms: C12_19  and  C13_20 
REMARK    5  A    between atoms: C13_20  and  O5_21 
REMARK    6  A    between atoms: O5_21  and  S1_22 
REMARK    7  A    between atoms: S1_22  and  N1_23 
ROOT
HETATM    1  C1  UNL     1     -26.153 -18.520   1.237  1.00  0.00     0.102 C 
HETATM    2  C2  UNL     1     -26.780 -18.109   0.269  1.00  0.00    -0.158 C 
HETATM    3  C3  UNL     1     -27.498 -17.630  -0.866  1.00  0.00     0.083 C 
HETATM    4  C4  UNL     1     -28.048 -16.439  -0.837  1.00  0.00     0.060 C 
HETATM    5  O1  UNL     1     -27.929 -15.628   0.317  1.00  0.00    -0.348 OA
HETATM    6  C5  UNL     1     -28.714 -14.495   0.304  1.00  0.00     0.144 C 
HETATM    7  C6  UNL     1     -28.199 -13.208   0.903  1.00  0.00     0.019 C 
HETATM    8  C7  UNL     1     -29.210 -12.111   0.764  1.00  0.00     0.042 C 
HETATM    9  C8  UNL     1     -29.599 -11.824  -0.696  1.00  0.00     0.156 C 
HETATM   10  C9  UNL     1     -29.631 -13.116  -1.373  1.00  0.00     0.120 C 
HETATM   11  C10 UNL     1     -29.277 -13.434  -2.745  1.00  0.00     0.161 C 
HETATM   12  C11 UNL     1     -28.327 -14.516  -2.213  1.00  0.00     0.044 C 
HETATM   13  C12 UNL     1     -28.820 -15.890  -2.019  1.00  0.00     0.076 C 
HETATM   14  C14 UNL     1     -28.365 -13.800  -0.984  1.00  0.00     0.030 C 
HETATM   15  C15 UNL     1     -27.278 -13.131  -0.330  1.00  0.00     0.023 C 
ENDROOT
BRANCH  13  16
HETATM   16  C13 UNL     1     -28.625 -16.799  -3.201  1.00  0.00     0.203 C 
BRANCH  16  17
HETATM   17  O5  UNL     1     -29.872 -16.972  -3.820  1.00  0.00    -0.259 OA
BRANCH  17  18
HETATM   18  S1  UNL     1     -30.199 -18.574  -4.137  1.00  0.00     0.355 S 
HETATM   19  O6  UNL     1     -29.138 -19.064  -5.103  1.00  0.00    -0.176 OA
HETATM   20  O7  UNL     1     -30.118 -19.441  -2.918  1.00  0.00    -0.176 OA
BRANCH  18  21
HETATM   21  N1  UNL     1     -31.710 -18.704  -4.931  1.00  0.00    -0.306 N 
ATOM     22  H12 UNL     1     -32.535 -18.151  -4.697  1.00  0.00     0.171 HD
ATOM     23  H11 UNL     1     -31.651 -19.411  -5.664  1.00  0.00     0.171 HD
ENDBRANCH  18  21
ENDBRANCH  17  18
ENDBRANCH  16  17
ENDBRANCH  13  16
BRANCH  11  24
HETATM   24  O4  UNL     1     -28.503 -12.440  -3.346  1.00  0.00    -0.392 OA
ATOM     25  H4  UNL     1     -28.649 -12.377  -4.283  1.00  0.00     0.210 HD
ENDBRANCH  11  24
BRANCH  10  26
HETATM   26  O3  UNL     1     -30.808 -13.818  -0.989  1.00  0.00    -0.384 OA
ATOM     27  H3  UNL     1     -31.571 -13.317  -1.252  1.00  0.00     0.210 HD
ENDBRANCH  10  26
BRANCH   9  28
HETATM   28  O2  UNL     1     -28.874 -10.818  -1.260  1.00  0.00    -0.392 OA
ATOM     29  H2  UNL     1     -28.098 -11.123  -1.716  1.00  0.00     0.210 HD
ENDBRANCH   9  28
TORSDOF 7
ENDMDL
MODEL 2
REMARK VINA RESULT: -7.490910609      1.286      1.568
REMARK  7 active torsions:
REMARK  status: ('A' for Active; 'I' for Inactive)
REMARK    1  A    between atoms: C8_9  and  O2_10 
REMARK    2  A    between atoms: C9_12  and  O3_13 
REMARK    3  A    between atoms: C10_15  and  O4_16 
REMARK    4  A    between atoms: C12_19  and  C13_20 
REMARK    5  A    between atoms: C13_20  and  O5_21 
REMARK    6  A    between atoms: O5_21  and  S1_22 
REMARK    7  A    between atoms: S1_22  and  N1_23 
ROOT
HETATM    1  C1  UNL     1     -25.720 -18.346   1.823  1.00  0.00     0.102 C 
HETATM    2  C2  UNL     1     -26.478 -18.204   0.872  1.00  0.00    -0.158 C 
HETATM    3  C3  UNL     1     -27.351 -18.044  -0.243  1.00  0.00     0.083 C 
HETATM    4  C4  UNL     1     -27.658 -16.841  -0.666  1.00  0.00     0.060 C 
HETATM    5  O1  UNL     1     -27.122 -15.701  -0.020  1.00  0.00    -0.348 OA
HETATM    6  C5  UNL     1     -27.673 -14.503  -0.422  1.00  0.00     0.144 C 
HETATM    7  C6  UNL     1     -26.809 -13.270  -0.534  1.00  0.00     0.019 C 
HETATM    8  C7  UNL     1     -27.612 -12.094  -0.999  1.00  0.00     0.042 C 
HETATM    9  C8  UNL     1     -28.284 -12.319  -2.364  1.00  0.00     0.156 C 
HETATM   10  C9  UNL     1     -28.708 -13.715  -2.388  1.00  0.00     0.120 C 
HETATM   11  C10 UNL     1     -28.756 -14.632  -3.512  1.00  0.00     0.161 C 
HETATM   12  C11 UNL     1     -27.914 -15.623  -2.696  1.00  0.00     0.044 C 
HETATM   13  C12 UNL     1     -28.581 -16.623  -1.847  1.00  0.00     0.076 C 
HETATM   14  C14 UNL     1     -27.527 -14.496  -1.919  1.00  0.00     0.030 C 
HETATM   15  C15 UNL     1     -26.213 -13.935  -1.789  1.00  0.00     0.023 C 
ENDROOT
BRANCH  13  16
HETATM   16  C13 UNL     1     -28.842 -17.943  -2.520  1.00  0.00     0.203 C 
BRANCH  16  17
HETATM   17  O5  UNL     1     -30.190 -17.970  -2.908  1.00  0.00    -0.259 OA
BRANCH  17  18
HETATM   18  S1  UNL     1     -30.375 -18.415  -4.502  1.00  0.00     0.355 S 
HETATM   19  O6  UNL     1     -30.245 -17.155  -5.335  1.00  0.00    -0.176 OA
HETATM   20  O7  UNL     1     -29.318 -19.366  -4.973  1.00  0.00    -0.176 OA
BRANCH  18  21
HETATM   21  N1  UNL     1     -31.957 -19.025  -4.745  1.00  0.00    -0.306 N 
ATOM     22  H12 UNL     1     -32.796 -18.447  -4.802  1.00  0.00     0.171 HD
ATOM     23  H11 UNL     1     -31.922 -20.041  -4.822  1.00  0.00     0.171 HD
ENDBRANCH  18  21
ENDBRANCH  17  18
ENDBRANCH  16  17
ENDBRANCH  13  16
BRANCH  11  24
HETATM   24  O4  UNL     1     -27.986 -14.201  -4.593  1.00  0.00    -0.392 OA
ATOM     25  H4  UNL     1     -28.326 -14.500  -5.429  1.00  0.00     0.210 HD
ENDBRANCH  11  24
BRANCH  10  26
HETATM   26  O3  UNL     1     -29.862 -13.869  -1.572  1.00  0.00    -0.384 OA
ATOM     27  H3  UNL     1     -29.748 -13.370  -0.771  1.00  0.00     0.210 HD
ENDBRANCH  10  26
BRANCH   9  28
HETATM   28  O2  UNL     1     -27.549 -11.850  -3.411  1.00  0.00    -0.392 OA
ATOM     29  H2  UNL     1     -27.761 -10.955  -3.649  1.00  0.00     0.210 HD
ENDBRANCH   9  28
TORSDOF 7
ENDMDL
MODEL 3
REMARK VINA RESULT: -7.058233787      3.511      4.526
REMARK  7 active torsions:
REMARK  status: ('A' for Active; 'I' for Inactive)
REMARK    1  A    between atoms: C8_9  and  O2_10 
REMARK    2  A    between atoms: C9_12  and  O3_13 
REMARK    3  A    between atoms: C10_15  and  O4_16 
REMARK    4  A    between atoms: C12_19  and  C13_20 
REMARK    5  A    between atoms: C13_20  and  O5_21 
REMARK    6  A    between atoms: O5_21  and  S1_22 
REMARK    7  A    between atoms: S1_22  and  N1_23 
ROOT
HETATM    1  C1  UNL     1     -30.012 -18.713  -3.546  1.00  0.00     0.102 C 
HETATM    2  C2  UNL     1     -29.107 -17.889  -3.561  1.00  0.00    -0.158 C 
HETATM    3  C3  UNL     1     -28.046 -16.937  -3.571  1.00  0.00     0.083 C 
HETATM    4  C4  UNL     1     -28.211 -15.768  -2.999  1.00  0.00     0.060 C 
HETATM    5  O1  UNL     1     -29.439 -15.450  -2.372  1.00  0.00    -0.348 OA
HETATM    6  C5  UNL     1     -29.561 -14.130  -1.990  1.00  0.00     0.144 C 
HETATM    7  C6  UNL     1     -30.276 -13.775  -0.708  1.00  0.00     0.019 C 
HETATM    8  C7  UNL     1     -30.276 -12.293  -0.489  1.00  0.00     0.042 C 
HETATM    9  C8  UNL     1     -28.863 -11.689  -0.419  1.00  0.00     0.156 C 
HETATM   10  C9  UNL     1     -28.058 -12.416  -1.395  1.00  0.00     0.120 C 
HETATM   11  C10 UNL     1     -26.653 -12.774  -1.328  1.00  0.00     0.161 C 
HETATM   12  C11 UNL     1     -27.047 -14.233  -1.600  1.00  0.00     0.044 C 
HETATM   13  C12 UNL     1     -27.111 -14.727  -2.986  1.00  0.00     0.076 C 
HETATM   14  C14 UNL     1     -28.343 -13.859  -1.149  1.00  0.00     0.030 C 
HETATM   15  C15 UNL     1     -29.036 -14.338   0.012  1.00  0.00     0.023 C 
ENDROOT
BRANCH  13  16
HETATM   16  C13 UNL     1     -25.837 -15.348  -3.489  1.00  0.00     0.203 C 
BRANCH  16  17
HETATM   17  O5  UNL     1     -25.420 -14.621  -4.615  1.00  0.00    -0.259 OA
BRANCH  17  18
HETATM   18  S1  UNL     1     -23.821 -14.165  -4.511  1.00  0.00     0.355 S 
HETATM   19  O6  UNL     1     -22.989 -15.350  -4.959  1.00  0.00    -0.176 OA
HETATM   20  O7  UNL     1     -23.478 -13.020  -5.413  1.00  0.00    -0.176 OA
BRANCH  18  21
HETATM   21  N1  UNL     1     -23.421 -13.850  -2.876  1.00  0.00    -0.306 N 
ATOM     22  H12 UNL     1     -23.821 -13.094  -2.319  1.00  0.00     0.171 HD
ATOM     23  H11 UNL     1     -22.731 -14.530  -2.556  1.00  0.00     0.171 HD
ENDBRANCH  18  21
ENDBRANCH  17  18
ENDBRANCH  16  17
ENDBRANCH  13  16
BRANCH  11  24
HETATM   24  O4  UNL     1     -26.138 -12.702  -0.033  1.00  0.00    -0.392 OA
ATOM     25  H4  UNL     1     -25.189 -12.667  -0.016  1.00  0.00     0.210 HD
ENDBRANCH  11  24
BRANCH  10  26
HETATM   26  O3  UNL     1     -28.396 -11.975  -2.704  1.00  0.00    -0.384 OA
ATOM     27  H3  UNL     1     -27.600 -11.841  -3.205  1.00  0.00     0.210 HD
ENDBRANCH  10  26
BRANCH   9  28
HETATM   28  O2  UNL     1     -28.388 -11.575   0.853  1.00  0.00    -0.392 OA
ATOM     29  H2  UNL     1     -27.621 -11.019   0.920  1.00  0.00     0.210 HD
ENDBRANCH   9  28
TORSDOF 7
ENDMDL
MODEL 4
REMARK VINA RESULT: -6.922811031      2.579      3.346
REMARK  7 active torsions:
REMARK  status: ('A' for Active; 'I' for Inactive)
REMARK    1  A    between atoms: C8_9  and  O2_10 
REMARK    2  A    between atoms: C9_12  and  O3_13 
REMARK    3  A    between atoms: C10_15  and  O4_16 
REMARK    4  A    between atoms: C12_19  and  C13_20 
REMARK    5  A    between atoms: C13_20  and  O5_21 
REMARK    6  A    between atoms: O5_21  and  S1_22 
REMARK    7  A    between atoms: S1_22  and  N1_23 
ROOT
HETATM    1  C1  UNL     1     -23.521 -14.594  -4.271  1.00  0.00     0.102 C 
HETATM    2  C2  UNL     1     -24.670 -14.769  -3.887  1.00  0.00    -0.158 C 
HETATM    3  C3  UNL     1     -26.013 -14.968  -3.452  1.00  0.00     0.083 C 
HETATM    4  C4  UNL     1     -26.506 -14.224  -2.490  1.00  0.00     0.060 C 
HETATM    5  O1  UNL     1     -25.709 -13.224  -1.885  1.00  0.00    -0.348 OA
HETATM    6  C5  UNL     1     -26.265 -12.652  -0.760  1.00  0.00     0.144 C 
HETATM    7  C6  UNL     1     -26.070 -11.181  -0.481  1.00  0.00     0.019 C 
HETATM    8  C7  UNL     1     -26.769 -10.778   0.780  1.00  0.00     0.042 C 
HETATM    9  C8  UNL     1     -28.283 -11.052   0.750  1.00  0.00     0.156 C 
HETATM   10  C9  UNL     1     -28.458 -12.310   0.032  1.00  0.00     0.120 C 
HETATM   11  C10 UNL     1     -29.540 -12.712  -0.848  1.00  0.00     0.161 C 
HETATM   12  C11 UNL     1     -28.495 -13.045  -1.923  1.00  0.00     0.044 C 
HETATM   13  C12 UNL     1     -27.928 -14.401  -1.996  1.00  0.00     0.076 C 
HETATM   14  C14 UNL     1     -27.625 -12.183  -1.198  1.00  0.00     0.030 C 
HETATM   15  C15 UNL     1     -27.057 -10.943  -1.641  1.00  0.00     0.023 C 
ENDROOT
BRANCH  13  16
HETATM   16  C13 UNL     1     -28.658 -15.338  -2.919  1.00  0.00     0.203 C 
BRANCH  16  17
HETATM   17  O5  UNL     1     -29.691 -15.943  -2.187  1.00  0.00    -0.259 OA
BRANCH  17  18
HETATM   18  S1  UNL     1     -29.288 -17.478  -1.683  1.00  0.00     0.355 S 
HETATM   19  O6  UNL     1     -30.328 -18.422  -2.253  1.00  0.00    -0.176 OA
HETATM   20  O7  UNL     1     -27.954 -17.931  -2.193  1.00  0.00    -0.176 OA
BRANCH  18  21
HETATM   21  N1  UNL     1     -29.400 -17.567   0.023  1.00  0.00    -0.306 N 
ATOM     22  H12 UNL     1     -28.626 -17.815   0.640  1.00  0.00     0.171 HD
ATOM     23  H11 UNL     1     -30.349 -17.336   0.315  1.00  0.00     0.171 HD
ENDBRANCH  18  21
ENDBRANCH  17  18
ENDBRANCH  16  17
ENDBRANCH  13  16
BRANCH  11  24
HETATM   24  O4  UNL     1     -30.296 -11.630  -1.303  1.00  0.00    -0.392 OA
ATOM     25  H4  UNL     1     -30.596 -11.743  -2.197  1.00  0.00     0.210 HD
ENDBRANCH  11  24
BRANCH  10  26
HETATM   26  O3  UNL     1     -28.078 -13.389   0.877  1.00  0.00    -0.384 OA
ATOM     27  H3  UNL     1     -28.523 -14.180   0.594  1.00  0.00     0.210 HD
ENDBRANCH  10  26
BRANCH   9  28
HETATM   28  O2  UNL     1     -29.018  -9.975   0.354  1.00  0.00    -0.392 OA
ATOM     29  H2  UNL     1     -29.200  -9.966  -0.578  1.00  0.00     0.210 HD
ENDBRANCH   9  28
TORSDOF 7
ENDMDL
MODEL 5
REMARK VINA RESULT: -6.795000485      4.183      6.054
REMARK  7 active torsions:
REMARK  status: ('A' for Active; 'I' for Inactive)
REMARK    1  A    between atoms: C8_9  and  O2_10 
REMARK    2  A    between atoms: C9_12  and  O3_13 
REMARK    3  A    between atoms: C10_15  and  O4_16 
REMARK    4  A    between atoms: C12_19  and  C13_20 
REMARK    5  A    between atoms: C13_20  and  O5_21 
REMARK    6  A    between atoms: O5_21  and  S1_22 
REMARK    7  A    between atoms: S1_22  and  N1_23 
ROOT
HETATM    1  C1  UNL     1     -26.162  -8.037  -3.006  1.00  0.00     0.102 C 
HETATM    2  C2  UNL     1     -25.678  -9.161  -3.001  1.00  0.00    -0.158 C 
HETATM    3  C3  UNL     1     -25.112 -10.470  -3.008  1.00  0.00     0.083 C 
HETATM    4  C4  UNL     1     -25.836 -11.498  -2.634  1.00  0.00     0.060 C 
HETATM    5  O1  UNL     1     -27.179 -11.311  -2.226  1.00  0.00    -0.348 OA
HETATM    6  C5  UNL     1     -27.768 -12.426  -1.667  1.00  0.00     0.144 C 
HETATM    7  C6  UNL     1     -29.225 -12.723  -1.925  1.00  0.00     0.019 C 
HETATM    8  C7  UNL     1     -29.644 -13.984  -1.233  1.00  0.00     0.042 C 
HETATM    9  C8  UNL     1     -28.831 -15.216  -1.669  1.00  0.00     0.156 C 
HETATM   10  C9  UNL     1     -27.461 -14.754  -1.864  1.00  0.00     0.120 C 
HETATM   11  C10 UNL     1     -26.479 -15.203  -2.834  1.00  0.00     0.161 C 
HETATM   12  C11 UNL     1     -26.297 -13.744  -3.275  1.00  0.00     0.044 C 
HETATM   13  C12 UNL     1     -25.277 -12.905  -2.626  1.00  0.00     0.076 C 
HETATM   14  C14 UNL     1     -27.572 -13.515  -2.686  1.00  0.00     0.030 C 
HETATM   15  C15 UNL     1     -28.781 -13.115  -3.347  1.00  0.00     0.023 C 
ENDROOT
BRANCH  13  16
HETATM   16  C13 UNL     1     -23.936 -12.908  -3.308  1.00  0.00     0.203 C 
BRANCH  16  17
HETATM   17  O5  UNL     1     -23.548 -14.244  -3.489  1.00  0.00    -0.259 OA
BRANCH  17  18
HETATM   18  S1  UNL     1     -23.342 -14.626  -5.097  1.00  0.00     0.355 S 
HETATM   19  O6  UNL     1     -24.283 -15.773  -5.407  1.00  0.00    -0.176 OA
HETATM   20  O7  UNL     1     -23.702 -13.500  -6.017  1.00  0.00    -0.176 OA
BRANCH  18  21
HETATM   21  N1  UNL     1     -21.746 -15.192  -5.350  1.00  0.00    -0.306 N 
ATOM     22  H12 UNL     1     -20.955 -14.977  -4.744  1.00  0.00     0.171 HD
ATOM     23  H11 UNL     1     -21.718 -15.767  -6.192  1.00  0.00     0.171 HD
ENDBRANCH  18  21
ENDBRANCH  17  18
ENDBRANCH  16  17
ENDBRANCH  13  16
BRANCH  11  24
HETATM   24  O4  UNL     1     -27.052 -15.906  -3.896  1.00  0.00    -0.392 OA
ATOM     25  H4  UNL     1     -27.345 -15.335  -4.597  1.00  0.00     0.210 HD
ENDBRANCH  11  24
BRANCH  10  26
HETATM   26  O3  UNL     1     -26.849 -14.552  -0.596  1.00  0.00    -0.384 OA
ATOM     27  H3  UNL     1     -26.965 -15.331  -0.065  1.00  0.00     0.210 HD
ENDBRANCH  10  26
BRANCH   9  28
HETATM   28  O2  UNL     1     -29.422 -15.925  -2.672  1.00  0.00    -0.392 OA
ATOM     29  H2  UNL     1     -30.131 -15.458  -3.095  1.00  0.00     0.210 HD
ENDBRANCH   9  28
TORSDOF 7
ENDMDL
