MODEL 1
REMARK VINA RESULT: -7.598022663      0.000      0.000
REMARK  6 active torsions:
REMARK  status: ('A' for Active; 'I' for Inactive)
REMARK    1  A    between atoms: O1_2  and  C2_3 
REMARK    2  A    between atoms: C2_3  and  C3_4 
REMARK    3  A    between atoms: C3_4  and  O2_5 
REMARK    4  A    between atoms: C8_17  and  C9_18 
REMARK    5  A    between atoms: C9_18  and  C10_19 
REMARK    6  A    between atoms: C15_25  and  O6_26 
ROOT
HETATM    1  C3  UNL     1     -27.861 -14.612  -3.354  1.00  0.00     0.188 C 
HETATM    2  C4  UNL     1     -26.485 -15.027  -3.055  1.00  0.00     0.258 C 
HETATM    3  O3  UNL     1     -25.704 -15.191  -4.074  1.00  0.00    -0.270 OA
HETATM    4  N1  UNL     1     -25.887 -15.276  -1.813  1.00  0.00    -0.345 N 
ATOM      5  H1  UNL     1     -25.499 -16.212  -1.696  1.00  0.00     0.163 HD
HETATM    6  C5  UNL     1     -25.738 -14.402  -0.675  1.00  0.00     0.172 C 
HETATM    7  C6  UNL     1     -24.285 -13.874  -0.777  1.00  0.00     0.042 C 
HETATM    8  C7  UNL     1     -25.800 -15.138   0.615  1.00  0.00     0.240 C 
HETATM    9  O4  UNL     1     -25.137 -14.588   1.569  1.00  0.00    -0.271 OA
HETATM   10  N2  UNL     1     -26.499 -16.340   0.864  1.00  0.00    -0.354 N 
ATOM     11  H2  UNL     1     -25.963 -17.106   1.274  1.00  0.00     0.162 HD
HETATM   12  C8  UNL     1     -27.898 -16.594   0.598  1.00  0.00     0.093 C 
HETATM   13  C11 UNL     1     -28.148 -17.826  -0.235  1.00  0.00     0.061 C 
HETATM   14  C12 UNL     1     -28.327 -17.516  -1.690  1.00  0.00     0.146 C 
HETATM   15  C13 UNL     1     -29.435 -18.312  -2.334  1.00  0.00     0.003 C 
HETATM   16  C14 UNL     1     -29.681 -17.937  -3.605  1.00  0.00     0.006 C 
HETATM   17  C15 UNL     1     -28.817 -16.830  -4.105  1.00  0.00     0.173 C 
HETATM   18  C16 UNL     1     -28.869 -15.733  -3.082  1.00  0.00     0.200 C 
HETATM   19  O7  UNL     1     -28.584 -16.184  -1.828  1.00  0.00    -0.370 OA
ENDROOT
BRANCH   1  20
HETATM   20  C2  UNL     1     -28.348 -13.392  -2.624  1.00  0.00     0.217 C 
BRANCH  20  21
HETATM   21  O1  UNL     1     -27.940 -12.302  -3.444  1.00  0.00    -0.392 OA
HETATM   22  C1  UNL     1     -27.002 -11.525  -2.788  1.00  0.00     0.201 C 
ENDBRANCH  20  21
ENDBRANCH   1  20
BRANCH   1  23
HETATM   23  O2  UNL     1     -27.980 -14.310  -4.714  1.00  0.00    -0.376 OA
ATOM     24  H2  UNL     1     -27.802 -15.123  -5.174  1.00  0.00     0.211 HD
ENDBRANCH   1  23
BRANCH  17  25
HETATM   25  O6  UNL     1     -29.285 -16.415  -5.346  1.00  0.00    -0.389 OA
ATOM     26  H6  UNL     1     -28.547 -16.312  -5.936  1.00  0.00     0.210 HD
ENDBRANCH  17  25
BRANCH  12  27
HETATM   27  C9  UNL     1     -28.577 -16.845   1.957  1.00  0.00     0.094 C 
BRANCH  27  28
HETATM   28  C10 UNL     1     -29.409 -15.643   2.239  1.00  0.00     0.233 C 
HETATM   29  O5  UNL     1     -30.348 -15.647   3.000  1.00  0.00    -0.307 OA
ENDBRANCH  27  28
ENDBRANCH  12  27
TORSDOF 6
ENDMDL
MODEL 2
REMARK VINA RESULT: -6.965228560      2.230      4.564
REMARK  6 active torsions:
REMARK  status: ('A' for Active; 'I' for Inactive)
REMARK    1  A    between atoms: O1_2  and  C2_3 
REMARK    2  A    between atoms: C2_3  and  C3_4 
REMARK    3  A    between atoms: C3_4  and  O2_5 
REMARK    4  A    between atoms: C8_17  and  C9_18 
REMARK    5  A    between atoms: C9_18  and  C10_19 
REMARK    6  A    between atoms: C15_25  and  O6_26 
ROOT
HETATM    1  C3  UNL     1     -27.174 -12.713  -2.526  1.00  0.00     0.188 C 
HETATM    2  C4  UNL     1     -28.374 -13.405  -3.013  1.00  0.00     0.258 C 
HETATM    3  O3  UNL     1     -29.119 -12.742  -3.839  1.00  0.00    -0.270 OA
HETATM    4  N1  UNL     1     -28.837 -14.692  -2.711  1.00  0.00    -0.345 N 
ATOM      5  H1  UNL     1     -29.772 -14.735  -2.308  1.00  0.00     0.163 HD
HETATM    6  C5  UNL     1     -28.183 -15.966  -2.885  1.00  0.00     0.172 C 
HETATM    7  C6  UNL     1     -28.781 -16.534  -4.197  1.00  0.00     0.042 C 
HETATM    8  C7  UNL     1     -28.555 -16.942  -1.828  1.00  0.00     0.240 C 
HETATM    9  O4  UNL     1     -28.503 -18.171  -2.201  1.00  0.00    -0.271 OA
HETATM   10  N2  UNL     1     -28.943 -16.640  -0.504  1.00  0.00    -0.354 N 
ATOM     11  H2  UNL     1     -29.825 -17.039  -0.182  1.00  0.00     0.162 HD
HETATM   12  C8  UNL     1     -28.217 -15.821   0.442  1.00  0.00     0.093 C 
HETATM   13  C11 UNL     1     -29.034 -14.705   1.040  1.00  0.00     0.061 C 
HETATM   14  C12 UNL     1     -28.830 -13.395   0.340  1.00  0.00     0.146 C 
HETATM   15  C13 UNL     1     -28.733 -12.226   1.288  1.00  0.00     0.003 C 
HETATM   16  C14 UNL     1     -28.418 -11.072   0.666  1.00  0.00     0.006 C 
HETATM   17  C15 UNL     1     -28.234 -11.189  -0.808  1.00  0.00     0.173 C 
HETATM   18  C16 UNL     1     -27.294 -12.334  -1.046  1.00  0.00     0.200 C 
HETATM   19  O7  UNL     1     -27.693 -13.470  -0.408  1.00  0.00    -0.370 OA
ENDROOT
BRANCH   1  20
HETATM   20  C2  UNL     1     -25.880 -13.459  -2.688  1.00  0.00     0.217 C 
BRANCH  20  21
HETATM   21  O1  UNL     1     -25.895 -13.905  -4.040  1.00  0.00    -0.392 OA
HETATM   22  C1  UNL     1     -24.802 -14.713  -4.298  1.00  0.00     0.201 C 
ENDBRANCH  20  21
ENDBRANCH   1  20
BRANCH   1  23
HETATM   23  O2  UNL     1     -27.006 -11.510  -3.219  1.00  0.00    -0.376 OA
ATOM     24  H2  UNL     1     -27.807 -11.386  -3.715  1.00  0.00     0.211 HD
ENDBRANCH   1  23
BRANCH  17  25
HETATM   25  O6  UNL     1     -27.737  -9.988  -1.301  1.00  0.00    -0.389 OA
ATOM     26  H6  UNL     1     -27.126  -9.624  -0.671  1.00  0.00     0.210 HD
ENDBRANCH  17  25
BRANCH  12  27
HETATM   27  C9  UNL     1     -27.811 -16.736   1.612  1.00  0.00     0.094 C 
BRANCH  27  28
HETATM   28  C10 UNL     1     -26.503 -17.341   1.238  1.00  0.00     0.233 C 
HETATM   29  O5  UNL     1     -26.397 -18.315   0.529  1.00  0.00    -0.307 OA
ENDBRANCH  27  28
ENDBRANCH  12  27
TORSDOF 6
ENDMDL
MODEL 3
REMARK VINA RESULT: -6.955198606      1.124      1.370
REMARK  6 active torsions:
REMARK  status: ('A' for Active; 'I' for Inactive)
REMARK    1  A    between atoms: O1_2  and  C2_3 
REMARK    2  A    between atoms: C2_3  and  C3_4 
REMARK    3  A    between atoms: C3_4  and  O2_5 
REMARK    4  A    between atoms: C8_17  and  C9_18 
REMARK    5  A    between atoms: C9_18  and  C10_19 
REMARK    6  A    between atoms: C15_25  and  O6_26 
ROOT
HETATM    1  C3  UNL     1     -27.782 -14.564  -3.261  1.00  0.00     0.188 C 
HETATM    2  C4  UNL     1     -26.404 -14.991  -2.991  1.00  0.00     0.258 C 
HETATM    3  O3  UNL     1     -25.639 -15.139  -4.024  1.00  0.00    -0.270 OA
HETATM    4  N1  UNL     1     -25.789 -15.266  -1.762  1.00  0.00    -0.345 N 
ATOM      5  H1  UNL     1     -25.405 -16.206  -1.669  1.00  0.00     0.163 HD
HETATM    6  C5  UNL     1     -25.619 -14.414  -0.610  1.00  0.00     0.172 C 
HETATM    7  C6  UNL     1     -24.165 -13.891  -0.724  1.00  0.00     0.042 C 
HETATM    8  C7  UNL     1     -25.666 -15.174   0.666  1.00  0.00     0.240 C 
HETATM    9  O4  UNL     1     -24.986 -14.646   1.620  1.00  0.00    -0.271 OA
HETATM   10  N2  UNL     1     -26.367 -16.377   0.903  1.00  0.00    -0.354 N 
ATOM     11  H2  UNL     1     -25.829 -17.153   1.290  1.00  0.00     0.162 HD
HETATM   12  C8  UNL     1     -27.771 -16.620   0.653  1.00  0.00     0.093 C 
HETATM   13  C11 UNL     1     -28.040 -17.834  -0.199  1.00  0.00     0.061 C 
HETATM   14  C12 UNL     1     -28.238 -17.497  -1.646  1.00  0.00     0.146 C 
HETATM   15  C13 UNL     1     -29.360 -18.274  -2.287  1.00  0.00     0.003 C 
HETATM   16  C14 UNL     1     -29.623 -17.874  -3.548  1.00  0.00     0.006 C 
HETATM   17  C15 UNL     1     -28.761 -16.762  -4.039  1.00  0.00     0.173 C 
HETATM   18  C16 UNL     1     -28.791 -15.685  -2.996  1.00  0.00     0.200 C 
HETATM   19  O7  UNL     1     -28.491 -16.161  -1.754  1.00  0.00    -0.370 OA
ENDROOT
BRANCH   1  20
HETATM   20  C2  UNL     1     -28.252 -13.356  -2.502  1.00  0.00     0.217 C 
BRANCH  20  21
HETATM   21  O1  UNL     1     -29.636 -13.599  -2.271  1.00  0.00    -0.392 OA
HETATM   22  C1  UNL     1     -30.100 -12.817  -1.228  1.00  0.00     0.201 C 
ENDBRANCH  20  21
ENDBRANCH   1  20
BRANCH   1  23
HETATM   23  O2  UNL     1     -27.919 -14.236  -4.614  1.00  0.00    -0.376 OA
ATOM     24  H2  UNL     1     -27.234 -14.715  -5.065  1.00  0.00     0.211 HD
ENDBRANCH   1  23
BRANCH  17  25
HETATM   25  O6  UNL     1     -29.244 -16.322  -5.266  1.00  0.00    -0.389 OA
ATOM     26  H6  UNL     1     -28.752 -16.741  -5.962  1.00  0.00     0.210 HD
ENDBRANCH  17  25
BRANCH  12  27
HETATM   27  C9  UNL     1     -28.431 -16.893   2.017  1.00  0.00     0.094 C 
BRANCH  27  28
HETATM   28  C10 UNL     1     -27.716 -18.059   2.604  1.00  0.00     0.233 C 
HETATM   29  O5  UNL     1     -26.790 -17.955   3.374  1.00  0.00    -0.307 OA
ENDBRANCH  27  28
ENDBRANCH  12  27
TORSDOF 6
ENDMDL
MODEL 4
REMARK VINA RESULT: -6.766078226      1.448      1.577
REMARK  6 active torsions:
REMARK  status: ('A' for Active; 'I' for Inactive)
REMARK    1  A    between atoms: O1_2  and  C2_3 
REMARK    2  A    between atoms: C2_3  and  C3_4 
REMARK    3  A    between atoms: C3_4  and  O2_5 
REMARK    4  A    between atoms: C8_17  and  C9_18 
REMARK    5  A    between atoms: C9_18  and  C10_19 
REMARK    6  A    between atoms: C15_25  and  O6_26 
ROOT
HETATM    1  C3  UNL     1     -27.646 -14.174  -3.298  1.00  0.00     0.188 C 
HETATM    2  C4  UNL     1     -26.205 -14.447  -3.243  1.00  0.00     0.258 C 
HETATM    3  O3  UNL     1     -25.603 -14.570  -4.382  1.00  0.00    -0.270 OA
HETATM    4  N1  UNL     1     -25.376 -14.598  -2.123  1.00  0.00    -0.345 N 
ATOM      5  H1  UNL     1     -24.884 -15.489  -2.063  1.00  0.00     0.163 HD
HETATM    6  C5  UNL     1     -25.117 -13.677  -1.043  1.00  0.00     0.172 C 
HETATM    7  C6  UNL     1     -23.764 -13.018  -1.411  1.00  0.00     0.042 C 
HETATM    8  C7  UNL     1     -24.879 -14.373   0.248  1.00  0.00     0.240 C 
HETATM    9  O4  UNL     1     -24.116 -13.733   1.060  1.00  0.00    -0.271 OA
HETATM   10  N2  UNL     1     -25.401 -15.627   0.637  1.00  0.00    -0.354 N 
ATOM     11  H2  UNL     1     -24.728 -16.325   0.956  1.00  0.00     0.162 HD
HETATM   12  C8  UNL     1     -26.792 -16.021   0.628  1.00  0.00     0.093 C 
HETATM   13  C11 UNL     1     -27.062 -17.297  -0.129  1.00  0.00     0.061 C 
HETATM   14  C12 UNL     1     -27.524 -17.054  -1.534  1.00  0.00     0.146 C 
HETATM   15  C13 UNL     1     -28.644 -17.971  -1.957  1.00  0.00     0.003 C 
HETATM   16  C14 UNL     1     -29.145 -17.663  -3.170  1.00  0.00     0.006 C 
HETATM   17  C15 UNL     1     -28.496 -16.496  -3.833  1.00  0.00     0.173 C 
HETATM   18  C16 UNL     1     -28.475 -15.376  -2.834  1.00  0.00     0.200 C 
HETATM   19  O7  UNL     1     -27.931 -15.757  -1.643  1.00  0.00    -0.370 OA
ENDROOT
BRANCH   1  20
HETATM   20  C2  UNL     1     -28.116 -12.983  -2.512  1.00  0.00     0.217 C 
BRANCH  20  21
HETATM   21  O1  UNL     1     -27.371 -11.892  -3.043  1.00  0.00    -0.392 OA
HETATM   22  C1  UNL     1     -27.068 -10.979  -2.048  1.00  0.00     0.201 C 
ENDBRANCH  20  21
ENDBRANCH   1  20
BRANCH   1  23
HETATM   23  O2  UNL     1     -28.032 -13.929  -4.620  1.00  0.00    -0.376 OA
ATOM     24  H2  UNL     1     -28.658 -14.611  -4.835  1.00  0.00     0.211 HD
ENDBRANCH   1  23
BRANCH  17  25
HETATM   25  O6  UNL     1     -29.213 -16.167  -4.977  1.00  0.00    -0.389 OA
ATOM     26  H6  UNL     1     -29.126 -15.235  -5.140  1.00  0.00     0.210 HD
ENDBRANCH  17  25
BRANCH  12  27
HETATM   27  C9  UNL     1     -27.194 -16.290   2.089  1.00  0.00     0.094 C 
BRANCH  27  28
HETATM   28  C10 UNL     1     -25.931 -16.563   2.828  1.00  0.00     0.233 C 
HETATM   29  O5  UNL     1     -25.446 -17.665   2.937  1.00  0.00    -0.307 OA
ENDBRANCH  27  28
ENDBRANCH  12  27
TORSDOF 6
ENDMDL
MODEL 5
REMARK VINA RESULT: -6.592691151      1.485      1.699
REMARK  6 active torsions:
REMARK  status: ('A' for Active; 'I' for Inactive)
REMARK    1  A    between atoms: O1_2  and  C2_3 
REMARK    2  A    between atoms: C2_3  and  C3_4 
REMARK    3  A    between atoms: C3_4  and  O2_5 
REMARK    4  A    between atoms: C8_17  and  C9_18 
REMARK    5  A    between atoms: C9_18  and  C10_19 
REMARK    6  A    between atoms: C15_25  and  O6_26 
ROOT
HETATM    1  C3  UNL     1     -27.454 -14.018  -3.236  1.00  0.00     0.188 C 
HETATM    2  C4  UNL     1     -26.008 -14.269  -3.215  1.00  0.00     0.258 C 
HETATM    3  O3  UNL     1     -25.441 -14.437  -4.367  1.00  0.00    -0.270 OA
HETATM    4  N1  UNL     1     -25.142 -14.356  -2.118  1.00  0.00    -0.345 N 
ATOM      5  H1  UNL     1     -24.635 -15.237  -2.033  1.00  0.00     0.163 HD
HETATM    6  C5  UNL     1     -24.862 -13.383  -1.091  1.00  0.00     0.172 C 
HETATM    7  C6  UNL     1     -23.531 -12.723  -1.533  1.00  0.00     0.042 C 
HETATM    8  C7  UNL     1     -24.571 -14.015   0.223  1.00  0.00     0.240 C 
HETATM    9  O4  UNL     1     -23.792 -13.327   0.979  1.00  0.00    -0.271 OA
HETATM   10  N2  UNL     1     -25.062 -15.256   0.685  1.00  0.00    -0.354 N 
ATOM     11  H2  UNL     1     -24.369 -15.929   1.014  1.00  0.00     0.162 HD
HETATM   12  C8  UNL     1     -26.447 -15.669   0.740  1.00  0.00     0.093 C 
HETATM   13  C11 UNL     1     -26.722 -16.982   0.053  1.00  0.00     0.061 C 
HETATM   14  C12 UNL     1     -27.232 -16.811  -1.346  1.00  0.00     0.146 C 
HETATM   15  C13 UNL     1     -28.351 -17.762  -1.689  1.00  0.00     0.003 C 
HETATM   16  C14 UNL     1     -28.896 -17.517  -2.898  1.00  0.00     0.006 C 
HETATM   17  C15 UNL     1     -28.286 -16.373  -3.635  1.00  0.00     0.173 C 
HETATM   18  C16 UNL     1     -28.250 -15.209  -2.690  1.00  0.00     0.200 C 
HETATM   19  O7  UNL     1     -27.662 -15.526  -1.502  1.00  0.00    -0.370 OA
ENDROOT
BRANCH   1  20
HETATM   20  C2  UNL     1     -27.916 -12.798  -2.491  1.00  0.00     0.217 C 
BRANCH  20  21
HETATM   21  O1  UNL     1     -29.336 -12.841  -2.586  1.00  0.00    -0.392 OA
HETATM   22  C1  UNL     1     -29.916 -12.469  -1.386  1.00  0.00     0.201 C 
ENDBRANCH  20  21
ENDBRANCH   1  20
BRANCH   1  23
HETATM   23  O2  UNL     1     -27.886 -13.841  -4.554  1.00  0.00    -0.376 OA
ATOM     24  H2  UNL     1     -28.477 -14.563  -4.730  1.00  0.00     0.211 HD
ENDBRANCH   1  23
BRANCH  17  25
HETATM   25  O6  UNL     1     -29.044 -16.108  -4.769  1.00  0.00    -0.389 OA
ATOM     26  H6  UNL     1     -29.722 -16.770  -4.851  1.00  0.00     0.210 HD
ENDBRANCH  17  25
BRANCH  12  27
HETATM   27  C9  UNL     1     -26.797 -15.875   2.225  1.00  0.00     0.094 C 
BRANCH  27  28
HETATM   28  C10 UNL     1     -27.493 -14.636   2.669  1.00  0.00     0.233 C 
HETATM   29  O5  UNL     1     -27.001 -13.534   2.601  1.00  0.00    -0.307 OA
ENDBRANCH  27  28
ENDBRANCH  12  27
TORSDOF 6
ENDMDL
