MODEL 1
REMARK VINA RESULT: -7.188782445      0.000      0.000
REMARK  6 active torsions:
REMARK  status: ('A' for Active; 'I' for Inactive)
REMARK    1  A    between atoms: C2_3  and  O1_4 
REMARK    2  A    between atoms: O1_4  and  C3_5 
REMARK    3  A    between atoms: C10_13  and  O2_14 
REMARK    4  A    between atoms: C11_16  and  O3_17 
REMARK    5  A    between atoms: C13_20  and  O4_21 
REMARK    6  A    between atoms: C14_23  and  O5_24 
ROOT
HETATM    1  C1  UNL     1     -27.191 -17.507  -0.889  1.00  0.00     0.146 C 
HETATM    2  N1  UNL     1     -28.424 -16.896  -0.553  1.00  0.00    -0.382 N 
HETATM    3  C2  UNL     1     -28.350 -15.701   0.212  1.00  0.00     0.251 C 
HETATM    4  C10 UNL     1     -28.206 -14.451  -0.626  1.00  0.00     0.195 C 
HETATM    5  C11 UNL     1     -29.276 -14.396  -1.714  1.00  0.00     0.159 C 
HETATM    6  C12 UNL     1     -29.389 -15.684  -2.458  1.00  0.00     0.073 C 
HETATM    7  C13 UNL     1     -28.333 -15.773  -3.511  1.00  0.00     0.158 C 
HETATM    8  C14 UNL     1     -28.587 -16.943  -4.412  1.00  0.00     0.178 C 
HETATM    9  C15 UNL     1     -29.134 -18.146  -3.730  1.00  0.00     0.184 A 
HETATM   10  O6  UNL     1     -30.497 -18.156  -3.346  1.00  0.00    -0.370 OA
HETATM   11  C16 UNL     1     -29.387 -18.152  -2.356  1.00  0.00     0.176 A 
HETATM   12  C17 UNL     1     -29.423 -16.899  -1.570  1.00  0.00     0.122 C 
ENDROOT
BRANCH   3  13
HETATM   13  O1  UNL     1     -27.314 -15.727   1.110  1.00  0.00    -0.356 OA
BRANCH  13  14
HETATM   14  C3  UNL     1     -27.767 -15.989   2.378  1.00  0.00     0.163 C 
HETATM   15  C4  UNL     1     -27.473 -14.835   3.343  1.00  0.00     0.065 C 
HETATM   16  C5  UNL     1     -27.697 -15.537   4.667  1.00  0.00     0.275 C 
HETATM   17  N2  UNL     1     -27.123 -16.855   4.501  1.00  0.00     0.095 N 
HETATM   18  C6  UNL     1     -25.863 -16.878   5.176  1.00  0.00     0.310 C 
HETATM   19  C7  UNL     1     -27.035 -17.112   3.081  1.00  0.00     0.178 C 
HETATM   20  C8  UNL     1     -25.573 -17.077   2.702  1.00  0.00     0.051 C 
HETATM   21  C9  UNL     1     -27.579 -18.472   2.714  1.00  0.00     0.051 C 
ENDBRANCH  13  14
ENDBRANCH   3  13
BRANCH   4  22
HETATM   22  O2  UNL     1     -26.932 -14.398  -1.129  1.00  0.00    -0.389 OA
ATOM     23  H2  UNL     1     -26.390 -13.886  -0.540  1.00  0.00     0.210 HD
ENDBRANCH   4  22
BRANCH   5  24
HETATM   24  O3  UNL     1     -30.492 -14.162  -1.068  1.00  0.00    -0.392 OA
ATOM     25  H3  UNL     1     -30.930 -13.472  -1.553  1.00  0.00     0.210 HD
ENDBRANCH   5  24
BRANCH   7  26
HETATM   26  O4  UNL     1     -28.439 -14.614  -4.310  1.00  0.00    -0.392 OA
ATOM     27  H4  UNL     1     -29.320 -14.277  -4.201  1.00  0.00     0.210 HD
ENDBRANCH   7  26
BRANCH   8  28
HETATM   28  O5  UNL     1     -27.369 -17.284  -5.007  1.00  0.00    -0.390 OA
ATOM     29  H5  UNL     1     -27.032 -16.503  -5.430  1.00  0.00     0.210 HD
ENDBRANCH   8  28
TORSDOF 6
ENDMDL
MODEL 2
REMARK VINA RESULT: -6.751921840      1.081      1.647
REMARK  6 active torsions:
REMARK  status: ('A' for Active; 'I' for Inactive)
REMARK    1  A    between atoms: C2_3  and  O1_4 
REMARK    2  A    between atoms: O1_4  and  C3_5 
REMARK    3  A    between atoms: C10_13  and  O2_14 
REMARK    4  A    between atoms: C11_16  and  O3_17 
REMARK    5  A    between atoms: C13_20  and  O4_21 
REMARK    6  A    between atoms: C14_23  and  O5_24 
ROOT
HETATM    1  C1  UNL     1     -27.277 -17.579  -0.864  1.00  0.00     0.146 C 
HETATM    2  N1  UNL     1     -28.506 -16.937  -0.576  1.00  0.00    -0.382 N 
HETATM    3  C2  UNL     1     -28.429 -15.738   0.183  1.00  0.00     0.251 C 
HETATM    4  C10 UNL     1     -28.225 -14.498  -0.658  1.00  0.00     0.195 C 
HETATM    5  C11 UNL     1     -29.256 -14.425  -1.783  1.00  0.00     0.159 C 
HETATM    6  C12 UNL     1     -29.374 -15.715  -2.522  1.00  0.00     0.073 C 
HETATM    7  C13 UNL     1     -28.285 -15.838  -3.536  1.00  0.00     0.158 C 
HETATM    8  C14 UNL     1     -28.536 -17.009  -4.438  1.00  0.00     0.178 C 
HETATM    9  C15 UNL     1     -29.136 -18.193  -3.766  1.00  0.00     0.184 A 
HETATM   10  O6  UNL     1     -30.511 -18.167  -3.431  1.00  0.00    -0.370 OA
HETATM   11  C16 UNL     1     -29.437 -18.182  -2.402  1.00  0.00     0.176 A 
HETATM   12  C17 UNL     1     -29.469 -16.922  -1.627  1.00  0.00     0.122 C 
ENDROOT
BRANCH   3  13
HETATM   13  O1  UNL     1     -27.426 -15.782   1.117  1.00  0.00    -0.356 OA
BRANCH  13  14
HETATM   14  C3  UNL     1     -27.931 -15.681   2.388  1.00  0.00     0.163 C 
HETATM   15  C4  UNL     1     -29.263 -14.922   2.419  1.00  0.00     0.065 C 
HETATM   16  C5  UNL     1     -29.361 -14.624   3.902  1.00  0.00     0.275 C 
HETATM   17  N2  UNL     1     -28.017 -14.275   4.309  1.00  0.00     0.095 N 
HETATM   18  C6  UNL     1     -27.952 -12.853   4.451  1.00  0.00     0.310 C 
HETATM   19  C7  UNL     1     -27.112 -14.809   3.316  1.00  0.00     0.178 C 
HETATM   20  C8  UNL     1     -26.544 -13.642   2.543  1.00  0.00     0.051 C 
HETATM   21  C9  UNL     1     -25.960 -15.560   3.941  1.00  0.00     0.051 C 
ENDBRANCH  13  14
ENDBRANCH   3  13
BRANCH   4  22
HETATM   22  O2  UNL     1     -26.934 -14.480  -1.116  1.00  0.00    -0.389 OA
ATOM     23  H2  UNL     1     -26.933 -14.185  -2.019  1.00  0.00     0.210 HD
ENDBRANCH   4  22
BRANCH   5  24
HETATM   24  O3  UNL     1     -30.487 -14.156  -1.181  1.00  0.00    -0.392 OA
ATOM     25  H3  UNL     1     -30.794 -13.333  -1.544  1.00  0.00     0.210 HD
ENDBRANCH   5  24
BRANCH   7  26
HETATM   26  O4  UNL     1     -28.335 -14.684  -4.346  1.00  0.00    -0.392 OA
ATOM     27  H4  UNL     1     -29.217 -14.336  -4.288  1.00  0.00     0.210 HD
ENDBRANCH   7  26
BRANCH   8  28
HETATM   28  O5  UNL     1     -27.307 -17.384  -4.987  1.00  0.00    -0.390 OA
ATOM     29  H5  UNL     1     -26.627 -16.959  -4.477  1.00  0.00     0.210 HD
ENDBRANCH   8  28
TORSDOF 6
ENDMDL
MODEL 3
REMARK VINA RESULT: -6.695319794      5.846      8.065
REMARK  6 active torsions:
REMARK  status: ('A' for Active; 'I' for Inactive)
REMARK    1  A    between atoms: C2_3  and  O1_4 
REMARK    2  A    between atoms: O1_4  and  C3_5 
REMARK    3  A    between atoms: C10_13  and  O2_14 
REMARK    4  A    between atoms: C11_16  and  O3_17 
REMARK    5  A    between atoms: C13_20  and  O4_21 
REMARK    6  A    between atoms: C14_23  and  O5_24 
ROOT
HETATM    1  C1  UNL     1     -24.198 -11.842  -3.840  1.00  0.00     0.146 C 
HETATM    2  N1  UNL     1     -23.531 -13.046  -3.507  1.00  0.00    -0.382 N 
HETATM    3  C2  UNL     1     -24.091 -14.244  -4.028  1.00  0.00     0.251 C 
HETATM    4  C10 UNL     1     -23.587 -14.599  -5.409  1.00  0.00     0.195 C 
HETATM    5  C11 UNL     1     -22.061 -14.587  -5.453  1.00  0.00     0.159 C 
HETATM    6  C12 UNL     1     -21.489 -13.356  -4.836  1.00  0.00     0.073 C 
HETATM    7  C13 UNL     1     -21.520 -12.222  -5.808  1.00  0.00     0.158 C 
HETATM    8  C14 UNL     1     -20.736 -11.058  -5.282  1.00  0.00     0.178 C 
HETATM    9  C15 UNL     1     -20.840 -10.851  -3.813  1.00  0.00     0.184 A 
HETATM   10  O6  UNL     1     -20.126 -11.713  -2.946  1.00  0.00    -0.370 OA
HETATM   11  C16 UNL     1     -21.612 -11.695  -3.011  1.00  0.00     0.176 A 
HETATM   12  C17 UNL     1     -22.106 -12.997  -3.511  1.00  0.00     0.122 C 
ENDROOT
BRANCH   3  13
HETATM   13  O1  UNL     1     -25.460 -14.193  -4.081  1.00  0.00    -0.356 OA
BRANCH  13  14
HETATM   14  C3  UNL     1     -26.020 -14.876  -3.031  1.00  0.00     0.163 C 
HETATM   15  C4  UNL     1     -26.912 -16.029  -3.506  1.00  0.00     0.065 C 
HETATM   16  C5  UNL     1     -27.671 -16.317  -2.227  1.00  0.00     0.275 C 
HETATM   17  N2  UNL     1     -27.957 -15.019  -1.654  1.00  0.00     0.095 N 
HETATM   18  C6  UNL     1     -29.331 -14.715  -1.911  1.00  0.00     0.310 C 
HETATM   19  C7  UNL     1     -27.028 -14.076  -2.234  1.00  0.00     0.178 C 
HETATM   20  C8  UNL     1     -27.810 -13.179  -3.164  1.00  0.00     0.051 C 
HETATM   21  C9  UNL     1     -26.373 -13.206  -1.188  1.00  0.00     0.051 C 
ENDBRANCH  13  14
ENDBRANCH   3  13
BRANCH   4  22
HETATM   22  O2  UNL     1     -24.154 -13.748  -6.321  1.00  0.00    -0.389 OA
ATOM     23  H2  UNL     1     -24.200 -14.185  -7.163  1.00  0.00     0.210 HD
ENDBRANCH   4  22
BRANCH   5  24
HETATM   24  O3  UNL     1     -21.630 -15.686  -4.707  1.00  0.00    -0.392 OA
ATOM     25  H3  UNL     1     -20.706 -15.551  -4.530  1.00  0.00     0.210 HD
ENDBRANCH   5  24
BRANCH   7  26
HETATM   26  O4  UNL     1     -20.866 -12.657  -6.980  1.00  0.00    -0.392 OA
ATOM     27  H4  UNL     1     -20.559 -13.541  -6.820  1.00  0.00     0.210 HD
ENDBRANCH   7  26
BRANCH   8  28
HETATM   28  O5  UNL     1     -21.206  -9.911  -5.928  1.00  0.00    -0.390 OA
ATOM     29  H5  UNL     1     -21.047 -10.025  -6.858  1.00  0.00     0.210 HD
ENDBRANCH   8  28
TORSDOF 6
ENDMDL
MODEL 4
REMARK VINA RESULT: -6.653697806      4.311      6.870
REMARK  6 active torsions:
REMARK  status: ('A' for Active; 'I' for Inactive)
REMARK    1  A    between atoms: C2_3  and  O1_4 
REMARK    2  A    between atoms: O1_4  and  C3_5 
REMARK    3  A    between atoms: C10_13  and  O2_14 
REMARK    4  A    between atoms: C11_16  and  O3_17 
REMARK    5  A    between atoms: C13_20  and  O4_21 
REMARK    6  A    between atoms: C14_23  and  O5_24 
ROOT
HETATM    1  C1  UNL     1     -25.919 -13.101  -1.135  1.00  0.00     0.146 C 
HETATM    2  N1  UNL     1     -26.495 -13.124  -2.429  1.00  0.00    -0.382 N 
HETATM    3  C2  UNL     1     -25.971 -14.083  -3.337  1.00  0.00     0.251 C 
HETATM    4  C10 UNL     1     -26.643 -15.434  -3.249  1.00  0.00     0.195 C 
HETATM    5  C11 UNL     1     -28.161 -15.296  -3.340  1.00  0.00     0.159 C 
HETATM    6  C12 UNL     1     -28.685 -14.234  -2.432  1.00  0.00     0.073 C 
HETATM    7  C13 UNL     1     -28.823 -14.758  -1.040  1.00  0.00     0.158 C 
HETATM    8  C14 UNL     1     -29.568 -13.781  -0.183  1.00  0.00     0.178 C 
HETATM    9  C15 UNL     1     -29.274 -12.351  -0.470  1.00  0.00     0.184 A 
HETATM   10  O6  UNL     1     -29.836 -11.754  -1.624  1.00  0.00    -0.370 OA
HETATM   11  C16 UNL     1     -28.374 -11.980  -1.472  1.00  0.00     0.176 A 
HETATM   12  C17 UNL     1     -27.908 -12.947  -2.490  1.00  0.00     0.122 C 
ENDROOT
BRANCH   3  13
HETATM   13  O1  UNL     1     -24.624 -14.272  -3.166  1.00  0.00    -0.356 OA
BRANCH  13  14
HETATM   14  C3  UNL     1     -23.913 -13.717  -4.200  1.00  0.00     0.163 C 
HETATM   15  C4  UNL     1     -23.031 -14.751  -4.911  1.00  0.00     0.065 C 
HETATM   16  C5  UNL     1     -22.114 -13.825  -5.684  1.00  0.00     0.275 C 
HETATM   17  N2  UNL     1     -21.821 -12.736  -4.777  1.00  0.00     0.095 N 
HETATM   18  C6  UNL     1     -20.503 -12.933  -4.258  1.00  0.00     0.310 C 
HETATM   19  C7  UNL     1     -22.855 -12.725  -3.767  1.00  0.00     0.178 C 
HETATM   20  C8  UNL     1     -22.231 -13.186  -2.470  1.00  0.00     0.051 C 
HETATM   21  C9  UNL     1     -23.421 -11.342  -3.546  1.00  0.00     0.051 C 
ENDBRANCH  13  14
ENDBRANCH   3  13
BRANCH   4  22
HETATM   22  O2  UNL     1     -26.233 -16.060  -2.101  1.00  0.00    -0.389 OA
ATOM     23  H2  UNL     1     -26.995 -16.397  -1.645  1.00  0.00     0.210 HD
ENDBRANCH   4  22
BRANCH   5  24
HETATM   24  O3  UNL     1     -28.452 -14.924  -4.654  1.00  0.00    -0.392 OA
ATOM     25  H3  UNL     1     -29.399 -14.893  -4.726  1.00  0.00     0.210 HD
ENDBRANCH   5  24
BRANCH   7  26
HETATM   26  O4  UNL     1     -29.614 -15.925  -1.108  1.00  0.00    -0.392 OA
ATOM     27  H4  UNL     1     -30.437 -15.684  -1.517  1.00  0.00     0.210 HD
ENDBRANCH   7  26
BRANCH   8  28
HETATM   28  O5  UNL     1     -29.227 -14.047   1.146  1.00  0.00    -0.390 OA
ATOM     29  H5  UNL     1     -29.932 -13.718   1.691  1.00  0.00     0.210 HD
ENDBRANCH   8  28
TORSDOF 6
ENDMDL
MODEL 5
REMARK VINA RESULT: -6.586712528      4.230      6.947
REMARK  6 active torsions:
REMARK  status: ('A' for Active; 'I' for Inactive)
REMARK    1  A    between atoms: C2_3  and  O1_4 
REMARK    2  A    between atoms: O1_4  and  C3_5 
REMARK    3  A    between atoms: C10_13  and  O2_14 
REMARK    4  A    between atoms: C11_16  and  O3_17 
REMARK    5  A    between atoms: C13_20  and  O4_21 
REMARK    6  A    between atoms: C14_23  and  O5_24 
ROOT
HETATM    1  C1  UNL     1     -25.858 -13.728  -0.405  1.00  0.00     0.146 C 
HETATM    2  N1  UNL     1     -26.319 -12.877  -1.439  1.00  0.00    -0.382 N 
HETATM    3  C2  UNL     1     -26.018 -13.278  -2.769  1.00  0.00     0.251 C 
HETATM    4  C10 UNL     1     -27.048 -14.207  -3.371  1.00  0.00     0.195 C 
HETATM    5  C11 UNL     1     -28.455 -13.632  -3.226  1.00  0.00     0.159 C 
HETATM    6  C12 UNL     1     -28.726 -13.150  -1.841  1.00  0.00     0.073 C 
HETATM    7  C13 UNL     1     -29.109 -14.291  -0.956  1.00  0.00     0.158 C 
HETATM    8  C14 UNL     1     -29.612 -13.788   0.363  1.00  0.00     0.178 C 
HETATM    9  C15 UNL     1     -28.907 -12.583   0.878  1.00  0.00     0.184 A 
HETATM   10  O6  UNL     1     -29.191 -11.323   0.298  1.00  0.00    -0.370 OA
HETATM   11  C16 UNL     1     -27.867 -11.986   0.162  1.00  0.00     0.176 A 
HETATM   12  C17 UNL     1     -27.617 -12.316  -1.258  1.00  0.00     0.122 C 
ENDROOT
BRANCH   3  13
HETATM   13  O1  UNL     1     -24.795 -13.890  -2.859  1.00  0.00    -0.356 OA
BRANCH  13  14
HETATM   14  C3  UNL     1     -24.224 -13.674  -4.088  1.00  0.00     0.163 C 
HETATM   15  C4  UNL     1     -23.848 -14.986  -4.786  1.00  0.00     0.065 C 
HETATM   16  C5  UNL     1     -22.922 -14.454  -5.861  1.00  0.00     0.275 C 
HETATM   17  N2  UNL     1     -22.142 -13.421  -5.214  1.00  0.00     0.095 N 
HETATM   18  C6  UNL     1     -20.842 -13.953  -4.942  1.00  0.00     0.310 C 
HETATM   19  C7  UNL     1     -22.866 -13.007  -4.035  1.00  0.00     0.178 C 
HETATM   20  C8  UNL     1     -22.104 -13.508  -2.831  1.00  0.00     0.051 C 
HETATM   21  C9  UNL     1     -22.969 -11.503  -3.929  1.00  0.00     0.051 C 
ENDBRANCH  13  14
ENDBRANCH   3  13
BRANCH   4  22
HETATM   22  O2  UNL     1     -26.917 -15.445  -2.797  1.00  0.00    -0.389 OA
ATOM     23  H2  UNL     1     -26.011 -15.722  -2.865  1.00  0.00     0.210 HD
ENDBRANCH   4  22
BRANCH   5  24
HETATM   24  O3  UNL     1     -28.530 -12.535  -4.088  1.00  0.00    -0.392 OA
ATOM     25  H3  UNL     1     -28.493 -12.881  -4.972  1.00  0.00     0.210 HD
ENDBRANCH   5  24
BRANCH   7  26
HETATM   26  O4  UNL     1     -30.188 -14.957  -1.575  1.00  0.00    -0.392 OA
ATOM     27  H4  UNL     1     -30.216 -15.838  -1.222  1.00  0.00     0.210 HD
ENDBRANCH   7  26
BRANCH   8  28
HETATM   28  O5  UNL     1     -29.459 -14.823   1.290  1.00  0.00    -0.390 OA
ATOM     29  H5  UNL     1     -28.679 -14.635   1.798  1.00  0.00     0.210 HD
ENDBRANCH   8  28
TORSDOF 6
ENDMDL
