MODEL 1
REMARK VINA RESULT: -6.498770282      0.000      0.000
REMARK  7 active torsions:
REMARK  status: ('A' for Active; 'I' for Inactive)
REMARK    1  A    between atoms: C2_2  and  N1_4 
REMARK    2  A    between atoms: N1_4  and  C4_6 
REMARK    3  A    between atoms: C4_6  and  N2_8 
REMARK    4  A    between atoms: N2_8  and  C5_10 
REMARK    5  A    between atoms: C8_15  and  C9_16 
REMARK    6  A    between atoms: C9_16  and  O2_17 
REMARK    7  A    between atoms: C11_23  and  O5_24 
ROOT
HETATM    1  C5  UNL     1     -28.568 -16.350  -1.396  1.00  0.00     0.178 C 
HETATM    2  S2  UNL     1     -28.128 -15.946   0.344  1.00  0.00    -0.108 SA
HETATM    3  C6  UNL     1     -28.000 -14.132   0.142  1.00  0.00     0.206 C 
HETATM    4  O1  UNL     1     -29.141 -13.501   0.596  1.00  0.00    -0.373 OA
HETATM    5  C7  UNL     1     -28.961 -12.160   0.813  1.00  0.00     0.191 C 
HETATM    6  C8  UNL     1     -28.118 -11.482  -0.247  1.00  0.00     0.156 C 
HETATM    7  S3  UNL     1     -28.412 -12.367  -1.765  1.00  0.00     0.162 S 
HETATM    8  O3  UNL     1     -29.884 -12.236  -2.062  1.00  0.00    -0.227 OA
HETATM    9  O4  UNL     1     -27.582 -11.839  -2.892  1.00  0.00    -0.227 OA
HETATM   10  C10 UNL     1     -27.991 -14.060  -1.388  1.00  0.00     0.179 C 
HETATM   11  C11 UNL     1     -29.074 -15.008  -1.854  1.00  0.00     0.172 C 
ENDROOT
BRANCH   1  12
HETATM   12  N2  UNL     1     -29.534 -17.408  -1.429  1.00  0.00    -0.351 N 
ATOM     13  H2  UNL     1     -30.109 -17.558  -0.600  1.00  0.00     0.163 HD
BRANCH  12  14
HETATM   14  C4  UNL     1     -29.738 -18.253  -2.537  1.00  0.00     0.168 C 
HETATM   15  S1  UNL     1     -29.034 -17.859  -3.975  1.00  0.00    -0.041 SA
BRANCH  14  16
HETATM   16  N1  UNL     1     -30.507 -19.440  -2.543  1.00  0.00    -0.363 N 
ATOM     17  H1  UNL     1     -30.053 -20.319  -2.296  1.00  0.00     0.162 HD
BRANCH  16  18
HETATM   18  C2  UNL     1     -31.918 -19.454  -2.886  1.00  0.00     0.075 C 
HETATM   19  C1  UNL     1     -32.680 -20.479  -2.099  1.00  0.00     0.032 C 
HETATM   20  C3  UNL     1     -32.091 -19.767  -4.371  1.00  0.00     0.032 C 
ENDBRANCH  16  18
ENDBRANCH  14  16
ENDBRANCH  12  14
ENDBRANCH   1  12
BRANCH  11  21
HETATM   21  O5  UNL     1     -30.262 -14.675  -1.199  1.00  0.00    -0.391 OA
ATOM     22  H5  UNL     1     -30.954 -14.498  -1.826  1.00  0.00     0.210 HD
ENDBRANCH  11  21
BRANCH   6  23
HETATM   23  C9  UNL     1     -28.465 -10.019  -0.378  1.00  0.00     0.186 C 
BRANCH  23  24
HETATM   24  O2  UNL     1     -29.855  -9.937  -0.469  1.00  0.00    -0.399 OA
ATOM     25  H2  UNL     1     -30.101  -9.067  -0.176  1.00  0.00     0.209 HD
ENDBRANCH  23  24
ENDBRANCH   6  23
TORSDOF 7
ENDMDL
MODEL 2
REMARK VINA RESULT: -6.383069654      5.296      6.558
REMARK  7 active torsions:
REMARK  status: ('A' for Active; 'I' for Inactive)
REMARK    1  A    between atoms: C2_2  and  N1_4 
REMARK    2  A    between atoms: N1_4  and  C4_6 
REMARK    3  A    between atoms: C4_6  and  N2_8 
REMARK    4  A    between atoms: N2_8  and  C5_10 
REMARK    5  A    between atoms: C8_15  and  C9_16 
REMARK    6  A    between atoms: C9_16  and  O2_17 
REMARK    7  A    between atoms: C11_23  and  O5_24 
ROOT
HETATM    1  C5  UNL     1     -25.638 -14.563  -3.255  1.00  0.00     0.178 C 
HETATM    2  S2  UNL     1     -25.501 -12.737  -3.078  1.00  0.00    -0.108 SA
HETATM    3  C6  UNL     1     -23.730 -12.588  -3.513  1.00  0.00     0.206 C 
HETATM    4  O1  UNL     1     -23.574 -12.176  -4.821  1.00  0.00    -0.373 OA
HETATM    5  C7  UNL     1     -22.317 -11.699  -5.086  1.00  0.00     0.191 C 
HETATM    6  C8  UNL     1     -21.212 -12.502  -4.431  1.00  0.00     0.156 C 
HETATM    7  S3  UNL     1     -21.802 -14.181  -4.332  1.00  0.00     0.162 S 
HETATM    8  O3  UNL     1     -22.051 -14.634  -5.748  1.00  0.00    -0.227 OA
HETATM    9  O4  UNL     1     -20.827 -15.077  -3.638  1.00  0.00    -0.227 OA
HETATM   10  C10 UNL     1     -23.336 -14.066  -3.427  1.00  0.00     0.179 C 
HETATM   11  C11 UNL     1     -24.439 -14.830  -4.125  1.00  0.00     0.172 C 
ENDROOT
BRANCH   1  12
HETATM   12  N2  UNL     1     -26.901 -14.910  -3.835  1.00  0.00    -0.351 N 
ATOM     13  H2  UNL     1     -27.082 -14.624  -4.797  1.00  0.00     0.163 HD
BRANCH  12  14
HETATM   14  C4  UNL     1     -27.909 -15.624  -3.159  1.00  0.00     0.168 C 
HETATM   15  S1  UNL     1     -28.950 -14.795  -2.185  1.00  0.00    -0.041 SA
BRANCH  14  16
HETATM   16  N1  UNL     1     -28.128 -17.019  -3.230  1.00  0.00    -0.363 N 
ATOM     17  H1  UNL     1     -27.328 -17.645  -3.140  1.00  0.00     0.162 HD
BRANCH  16  18
HETATM   18  C2  UNL     1     -29.446 -17.594  -3.428  1.00  0.00     0.075 C 
HETATM   19  C1  UNL     1     -29.848 -18.487  -2.292  1.00  0.00     0.032 C 
HETATM   20  C3  UNL     1     -29.471 -18.416  -4.714  1.00  0.00     0.032 C 
ENDBRANCH  16  18
ENDBRANCH  14  16
ENDBRANCH  12  14
ENDBRANCH   1  12
BRANCH  11  21
HETATM   21  O5  UNL     1     -24.618 -14.283  -5.397  1.00  0.00    -0.391 OA
ATOM     22  H5  UNL     1     -25.142 -14.859  -5.941  1.00  0.00     0.210 HD
ENDBRANCH  11  21
BRANCH   6  23
HETATM   23  C9  UNL     1     -19.924 -12.409  -5.210  1.00  0.00     0.186 C 
BRANCH  23  24
HETATM   24  O2  UNL     1     -20.214 -12.778  -6.524  1.00  0.00    -0.399 OA
ATOM     25  H2  UNL     1     -19.546 -13.398  -6.792  1.00  0.00     0.209 HD
ENDBRANCH  23  24
ENDBRANCH   6  23
TORSDOF 7
ENDMDL
MODEL 3
REMARK VINA RESULT: -6.267012252      4.559      5.797
REMARK  7 active torsions:
REMARK  status: ('A' for Active; 'I' for Inactive)
REMARK    1  A    between atoms: C2_2  and  N1_4 
REMARK    2  A    between atoms: N1_4  and  C4_6 
REMARK    3  A    between atoms: C4_6  and  N2_8 
REMARK    4  A    between atoms: N2_8  and  C5_10 
REMARK    5  A    between atoms: C8_15  and  C9_16 
REMARK    6  A    between atoms: C9_16  and  O2_17 
REMARK    7  A    between atoms: C11_23  and  O5_24 
ROOT
HETATM    1  C5  UNL     1     -25.917 -15.246  -2.230  1.00  0.00     0.178 C 
HETATM    2  S2  UNL     1     -25.258 -13.735  -1.415  1.00  0.00    -0.108 SA
HETATM    3  C6  UNL     1     -23.961 -13.347  -2.646  1.00  0.00     0.206 C 
HETATM    4  O1  UNL     1     -24.374 -12.346  -3.502  1.00  0.00    -0.373 OA
HETATM    5  C7  UNL     1     -23.338 -11.767  -4.188  1.00  0.00     0.191 C 
HETATM    6  C8  UNL     1     -22.296 -12.759  -4.664  1.00  0.00     0.156 C 
HETATM    7  S3  UNL     1     -23.158 -14.288  -4.969  1.00  0.00     0.162 S 
HETATM    8  O3  UNL     1     -24.178 -14.000  -6.041  1.00  0.00    -0.227 OA
HETATM    9  O4  UNL     1     -22.229 -15.383  -5.383  1.00  0.00    -0.227 OA
HETATM   10  C10 UNL     1     -23.960 -14.669  -3.420  1.00  0.00     0.179 C 
HETATM   11  C11 UNL     1     -25.415 -15.025  -3.633  1.00  0.00     0.172 C 
ENDROOT
BRANCH   1  12
HETATM   12  N2  UNL     1     -27.343 -15.300  -2.096  1.00  0.00    -0.351 N 
ATOM     13  H2  UNL     1     -27.867 -14.433  -2.209  1.00  0.00     0.163 HD
BRANCH  12  14
HETATM   14  C4  UNL     1     -28.064 -16.476  -1.816  1.00  0.00     0.168 C 
HETATM   15  S1  UNL     1     -27.556 -17.443  -0.580  1.00  0.00    -0.041 SA
BRANCH  14  16
HETATM   16  N1  UNL     1     -29.212 -16.928  -2.507  1.00  0.00    -0.363 N 
ATOM     17  H1  UNL     1     -30.130 -16.632  -2.177  1.00  0.00     0.162 HD
BRANCH  16  18
HETATM   18  C2  UNL     1     -29.134 -17.798  -3.667  1.00  0.00     0.075 C 
HETATM   19  C1  UNL     1     -29.192 -17.029  -4.954  1.00  0.00     0.032 C 
HETATM   20  C3  UNL     1     -30.291 -18.793  -3.653  1.00  0.00     0.032 C 
ENDBRANCH  16  18
ENDBRANCH  14  16
ENDBRANCH  12  14
ENDBRANCH   1  12
BRANCH  11  21
HETATM   21  O5  UNL     1     -26.055 -13.932  -4.221  1.00  0.00    -0.391 OA
ATOM     22  H5  UNL     1     -25.526 -13.147  -4.137  1.00  0.00     0.210 HD
ENDBRANCH  11  21
BRANCH   6  23
HETATM   23  C9  UNL     1     -21.584 -12.264  -5.898  1.00  0.00     0.186 C 
BRANCH  23  24
HETATM   24  O2  UNL     1     -20.656 -13.243  -6.253  1.00  0.00    -0.399 OA
ATOM     25  H2  UNL     1     -20.405 -13.075  -7.154  1.00  0.00     0.209 HD
ENDBRANCH  23  24
ENDBRANCH   6  23
TORSDOF 7
ENDMDL
MODEL 4
REMARK VINA RESULT: -6.136069338      3.952      5.609
REMARK  7 active torsions:
REMARK  status: ('A' for Active; 'I' for Inactive)
REMARK    1  A    between atoms: C2_2  and  N1_4 
REMARK    2  A    between atoms: N1_4  and  C4_6 
REMARK    3  A    between atoms: C4_6  and  N2_8 
REMARK    4  A    between atoms: N2_8  and  C5_10 
REMARK    5  A    between atoms: C8_15  and  C9_16 
REMARK    6  A    between atoms: C9_16  and  O2_17 
REMARK    7  A    between atoms: C11_23  and  O5_24 
ROOT
HETATM    1  C5  UNL     1     -28.188 -15.892  -0.085  1.00  0.00     0.178 C 
HETATM    2  S2  UNL     1     -27.064 -17.348  -0.067  1.00  0.00    -0.108 SA
HETATM    3  C6  UNL     1     -26.976 -17.559   1.748  1.00  0.00     0.206 C 
HETATM    4  O1  UNL     1     -27.812 -18.572   2.170  1.00  0.00    -0.373 OA
HETATM    5  C7  UNL     1     -27.520 -19.017   3.434  1.00  0.00     0.191 C 
HETATM    6  C8  UNL     1     -27.164 -17.906   4.400  1.00  0.00     0.156 C 
HETATM    7  S3  UNL     1     -28.078 -16.470   3.875  1.00  0.00     0.162 S 
HETATM    8  O3  UNL     1     -29.538 -16.832   3.963  1.00  0.00    -0.227 OA
HETATM    9  O4  UNL     1     -27.766 -15.269   4.710  1.00  0.00    -0.227 OA
HETATM   10  C10 UNL     1     -27.590 -16.222   2.176  1.00  0.00     0.179 C 
HETATM   11  C11 UNL     1     -28.796 -16.018   1.286  1.00  0.00     0.172 C 
ENDROOT
BRANCH   1  12
HETATM   12  N2  UNL     1     -29.114 -15.995  -1.174  1.00  0.00    -0.351 N 
ATOM     13  H2  UNL     1     -30.110 -15.943  -0.962  1.00  0.00     0.163 HD
BRANCH  12  14
HETATM   14  C4  UNL     1     -28.733 -16.164  -2.519  1.00  0.00     0.168 C 
HETATM   15  S1  UNL     1     -28.283 -14.836  -3.387  1.00  0.00    -0.041 SA
BRANCH  14  16
HETATM   16  N1  UNL     1     -28.694 -17.389  -3.222  1.00  0.00    -0.363 N 
ATOM     17  H1  UNL     1     -27.788 -17.815  -3.416  1.00  0.00     0.162 HD
BRANCH  16  18
HETATM   18  C2  UNL     1     -29.896 -18.066  -3.678  1.00  0.00     0.075 C 
HETATM   19  C1  UNL     1     -30.387 -19.076  -2.683  1.00  0.00     0.032 C 
HETATM   20  C3  UNL     1     -29.621 -18.788  -4.995  1.00  0.00     0.032 C 
ENDBRANCH  16  18
ENDBRANCH  14  16
ENDBRANCH  12  14
ENDBRANCH   1  12
BRANCH  11  21
HETATM   21  O5  UNL     1     -29.603 -17.154   1.369  1.00  0.00    -0.391 OA
ATOM     22  H5  UNL     1     -29.824 -17.346   2.273  1.00  0.00     0.210 HD
ENDBRANCH  11  21
BRANCH   6  23
HETATM   23  C9  UNL     1     -27.491 -18.285   5.823  1.00  0.00     0.186 C 
BRANCH  23  24
HETATM   24  O2  UNL     1     -28.820 -18.708   5.837  1.00  0.00    -0.399 OA
ATOM     25  H2  UNL     1     -28.965 -19.141   6.671  1.00  0.00     0.209 HD
ENDBRANCH  23  24
ENDBRANCH   6  23
TORSDOF 7
ENDMDL
MODEL 5
REMARK VINA RESULT: -6.133213563      1.981      2.472
REMARK  7 active torsions:
REMARK  status: ('A' for Active; 'I' for Inactive)
REMARK    1  A    between atoms: C2_2  and  N1_4 
REMARK    2  A    between atoms: N1_4  and  C4_6 
REMARK    3  A    between atoms: C4_6  and  N2_8 
REMARK    4  A    between atoms: N2_8  and  C5_10 
REMARK    5  A    between atoms: C8_15  and  C9_16 
REMARK    6  A    between atoms: C9_16  and  O2_17 
REMARK    7  A    between atoms: C11_23  and  O5_24 
ROOT
HETATM    1  C5  UNL     1     -28.907 -17.729  -1.815  1.00  0.00     0.178 C 
HETATM    2  S2  UNL     1     -28.205 -17.268  -0.178  1.00  0.00    -0.108 SA
HETATM    3  C6  UNL     1     -27.566 -15.619  -0.649  1.00  0.00     0.206 C 
HETATM    4  O1  UNL     1     -28.421 -14.619  -0.232  1.00  0.00    -0.373 OA
HETATM    5  C7  UNL     1     -27.833 -13.381  -0.223  1.00  0.00     0.191 C 
HETATM    6  C8  UNL     1     -26.931 -13.129  -1.414  1.00  0.00     0.156 C 
HETATM    7  S3  UNL     1     -27.615 -14.062  -2.770  1.00  0.00     0.162 S 
HETATM    8  O3  UNL     1     -29.004 -13.525  -3.004  1.00  0.00    -0.227 OA
HETATM    9  O4  UNL     1     -26.776 -13.956  -4.003  1.00  0.00    -0.227 OA
HETATM   10  C10 UNL     1     -27.680 -15.742  -2.172  1.00  0.00     0.179 C 
HETATM   11  C11 UNL     1     -29.034 -16.363  -2.437  1.00  0.00     0.172 C 
ENDROOT
BRANCH   1  12
HETATM   12  N2  UNL     1     -30.141 -18.436  -1.643  1.00  0.00    -0.351 N 
ATOM     13  H2  UNL     1     -30.591 -18.399  -0.729  1.00  0.00     0.163 HD
BRANCH  12  14
HETATM   14  C4  UNL     1     -30.771 -19.179  -2.660  1.00  0.00     0.168 C 
HETATM   15  S1  UNL     1     -32.125 -20.044  -2.286  1.00  0.00    -0.041 SA
BRANCH  14  16
HETATM   16  N1  UNL     1     -30.351 -19.263  -4.007  1.00  0.00    -0.363 N 
ATOM     17  H1  UNL     1     -29.947 -20.137  -4.341  1.00  0.00     0.162 HD
BRANCH  16  18
HETATM   18  C2  UNL     1     -30.474 -18.151  -4.934  1.00  0.00     0.075 C 
HETATM   19  C1  UNL     1     -31.505 -18.410  -5.992  1.00  0.00     0.032 C 
HETATM   20  C3  UNL     1     -29.136 -17.896  -5.623  1.00  0.00     0.032 C 
ENDBRANCH  16  18
ENDBRANCH  14  16
ENDBRANCH  12  14
ENDBRANCH   1  12
BRANCH  11  21
HETATM   21  O5  UNL     1     -30.003 -15.605  -1.776  1.00  0.00    -0.391 OA
ATOM     22  H5  UNL     1     -30.380 -16.096  -1.055  1.00  0.00     0.210 HD
ENDBRANCH  11  21
BRANCH   6  23
HETATM   23  C9  UNL     1     -26.841 -11.659  -1.739  1.00  0.00     0.186 C 
BRANCH  23  24
HETATM   24  O2  UNL     1     -27.303 -11.500  -3.045  1.00  0.00    -0.399 OA
ATOM     25  H2  UNL     1     -26.947 -10.681  -3.369  1.00  0.00     0.209 HD
ENDBRANCH  23  24
ENDBRANCH   6  23
TORSDOF 7
ENDMDL
