MODEL 1
REMARK VINA RESULT: -7.249882708      0.000      0.000
REMARK  11 active torsions:
REMARK  status: ('A' for Active; 'I' for Inactive)
REMARK    1  A    between atoms: C2_2  and  C5_9 
REMARK    2  A    between atoms: C3_3  and  C4_4 
REMARK    3  A    between atoms: C4_4  and  N1_5 
REMARK    4  A    between atoms: N1_5  and  N2_6 
REMARK    5  A    between atoms: C5_9  and  O1_10 
REMARK    6  A    between atoms: C5_9  and  C6_12 
REMARK    7  A    between atoms: C9_17  and  O4_18 
REMARK    8  A    between atoms: C10_20  and  O5_21 
REMARK    9  A    between atoms: C11_23  and  O6_24 
REMARK   10  A    between atoms: O6_24  and  C12_25 
REMARK   11  A    between atoms: C19_34  and  O8_35 
ROOT
HETATM    1  C12 UNL     1     -26.878 -16.882   0.032  1.00  0.00     0.291 C 
HETATM    2  O7  UNL     1     -25.871 -16.719   1.038  1.00  0.00    -0.346 OA
HETATM    3  C13 UNL     1     -26.359 -15.914   1.998  1.00  0.00     0.088 A 
HETATM    4  C14 UNL     1     -26.578 -14.486   1.482  1.00  0.00     0.048 C 
HETATM    5  C15 UNL     1     -27.018 -16.140   3.239  1.00  0.00     0.142 A 
HETATM    6  C16 UNL     1     -27.796 -15.069   3.902  1.00  0.00     0.068 C 
HETATM    7  N3  UNL     1     -28.418 -14.232   4.432  1.00  0.00    -0.197 NA
HETATM    8  C17 UNL     1     -27.670 -16.794   2.167  1.00  0.00     0.038 A 
HETATM    9  C18 UNL     1     -27.420 -18.319   2.180  1.00  0.00     0.023 C 
HETATM   10  C19 UNL     1     -28.129 -16.419   0.835  1.00  0.00     0.185 C 
ENDROOT
BRANCH  10  11
HETATM   11  O8  UNL     1     -29.234 -17.187   0.409  1.00  0.00    -0.390 OA
ATOM     12  H8  UNL     1     -29.853 -17.239   1.127  1.00  0.00     0.210 HD
ENDBRANCH  10  11
BRANCH   1  13
HETATM   13  O6  UNL     1     -26.786 -16.291  -1.042  1.00  0.00    -0.347 OA
BRANCH  13  14
HETATM   14  C11 UNL     1     -26.972 -15.845  -2.202  1.00  0.00     0.196 C 
HETATM   15  C6  UNL     1     -27.595 -14.483  -2.421  1.00  0.00     0.150 C 
HETATM   16  O2  UNL     1     -27.870 -13.796  -1.275  1.00  0.00    -0.347 OA
HETATM   17  C8  UNL     1     -28.989 -14.731  -2.973  1.00  0.00     0.195 C 
HETATM   18  C7  UNL     1     -29.200 -13.374  -1.318  1.00  0.00     0.340 C 
HETATM   19  O3  UNL     1     -29.807 -14.523  -1.840  1.00  0.00    -0.356 OA
HETATM   20  C9  UNL     1     -29.049 -16.155  -3.433  1.00  0.00     0.181 C 
HETATM   21  C10 UNL     1     -27.691 -16.730  -3.222  1.00  0.00     0.181 C 
BRANCH  15  22
HETATM   22  C5  UNL     1     -26.838 -13.612  -3.388  1.00  0.00     0.187 C 
BRANCH  22  23
HETATM   23  C2  UNL     1     -25.534 -13.139  -2.946  1.00  0.00    -0.050 C 
HETATM   24  C1  UNL     1     -25.376 -12.069  -1.931  1.00  0.00     0.046 C 
HETATM   25  C3  UNL     1     -24.416 -13.640  -3.438  1.00  0.00     0.039 C 
BRANCH  25  26
HETATM   26  C4  UNL     1     -24.331 -14.690  -4.439  1.00  0.00     0.208 C 
BRANCH  26  27
HETATM   27  N1  UNL     1     -23.323 -14.847  -5.138  1.00  0.00    -0.346 NA
BRANCH  27  28
HETATM   28  N2  UNL     1     -22.412 -14.880  -5.981  1.00  0.00    -0.281 N 
ATOM     29  H22 UNL     1     -23.103 -15.165  -6.675  1.00  0.00     0.191 HD
ATOM     30  H21 UNL     1     -21.560 -14.857  -6.540  1.00  0.00     0.191 HD
ENDBRANCH  27  28
ENDBRANCH  26  27
ENDBRANCH  25  26
ENDBRANCH  22  23
BRANCH  22  31
HETATM   31  O1  UNL     1     -27.588 -12.539  -3.834  1.00  0.00    -0.388 OA
ATOM     32  H1  UNL     1     -28.408 -12.507  -3.355  1.00  0.00     0.210 HD
ENDBRANCH  22  31
ENDBRANCH  15  22
BRANCH  20  33
HETATM   33  O4  UNL     1     -30.029 -16.885  -2.727  1.00  0.00    -0.390 OA
ATOM     34  H4  UNL     1     -30.416 -17.563  -3.269  1.00  0.00     0.210 HD
ENDBRANCH  20  33
BRANCH  21  35
HETATM   35  O5  UNL     1     -27.055 -16.769  -4.458  1.00  0.00    -0.390 OA
ATOM     36  H5  UNL     1     -26.199 -17.162  -4.328  1.00  0.00     0.210 HD
ENDBRANCH  21  35
ENDBRANCH  13  14
ENDBRANCH   1  13
TORSDOF 11
ENDMDL
MODEL 2
REMARK VINA RESULT: -7.059203788      2.945      4.298
REMARK  11 active torsions:
REMARK  status: ('A' for Active; 'I' for Inactive)
REMARK    1  A    between atoms: C2_2  and  C5_9 
REMARK    2  A    between atoms: C3_3  and  C4_4 
REMARK    3  A    between atoms: C4_4  and  N1_5 
REMARK    4  A    between atoms: N1_5  and  N2_6 
REMARK    5  A    between atoms: C5_9  and  O1_10 
REMARK    6  A    between atoms: C5_9  and  C6_12 
REMARK    7  A    between atoms: C9_17  and  O4_18 
REMARK    8  A    between atoms: C10_20  and  O5_21 
REMARK    9  A    between atoms: C11_23  and  O6_24 
REMARK   10  A    between atoms: O6_24  and  C12_25 
REMARK   11  A    between atoms: C19_34  and  O8_35 
ROOT
HETATM    1  C12 UNL     1     -28.715 -15.369   1.616  1.00  0.00     0.291 C 
HETATM    2  O7  UNL     1     -29.078 -16.743   1.434  1.00  0.00    -0.346 OA
HETATM    3  C13 UNL     1     -27.950 -17.470   1.342  1.00  0.00     0.088 A 
HETATM    4  C14 UNL     1     -27.165 -17.139   0.067  1.00  0.00     0.048 C 
HETATM    5  C15 UNL     1     -27.165 -18.201   2.278  1.00  0.00     0.142 A 
HETATM    6  C16 UNL     1     -25.764 -18.574   1.978  1.00  0.00     0.068 C 
HETATM    7  N3  UNL     1     -24.655 -18.870   1.755  1.00  0.00    -0.197 NA
HETATM    8  C17 UNL     1     -27.366 -16.862   2.688  1.00  0.00     0.038 A 
HETATM    9  C18 UNL     1     -28.390 -16.756   3.840  1.00  0.00     0.023 C 
HETATM   10  C19 UNL     1     -27.236 -15.547   2.071  1.00  0.00     0.185 C 
ENDROOT
BRANCH  10  11
HETATM   11  O8  UNL     1     -26.942 -14.537   3.012  1.00  0.00    -0.390 OA
ATOM     12  H8  UNL     1     -26.169 -14.071   2.714  1.00  0.00     0.210 HD
ENDBRANCH  10  11
BRANCH   1  13
HETATM   13  O6  UNL     1     -28.808 -14.572   0.686  1.00  0.00    -0.347 OA
BRANCH  13  14
HETATM   14  C11 UNL     1     -29.193 -13.901  -0.305  1.00  0.00     0.196 C 
HETATM   15  C6  UNL     1     -28.208 -13.111  -1.139  1.00  0.00     0.150 C 
HETATM   16  O2  UNL     1     -26.907 -13.243  -0.754  1.00  0.00    -0.347 OA
HETATM   17  C8  UNL     1     -28.470 -11.644  -0.841  1.00  0.00     0.195 C 
HETATM   18  C7  UNL     1     -26.359 -11.969  -0.594  1.00  0.00     0.340 C 
HETATM   19  O3  UNL     1     -27.422 -11.322   0.050  1.00  0.00    -0.356 OA
HETATM   20  C9  UNL     1     -29.804 -11.549  -0.165  1.00  0.00     0.181 C 
HETATM   21  C10 UNL     1     -30.361 -12.930  -0.123  1.00  0.00     0.181 C 
BRANCH  15  22
HETATM   22  C5  UNL     1     -28.344 -13.335  -2.622  1.00  0.00     0.187 C 
BRANCH  22  23
HETATM   23  C2  UNL     1     -27.473 -14.347  -3.204  1.00  0.00    -0.050 C 
HETATM   24  C1  UNL     1     -26.044 -14.092  -3.504  1.00  0.00     0.046 C 
HETATM   25  C3  UNL     1     -27.922 -15.552  -3.502  1.00  0.00     0.039 C 
BRANCH  25  26
HETATM   26  C4  UNL     1     -29.282 -16.022  -3.296  1.00  0.00     0.208 C 
BRANCH  26  27
HETATM   27  N1  UNL     1     -29.575 -16.793  -2.376  1.00  0.00    -0.346 NA
BRANCH  27  28
HETATM   28  N2  UNL     1     -30.045 -17.609  -1.567  1.00  0.00    -0.281 N 
ATOM     29  H22 UNL     1     -30.961 -17.457  -1.987  1.00  0.00     0.191 HD
ATOM     30  H21 UNL     1     -30.265 -18.293  -0.843  1.00  0.00     0.191 HD
ENDBRANCH  27  28
ENDBRANCH  26  27
ENDBRANCH  25  26
ENDBRANCH  22  23
BRANCH  22  31
HETATM   31  O1  UNL     1     -28.233 -12.163  -3.348  1.00  0.00    -0.388 OA
ATOM     32  H1  UNL     1     -27.394 -11.758  -3.165  1.00  0.00     0.210 HD
ENDBRANCH  22  31
ENDBRANCH  15  22
BRANCH  20  33
HETATM   33  O4  UNL     1     -29.689 -11.003   1.131  1.00  0.00    -0.390 OA
ATOM     34  H4  UNL     1     -30.451 -10.482   1.358  1.00  0.00     0.210 HD
ENDBRANCH  20  33
BRANCH  21  35
HETATM   35  O5  UNL     1     -31.317 -13.028  -1.129  1.00  0.00    -0.390 OA
ATOM     36  H5  UNL     1     -31.026 -13.699  -1.736  1.00  0.00     0.210 HD
ENDBRANCH  21  35
ENDBRANCH  13  14
ENDBRANCH   1  13
TORSDOF 11
ENDMDL
MODEL 3
REMARK VINA RESULT: -7.028887690      1.054      1.294
REMARK  11 active torsions:
REMARK  status: ('A' for Active; 'I' for Inactive)
REMARK    1  A    between atoms: C2_2  and  C5_9 
REMARK    2  A    between atoms: C3_3  and  C4_4 
REMARK    3  A    between atoms: C4_4  and  N1_5 
REMARK    4  A    between atoms: N1_5  and  N2_6 
REMARK    5  A    between atoms: C5_9  and  O1_10 
REMARK    6  A    between atoms: C5_9  and  C6_12 
REMARK    7  A    between atoms: C9_17  and  O4_18 
REMARK    8  A    between atoms: C10_20  and  O5_21 
REMARK    9  A    between atoms: C11_23  and  O6_24 
REMARK   10  A    between atoms: O6_24  and  C12_25 
REMARK   11  A    between atoms: C19_34  and  O8_35 
ROOT
HETATM    1  C12 UNL     1     -26.180 -16.133   0.270  1.00  0.00     0.291 C 
HETATM    2  O7  UNL     1     -26.264 -15.042   1.193  1.00  0.00    -0.346 OA
HETATM    3  C13 UNL     1     -27.133 -15.375   2.165  1.00  0.00     0.088 A 
HETATM    4  C14 UNL     1     -28.564 -15.496   1.627  1.00  0.00     0.048 C 
HETATM    5  C15 UNL     1     -26.997 -15.957   3.457  1.00  0.00     0.142 A 
HETATM    6  C16 UNL     1     -28.152 -16.575   4.146  1.00  0.00     0.068 C 
HETATM    7  N3  UNL     1     -29.057 -17.072   4.697  1.00  0.00    -0.197 NA
HETATM    8  C17 UNL     1     -26.388 -16.748   2.455  1.00  0.00     0.038 A 
HETATM    9  C18 UNL     1     -24.847 -16.645   2.491  1.00  0.00     0.023 C 
HETATM   10  C19 UNL     1     -26.779 -17.270   1.150  1.00  0.00     0.185 C 
ENDROOT
BRANCH  10  11
HETATM   11  O8  UNL     1     -26.114 -18.472   0.828  1.00  0.00    -0.390 OA
ATOM     12  H8  UNL     1     -26.163 -19.048   1.582  1.00  0.00     0.210 HD
ENDBRANCH  10  11
BRANCH   1  13
HETATM   13  O6  UNL     1     -26.737 -16.068  -0.824  1.00  0.00    -0.347 OA
BRANCH  13  14
HETATM   14  C11 UNL     1     -27.054 -15.808  -2.012  1.00  0.00     0.196 C 
HETATM   15  C6  UNL     1     -27.736 -14.505  -2.368  1.00  0.00     0.150 C 
HETATM   16  O2  UNL     1     -27.913 -13.653  -1.317  1.00  0.00    -0.347 OA
HETATM   17  C8  UNL     1     -29.171 -14.853  -2.726  1.00  0.00     0.195 C 
HETATM   18  C7  UNL     1     -29.252 -13.261  -1.282  1.00  0.00     0.340 C 
HETATM   19  O3  UNL     1     -29.874 -14.485  -1.557  1.00  0.00    -0.356 OA
HETATM   20  C9  UNL     1     -29.236 -16.332  -2.955  1.00  0.00     0.181 C 
HETATM   21  C10 UNL     1     -27.847 -16.849  -2.804  1.00  0.00     0.181 C 
BRANCH  15  22
HETATM   22  C5  UNL     1     -27.108 -13.783  -3.531  1.00  0.00     0.187 C 
BRANCH  22  23
HETATM   23  C2  UNL     1     -25.868 -13.071  -3.254  1.00  0.00    -0.050 C 
HETATM   24  C1  UNL     1     -25.838 -11.759  -2.563  1.00  0.00     0.046 C 
HETATM   25  C3  UNL     1     -24.697 -13.561  -3.618  1.00  0.00     0.039 C 
BRANCH  25  26
HETATM   26  C4  UNL     1     -24.488 -14.824  -4.307  1.00  0.00     0.208 C 
BRANCH  26  27
HETATM   27  N1  UNL     1     -23.708 -14.926  -5.261  1.00  0.00    -0.346 NA
BRANCH  27  28
HETATM   28  N2  UNL     1     -22.801 -14.893  -6.108  1.00  0.00    -0.281 N 
ATOM     29  H22 UNL     1     -22.259 -14.316  -5.465  1.00  0.00     0.191 HD
ATOM     30  H21 UNL     1     -22.164 -14.966  -6.900  1.00  0.00     0.191 HD
ENDBRANCH  27  28
ENDBRANCH  26  27
ENDBRANCH  25  26
ENDBRANCH  22  23
BRANCH  22  31
HETATM   31  O1  UNL     1     -27.993 -12.931  -4.167  1.00  0.00    -0.388 OA
ATOM     32  H1  UNL     1     -28.782 -12.848  -3.644  1.00  0.00     0.210 HD
ENDBRANCH  22  31
ENDBRANCH  15  22
BRANCH  20  33
HETATM   33  O4  UNL     1     -30.116 -16.958  -2.047  1.00  0.00    -0.390 OA
ATOM     34  H4  UNL     1     -30.325 -17.844  -2.319  1.00  0.00     0.210 HD
ENDBRANCH  20  33
BRANCH  21  35
HETATM   35  O5  UNL     1     -27.339 -17.069  -4.080  1.00  0.00    -0.390 OA
ATOM     36  H5  UNL     1     -26.401 -16.919  -4.046  1.00  0.00     0.210 HD
ENDBRANCH  21  35
ENDBRANCH  13  14
ENDBRANCH   1  13
TORSDOF 11
ENDMDL
MODEL 4
REMARK VINA RESULT: -6.896289767      2.872      4.212
REMARK  11 active torsions:
REMARK  status: ('A' for Active; 'I' for Inactive)
REMARK    1  A    between atoms: C2_2  and  C5_9 
REMARK    2  A    between atoms: C3_3  and  C4_4 
REMARK    3  A    between atoms: C4_4  and  N1_5 
REMARK    4  A    between atoms: N1_5  and  N2_6 
REMARK    5  A    between atoms: C5_9  and  O1_10 
REMARK    6  A    between atoms: C5_9  and  C6_12 
REMARK    7  A    between atoms: C9_17  and  O4_18 
REMARK    8  A    between atoms: C10_20  and  O5_21 
REMARK    9  A    between atoms: C11_23  and  O6_24 
REMARK   10  A    between atoms: O6_24  and  C12_25 
REMARK   11  A    between atoms: C19_34  and  O8_35 
ROOT
HETATM    1  C12 UNL     1     -26.767 -14.701   1.333  1.00  0.00     0.291 C 
HETATM    2  O7  UNL     1     -27.110 -15.522   2.455  1.00  0.00    -0.346 OA
HETATM    3  C13 UNL     1     -26.616 -16.755   2.244  1.00  0.00     0.088 A 
HETATM    4  C14 UNL     1     -27.313 -17.452   1.069  1.00  0.00     0.048 C 
HETATM    5  C15 UNL     1     -25.411 -17.415   2.618  1.00  0.00     0.142 A 
HETATM    6  C16 UNL     1     -24.955 -18.636   1.916  1.00  0.00     0.068 C 
HETATM    7  N3  UNL     1     -24.582 -19.598   1.364  1.00  0.00    -0.197 NA
HETATM    8  C17 UNL     1     -25.159 -16.195   1.947  1.00  0.00     0.038 A 
HETATM    9  C18 UNL     1     -24.689 -15.087   2.916  1.00  0.00     0.023 C 
HETATM   10  C19 UNL     1     -25.622 -15.560   0.719  1.00  0.00     0.185 C 
ENDROOT
BRANCH  10  11
HETATM   11  O8  UNL     1     -24.662 -14.684   0.169  1.00  0.00    -0.390 OA
ATOM     12  H8  UNL     1     -23.966 -15.208  -0.210  1.00  0.00     0.210 HD
ENDBRANCH  10  11
BRANCH   1  13
HETATM   13  O6  UNL     1     -27.614 -14.411   0.491  1.00  0.00    -0.347 OA
BRANCH  13  14
HETATM   14  C11 UNL     1     -28.219 -14.087  -0.562  1.00  0.00     0.196 C 
HETATM   15  C6  UNL     1     -27.553 -13.216  -1.605  1.00  0.00     0.150 C 
HETATM   16  O2  UNL     1     -26.262 -12.879  -1.320  1.00  0.00    -0.347 OA
HETATM   17  C8  UNL     1     -28.245 -11.864  -1.542  1.00  0.00     0.195 C 
HETATM   18  C7  UNL     1     -26.129 -11.494  -1.432  1.00  0.00     0.340 C 
HETATM   19  O3  UNL     1     -27.318 -11.082  -0.818  1.00  0.00    -0.356 OA
HETATM   20  C9  UNL     1     -29.520 -12.042  -0.777  1.00  0.00     0.181 C 
HETATM   21  C10 UNL     1     -29.623 -13.491  -0.448  1.00  0.00     0.181 C 
BRANCH  15  22
HETATM   22  C5  UNL     1     -27.660 -13.750  -3.009  1.00  0.00     0.187 C 
BRANCH  22  23
HETATM   23  C2  UNL     1     -26.898 -14.957  -3.299  1.00  0.00    -0.050 C 
HETATM   24  C1  UNL     1     -25.418 -14.963  -3.390  1.00  0.00     0.046 C 
HETATM   25  C3  UNL     1     -27.496 -16.116  -3.507  1.00  0.00     0.039 C 
BRANCH  25  26
HETATM   26  C4  UNL     1     -28.931 -16.344  -3.469  1.00  0.00     0.208 C 
BRANCH  26  27
HETATM   27  N1  UNL     1     -29.502 -16.749  -2.450  1.00  0.00    -0.346 NA
BRANCH  27  28
HETATM   28  N2  UNL     1     -29.908 -17.290  -1.408  1.00  0.00    -0.281 N 
ATOM     29  H22 UNL     1     -29.107 -16.889  -0.921  1.00  0.00     0.191 HD
ATOM     30  H21 UNL     1     -30.373 -17.794  -0.654  1.00  0.00     0.191 HD
ENDBRANCH  27  28
ENDBRANCH  26  27
ENDBRANCH  25  26
ENDBRANCH  22  23
BRANCH  22  31
HETATM   31  O1  UNL     1     -27.381 -12.791  -3.965  1.00  0.00    -0.388 OA
ATOM     32  H1  UNL     1     -26.793 -12.142  -3.596  1.00  0.00     0.210 HD
ENDBRANCH  22  31
ENDBRANCH  15  22
BRANCH  20  33
HETATM   33  O4  UNL     1     -29.538 -11.249   0.390  1.00  0.00    -0.390 OA
ATOM     34  H4  UNL     1     -30.345 -11.363   0.876  1.00  0.00     0.210 HD
ENDBRANCH  20  33
BRANCH  21  35
HETATM   35  O5  UNL     1     -30.533 -14.059  -1.333  1.00  0.00    -0.390 OA
ATOM     36  H5  UNL     1     -30.186 -14.903  -1.598  1.00  0.00     0.210 HD
ENDBRANCH  21  35
ENDBRANCH  13  14
ENDBRANCH   1  13
TORSDOF 11
ENDMDL
MODEL 5
REMARK VINA RESULT: -6.839355317      2.041      6.484
REMARK  11 active torsions:
REMARK  status: ('A' for Active; 'I' for Inactive)
REMARK    1  A    between atoms: C2_2  and  C5_9 
REMARK    2  A    between atoms: C3_3  and  C4_4 
REMARK    3  A    between atoms: C4_4  and  N1_5 
REMARK    4  A    between atoms: N1_5  and  N2_6 
REMARK    5  A    between atoms: C5_9  and  O1_10 
REMARK    6  A    between atoms: C5_9  and  C6_12 
REMARK    7  A    between atoms: C9_17  and  O4_18 
REMARK    8  A    between atoms: C10_20  and  O5_21 
REMARK    9  A    between atoms: C11_23  and  O6_24 
REMARK   10  A    between atoms: O6_24  and  C12_25 
REMARK   11  A    between atoms: C19_34  and  O8_35 
ROOT
HETATM    1  C12 UNL     1     -26.353 -12.480  -1.307  1.00  0.00     0.291 C 
HETATM    2  O7  UNL     1     -24.968 -12.815  -1.161  1.00  0.00    -0.346 OA
HETATM    3  C13 UNL     1     -24.517 -13.275  -2.342  1.00  0.00     0.088 A 
HETATM    4  C14 UNL     1     -25.168 -14.613  -2.715  1.00  0.00     0.048 C 
HETATM    5  C15 UNL     1     -23.859 -12.674  -3.453  1.00  0.00     0.142 A 
HETATM    6  C16 UNL     1     -23.837 -13.330  -4.779  1.00  0.00     0.068 C 
HETATM    7  N3  UNL     1     -23.817 -13.838  -5.833  1.00  0.00    -0.197 NA
HETATM    8  C17 UNL     1     -25.061 -12.003  -3.124  1.00  0.00     0.038 A 
HETATM    9  C18 UNL     1     -24.798 -10.656  -2.415  1.00  0.00     0.023 C 
HETATM   10  C19 UNL     1     -26.441 -12.395  -2.860  1.00  0.00     0.185 C 
ENDROOT
BRANCH  10  11
HETATM   11  O8  UNL     1     -27.363 -11.380  -3.192  1.00  0.00    -0.390 OA
ATOM     12  H8  UNL     1     -28.216 -11.634  -2.860  1.00  0.00     0.210 HD
ENDBRANCH  10  11
BRANCH   1  13
HETATM   13  O6  UNL     1     -27.223 -13.215  -0.845  1.00  0.00    -0.347 OA
BRANCH  13  14
HETATM   14  C11 UNL     1     -28.291 -13.835  -0.613  1.00  0.00     0.196 C 
HETATM   15  C6  UNL     1     -28.273 -15.195   0.049  1.00  0.00     0.150 C 
HETATM   16  O2  UNL     1     -27.031 -15.635   0.403  1.00  0.00    -0.347 OA
HETATM   17  C8  UNL     1     -28.661 -16.201  -1.022  1.00  0.00     0.195 C 
HETATM   18  C7  UNL     1     -26.851 -16.921  -0.110  1.00  0.00     0.340 C 
HETATM   19  O3  UNL     1     -27.414 -16.759  -1.382  1.00  0.00    -0.356 OA
HETATM   20  C9  UNL     1     -29.265 -15.440  -2.163  1.00  0.00     0.181 C 
HETATM   21  C10 UNL     1     -29.300 -14.009  -1.750  1.00  0.00     0.181 C 
BRANCH  15  22
HETATM   22  C5  UNL     1     -29.228 -15.327   1.205  1.00  0.00     0.187 C 
BRANCH  22  23
HETATM   23  C2  UNL     1     -28.886 -14.587   2.412  1.00  0.00    -0.050 C 
HETATM   24  C1  UNL     1     -27.759 -14.978   3.294  1.00  0.00     0.046 C 
HETATM   25  C3  UNL     1     -29.575 -13.526   2.789  1.00  0.00     0.039 C 
BRANCH  25  26
HETATM   26  C4  UNL     1     -30.715 -12.966   2.082  1.00  0.00     0.208 C 
BRANCH  26  27
HETATM   27  N1  UNL     1     -30.595 -12.020   1.295  1.00  0.00    -0.346 NA
BRANCH  27  28
HETATM   28  N2  UNL     1     -30.568 -11.201   0.362  1.00  0.00    -0.281 N 
ATOM     29  H22 UNL     1     -31.235 -10.630   0.880  1.00  0.00     0.191 HD
ATOM     30  H21 UNL     1     -30.430 -10.640  -0.478  1.00  0.00     0.191 HD
ENDBRANCH  27  28
ENDBRANCH  26  27
ENDBRANCH  25  26
ENDBRANCH  22  23
BRANCH  22  31
HETATM   31  O1  UNL     1     -29.486 -16.645   1.534  1.00  0.00    -0.388 OA
ATOM     32  H1  UNL     1     -30.110 -17.007   0.915  1.00  0.00     0.210 HD
ENDBRANCH  22  31
ENDBRANCH  15  22
BRANCH  20  33
HETATM   33  O4  UNL     1     -28.522 -15.612  -3.350  1.00  0.00    -0.390 OA
ATOM     34  H4  UNL     1     -29.063 -15.485  -4.121  1.00  0.00     0.210 HD
ENDBRANCH  20  33
BRANCH  21  35
HETATM   35  O5  UNL     1     -30.606 -13.712  -1.374  1.00  0.00    -0.390 OA
ATOM     36  H5  UNL     1     -30.591 -12.878  -0.919  1.00  0.00     0.210 HD
ENDBRANCH  21  35
ENDBRANCH  13  14
ENDBRANCH   1  13
TORSDOF 11
ENDMDL
