MODEL 1
REMARK VINA RESULT: -8.250425019      0.000      0.000
REMARK  8 active torsions:
REMARK  status: ('A' for Active; 'I' for Inactive)
REMARK    1  A    between atoms: S1_2  and  N1_4 
REMARK    2  A    between atoms: S1_2  and  C10_26 
REMARK    3  A    between atoms: N1_4  and  C1_6 
REMARK    4  A    between atoms: C3_11  and  C4_12 
REMARK    5  A    between atoms: C4_12  and  O5_13 
REMARK    6  A    between atoms: C5_16  and  N2_17 
REMARK    7  A    between atoms: C6_18  and  O7_19 
REMARK    8  A    between atoms: C9_23  and  O8_24 
ROOT
HETATM    1  C1  UNL     1     -27.338 -15.334  -1.458  1.00  0.00     0.156 C 
HETATM    2  C2  UNL     1     -27.133 -14.460  -0.265  1.00  0.00     0.173 C 
HETATM    3  S2  UNL     1     -28.582 -13.754   0.396  1.00  0.00     0.175 S 
HETATM    4  O3  UNL     1     -28.378 -12.278   0.707  1.00  0.00    -0.225 OA
HETATM    5  O4  UNL     1     -28.979 -14.379   1.725  1.00  0.00    -0.225 OA
HETATM    6  C3  UNL     1     -29.896 -14.027  -0.738  1.00  0.00     0.269 C 
HETATM    7  O6  UNL     1     -29.484 -14.277  -1.968  1.00  0.00    -0.342 OA
HETATM    8  C5  UNL     1     -28.467 -15.035  -2.338  1.00  0.00     0.258 C 
ENDROOT
BRANCH   1   9
HETATM    9  N1  UNL     1     -26.088 -15.320  -2.191  1.00  0.00    -0.305 N 
ATOM     10  H1  UNL     1     -25.414 -16.082  -2.122  1.00  0.00     0.173 HD
BRANCH   9  11
HETATM   11  S1  UNL     1     -25.813 -13.969  -3.166  1.00  0.00     0.259 S 
HETATM   12  O1  UNL     1     -25.968 -12.725  -2.329  1.00  0.00    -0.201 OA
HETATM   13  O2  UNL     1     -26.660 -13.905  -4.401  1.00  0.00    -0.201 OA
BRANCH  11  14
HETATM   14  C10 UNL     1     -24.147 -14.006  -3.698  1.00  0.00     0.079 A 
HETATM   15  C11 UNL     1     -23.747 -14.667  -4.846  1.00  0.00     0.025 A 
HETATM   16  C12 UNL     1     -22.423 -14.685  -5.240  1.00  0.00     0.002 A 
HETATM   17  C13 UNL     1     -21.447 -14.045  -4.507  1.00  0.00     0.000 A 
HETATM   18  C14 UNL     1     -21.836 -13.384  -3.363  1.00  0.00     0.002 A 
HETATM   19  C15 UNL     1     -23.170 -13.373  -2.975  1.00  0.00     0.025 A 
ENDBRANCH  11  14
ENDBRANCH   9  11
ENDBRANCH   1   9
BRANCH   8  20
HETATM   20  N2  UNL     1     -29.003 -16.306  -2.867  1.00  0.00    -0.279 N 
HETATM   21  C6  UNL     1     -29.546 -17.334  -2.183  1.00  0.00     0.146 A 
HETATM   22  C7  UNL     1     -29.934 -18.349  -2.997  1.00  0.00     0.060 A 
HETATM   23  C8  UNL     1     -29.619 -17.943  -4.277  1.00  0.00     0.060 A 
HETATM   24  C9  UNL     1     -29.052 -16.692  -4.160  1.00  0.00     0.146 A 
BRANCH  21  25
HETATM   25  O7  UNL     1     -29.700 -17.368  -0.791  1.00  0.00    -0.346 OA
ATOM     26  H7  UNL     1     -29.205 -17.932  -0.209  1.00  0.00     0.219 HD
ENDBRANCH  21  25
BRANCH  24  27
HETATM   27  O8  UNL     1     -28.613 -15.979  -5.264  1.00  0.00    -0.346 OA
ATOM     28  H8  UNL     1     -28.541 -15.036  -5.346  1.00  0.00     0.219 HD
ENDBRANCH  24  27
ENDBRANCH   8  20
BRANCH   6  29
HETATM   29  C4  UNL     1     -30.689 -12.703  -0.768  1.00  0.00     0.212 C 
BRANCH  29  30
HETATM   30  O5  UNL     1     -32.056 -12.961  -0.706  1.00  0.00    -0.397 OA
ATOM     31  H5  UNL     1     -32.315 -13.136   0.191  1.00  0.00     0.209 HD
ENDBRANCH  29  30
ENDBRANCH   6  29
TORSDOF 8
ENDMDL
MODEL 2
REMARK VINA RESULT: -8.235634731      0.019      1.480
REMARK  8 active torsions:
REMARK  status: ('A' for Active; 'I' for Inactive)
REMARK    1  A    between atoms: S1_2  and  N1_4 
REMARK    2  A    between atoms: S1_2  and  C10_26 
REMARK    3  A    between atoms: N1_4  and  C1_6 
REMARK    4  A    between atoms: C3_11  and  C4_12 
REMARK    5  A    between atoms: C4_12  and  O5_13 
REMARK    6  A    between atoms: C5_16  and  N2_17 
REMARK    7  A    between atoms: C6_18  and  O7_19 
REMARK    8  A    between atoms: C9_23  and  O8_24 
ROOT
HETATM    1  C1  UNL     1     -27.343 -15.335  -1.469  1.00  0.00     0.156 C 
HETATM    2  C2  UNL     1     -27.142 -14.462  -0.274  1.00  0.00     0.173 C 
HETATM    3  S2  UNL     1     -28.593 -13.758   0.384  1.00  0.00     0.175 S 
HETATM    4  O3  UNL     1     -28.389 -12.282   0.698  1.00  0.00    -0.225 OA
HETATM    5  O4  UNL     1     -28.993 -14.385   1.711  1.00  0.00    -0.225 OA
HETATM    6  C3  UNL     1     -29.903 -14.028  -0.754  1.00  0.00     0.269 C 
HETATM    7  O6  UNL     1     -29.487 -14.277  -1.983  1.00  0.00    -0.342 OA
HETATM    8  C5  UNL     1     -28.470 -15.034  -2.352  1.00  0.00     0.258 C 
ENDROOT
BRANCH   1   9
HETATM    9  N1  UNL     1     -26.092 -15.319  -2.199  1.00  0.00    -0.305 N 
ATOM     10  H1  UNL     1     -25.418 -16.082  -2.129  1.00  0.00     0.173 HD
BRANCH   9  11
HETATM   11  S1  UNL     1     -25.813 -13.966  -3.170  1.00  0.00     0.259 S 
HETATM   12  O1  UNL     1     -25.976 -12.723  -2.332  1.00  0.00    -0.201 OA
HETATM   13  O2  UNL     1     -26.652 -13.902  -4.410  1.00  0.00    -0.201 OA
BRANCH  11  14
HETATM   14  C10 UNL     1     -24.143 -13.999  -3.691  1.00  0.00     0.079 A 
HETATM   15  C11 UNL     1     -23.733 -14.669  -4.830  1.00  0.00     0.025 A 
HETATM   16  C12 UNL     1     -22.407 -14.682  -5.216  1.00  0.00     0.002 A 
HETATM   17  C13 UNL     1     -21.438 -14.030  -4.483  1.00  0.00     0.000 A 
HETATM   18  C14 UNL     1     -21.838 -13.360  -3.348  1.00  0.00     0.002 A 
HETATM   19  C15 UNL     1     -23.174 -13.352  -2.969  1.00  0.00     0.025 A 
ENDBRANCH  11  14
ENDBRANCH   9  11
ENDBRANCH   1   9
BRANCH   8  20
HETATM   20  N2  UNL     1     -29.004 -16.303  -2.884  1.00  0.00    -0.279 N 
HETATM   21  C6  UNL     1     -29.075 -16.708  -4.170  1.00  0.00     0.146 A 
HETATM   22  C7  UNL     1     -29.630 -17.940  -4.294  1.00  0.00     0.060 A 
HETATM   23  C8  UNL     1     -29.932 -18.347  -3.010  1.00  0.00     0.060 A 
HETATM   24  C9  UNL     1     -29.537 -17.322  -2.176  1.00  0.00     0.146 A 
BRANCH  21  25
HETATM   25  O7  UNL     1     -28.630 -15.955  -5.264  1.00  0.00    -0.346 OA
ATOM     26  H7  UNL     1     -28.455 -16.313  -6.127  1.00  0.00     0.219 HD
ENDBRANCH  21  25
BRANCH  24  27
HETATM   27  O8  UNL     1     -29.693 -17.394  -0.801  1.00  0.00    -0.346 OA
ATOM     28  H8  UNL     1     -29.366 -18.071  -0.221  1.00  0.00     0.219 HD
ENDBRANCH  24  27
ENDBRANCH   8  20
BRANCH   6  29
HETATM   29  C4  UNL     1     -30.696 -12.704  -0.784  1.00  0.00     0.212 C 
BRANCH  29  30
HETATM   30  O5  UNL     1     -32.063 -12.961  -0.703  1.00  0.00    -0.397 OA
ATOM     31  H5  UNL     1     -32.552 -12.149  -0.760  1.00  0.00     0.209 HD
ENDBRANCH  29  30
ENDBRANCH   6  29
TORSDOF 8
ENDMDL
MODEL 3
REMARK VINA RESULT: -7.971770795      2.610      4.807
REMARK  8 active torsions:
REMARK  status: ('A' for Active; 'I' for Inactive)
REMARK    1  A    between atoms: S1_2  and  N1_4 
REMARK    2  A    between atoms: S1_2  and  C10_26 
REMARK    3  A    between atoms: N1_4  and  C1_6 
REMARK    4  A    between atoms: C3_11  and  C4_12 
REMARK    5  A    between atoms: C4_12  and  O5_13 
REMARK    6  A    between atoms: C5_16  and  N2_17 
REMARK    7  A    between atoms: C6_18  and  O7_19 
REMARK    8  A    between atoms: C9_23  and  O8_24 
ROOT
HETATM    1  C1  UNL     1     -27.693 -16.152  -3.333  1.00  0.00     0.156 C 
HETATM    2  C2  UNL     1     -27.998 -16.863  -4.610  1.00  0.00     0.173 C 
HETATM    3  S2  UNL     1     -29.468 -17.798  -4.608  1.00  0.00     0.175 S 
HETATM    4  O3  UNL     1     -29.244 -19.168  -5.233  1.00  0.00    -0.225 OA
HETATM    5  O4  UNL     1     -30.563 -17.162  -5.451  1.00  0.00    -0.225 OA
HETATM    6  C3  UNL     1     -30.055 -17.900  -2.956  1.00  0.00     0.269 C 
HETATM    7  O6  UNL     1     -29.118 -17.672  -2.052  1.00  0.00    -0.342 OA
HETATM    8  C5  UNL     1     -28.171 -16.752  -2.087  1.00  0.00     0.258 C 
ENDROOT
BRANCH   1   9
HETATM    9  N1  UNL     1     -26.257 -15.966  -3.304  1.00  0.00    -0.305 N 
ATOM     10  H1  UNL     1     -25.613 -16.754  -3.229  1.00  0.00     0.173 HD
BRANCH   9  11
HETATM   11  S1  UNL     1     -25.710 -14.371  -3.402  1.00  0.00     0.259 S 
HETATM   12  O1  UNL     1     -26.753 -13.542  -4.108  1.00  0.00    -0.201 OA
HETATM   13  O2  UNL     1     -24.363 -14.210  -4.039  1.00  0.00    -0.201 OA
BRANCH  11  14
HETATM   14  C10 UNL     1     -25.582 -13.734  -1.778  1.00  0.00     0.079 A 
HETATM   15  C11 UNL     1     -25.131 -14.496  -0.714  1.00  0.00     0.025 A 
HETATM   16  C12 UNL     1     -25.044 -13.968   0.559  1.00  0.00     0.002 A 
HETATM   17  C13 UNL     1     -25.402 -12.663   0.823  1.00  0.00     0.000 A 
HETATM   18  C14 UNL     1     -25.851 -11.898  -0.231  1.00  0.00     0.002 A 
HETATM   19  C15 UNL     1     -25.935 -12.438  -1.508  1.00  0.00     0.025 A 
ENDBRANCH  11  14
ENDBRANCH   9  11
ENDBRANCH   1   9
BRANCH   8  20
HETATM   20  N2  UNL     1     -28.539 -15.670  -1.153  1.00  0.00    -0.279 N 
HETATM   21  C6  UNL     1     -28.445 -15.658   0.193  1.00  0.00     0.146 A 
HETATM   22  C7  UNL     1     -28.878 -14.489   0.732  1.00  0.00     0.060 A 
HETATM   23  C8  UNL     1     -29.271 -13.708  -0.335  1.00  0.00     0.060 A 
HETATM   24  C9  UNL     1     -29.051 -14.461  -1.470  1.00  0.00     0.146 A 
BRANCH  21  25
HETATM   25  O7  UNL     1     -27.958 -16.722   0.964  1.00  0.00    -0.346 OA
ATOM     26  H7  UNL     1     -28.492 -17.254   1.543  1.00  0.00     0.219 HD
ENDBRANCH  21  25
BRANCH  24  27
HETATM   27  O8  UNL     1     -29.338 -13.979  -2.737  1.00  0.00    -0.346 OA
ATOM     28  H8  UNL     1     -30.174 -14.011  -3.186  1.00  0.00     0.219 HD
ENDBRANCH  24  27
ENDBRANCH   8  20
BRANCH   6  29
HETATM   29  C4  UNL     1     -30.530 -19.359  -2.782  1.00  0.00     0.212 C 
BRANCH  29  30
HETATM   30  O5  UNL     1     -31.456 -19.681  -3.771  1.00  0.00    -0.397 OA
ATOM     31  H5  UNL     1     -32.233 -20.065  -3.380  1.00  0.00     0.209 HD
ENDBRANCH  29  30
ENDBRANCH   6  29
TORSDOF 8
ENDMDL
MODEL 4
REMARK VINA RESULT: -7.936893751      1.872      4.239
REMARK  8 active torsions:
REMARK  status: ('A' for Active; 'I' for Inactive)
REMARK    1  A    between atoms: S1_2  and  N1_4 
REMARK    2  A    between atoms: S1_2  and  C10_26 
REMARK    3  A    between atoms: N1_4  and  C1_6 
REMARK    4  A    between atoms: C3_11  and  C4_12 
REMARK    5  A    between atoms: C4_12  and  O5_13 
REMARK    6  A    between atoms: C5_16  and  N2_17 
REMARK    7  A    between atoms: C6_18  and  O7_19 
REMARK    8  A    between atoms: C9_23  and  O8_24 
ROOT
HETATM    1  C1  UNL     1     -27.700 -16.065  -3.300  1.00  0.00     0.156 C 
HETATM    2  C2  UNL     1     -27.976 -16.778  -4.583  1.00  0.00     0.173 C 
HETATM    3  S2  UNL     1     -29.426 -17.744  -4.598  1.00  0.00     0.175 S 
HETATM    4  O3  UNL     1     -29.167 -19.107  -5.225  1.00  0.00    -0.225 OA
HETATM    5  O4  UNL     1     -30.526 -17.128  -5.450  1.00  0.00    -0.225 OA
HETATM    6  C3  UNL     1     -30.027 -17.865  -2.952  1.00  0.00     0.269 C 
HETATM    7  O6  UNL     1     -29.104 -17.620  -2.038  1.00  0.00    -0.342 OA
HETATM    8  C5  UNL     1     -28.177 -16.680  -2.061  1.00  0.00     0.258 C 
ENDROOT
BRANCH   1   9
HETATM    9  N1  UNL     1     -26.268 -15.849  -3.257  1.00  0.00    -0.305 N 
ATOM     10  H1  UNL     1     -25.606 -16.624  -3.250  1.00  0.00     0.173 HD
BRANCH   9  11
HETATM   11  S1  UNL     1     -25.759 -14.238  -3.218  1.00  0.00     0.259 S 
HETATM   12  O1  UNL     1     -25.718 -13.776  -1.784  1.00  0.00    -0.201 OA
HETATM   13  O2  UNL     1     -26.568 -13.307  -4.070  1.00  0.00    -0.201 OA
BRANCH  11  14
HETATM   14  C10 UNL     1     -24.115 -14.169  -3.811  1.00  0.00     0.079 A 
HETATM   15  C11 UNL     1     -23.099 -13.538  -3.114  1.00  0.00     0.025 A 
HETATM   16  C12 UNL     1     -21.810 -13.494  -3.608  1.00  0.00     0.002 A 
HETATM   17  C13 UNL     1     -21.483 -14.076  -4.814  1.00  0.00     0.000 A 
HETATM   18  C14 UNL     1     -22.488 -14.707  -5.514  1.00  0.00     0.002 A 
HETATM   19  C15 UNL     1     -23.781 -14.745  -5.009  1.00  0.00     0.025 A 
ENDBRANCH  11  14
ENDBRANCH   9  11
ENDBRANCH   1   9
BRANCH   8  20
HETATM   20  N2  UNL     1     -28.577 -15.609  -1.127  1.00  0.00    -0.279 N 
HETATM   21  C6  UNL     1     -28.528 -15.613   0.222  1.00  0.00     0.146 A 
HETATM   22  C7  UNL     1     -28.980 -14.452   0.759  1.00  0.00     0.060 A 
HETATM   23  C8  UNL     1     -29.337 -13.658  -0.311  1.00  0.00     0.060 A 
HETATM   24  C9  UNL     1     -29.078 -14.396  -1.446  1.00  0.00     0.146 A 
BRANCH  21  25
HETATM   25  O7  UNL     1     -28.067 -16.686   0.995  1.00  0.00    -0.346 OA
ATOM     26  H7  UNL     1     -27.151 -16.885   1.147  1.00  0.00     0.219 HD
ENDBRANCH  21  25
BRANCH  24  27
HETATM   27  O8  UNL     1     -29.323 -13.900  -2.716  1.00  0.00    -0.346 OA
ATOM     28  H8  UNL     1     -29.819 -14.318  -3.410  1.00  0.00     0.219 HD
ENDBRANCH  24  27
ENDBRANCH   8  20
BRANCH   6  29
HETATM   29  C4  UNL     1     -30.473 -19.334  -2.788  1.00  0.00     0.212 C 
BRANCH  29  30
HETATM   30  O5  UNL     1     -31.384 -19.672  -3.786  1.00  0.00    -0.397 OA
ATOM     31  H5  UNL     1     -32.129 -19.083  -3.761  1.00  0.00     0.209 HD
ENDBRANCH  29  30
ENDBRANCH   6  29
TORSDOF 8
ENDMDL
MODEL 5
REMARK VINA RESULT: -7.924696391      1.575      2.442
REMARK  8 active torsions:
REMARK  status: ('A' for Active; 'I' for Inactive)
REMARK    1  A    between atoms: S1_2  and  N1_4 
REMARK    2  A    between atoms: S1_2  and  C10_26 
REMARK    3  A    between atoms: N1_4  and  C1_6 
REMARK    4  A    between atoms: C3_11  and  C4_12 
REMARK    5  A    between atoms: C4_12  and  O5_13 
REMARK    6  A    between atoms: C5_16  and  N2_17 
REMARK    7  A    between atoms: C6_18  and  O7_19 
REMARK    8  A    between atoms: C9_23  and  O8_24 
ROOT
HETATM    1  C1  UNL     1     -27.370 -14.199  -2.519  1.00  0.00     0.156 C 
HETATM    2  C2  UNL     1     -26.996 -13.092  -1.590  1.00  0.00     0.173 C 
HETATM    3  S2  UNL     1     -28.177 -12.720  -0.365  1.00  0.00     0.175 S 
HETATM    4  O3  UNL     1     -28.379 -11.216  -0.240  1.00  0.00    -0.225 OA
HETATM    5  O4  UNL     1     -27.738 -13.168   1.022  1.00  0.00    -0.225 OA
HETATM    6  C3  UNL     1     -29.665 -13.568  -0.756  1.00  0.00     0.269 C 
HETATM    7  O6  UNL     1     -29.750 -13.919  -2.027  1.00  0.00    -0.342 OA
HETATM    8  C5  UNL     1     -28.792 -14.409  -2.793  1.00  0.00     0.258 C 
ENDROOT
BRANCH   1   9
HETATM    9  N1  UNL     1     -26.634 -13.967  -3.745  1.00  0.00    -0.305 N 
ATOM     10  H1  UNL     1     -27.077 -13.572  -4.574  1.00  0.00     0.173 HD
BRANCH   9  11
HETATM   11  S1  UNL     1     -24.997 -14.386  -3.721  1.00  0.00     0.259 S 
HETATM   12  O1  UNL     1     -24.772 -15.520  -4.688  1.00  0.00    -0.201 OA
HETATM   13  O2  UNL     1     -24.455 -14.712  -2.362  1.00  0.00    -0.201 OA
BRANCH  11  14
HETATM   14  C10 UNL     1     -24.074 -13.028  -4.322  1.00  0.00     0.079 A 
HETATM   15  C11 UNL     1     -24.022 -11.813  -3.661  1.00  0.00     0.025 A 
HETATM   16  C12 UNL     1     -23.288 -10.755  -4.161  1.00  0.00     0.002 A 
HETATM   17  C13 UNL     1     -22.577 -10.865  -5.337  1.00  0.00     0.000 A 
HETATM   18  C14 UNL     1     -22.623 -12.071  -6.001  1.00  0.00     0.002 A 
HETATM   19  C15 UNL     1     -23.364 -13.129  -5.490  1.00  0.00     0.025 A 
ENDBRANCH  11  14
ENDBRANCH   9  11
ENDBRANCH   1   9
BRANCH   8  20
HETATM   20  N2  UNL     1     -29.030 -15.856  -2.966  1.00  0.00    -0.279 N 
HETATM   21  C6  UNL     1     -29.028 -16.574  -4.109  1.00  0.00     0.146 A 
HETATM   22  C7  UNL     1     -29.289 -17.889  -3.893  1.00  0.00     0.060 A 
HETATM   23  C8  UNL     1     -29.467 -18.018  -2.532  1.00  0.00     0.060 A 
HETATM   24  C9  UNL     1     -29.303 -16.757  -1.997  1.00  0.00     0.146 A 
BRANCH  21  25
HETATM   25  O7  UNL     1     -28.787 -16.040  -5.380  1.00  0.00    -0.346 OA
ATOM     26  H7  UNL     1     -29.294 -16.248  -6.156  1.00  0.00     0.219 HD
ENDBRANCH  21  25
BRANCH  24  27
HETATM   27  O8  UNL     1     -29.415 -16.516  -0.638  1.00  0.00    -0.346 OA
ATOM     28  H8  UNL     1     -28.754 -16.663   0.027  1.00  0.00     0.219 HD
ENDBRANCH  24  27
ENDBRANCH   8  20
BRANCH   6  29
HETATM   29  C4  UNL     1     -30.797 -12.558  -0.470  1.00  0.00     0.212 C 
BRANCH  29  30
HETATM   30  O5  UNL     1     -32.024 -13.093  -0.853  1.00  0.00    -0.397 OA
ATOM     31  H5  UNL     1     -32.712 -12.775  -0.279  1.00  0.00     0.209 HD
ENDBRANCH  29  30
ENDBRANCH   6  29
TORSDOF 8
ENDMDL
