MODEL 1
REMARK VINA RESULT: -6.654798728      0.000      0.000
REMARK  10 active torsions:
REMARK  status: ('A' for Active; 'I' for Inactive)
REMARK    1  A    between atoms: N1_7  and  C6_8 
REMARK    2  A    between atoms: C6_8  and  C7_9 
REMARK    3  A    between atoms: C8_10  and  C9_11 
REMARK    4  A    between atoms: C10_12  and  C11_13 
REMARK    5  A    between atoms: C14_16  and  C15_17 
REMARK    6  A    between atoms: C15_17  and  O2_18 
REMARK    7  A    between atoms: C16_20  and  O3_21 
REMARK    8  A    between atoms: C17_23  and  O4_24 
REMARK    9  A    between atoms: C18_26  and  O5_27 
REMARK   10  A    between atoms: O5_27  and  S1_28 
ROOT
HETATM    1  C7  UNL     1     -27.957 -14.602  -1.217  1.00  0.00     0.053 C 
HETATM    2  C8  UNL     1     -28.707 -14.659  -2.546  1.00  0.00     0.082 C 
HETATM    3  C14 UNL     1     -27.857 -14.081  -3.621  1.00  0.00     0.057 C 
HETATM    4  C16 UNL     1     -27.757 -12.594  -3.381  1.00  0.00     0.156 C 
HETATM    5  C17 UNL     1     -28.160 -12.204  -1.999  1.00  0.00     0.178 C 
HETATM    6  C18 UNL     1     -27.668 -13.177  -0.932  1.00  0.00     0.183 C 
ENDROOT
BRANCH   1   7
HETATM    7  C6  UNL     1     -28.796 -15.376  -0.245  1.00  0.00     0.140 C 
BRANCH   7   8
HETATM    8  N1  UNL     1     -28.150 -16.318   0.596  1.00  0.00    -0.324 N 
HETATM    9  C1  UNL     1     -28.498 -16.535   1.858  1.00  0.00     0.247 A 
HETATM   10  O1  UNL     1     -29.465 -15.965   2.426  1.00  0.00    -0.268 OA
HETATM   11  C2  UNL     1     -27.818 -17.436   2.674  1.00  0.00     0.074 A 
HETATM   12  C3  UNL     1     -26.756 -18.127   2.176  1.00  0.00     0.007 A 
HETATM   13  C4  UNL     1     -26.372 -17.918   0.862  1.00  0.00     0.017 A 
HETATM   14  C5  UNL     1     -27.099 -17.010   0.126  1.00  0.00     0.094 A 
ENDBRANCH   7   8
ENDBRANCH   1   7
BRANCH   2  15
HETATM   15  C9  UNL     1     -29.070 -16.053  -2.843  1.00  0.00    -0.100 C 
HETATM   16  C10 UNL     1     -29.398 -17.209  -3.096  1.00  0.00    -0.101 C 
BRANCH  16  17
HETATM   17  C11 UNL     1     -29.771 -18.587  -3.415  1.00  0.00     0.065 A 
HETATM   18  C12 UNL     1     -31.100 -19.068  -2.960  1.00  0.00     0.018 A 
HETATM   19  C13 UNL     1     -30.809 -18.743  -4.456  1.00  0.00     0.018 A 
ENDBRANCH  16  17
ENDBRANCH   2  15
BRANCH   6  20
HETATM   20  O5  UNL     1     -26.358 -12.919  -0.580  1.00  0.00    -0.248 OA
BRANCH  20  21
HETATM   21  S1  UNL     1     -25.826 -13.203   0.916  1.00  0.00     0.252 S 
HETATM   22  O6  UNL     1     -25.018 -12.016   1.376  1.00  0.00    -0.572 OA
HETATM   23  O7  UNL     1     -26.885 -13.374   1.969  1.00  0.00    -0.572 OA
HETATM   24  O8  UNL     1     -24.829 -14.544   1.059  1.00  0.00    -0.572 OA
ENDBRANCH  20  21
ENDBRANCH   6  20
BRANCH   3  25
HETATM   25  C15 UNL     1     -26.494 -14.663  -3.758  1.00  0.00     0.172 C 
BRANCH  25  26
HETATM   26  O2  UNL     1     -25.603 -13.737  -4.341  1.00  0.00    -0.400 OA
ATOM     27  H2  UNL     1     -24.786 -14.156  -4.586  1.00  0.00     0.209 HD
ENDBRANCH  25  26
ENDBRANCH   3  25
BRANCH   5  28
HETATM   28  O4  UNL     1     -27.618 -10.947  -1.733  1.00  0.00    -0.390 OA
ATOM     29  H4  UNL     1     -28.307 -10.302  -1.849  1.00  0.00     0.210 HD
ENDBRANCH   5  28
BRANCH   4  30
HETATM   30  O3  UNL     1     -28.631 -11.971  -4.275  1.00  0.00    -0.392 OA
ATOM     31  H3  UNL     1     -29.228 -11.442  -3.761  1.00  0.00     0.210 HD
ENDBRANCH   4  30
TORSDOF 10
ENDMDL
MODEL 2
REMARK VINA RESULT: -6.634857498      3.000      5.813
REMARK  10 active torsions:
REMARK  status: ('A' for Active; 'I' for Inactive)
REMARK    1  A    between atoms: N1_7  and  C6_8 
REMARK    2  A    between atoms: C6_8  and  C7_9 
REMARK    3  A    between atoms: C8_10  and  C9_11 
REMARK    4  A    between atoms: C10_12  and  C11_13 
REMARK    5  A    between atoms: C14_16  and  C15_17 
REMARK    6  A    between atoms: C15_17  and  O2_18 
REMARK    7  A    between atoms: C16_20  and  O3_21 
REMARK    8  A    between atoms: C17_23  and  O4_24 
REMARK    9  A    between atoms: C18_26  and  O5_27 
REMARK   10  A    between atoms: O5_27  and  S1_28 
ROOT
HETATM    1  C7  UNL     1     -27.701 -13.968  -2.246  1.00  0.00     0.053 C 
HETATM    2  C8  UNL     1     -29.104 -14.471  -1.911  1.00  0.00     0.082 C 
HETATM    3  C14 UNL     1     -29.040 -15.912  -1.547  1.00  0.00     0.057 C 
HETATM    4  C16 UNL     1     -28.719 -16.691  -2.799  1.00  0.00     0.156 C 
HETATM    5  C17 UNL     1     -28.179 -15.830  -3.891  1.00  0.00     0.178 C 
HETATM    6  C18 UNL     1     -27.206 -14.765  -3.392  1.00  0.00     0.183 C 
ENDROOT
BRANCH   1   7
HETATM    7  C6  UNL     1     -27.831 -12.483  -2.403  1.00  0.00     0.140 C 
BRANCH   7   8
HETATM    8  N1  UNL     1     -27.019 -11.650  -1.592  1.00  0.00    -0.324 N 
HETATM    9  C1  UNL     1     -27.464 -10.557  -0.984  1.00  0.00     0.247 A 
HETATM   10  O1  UNL     1     -28.660 -10.170  -1.026  1.00  0.00    -0.268 OA
HETATM   11  C2  UNL     1     -26.633  -9.734  -0.228  1.00  0.00     0.074 A 
HETATM   12  C3  UNL     1     -25.314 -10.046  -0.096  1.00  0.00     0.007 A 
HETATM   13  C4  UNL     1     -24.825 -11.182  -0.720  1.00  0.00     0.017 A 
HETATM   14  C5  UNL     1     -25.715 -11.938  -1.448  1.00  0.00     0.094 A 
ENDBRANCH   7   8
ENDBRANCH   1   7
BRANCH   2  15
HETATM   15  C9  UNL     1     -29.662 -13.667  -0.814  1.00  0.00    -0.100 C 
HETATM   16  C10 UNL     1     -30.146 -13.016   0.108  1.00  0.00    -0.101 C 
BRANCH  16  17
HETATM   17  C11 UNL     1     -30.699 -12.238   1.217  1.00  0.00     0.065 A 
HETATM   18  C12 UNL     1     -30.822 -12.906   2.538  1.00  0.00     0.018 A 
HETATM   19  C13 UNL     1     -29.730 -11.830   2.256  1.00  0.00     0.018 A 
ENDBRANCH  16  17
ENDBRANCH   2  15
BRANCH   6  20
HETATM   20  O5  UNL     1     -25.937 -15.281  -3.224  1.00  0.00    -0.248 OA
BRANCH  20  21
HETATM   21  S1  UNL     1     -24.657 -14.587  -3.920  1.00  0.00     0.252 S 
HETATM   22  O6  UNL     1     -24.115 -15.520  -4.973  1.00  0.00    -0.572 OA
HETATM   23  O7  UNL     1     -24.923 -13.300  -4.651  1.00  0.00    -0.572 OA
HETATM   24  O8  UNL     1     -23.388 -14.257  -2.875  1.00  0.00    -0.572 OA
ENDBRANCH  20  21
ENDBRANCH   6  20
BRANCH   3  25
HETATM   25  C15 UNL     1     -28.079 -16.270  -0.469  1.00  0.00     0.172 C 
BRANCH  25  26
HETATM   26  O2  UNL     1     -27.143 -17.225  -0.920  1.00  0.00    -0.400 OA
ATOM     27  H2  UNL     1     -26.253 -16.914  -0.802  1.00  0.00     0.209 HD
ENDBRANCH  25  26
ENDBRANCH   3  25
BRANCH   5  28
HETATM   28  O4  UNL     1     -27.505 -16.654  -4.793  1.00  0.00    -0.390 OA
ATOM     29  H4  UNL     1     -26.719 -16.200  -5.072  1.00  0.00     0.210 HD
ENDBRANCH   5  28
BRANCH   4  30
HETATM   30  O3  UNL     1     -29.912 -17.258  -3.251  1.00  0.00    -0.392 OA
ATOM     31  H3  UNL     1     -29.696 -18.097  -3.640  1.00  0.00     0.210 HD
ENDBRANCH   4  30
TORSDOF 10
ENDMDL
MODEL 3
REMARK VINA RESULT: -6.558231569      3.510      6.380
REMARK  10 active torsions:
REMARK  status: ('A' for Active; 'I' for Inactive)
REMARK    1  A    between atoms: N1_7  and  C6_8 
REMARK    2  A    between atoms: C6_8  and  C7_9 
REMARK    3  A    between atoms: C8_10  and  C9_11 
REMARK    4  A    between atoms: C10_12  and  C11_13 
REMARK    5  A    between atoms: C14_16  and  C15_17 
REMARK    6  A    between atoms: C15_17  and  O2_18 
REMARK    7  A    between atoms: C16_20  and  O3_21 
REMARK    8  A    between atoms: C17_23  and  O4_24 
REMARK    9  A    between atoms: C18_26  and  O5_27 
REMARK   10  A    between atoms: O5_27  and  S1_28 
ROOT
HETATM    1  C7  UNL     1     -26.688 -14.541  -2.494  1.00  0.00     0.053 C 
HETATM    2  C8  UNL     1     -26.718 -13.597  -1.293  1.00  0.00     0.082 C 
HETATM    3  C14 UNL     1     -28.129 -13.363  -0.882  1.00  0.00     0.057 C 
HETATM    4  C16 UNL     1     -28.789 -12.528  -1.953  1.00  0.00     0.156 C 
HETATM    5  C17 UNL     1     -28.025 -12.524  -3.234  1.00  0.00     0.178 C 
HETATM    6  C18 UNL     1     -27.440 -13.887  -3.590  1.00  0.00     0.183 C 
ENDROOT
BRANCH   1   7
HETATM    7  C6  UNL     1     -25.243 -14.874  -2.709  1.00  0.00     0.140 C 
BRANCH   7   8
HETATM    8  N1  UNL     1     -24.484 -14.041  -3.571  1.00  0.00    -0.324 N 
HETATM    9  C1  UNL     1     -24.016 -14.436  -4.749  1.00  0.00     0.247 A 
HETATM   10  O1  UNL     1     -24.232 -15.571  -5.244  1.00  0.00    -0.268 OA
HETATM   11  C2  UNL     1     -23.238 -13.609  -5.556  1.00  0.00     0.074 A 
HETATM   12  C3  UNL     1     -22.937 -12.349  -5.139  1.00  0.00     0.007 A 
HETATM   13  C4  UNL     1     -23.414 -11.912  -3.914  1.00  0.00     0.017 A 
HETATM   14  C5  UNL     1     -24.175 -12.794  -3.180  1.00  0.00     0.094 A 
ENDBRANCH   7   8
ENDBRANCH   1   7
BRANCH   2  15
HETATM   15  C9  UNL     1     -25.931 -14.178  -0.195  1.00  0.00    -0.100 C 
HETATM   16  C10 UNL     1     -25.297 -14.662   0.737  1.00  0.00    -0.101 C 
BRANCH  16  17
HETATM   17  C11 UNL     1     -24.534 -15.260   1.835  1.00  0.00     0.065 A 
HETATM   18  C12 UNL     1     -25.193 -15.359   3.162  1.00  0.00     0.018 A 
HETATM   19  C13 UNL     1     -24.970 -16.607   2.255  1.00  0.00     0.018 A 
ENDBRANCH  16  17
ENDBRANCH   2  15
BRANCH   6  20
HETATM   20  O5  UNL     1     -28.380 -14.695  -4.199  1.00  0.00    -0.248 OA
BRANCH  20  21
HETATM   21  S1  UNL     1     -28.246 -16.302  -4.160  1.00  0.00     0.252 S 
HETATM   22  O6  UNL     1     -29.459 -16.905  -4.822  1.00  0.00    -0.572 OA
HETATM   23  O7  UNL     1     -27.077 -16.884  -4.905  1.00  0.00    -0.572 OA
HETATM   24  O8  UNL     1     -28.169 -16.958  -2.618  1.00  0.00    -0.572 OA
ENDBRANCH  20  21
ENDBRANCH   6  20
BRANCH   3  25
HETATM   25  C15 UNL     1     -28.942 -14.581  -0.618  1.00  0.00     0.172 C 
BRANCH  25  26
HETATM   26  O2  UNL     1     -30.024 -14.674  -1.518  1.00  0.00    -0.400 OA
ATOM     27  H2  UNL     1     -30.721 -15.213  -1.162  1.00  0.00     0.209 HD
ENDBRANCH  25  26
ENDBRANCH   3  25
BRANCH   5  28
HETATM   28  O4  UNL     1     -28.897 -12.138  -4.252  1.00  0.00    -0.390 OA
ATOM     29  H4  UNL     1     -28.598 -11.302  -4.591  1.00  0.00     0.210 HD
ENDBRANCH   5  28
BRANCH   4  30
HETATM   30  O3  UNL     1     -28.842 -11.215  -1.480  1.00  0.00    -0.392 OA
ATOM     31  H3  UNL     1     -29.302 -10.700  -2.132  1.00  0.00     0.210 HD
ENDBRANCH   4  30
TORSDOF 10
ENDMDL
MODEL 4
REMARK VINA RESULT: -6.496790000      0.897      1.517
REMARK  10 active torsions:
REMARK  status: ('A' for Active; 'I' for Inactive)
REMARK    1  A    between atoms: N1_7  and  C6_8 
REMARK    2  A    between atoms: C6_8  and  C7_9 
REMARK    3  A    between atoms: C8_10  and  C9_11 
REMARK    4  A    between atoms: C10_12  and  C11_13 
REMARK    5  A    between atoms: C14_16  and  C15_17 
REMARK    6  A    between atoms: C15_17  and  O2_18 
REMARK    7  A    between atoms: C16_20  and  O3_21 
REMARK    8  A    between atoms: C17_23  and  O4_24 
REMARK    9  A    between atoms: C18_26  and  O5_27 
REMARK   10  A    between atoms: O5_27  and  S1_28 
ROOT
HETATM    1  C7  UNL     1     -28.070 -14.688  -1.256  1.00  0.00     0.053 C 
HETATM    2  C8  UNL     1     -28.738 -14.696  -2.630  1.00  0.00     0.082 C 
HETATM    3  C14 UNL     1     -27.823 -14.084  -3.629  1.00  0.00     0.057 C 
HETATM    4  C16 UNL     1     -27.734 -12.606  -3.332  1.00  0.00     0.156 C 
HETATM    5  C17 UNL     1     -28.220 -12.264  -1.964  1.00  0.00     0.178 C 
HETATM    6  C18 UNL     1     -27.796 -13.276  -0.904  1.00  0.00     0.183 C 
ENDROOT
BRANCH   1   7
HETATM    7  C6  UNL     1     -28.969 -15.492  -0.365  1.00  0.00     0.140 C 
BRANCH   7   8
HETATM    8  N1  UNL     1     -28.379 -16.217   0.702  1.00  0.00    -0.324 N 
HETATM    9  C1  UNL     1     -27.541 -17.231   0.526  1.00  0.00     0.247 A 
HETATM   10  O1  UNL     1     -27.146 -17.627  -0.601  1.00  0.00    -0.268 OA
HETATM   11  C2  UNL     1     -27.010 -17.952   1.593  1.00  0.00     0.074 A 
HETATM   12  C3  UNL     1     -27.351 -17.619   2.868  1.00  0.00     0.007 A 
HETATM   13  C4  UNL     1     -28.224 -16.564   3.079  1.00  0.00     0.017 A 
HETATM   14  C5  UNL     1     -28.701 -15.906   1.968  1.00  0.00     0.094 A 
ENDBRANCH   7   8
ENDBRANCH   1   7
BRANCH   2  15
HETATM   15  C9  UNL     1     -29.085 -16.076  -2.997  1.00  0.00    -0.100 C 
HETATM   16  C10 UNL     1     -29.401 -17.224  -3.297  1.00  0.00    -0.101 C 
BRANCH  16  17
HETATM   17  C11 UNL     1     -29.767 -18.589  -3.678  1.00  0.00     0.065 A 
HETATM   18  C12 UNL     1     -31.017 -19.154  -3.110  1.00  0.00     0.018 A 
HETATM   19  C13 UNL     1     -30.916 -18.707  -4.599  1.00  0.00     0.018 A 
ENDBRANCH  16  17
ENDBRANCH   2  15
BRANCH   6  20
HETATM   20  O5  UNL     1     -26.509 -13.036  -0.464  1.00  0.00    -0.248 OA
BRANCH  20  21
HETATM   21  S1  UNL     1     -26.165 -12.976   1.111  1.00  0.00     0.252 S 
HETATM   22  O6  UNL     1     -25.628 -14.318   1.539  1.00  0.00    -0.572 OA
HETATM   23  O7  UNL     1     -25.102 -11.993   1.516  1.00  0.00    -0.572 OA
HETATM   24  O8  UNL     1     -27.480 -12.651   2.100  1.00  0.00    -0.572 OA
ENDBRANCH  20  21
ENDBRANCH   6  20
BRANCH   3  25
HETATM   25  C15 UNL     1     -26.455 -14.666  -3.705  1.00  0.00     0.172 C 
BRANCH  25  26
HETATM   26  O2  UNL     1     -25.574 -13.806  -4.394  1.00  0.00    -0.400 OA
ATOM     27  H2  UNL     1     -25.875 -13.648  -5.281  1.00  0.00     0.209 HD
ENDBRANCH  25  26
ENDBRANCH   3  25
BRANCH   5  28
HETATM   28  O4  UNL     1     -27.693 -11.018  -1.621  1.00  0.00    -0.390 OA
ATOM     29  H4  UNL     1     -26.754 -11.049  -1.765  1.00  0.00     0.210 HD
ENDBRANCH   5  28
BRANCH   4  30
HETATM   30  O3  UNL     1     -28.551 -11.949  -4.254  1.00  0.00    -0.392 OA
ATOM     31  H3  UNL     1     -28.152 -11.106  -4.434  1.00  0.00     0.210 HD
ENDBRANCH   4  30
TORSDOF 10
ENDMDL
MODEL 5
REMARK VINA RESULT: -6.486795065      3.084      5.414
REMARK  10 active torsions:
REMARK  status: ('A' for Active; 'I' for Inactive)
REMARK    1  A    between atoms: N1_7  and  C6_8 
REMARK    2  A    between atoms: C6_8  and  C7_9 
REMARK    3  A    between atoms: C8_10  and  C9_11 
REMARK    4  A    between atoms: C10_12  and  C11_13 
REMARK    5  A    between atoms: C14_16  and  C15_17 
REMARK    6  A    between atoms: C15_17  and  O2_18 
REMARK    7  A    between atoms: C16_20  and  O3_21 
REMARK    8  A    between atoms: C17_23  and  O4_24 
REMARK    9  A    between atoms: C18_26  and  O5_27 
REMARK   10  A    between atoms: O5_27  and  S1_28 
ROOT
HETATM    1  C7  UNL     1     -28.053 -14.723  -0.964  1.00  0.00     0.053 C 
HETATM    2  C8  UNL     1     -27.661 -13.251  -1.082  1.00  0.00     0.082 C 
HETATM    3  C14 UNL     1     -28.756 -12.499  -1.753  1.00  0.00     0.057 C 
HETATM    4  C16 UNL     1     -28.795 -12.931  -3.199  1.00  0.00     0.156 C 
HETATM    5  C17 UNL     1     -28.057 -14.204  -3.441  1.00  0.00     0.178 C 
HETATM    6  C18 UNL     1     -28.263 -15.238  -2.337  1.00  0.00     0.183 C 
ENDROOT
BRANCH   1   7
HETATM    7  C6  UNL     1     -26.995 -15.355  -0.111  1.00  0.00     0.140 C 
BRANCH   7   8
HETATM    8  N1  UNL     1     -27.312 -15.650   1.240  1.00  0.00    -0.324 N 
HETATM    9  C1  UNL     1     -26.403 -15.959   2.156  1.00  0.00     0.247 A 
HETATM   10  O1  UNL     1     -25.164 -15.978   1.937  1.00  0.00    -0.268 OA
HETATM   11  C2  UNL     1     -26.746 -16.285   3.466  1.00  0.00     0.074 A 
HETATM   12  C3  UNL     1     -28.056 -16.293   3.837  1.00  0.00     0.007 A 
HETATM   13  C4  UNL     1     -29.025 -15.974   2.899  1.00  0.00     0.017 A 
HETATM   14  C5  UNL     1     -28.597 -15.664   1.628  1.00  0.00     0.094 A 
ENDBRANCH   7   8
ENDBRANCH   1   7
BRANCH   2  15
HETATM   15  C9  UNL     1     -27.383 -12.710   0.256  1.00  0.00    -0.100 C 
HETATM   16  C10 UNL     1     -27.176 -12.249   1.374  1.00  0.00    -0.101 C 
BRANCH  16  17
HETATM   17  C11 UNL     1     -26.923 -11.721   2.716  1.00  0.00     0.065 A 
HETATM   18  C12 UNL     1     -27.564 -12.413   3.864  1.00  0.00     0.018 A 
HETATM   19  C13 UNL     1     -26.039 -12.542   3.569  1.00  0.00     0.018 A 
ENDBRANCH  16  17
ENDBRANCH   2  15
BRANCH   6  20
HETATM   20  O5  UNL     1     -29.443 -15.933  -2.512  1.00  0.00    -0.248 OA
BRANCH  20  21
HETATM   21  S1  UNL     1     -29.436 -17.509  -2.860  1.00  0.00     0.252 S 
HETATM   22  O6  UNL     1     -28.427 -18.195  -1.976  1.00  0.00    -0.572 OA
HETATM   23  O7  UNL     1     -30.724 -18.243  -2.610  1.00  0.00    -0.572 OA
HETATM   24  O8  UNL     1     -29.010 -17.872  -4.441  1.00  0.00    -0.572 OA
ENDBRANCH  20  21
ENDBRANCH   6  20
BRANCH   3  25
HETATM   25  C15 UNL     1     -30.108 -12.639  -1.148  1.00  0.00     0.172 C 
BRANCH  25  26
HETATM   26  O2  UNL     1     -30.540 -11.420  -0.582  1.00  0.00    -0.400 OA
ATOM     27  H2  UNL     1     -29.930 -11.115   0.080  1.00  0.00     0.209 HD
ENDBRANCH  25  26
ENDBRANCH   3  25
BRANCH   5  28
HETATM   28  O4  UNL     1     -28.516 -14.744  -4.642  1.00  0.00    -0.390 OA
ATOM     29  H4  UNL     1     -27.930 -14.460  -5.333  1.00  0.00     0.210 HD
ENDBRANCH   5  28
BRANCH   4  30
HETATM   30  O3  UNL     1     -28.175 -11.927  -3.947  1.00  0.00    -0.392 OA
ATOM     31  H3  UNL     1     -28.629 -11.875  -4.779  1.00  0.00     0.210 HD
ENDBRANCH   4  30
TORSDOF 10
ENDMDL
