MODEL 1
REMARK VINA RESULT: -5.187283577      0.000      0.000
REMARK  0 active torsions:
REMARK  status: ('A' for Active; 'I' for Inactive)
ROOT
HETATM    1  C1  UNL     1     -13.789  -7.167  29.190  1.00  0.00     0.018 C 
HETATM    2  C2  UNL     1     -12.375  -6.623  29.416  1.00  0.00     0.056 C 
HETATM    3  C3  UNL     1     -11.780  -7.312  30.555  1.00  0.00     0.071 C 
HETATM    4  N1  UNL     1     -10.441  -7.092  30.809  1.00  0.00    -0.364 N 
HETATM    5  C4  UNL     1      -9.608  -6.387  29.954  1.00  0.00     0.065 C 
HETATM    6  C5  UNL     1     -10.064  -5.330  29.082  1.00  0.00     0.067 C 
HETATM    7  C6  UNL     1     -11.172  -4.398  29.553  1.00  0.00     0.047 C 
HETATM    8  C7  UNL     1     -10.813  -3.864  30.885  1.00  0.00    -0.002 C 
HETATM    9  C8  UNL     1     -10.942  -4.548  32.135  1.00  0.00     0.044 C 
HETATM   10  S1  UNL     1      -9.488  -5.559  32.634  1.00  0.00    -0.122 SA
HETATM   11  C9  UNL     1      -9.951  -7.271  32.140  1.00  0.00     0.205 C 
HETATM   12  C10 UNL     1     -11.052  -3.180  28.625  1.00  0.00     0.087 C 
HETATM   13  N2  UNL     1     -12.091  -3.029  27.690  1.00  0.00    -0.297 N 
HETATM   14  C11 UNL     1     -12.142  -2.275  26.486  1.00  0.00     0.226 C 
HETATM   15  O1  UNL     1     -11.189  -1.622  25.939  1.00  0.00    -0.273 OA
HETATM   16  C12 UNL     1     -13.490  -2.346  25.928  1.00  0.00     0.108 C 
HETATM   17  C13 UNL     1     -14.008  -3.664  26.467  1.00  0.00     0.071 C 
HETATM   18  C14 UNL     1     -13.369  -3.682  27.833  1.00  0.00     0.143 C 
HETATM   19  C15 UNL     1     -14.306  -3.009  28.791  1.00  0.00     0.062 C 
HETATM   20  C16 UNL     1     -14.803  -4.148  29.696  1.00  0.00     0.008 C 
HETATM   21  C17 UNL     1     -13.533  -4.637  30.390  1.00  0.00     0.040 C 
HETATM   22  C18 UNL     1     -12.472  -5.120  29.427  1.00  0.00     0.088 C 
HETATM   23  O2  UNL     1     -13.067  -4.968  28.141  1.00  0.00    -0.347 OA
ENDROOT
TORSDOF 0
ENDMDL
MODEL 2
REMARK VINA RESULT: -5.158972401      2.728      5.555
REMARK  0 active torsions:
REMARK  status: ('A' for Active; 'I' for Inactive)
ROOT
HETATM    1  C1  UNL     1     -12.020  -2.689  31.603  1.00  0.00     0.018 C 
HETATM    2  C2  UNL     1     -11.691  -3.389  30.281  1.00  0.00     0.056 C 
HETATM    3  C3  UNL     1     -12.808  -3.212  29.362  1.00  0.00     0.071 C 
HETATM    4  N1  UNL     1     -12.631  -3.616  28.053  1.00  0.00    -0.364 N 
HETATM    5  C4  UNL     1     -11.410  -4.026  27.539  1.00  0.00     0.065 C 
HETATM    6  C5  UNL     1     -10.378  -4.653  28.331  1.00  0.00     0.067 C 
HETATM    7  C6  UNL     1     -10.770  -5.601  29.456  1.00  0.00     0.047 C 
HETATM    8  C7  UNL     1     -11.713  -6.609  28.924  1.00  0.00    -0.002 C 
HETATM    9  C8  UNL     1     -13.110  -6.419  28.681  1.00  0.00     0.044 C 
HETATM   10  S1  UNL     1     -13.539  -5.778  27.009  1.00  0.00    -0.122 SA
HETATM   11  C9  UNL     1     -13.778  -3.972  27.278  1.00  0.00     0.205 C 
HETATM   12  C10 UNL     1      -9.490  -6.403  29.730  1.00  0.00     0.087 C 
HETATM   13  N2  UNL     1      -8.849  -6.120  30.948  1.00  0.00    -0.297 N 
HETATM   14  C11 UNL     1      -7.515  -6.378  31.368  1.00  0.00     0.226 C 
HETATM   15  O1  UNL     1      -6.563  -6.861  30.666  1.00  0.00    -0.273 OA
HETATM   16  C12 UNL     1      -7.369  -6.002  32.771  1.00  0.00     0.108 C 
HETATM   17  C13 UNL     1      -8.429  -4.934  32.945  1.00  0.00     0.071 C 
HETATM   18  C14 UNL     1      -9.517  -5.464  32.045  1.00  0.00     0.143 C 
HETATM   19  C15 UNL     1     -10.396  -6.362  32.864  1.00  0.00     0.062 C 
HETATM   20  C16 UNL     1     -11.723  -5.594  32.971  1.00  0.00     0.008 C 
HETATM   21  C17 UNL     1     -12.201  -5.494  31.523  1.00  0.00     0.040 C 
HETATM   22  C18 UNL     1     -11.223  -4.781  30.618  1.00  0.00     0.088 C 
HETATM   23  O2  UNL     1     -10.152  -4.406  31.481  1.00  0.00    -0.347 OA
ENDROOT
TORSDOF 0
ENDMDL
MODEL 3
REMARK VINA RESULT: -5.086846556      1.424      1.548
REMARK  0 active torsions:
REMARK  status: ('A' for Active; 'I' for Inactive)
ROOT
HETATM    1  C1  UNL     1     -12.895  -8.284  30.248  1.00  0.00     0.018 C 
HETATM    2  C2  UNL     1     -11.631  -7.418  30.260  1.00  0.00     0.056 C 
HETATM    3  C3  UNL     1     -11.005  -7.515  31.573  1.00  0.00     0.071 C 
HETATM    4  N1  UNL     1      -9.755  -6.949  31.730  1.00  0.00    -0.364 N 
HETATM    5  C4  UNL     1      -9.009  -6.443  30.677  1.00  0.00     0.065 C 
HETATM    6  C5  UNL     1      -9.591  -5.886  29.477  1.00  0.00     0.067 C 
HETATM    7  C6  UNL     1     -10.888  -5.095  29.573  1.00  0.00     0.047 C 
HETATM    8  C7  UNL     1     -10.739  -4.058  30.618  1.00  0.00    -0.002 C 
HETATM    9  C8  UNL     1     -10.830  -4.259  32.032  1.00  0.00     0.044 C 
HETATM   10  S1  UNL     1      -9.252  -4.704  32.867  1.00  0.00    -0.122 SA
HETATM   11  C9  UNL     1      -9.342  -6.536  33.034  1.00  0.00     0.205 C 
HETATM   12  C10 UNL     1     -10.932  -4.294  28.264  1.00  0.00     0.087 C 
HETATM   13  N2  UNL     1     -11.906  -4.704  27.338  1.00  0.00    -0.297 N 
HETATM   14  C11 UNL     1     -12.009  -4.459  25.941  1.00  0.00     0.226 C 
HETATM   15  O1  UNL     1     -11.159  -3.865  25.195  1.00  0.00    -0.273 OA
HETATM   16  C12 UNL     1     -13.273  -5.000  25.447  1.00  0.00     0.108 C 
HETATM   17  C13 UNL     1     -13.570  -6.113  26.431  1.00  0.00     0.071 C 
HETATM   18  C14 UNL     1     -13.044  -5.509  27.710  1.00  0.00     0.143 C 
HETATM   19  C15 UNL     1     -14.162  -4.745  28.353  1.00  0.00     0.062 C 
HETATM   20  C16 UNL     1     -14.500  -5.560  29.612  1.00  0.00     0.008 C 
HETATM   21  C17 UNL     1     -13.216  -5.497  30.438  1.00  0.00     0.040 C 
HETATM   22  C18 UNL     1     -12.013  -6.065  29.720  1.00  0.00     0.088 C 
HETATM   23  O2  UNL     1     -12.527  -6.509  28.467  1.00  0.00    -0.347 OA
ENDROOT
TORSDOF 0
ENDMDL
MODEL 4
REMARK VINA RESULT: -5.074887537      2.650      5.383
REMARK  0 active torsions:
REMARK  status: ('A' for Active; 'I' for Inactive)
ROOT
HETATM    1  C1  UNL     1     -12.827  -2.428  30.851  1.00  0.00     0.018 C 
HETATM    2  C2  UNL     1     -12.234  -3.063  29.590  1.00  0.00     0.056 C 
HETATM    3  C3  UNL     1     -13.140  -2.828  28.472  1.00  0.00     0.071 C 
HETATM    4  N1  UNL     1     -12.699  -3.166  27.208  1.00  0.00    -0.364 N 
HETATM    5  C4  UNL     1     -11.399  -3.563  26.934  1.00  0.00     0.065 C 
HETATM    6  C5  UNL     1     -10.551  -4.241  27.886  1.00  0.00     0.067 C 
HETATM    7  C6  UNL     1     -11.165  -5.240  28.857  1.00  0.00     0.047 C 
HETATM    8  C7  UNL     1     -11.980  -6.210  28.091  1.00  0.00    -0.002 C 
HETATM    9  C8  UNL     1     -13.298  -5.992  27.578  1.00  0.00     0.044 C 
HETATM   10  S1  UNL     1     -13.375  -5.262  25.890  1.00  0.00    -0.122 SA
HETATM   11  C9  UNL     1     -13.663  -3.470  26.198  1.00  0.00     0.205 C 
HETATM   12  C10 UNL     1      -9.968  -6.070  29.344  1.00  0.00     0.087 C 
HETATM   13  N2  UNL     1      -9.590  -5.856  30.681  1.00  0.00    -0.297 N 
HETATM   14  C11 UNL     1      -8.370  -6.150  31.350  1.00  0.00     0.226 C 
HETATM   15  O1  UNL     1      -7.295  -6.607  30.833  1.00  0.00    -0.273 OA
HETATM   16  C12 UNL     1      -8.514  -5.847  32.772  1.00  0.00     0.108 C 
HETATM   17  C13 UNL     1      -9.587  -4.777  32.780  1.00  0.00     0.071 C 
HETATM   18  C14 UNL     1     -10.468  -5.249  31.651  1.00  0.00     0.143 C 
HETATM   19  C15 UNL     1     -11.496  -6.178  32.225  1.00  0.00     0.062 C 
HETATM   20  C16 UNL     1     -12.817  -5.402  32.099  1.00  0.00     0.008 C 
HETATM   21  C17 UNL     1     -12.988  -5.223  30.591  1.00  0.00     0.040 C 
HETATM   22  C18 UNL     1     -11.846  -4.475  29.943  1.00  0.00     0.088 C 
HETATM   23  O2  UNL     1     -10.973  -4.157  31.025  1.00  0.00    -0.347 OA
ENDROOT
TORSDOF 0
ENDMDL
MODEL 5
REMARK VINA RESULT: -5.040878367      1.977      3.033
REMARK  0 active torsions:
REMARK  status: ('A' for Active; 'I' for Inactive)
ROOT
HETATM    1  C1  UNL     1     -15.830  -3.827  29.791  1.00  0.00     0.018 C 
HETATM    2  C2  UNL     1     -14.488  -4.502  30.087  1.00  0.00     0.056 C 
HETATM    3  C3  UNL     1     -14.056  -4.126  31.428  1.00  0.00     0.071 C 
HETATM    4  N1  UNL     1     -12.956  -4.775  31.952  1.00  0.00    -0.364 N 
HETATM    5  C4  UNL     1     -12.348  -5.862  31.342  1.00  0.00     0.065 C 
HETATM    6  C5  UNL     1     -12.341  -6.078  29.913  1.00  0.00     0.067 C 
HETATM    7  C6  UNL     1     -12.243  -4.882  28.977  1.00  0.00     0.047 C 
HETATM    8  C7  UNL     1     -11.094  -4.045  29.390  1.00  0.00    -0.002 C 
HETATM    9  C8  UNL     1     -11.070  -3.116  30.478  1.00  0.00     0.044 C 
HETATM   10  S1  UNL     1     -10.578  -3.822  32.105  1.00  0.00    -0.122 SA
HETATM   11  C9  UNL     1     -12.181  -4.121  32.959  1.00  0.00     0.205 C 
HETATM   12  C10 UNL     1     -11.791  -5.492  27.642  1.00  0.00     0.087 C 
HETATM   13  N2  UNL     1     -12.760  -5.499  26.623  1.00  0.00    -0.297 N 
HETATM   14  C11 UNL     1     -12.834  -6.266  25.429  1.00  0.00     0.226 C 
HETATM   15  O1  UNL     1     -12.049  -7.207  25.063  1.00  0.00    -0.273 OA
HETATM   16  C12 UNL     1     -13.976  -5.819  24.636  1.00  0.00     0.108 C 
HETATM   17  C13 UNL     1     -14.912  -5.255  25.686  1.00  0.00     0.071 C 
HETATM   18  C14 UNL     1     -13.925  -4.649  26.651  1.00  0.00     0.143 C 
HETATM   19  C15 UNL     1     -13.673  -3.234  26.225  1.00  0.00     0.062 C 
HETATM   20  C16 UNL     1     -14.322  -2.386  27.331  1.00  0.00     0.008 C 
HETATM   21  C17 UNL     1     -13.528  -2.756  28.583  1.00  0.00     0.040 C 
HETATM   22  C18 UNL     1     -13.583  -4.229  28.914  1.00  0.00     0.088 C 
HETATM   23  O2  UNL     1     -14.423  -4.786  27.906  1.00  0.00    -0.347 OA
ENDROOT
TORSDOF 0
ENDMDL
