MODEL 1
REMARK VINA RESULT: -5.914086757      0.000      0.000
REMARK  2 active torsions:
REMARK  status: ('A' for Active; 'I' for Inactive)
REMARK    1  A    between atoms: N1_9  and  C8_10 
REMARK    2  A    between atoms: C8_10  and  C9_12 
ROOT
HETATM    1  C1  UNL     1     -10.317  -6.439  31.679  1.00  0.00     0.046 C 
HETATM    2  C2  UNL     1     -10.522  -6.181  30.204  1.00  0.00     0.060 A 
HETATM    3  C3  UNL     1      -9.237  -5.746  29.576  1.00  0.00     0.046 C 
HETATM    4  O1  UNL     1     -11.029  -7.295  29.588  1.00  0.00    -0.375 OA
HETATM    5  C4  UNL     1     -12.160  -6.559  29.148  1.00  0.00     0.132 A 
HETATM    6  C5  UNL     1     -12.183  -6.577  27.677  1.00  0.00     0.064 C 
HETATM    7  C6  UNL     1     -13.299  -5.799  27.017  1.00  0.00     0.044 C 
HETATM    8  C7  UNL     1     -14.573  -6.574  27.102  1.00  0.00     0.039 C 
HETATM    9  N1  UNL     1     -12.802  -5.551  25.685  1.00  0.00    -0.336 N 
HETATM   10  C10 UNL     1     -11.815  -4.506  25.552  1.00  0.00     0.067 C 
HETATM   11  C11 UNL     1     -11.363  -3.773  26.717  1.00  0.00     0.054 C 
HETATM   12  C12 UNL     1     -12.268  -3.711  27.928  1.00  0.00    -0.030 C 
HETATM   13  C13 UNL     1     -12.644  -2.235  28.080  1.00  0.00     0.016 C 
HETATM   14  C14 UNL     1     -11.540  -4.097  29.172  1.00  0.00     0.020 C 
HETATM   15  C15 UNL     1     -11.752  -5.352  29.845  1.00  0.00     0.049 A 
HETATM   16  C16 UNL     1     -13.546  -4.435  27.629  1.00  0.00    -0.015 C 
HETATM   17  C17 UNL     1     -14.492  -4.425  28.789  1.00  0.00     0.018 C 
HETATM   18  C18 UNL     1     -14.249  -3.623  26.538  1.00  0.00     0.018 C 
ENDROOT
BRANCH   9  19
HETATM   19  C8  UNL     1     -13.161  -6.237  24.497  1.00  0.00     0.180 C 
HETATM   20  S1  UNL     1     -14.743  -6.392  24.016  1.00  0.00    -0.053 SA
BRANCH  19  21
HETATM   21  C9  UNL     1     -12.250  -6.880  23.576  1.00  0.00     0.238 C 
HETATM   22  O2  UNL     1     -11.739  -8.011  23.904  1.00  0.00    -0.642 OA
HETATM   23  O3  UNL     1     -11.838  -6.423  22.343  1.00  0.00    -0.642 OA
ENDBRANCH  19  21
ENDBRANCH   9  19
TORSDOF 2
ENDMDL
MODEL 2
REMARK VINA RESULT: -5.727324610      2.191      3.901
REMARK  2 active torsions:
REMARK  status: ('A' for Active; 'I' for Inactive)
REMARK    1  A    between atoms: N1_9  and  C8_10 
REMARK    2  A    between atoms: C8_10  and  C9_12 
ROOT
HETATM    1  C1  UNL     1     -16.104  -1.417  31.129  1.00  0.00     0.046 C 
HETATM    2  C2  UNL     1     -15.595  -2.610  30.354  1.00  0.00     0.060 A 
HETATM    3  C3  UNL     1     -15.903  -3.872  31.093  1.00  0.00     0.046 C 
HETATM    4  O1  UNL     1     -16.129  -2.624  29.091  1.00  0.00    -0.375 OA
HETATM    5  C4  UNL     1     -14.830  -2.597  28.522  1.00  0.00     0.132 A 
HETATM    6  C5  UNL     1     -14.648  -3.815  27.717  1.00  0.00     0.064 C 
HETATM    7  C6  UNL     1     -13.296  -3.988  27.063  1.00  0.00     0.044 C 
HETATM    8  C7  UNL     1     -13.202  -3.111  25.857  1.00  0.00     0.039 C 
HETATM    9  N1  UNL     1     -13.216  -5.408  26.814  1.00  0.00    -0.336 N 
HETATM   10  C10 UNL     1     -12.920  -6.244  27.954  1.00  0.00     0.067 C 
HETATM   11  C11 UNL     1     -12.731  -5.656  29.264  1.00  0.00     0.054 C 
HETATM   12  C12 UNL     1     -12.311  -4.205  29.351  1.00  0.00    -0.030 C 
HETATM   13  C13 UNL     1     -10.920  -4.222  29.989  1.00  0.00     0.016 C 
HETATM   14  C14 UNL     1     -13.196  -3.437  30.276  1.00  0.00     0.020 C 
HETATM   15  C15 UNL     1     -14.173  -2.485  29.813  1.00  0.00     0.049 A 
HETATM   16  C16 UNL     1     -12.126  -3.658  27.968  1.00  0.00    -0.015 C 
HETATM   17  C17 UNL     1     -11.718  -2.218  27.973  1.00  0.00     0.018 C 
HETATM   18  C18 UNL     1     -10.930  -4.406  27.372  1.00  0.00     0.018 C 
ENDROOT
BRANCH   9  19
HETATM   19  C8  UNL     1     -13.417  -6.071  25.578  1.00  0.00     0.180 C 
HETATM   20  S1  UNL     1     -14.929  -6.507  25.050  1.00  0.00    -0.053 SA
BRANCH  19  21
HETATM   21  C9  UNL     1     -12.384  -6.458  24.641  1.00  0.00     0.238 C 
HETATM   22  O2  UNL     1     -11.759  -5.538  23.999  1.00  0.00    -0.642 OA
HETATM   23  O3  UNL     1     -11.964  -7.733  24.330  1.00  0.00    -0.642 OA
ENDBRANCH  19  21
ENDBRANCH   9  19
TORSDOF 2
ENDMDL
MODEL 3
REMARK VINA RESULT: -5.620210696      1.567      2.343
REMARK  2 active torsions:
REMARK  status: ('A' for Active; 'I' for Inactive)
REMARK    1  A    between atoms: N1_9  and  C8_10 
REMARK    2  A    between atoms: C8_10  and  C9_12 
ROOT
HETATM    1  C1  UNL     1      -8.395  -8.036  32.023  1.00  0.00     0.046 C 
HETATM    2  C2  UNL     1      -8.975  -7.262  30.862  1.00  0.00     0.060 A 
HETATM    3  C3  UNL     1      -7.901  -6.480  30.178  1.00  0.00     0.046 C 
HETATM    4  O1  UNL     1      -9.610  -8.110  29.992  1.00  0.00    -0.375 OA
HETATM    5  C4  UNL     1     -10.825  -7.395  30.153  1.00  0.00     0.132 A 
HETATM    6  C5  UNL     1     -11.226  -6.856  28.844  1.00  0.00     0.064 C 
HETATM    7  C6  UNL     1     -12.484  -6.018  28.823  1.00  0.00     0.044 C 
HETATM    8  C7  UNL     1     -13.684  -6.906  28.887  1.00  0.00     0.039 C 
HETATM    9  N1  UNL     1     -12.350  -5.229  27.622  1.00  0.00    -0.336 N 
HETATM   10  C10 UNL     1     -11.443  -4.107  27.689  1.00  0.00     0.067 C 
HETATM   11  C11 UNL     1     -10.716  -3.824  28.909  1.00  0.00     0.054 C 
HETATM   12  C12 UNL     1     -11.280  -4.328  30.220  1.00  0.00    -0.030 C 
HETATM   13  C13 UNL     1     -11.623  -3.073  31.025  1.00  0.00     0.016 C 
HETATM   14  C14 UNL     1     -10.251  -5.072  31.004  1.00  0.00     0.020 C 
HETATM   15  C15 UNL     1     -10.267  -6.505  31.156  1.00  0.00     0.049 A 
HETATM   16  C16 UNL     1     -12.582  -5.024  29.964  1.00  0.00    -0.015 C 
HETATM   17  C17 UNL     1     -13.198  -5.562  31.218  1.00  0.00     0.018 C 
HETATM   18  C18 UNL     1     -13.553  -3.945  29.478  1.00  0.00     0.018 C 
ENDROOT
BRANCH   9  19
HETATM   19  C8  UNL     1     -12.994  -5.449  26.379  1.00  0.00     0.180 C 
HETATM   20  S1  UNL     1     -14.592  -5.068  26.137  1.00  0.00    -0.053 SA
BRANCH  19  21
HETATM   21  C9  UNL     1     -12.388  -6.018  25.195  1.00  0.00     0.238 C 
HETATM   22  O2  UNL     1     -11.879  -5.227  24.322  1.00  0.00    -0.642 OA
HETATM   23  O3  UNL     1     -12.279  -7.352  24.863  1.00  0.00    -0.642 OA
ENDBRANCH  19  21
ENDBRANCH   9  19
TORSDOF 2
ENDMDL
MODEL 4
REMARK VINA RESULT: -5.618557727      2.182      3.176
REMARK  2 active torsions:
REMARK  status: ('A' for Active; 'I' for Inactive)
REMARK    1  A    between atoms: N1_9  and  C8_10 
REMARK    2  A    between atoms: C8_10  and  C9_12 
ROOT
HETATM    1  C1  UNL     1      -8.706  -8.662  31.601  1.00  0.00     0.046 C 
HETATM    2  C2  UNL     1      -9.148  -7.413  30.874  1.00  0.00     0.060 A 
HETATM    3  C3  UNL     1      -8.113  -6.344  31.012  1.00  0.00     0.046 C 
HETATM    4  O1  UNL     1      -9.408  -7.693  29.557  1.00  0.00    -0.375 OA
HETATM    5  C4  UNL     1     -10.739  -7.223  29.701  1.00  0.00     0.132 A 
HETATM    6  C5  UNL     1     -10.934  -6.087  28.787  1.00  0.00     0.064 C 
HETATM    7  C6  UNL     1     -12.289  -5.418  28.831  1.00  0.00     0.044 C 
HETATM    8  C7  UNL     1     -13.288  -6.252  28.097  1.00  0.00     0.039 C 
HETATM    9  N1  UNL     1     -12.041  -4.106  28.283  1.00  0.00    -0.336 N 
HETATM   10  C10 UNL     1     -11.395  -3.156  29.157  1.00  0.00     0.067 C 
HETATM   11  C11 UNL     1     -11.020  -3.537  30.503  1.00  0.00     0.054 C 
HETATM   12  C12 UNL     1     -11.755  -4.683  31.161  1.00  0.00    -0.030 C 
HETATM   13  C13 UNL     1     -12.493  -4.064  32.351  1.00  0.00     0.016 C 
HETATM   14  C14 UNL     1     -10.806  -5.688  31.724  1.00  0.00     0.020 C 
HETATM   15  C15 UNL     1     -10.590  -6.981  31.126  1.00  0.00     0.049 A 
HETATM   16  C16 UNL     1     -12.818  -5.189  30.233  1.00  0.00    -0.015 C 
HETATM   17  C17 UNL     1     -13.585  -6.336  30.813  1.00  0.00     0.018 C 
HETATM   18  C18 UNL     1     -13.839  -4.057  30.099  1.00  0.00     0.018 C 
ENDROOT
BRANCH   9  19
HETATM   19  C8  UNL     1     -12.343  -3.657  26.973  1.00  0.00     0.180 C 
HETATM   20  S1  UNL     1     -13.666  -2.706  26.652  1.00  0.00    -0.053 SA
BRANCH  19  21
HETATM   21  C9  UNL     1     -11.587  -3.952  25.775  1.00  0.00     0.238 C 
HETATM   22  O2  UNL     1     -10.550  -3.242  25.510  1.00  0.00    -0.642 OA
HETATM   23  O3  UNL     1     -11.839  -4.934  24.841  1.00  0.00    -0.642 OA
ENDBRANCH  19  21
ENDBRANCH   9  19
TORSDOF 2
ENDMDL
MODEL 5
REMARK VINA RESULT: -5.527680291      0.992      1.066
REMARK  2 active torsions:
REMARK  status: ('A' for Active; 'I' for Inactive)
REMARK    1  A    between atoms: N1_9  and  C8_10 
REMARK    2  A    between atoms: C8_10  and  C9_12 
ROOT
HETATM    1  C1  UNL     1     -11.285  -6.000  32.006  1.00  0.00     0.046 C 
HETATM    2  C2  UNL     1     -11.460  -5.727  30.530  1.00  0.00     0.060 A 
HETATM    3  C3  UNL     1     -10.316  -4.910  30.020  1.00  0.00     0.046 C 
HETATM    4  O1  UNL     1     -11.584  -6.903  29.837  1.00  0.00    -0.375 OA
HETATM    5  C4  UNL     1     -12.848  -6.495  29.336  1.00  0.00     0.132 A 
HETATM    6  C5  UNL     1     -12.770  -6.435  27.869  1.00  0.00     0.064 C 
HETATM    7  C6  UNL     1     -14.018  -5.971  27.152  1.00  0.00     0.044 C 
HETATM    8  C7  UNL     1     -15.018  -7.080  27.109  1.00  0.00     0.039 C 
HETATM    9  N1  UNL     1     -13.529  -5.517  25.872  1.00  0.00    -0.336 N 
HETATM   10  C10 UNL     1     -12.877  -4.228  25.854  1.00  0.00     0.067 C 
HETATM   11  C11 UNL     1     -12.732  -3.464  27.076  1.00  0.00     0.054 C 
HETATM   12  C12 UNL     1     -13.692  -3.731  28.214  1.00  0.00    -0.030 C 
HETATM   13  C13 UNL     1     -14.486  -2.434  28.389  1.00  0.00     0.016 C 
HETATM   14  C14 UNL     1     -12.966  -3.964  29.497  1.00  0.00     0.020 C 
HETATM   15  C15 UNL     1     -12.851  -5.264  30.106  1.00  0.00     0.049 A 
HETATM   16  C16 UNL     1     -14.686  -4.770  27.791  1.00  0.00    -0.015 C 
HETATM   17  C17 UNL     1     -15.667  -5.096  28.873  1.00  0.00     0.018 C 
HETATM   18  C18 UNL     1     -15.521  -4.132  26.678  1.00  0.00     0.018 C 
ENDROOT
BRANCH   9  19
HETATM   19  C8  UNL     1     -13.598  -6.208  24.636  1.00  0.00     0.180 C 
HETATM   20  S1  UNL     1     -15.047  -6.567  23.910  1.00  0.00    -0.053 SA
BRANCH  19  21
HETATM   21  C9  UNL     1     -12.473  -6.688  23.865  1.00  0.00     0.238 C 
HETATM   22  O2  UNL     1     -11.809  -7.695  24.304  1.00  0.00    -0.642 OA
HETATM   23  O3  UNL     1     -11.995  -6.188  22.672  1.00  0.00    -0.642 OA
ENDBRANCH  19  21
ENDBRANCH   9  19
TORSDOF 2
ENDMDL
