MODEL 1
REMARK VINA RESULT: -6.365033438      0.000      0.000
REMARK  7 active torsions:
REMARK  status: ('A' for Active; 'I' for Inactive)
REMARK    1  A    between atoms: C6_6  and  C7_7 
REMARK    2  A    between atoms: C7_7  and  O1_8 
REMARK    3  A    between atoms: C11_14  and  O2_15 
REMARK    4  A    between atoms: C13_18  and  O3_19 
REMARK    5  A    between atoms: C14_21  and  O4_22 
REMARK    6  A    between atoms: N2_26  and  C17_27 
REMARK    7  A    between atoms: C17_27  and  C18_28 
ROOT
HETATM    1  C1  UNL     1       0.096 -31.003 -31.107  1.00  0.00     0.038 C 
HETATM    2  C2  UNL     1      -0.260 -30.757 -29.691  1.00  0.00     0.025 C 
HETATM    3  C3  UNL     1      -1.374 -29.702 -29.639  1.00  0.00     0.038 C 
HETATM    4  C4  UNL     1      -0.928 -32.003 -29.099  1.00  0.00     0.039 C 
HETATM    5  C5  UNL     1      -0.972 -31.612 -27.676  1.00  0.00     0.049 C 
HETATM    6  C6  UNL     1      -0.905 -32.753 -26.714  1.00  0.00     0.254 C 
HETATM    7  N1  UNL     1       0.042 -32.297 -25.763  1.00  0.00     0.113 N 
HETATM    8  C8  UNL     1      -0.631 -31.741 -24.628  1.00  0.00     0.274 C 
HETATM    9  C9  UNL     1      -0.641 -30.269 -24.465  1.00  0.00     0.033 C 
HETATM   10  C10 UNL     1       0.664 -29.567 -24.774  1.00  0.00     0.042 C 
HETATM   11  C11 UNL     1       1.583 -30.636 -25.245  1.00  0.00     0.101 C 
HETATM   12  C12 UNL     1       2.969 -30.219 -25.567  1.00  0.00     0.075 C 
HETATM   13  C13 UNL     1       3.474 -31.460 -26.242  1.00  0.00     0.152 C 
HETATM   14  C14 UNL     1       2.260 -32.135 -26.873  1.00  0.00     0.191 C 
HETATM   15  C15 UNL     1       1.027 -31.452 -26.406  1.00  0.00     0.238 C 
HETATM   16  C16 UNL     1       0.256 -30.722 -27.420  1.00  0.00     0.135 C 
HETATM   17  N2  UNL     1       0.748 -30.516 -28.729  1.00  0.00    -0.376 N 
ENDROOT
BRANCH   6  18
HETATM   18  C7  UNL     1      -0.752 -34.086 -27.318  1.00  0.00     0.200 C 
BRANCH  18  19
HETATM   19  O1  UNL     1      -0.145 -34.906 -26.328  1.00  0.00    -0.399 OA
ATOM     20  H1  UNL     1       0.472 -35.465 -26.785  1.00  0.00     0.209 HD
ENDBRANCH  18  19
ENDBRANCH   6  18
BRANCH  17  21
HETATM   21  C17 UNL     1       1.535 -29.396 -29.014  1.00  0.00     0.070 C 
BRANCH  21  22
HETATM   22  C18 UNL     1       1.431 -28.171 -28.151  1.00  0.00     0.129 C 
HETATM   23 BR1  UNL     1       3.189 -27.301 -28.029  1.00  0.00    -0.091 Br
ENDBRANCH  21  22
ENDBRANCH  17  21
BRANCH  11  24
HETATM   24  O2  UNL     1       1.783 -31.470 -24.105  1.00  0.00    -0.387 OA
ATOM     25  H2  UNL     1       2.013 -32.319 -24.466  1.00  0.00     0.210 HD
ENDBRANCH  11  24
BRANCH  14  26
HETATM   26  O4  UNL     1       2.368 -33.484 -26.468  1.00  0.00    -0.390 OA
ATOM     27  H4  UNL     1       3.218 -33.755 -26.793  1.00  0.00     0.210 HD
ENDBRANCH  14  26
BRANCH  13  28
HETATM   28  O3  UNL     1       4.502 -31.251 -27.126  1.00  0.00    -0.393 OA
ATOM     29  H3  UNL     1       4.961 -32.040 -27.392  1.00  0.00     0.210 HD
ENDBRANCH  13  28
TORSDOF 7
ENDMDL
MODEL 2
REMARK VINA RESULT: -6.138375893      2.058      4.043
REMARK  7 active torsions:
REMARK  status: ('A' for Active; 'I' for Inactive)
REMARK    1  A    between atoms: C6_6  and  C7_7 
REMARK    2  A    between atoms: C7_7  and  O1_8 
REMARK    3  A    between atoms: C11_14  and  O2_15 
REMARK    4  A    between atoms: C13_18  and  O3_19 
REMARK    5  A    between atoms: C14_21  and  O4_22 
REMARK    6  A    between atoms: N2_26  and  C17_27 
REMARK    7  A    between atoms: C17_27  and  C18_28 
ROOT
HETATM    1  C1  UNL     1       2.140 -27.716 -26.903  1.00  0.00     0.038 C 
HETATM    2  C2  UNL     1       1.277 -28.686 -27.615  1.00  0.00     0.025 C 
HETATM    3  C3  UNL     1       0.254 -27.911 -28.457  1.00  0.00     0.038 C 
HETATM    4  C4  UNL     1       2.099 -29.440 -28.665  1.00  0.00     0.039 C 
HETATM    5  C5  UNL     1       1.118 -30.471 -29.058  1.00  0.00     0.049 C 
HETATM    6  C6  UNL     1       1.719 -31.760 -29.515  1.00  0.00     0.254 C 
HETATM    7  N1  UNL     1       0.937 -32.723 -28.830  1.00  0.00     0.113 N 
HETATM    8  C8  UNL     1      -0.095 -33.219 -29.689  1.00  0.00     0.274 C 
HETATM    9  C9  UNL     1      -1.487 -32.769 -29.454  1.00  0.00     0.033 C 
HETATM   10  C10 UNL     1      -1.916 -32.698 -28.004  1.00  0.00     0.042 C 
HETATM   11  C11 UNL     1      -0.705 -33.055 -27.218  1.00  0.00     0.101 C 
HETATM   12  C12 UNL     1      -0.869 -33.116 -25.746  1.00  0.00     0.075 C 
HETATM   13  C13 UNL     1       0.565 -33.220 -25.319  1.00  0.00     0.152 C 
HETATM   14  C14 UNL     1       1.390 -32.519 -26.394  1.00  0.00     0.191 C 
HETATM   15  C15 UNL     1       0.512 -32.198 -27.548  1.00  0.00     0.238 C 
HETATM   16  C16 UNL     1       0.267 -30.776 -27.814  1.00  0.00     0.135 C 
HETATM   17  N2  UNL     1       0.685 -29.765 -26.918  1.00  0.00    -0.376 N 
ENDROOT
BRANCH   6  18
HETATM   18  C7  UNL     1       3.187 -31.834 -29.456  1.00  0.00     0.200 C 
BRANCH  18  19
HETATM   19  O1  UNL     1       3.513 -33.208 -29.294  1.00  0.00    -0.399 OA
ATOM     20  H1  UNL     1       3.071 -33.673 -29.995  1.00  0.00     0.209 HD
ENDBRANCH  18  19
ENDBRANCH   6  18
BRANCH  17  21
HETATM   21  C17 UNL     1      -0.154 -29.362 -25.874  1.00  0.00     0.070 C 
BRANCH  21  22
HETATM   22  C18 UNL     1       0.374 -29.318 -24.468  1.00  0.00     0.129 C 
HETATM   23 BR1  UNL     1      -0.424 -27.796 -23.514  1.00  0.00    -0.091 Br
ENDBRANCH  21  22
ENDBRANCH  17  21
BRANCH  11  24
HETATM   24  O2  UNL     1      -0.451 -34.421 -27.543  1.00  0.00    -0.387 OA
ATOM     25  H2  UNL     1      -1.207 -34.692 -28.052  1.00  0.00     0.210 HD
ENDBRANCH  11  24
BRANCH  14  26
HETATM   26  O4  UNL     1       2.425 -33.434 -26.685  1.00  0.00    -0.390 OA
ATOM     27  H4  UNL     1       2.762 -33.681 -25.832  1.00  0.00     0.210 HD
ENDBRANCH  14  26
BRANCH  13  28
HETATM   28  O3  UNL     1       0.818 -32.760 -24.052  1.00  0.00    -0.393 OA
ATOM     29  H3  UNL     1       0.458 -31.901 -23.864  1.00  0.00     0.210 HD
ENDBRANCH  13  28
TORSDOF 7
ENDMDL
MODEL 3
REMARK VINA RESULT: -6.065156537      1.425      1.704
REMARK  7 active torsions:
REMARK  status: ('A' for Active; 'I' for Inactive)
REMARK    1  A    between atoms: C6_6  and  C7_7 
REMARK    2  A    between atoms: C7_7  and  O1_8 
REMARK    3  A    between atoms: C11_14  and  O2_15 
REMARK    4  A    between atoms: C13_18  and  O3_19 
REMARK    5  A    between atoms: C14_21  and  O4_22 
REMARK    6  A    between atoms: N2_26  and  C17_27 
REMARK    7  A    between atoms: C17_27  and  C18_28 
ROOT
HETATM    1  C1  UNL     1      -1.035 -31.735 -30.844  1.00  0.00     0.038 C 
HETATM    2  C2  UNL     1      -0.720 -31.096 -29.546  1.00  0.00     0.025 C 
HETATM    3  C3  UNL     1      -1.527 -29.796 -29.427  1.00  0.00     0.038 C 
HETATM    4  C4  UNL     1      -1.264 -31.955 -28.399  1.00  0.00     0.039 C 
HETATM    5  C5  UNL     1      -0.644 -31.263 -27.252  1.00  0.00     0.049 C 
HETATM    6  C6  UNL     1      -0.360 -32.140 -26.076  1.00  0.00     0.254 C 
HETATM    7  N1  UNL     1       0.957 -31.758 -25.720  1.00  0.00     0.113 N 
HETATM    8  C8  UNL     1       0.921 -30.806 -24.651  1.00  0.00     0.274 C 
HETATM    9  C9  UNL     1       1.212 -29.386 -24.959  1.00  0.00     0.033 C 
HETATM   10  C10 UNL     1       2.358 -29.146 -25.917  1.00  0.00     0.042 C 
HETATM   11  C11 UNL     1       2.814 -30.499 -26.332  1.00  0.00     0.101 C 
HETATM   12  C12 UNL     1       3.983 -30.552 -27.242  1.00  0.00     0.075 C 
HETATM   13  C13 UNL     1       3.956 -31.999 -27.633  1.00  0.00     0.152 C 
HETATM   14  C14 UNL     1       2.500 -32.446 -27.544  1.00  0.00     0.191 C 
HETATM   15  C15 UNL     1       1.701 -31.371 -26.902  1.00  0.00     0.238 C 
HETATM   16  C16 UNL     1       0.701 -30.702 -27.742  1.00  0.00     0.135 C 
HETATM   17  N2  UNL     1       0.623 -30.929 -29.136  1.00  0.00    -0.376 N 
ENDROOT
BRANCH   6  18
HETATM   18  C7  UNL     1      -0.687 -33.564 -26.249  1.00  0.00     0.200 C 
BRANCH  18  19
HETATM   19  O1  UNL     1       0.185 -34.283 -25.387  1.00  0.00    -0.399 OA
ATOM     20  H1  UNL     1       1.013 -33.818 -25.396  1.00  0.00     0.209 HD
ENDBRANCH  18  19
ENDBRANCH   6  18
BRANCH  17  21
HETATM   21  C17 UNL     1       1.383 -30.153 -30.016  1.00  0.00     0.070 C 
BRANCH  21  22
HETATM   22  C18 UNL     1       2.379 -30.817 -30.925  1.00  0.00     0.129 C 
HETATM   23 BR1  UNL     1       3.894 -29.604 -31.237  1.00  0.00    -0.091 Br
ENDBRANCH  21  22
ENDBRANCH  17  21
BRANCH  11  24
HETATM   24  O2  UNL     1       3.340 -31.085 -25.141  1.00  0.00    -0.387 OA
ATOM     25  H2  UNL     1       3.382 -30.369 -24.519  1.00  0.00     0.210 HD
ENDBRANCH  11  24
BRANCH  14  26
HETATM   26  O4  UNL     1       2.553 -33.650 -26.809  1.00  0.00    -0.390 OA
ATOM     27  H4  UNL     1       3.395 -33.615 -26.370  1.00  0.00     0.210 HD
ENDBRANCH  14  26
BRANCH  13  28
HETATM   28  O3  UNL     1       4.536 -32.274 -28.845  1.00  0.00    -0.393 OA
ATOM     29  H3  UNL     1       5.482 -32.358 -28.821  1.00  0.00     0.210 HD
ENDBRANCH  13  28
TORSDOF 7
ENDMDL
MODEL 4
REMARK VINA RESULT: -5.963382008      1.990      2.561
REMARK  7 active torsions:
REMARK  status: ('A' for Active; 'I' for Inactive)
REMARK    1  A    between atoms: C6_6  and  C7_7 
REMARK    2  A    between atoms: C7_7  and  O1_8 
REMARK    3  A    between atoms: C11_14  and  O2_15 
REMARK    4  A    between atoms: C13_18  and  O3_19 
REMARK    5  A    between atoms: C14_21  and  O4_22 
REMARK    6  A    between atoms: N2_26  and  C17_27 
REMARK    7  A    between atoms: C17_27  and  C18_28 
ROOT
HETATM    1  C1  UNL     1       0.175 -28.229 -30.342  1.00  0.00     0.038 C 
HETATM    2  C2  UNL     1       0.380 -29.007 -29.099  1.00  0.00     0.025 C 
HETATM    3  C3  UNL     1      -0.094 -28.164 -27.906  1.00  0.00     0.038 C 
HETATM    4  C4  UNL     1      -0.566 -30.211 -29.077  1.00  0.00     0.039 C 
HETATM    5  C5  UNL     1      -0.029 -30.931 -27.906  1.00  0.00     0.049 C 
HETATM    6  C6  UNL     1      -0.198 -32.415 -27.956  1.00  0.00     0.254 C 
HETATM    7  N1  UNL     1       1.079 -32.883 -27.557  1.00  0.00     0.113 N 
HETATM    8  C8  UNL     1       1.070 -33.206 -26.163  1.00  0.00     0.274 C 
HETATM    9  C9  UNL     1       1.751 -32.288 -25.220  1.00  0.00     0.033 C 
HETATM   10  C10 UNL     1       3.084 -31.742 -25.686  1.00  0.00     0.042 C 
HETATM   11  C11 UNL     1       3.268 -32.275 -27.061  1.00  0.00     0.101 C 
HETATM   12  C12 UNL     1       4.542 -31.931 -27.737  1.00  0.00     0.075 C 
HETATM   13  C13 UNL     1       4.239 -32.389 -29.133  1.00  0.00     0.152 C 
HETATM   14  C14 UNL     1       2.729 -32.267 -29.312  1.00  0.00     0.191 C 
HETATM   15  C15 UNL     1       2.107 -31.962 -27.999  1.00  0.00     0.238 C 
HETATM   16  C16 UNL     1       1.480 -30.642 -27.857  1.00  0.00     0.135 C 
HETATM   17  N2  UNL     1       1.619 -29.639 -28.845  1.00  0.00    -0.376 N 
ENDROOT
BRANCH   6  18
HETATM   18  C7  UNL     1      -0.821 -32.944 -29.179  1.00  0.00     0.200 C 
BRANCH  18  19
HETATM   19  O1  UNL     1      -0.319 -34.264 -29.346  1.00  0.00    -0.399 OA
ATOM     20  H1  UNL     1      -1.031 -34.777 -29.709  1.00  0.00     0.209 HD
ENDBRANCH  18  19
ENDBRANCH   6  18
BRANCH  17  21
HETATM   21  C17 UNL     1       2.699 -28.753 -28.798  1.00  0.00     0.070 C 
BRANCH  21  22
HETATM   22  C18 UNL     1       3.376 -28.472 -27.486  1.00  0.00     0.129 C 
HETATM   23 BR1  UNL     1       5.307 -28.245 -27.779  1.00  0.00    -0.091 Br
ENDBRANCH  21  22
ENDBRANCH  17  21
BRANCH  11  24
HETATM   24  O2  UNL     1       3.397 -33.686 -26.889  1.00  0.00    -0.387 OA
ATOM     25  H2  UNL     1       3.892 -33.977 -27.647  1.00  0.00     0.210 HD
ENDBRANCH  11  24
BRANCH  14  26
HETATM   26  O4  UNL     1       2.346 -33.510 -29.863  1.00  0.00    -0.390 OA
ATOM     27  H4  UNL     1       1.603 -33.298 -30.415  1.00  0.00     0.210 HD
ENDBRANCH  14  26
BRANCH  13  28
HETATM   28  O3  UNL     1       4.957 -31.751 -30.112  1.00  0.00    -0.393 OA
ATOM     29  H3  UNL     1       4.475 -31.078 -30.580  1.00  0.00     0.210 HD
ENDBRANCH  13  28
TORSDOF 7
ENDMDL
MODEL 5
REMARK VINA RESULT: -5.954800139      2.537      4.491
REMARK  7 active torsions:
REMARK  status: ('A' for Active; 'I' for Inactive)
REMARK    1  A    between atoms: C6_6  and  C7_7 
REMARK    2  A    between atoms: C7_7  and  O1_8 
REMARK    3  A    between atoms: C11_14  and  O2_15 
REMARK    4  A    between atoms: C13_18  and  O3_19 
REMARK    5  A    between atoms: C14_21  and  O4_22 
REMARK    6  A    between atoms: N2_26  and  C17_27 
REMARK    7  A    between atoms: C17_27  and  C18_28 
ROOT
HETATM    1  C1  UNL     1      -2.561 -31.626 -28.863  1.00  0.00     0.038 C 
HETATM    2  C2  UNL     1      -1.129 -32.005 -28.884  1.00  0.00     0.025 C 
HETATM    3  C3  UNL     1      -0.991 -33.375 -29.561  1.00  0.00     0.038 C 
HETATM    4  C4  UNL     1      -0.358 -31.070 -29.821  1.00  0.00     0.039 C 
HETATM    5  C5  UNL     1       1.024 -31.478 -29.502  1.00  0.00     0.049 C 
HETATM    6  C6  UNL     1       2.045 -30.399 -29.663  1.00  0.00     0.254 C 
HETATM    7  N1  UNL     1       2.812 -30.525 -28.478  1.00  0.00     0.113 N 
HETATM    8  C8  UNL     1       3.991 -31.297 -28.735  1.00  0.00     0.274 C 
HETATM    9  C9  UNL     1       4.048 -32.689 -28.230  1.00  0.00     0.033 C 
HETATM   10  C10 UNL     1       3.502 -32.902 -26.835  1.00  0.00     0.042 C 
HETATM   11  C11 UNL     1       2.979 -31.577 -26.410  1.00  0.00     0.101 C 
HETATM   12  C12 UNL     1       2.429 -31.494 -25.037  1.00  0.00     0.075 C 
HETATM   13  C13 UNL     1       1.779 -30.143 -25.087  1.00  0.00     0.152 C 
HETATM   14  C14 UNL     1       1.382 -29.907 -26.541  1.00  0.00     0.191 C 
HETATM   15  C15 UNL     1       1.973 -30.975 -27.386  1.00  0.00     0.238 C 
HETATM   16  C16 UNL     1       1.034 -31.905 -28.025  1.00  0.00     0.135 C 
HETATM   17  N2  UNL     1      -0.345 -31.908 -27.711  1.00  0.00    -0.376 N 
ENDROOT
BRANCH   6  18
HETATM   18  C7  UNL     1       1.523 -29.082 -30.059  1.00  0.00     0.200 C 
BRANCH  18  19
HETATM   19  O1  UNL     1       2.473 -28.124 -29.612  1.00  0.00    -0.399 OA
ATOM     20  H1  UNL     1       2.752 -27.644 -30.383  1.00  0.00     0.209 HD
ENDBRANCH  18  19
ENDBRANCH   6  18
BRANCH  17  21
HETATM   21  C17 UNL     1      -0.822 -32.690 -26.655  1.00  0.00     0.070 C 
BRANCH  21  22
HETATM   22  C18 UNL     1      -0.027 -33.876 -26.186  1.00  0.00     0.129 C 
HETATM   23 BR1  UNL     1      -0.305 -34.133 -24.258  1.00  0.00    -0.091 Br
ENDBRANCH  21  22
ENDBRANCH  17  21
BRANCH  11  24
HETATM   24  O2  UNL     1       4.134 -30.745 -26.317  1.00  0.00    -0.387 OA
ATOM     25  H2  UNL     1       4.807 -31.212 -26.798  1.00  0.00     0.210 HD
ENDBRANCH  11  24
BRANCH  14  26
HETATM   26  O4  UNL     1       1.862 -28.609 -26.822  1.00  0.00    -0.390 OA
ATOM     27  H4  UNL     1       1.754 -28.521 -27.762  1.00  0.00     0.210 HD
ENDBRANCH  14  26
BRANCH  13  28
HETATM   28  O3  UNL     1       0.741 -29.976 -24.206  1.00  0.00    -0.393 OA
ATOM     29  H3  UNL     1       0.850 -29.252 -23.599  1.00  0.00     0.210 HD
ENDBRANCH  13  28
TORSDOF 7
ENDMDL
