MODEL 1
REMARK VINA RESULT: -7.455512028      0.000      0.000
REMARK  7 active torsions:
REMARK  status: ('A' for Active; 'I' for Inactive)
REMARK    1  A    between atoms: C4_4  and  C5_5 
REMARK    2  A    between atoms: C5_5  and  C6_6 
REMARK    3  A    between atoms: C6_6  and  C7_7 
REMARK    4  A    between atoms: C7_7  and  N1_8 
REMARK    5  A    between atoms: C11_16  and  O2_17 
REMARK    6  A    between atoms: C20_29  and  O4_30 
REMARK    7  A    between atoms: C21_32  and  O5_33 
ROOT
HETATM    1  C1  UNL     1       3.532 -32.819 -27.637  1.00  0.00     0.017 C 
HETATM    2  C2  UNL     1       2.661 -31.852 -27.846  1.00  0.00    -0.054 C 
HETATM    3  C3  UNL     1       2.839 -30.479 -27.444  1.00  0.00     0.033 C 
HETATM    4  C4  UNL     1       4.033 -29.675 -27.746  1.00  0.00     0.032 C 
HETATM    5  C8  UNL     1       3.882 -29.127 -26.353  1.00  0.00     0.093 A 
HETATM    6  C9  UNL     1       4.450 -28.154 -25.642  1.00  0.00     0.207 A 
HETATM    7  O1  UNL     1       3.132 -27.957 -26.285  1.00  0.00    -0.374 OA
HETATM    8  C10 UNL     1       3.252 -30.434 -25.987  1.00  0.00     0.060 C 
HETATM    9  C11 UNL     1       2.015 -30.321 -25.088  1.00  0.00     0.127 C 
HETATM   10  C12 UNL     1       1.378 -31.605 -24.777  1.00  0.00     0.052 C 
HETATM   11  C13 UNL     1       0.056 -31.955 -25.300  1.00  0.00     0.057 C 
HETATM   12  C14 UNL     1      -0.925 -30.838 -24.868  1.00  0.00     0.027 C 
HETATM   13  C15 UNL     1      -0.440 -33.094 -24.403  1.00  0.00     0.160 C 
HETATM   14  O3  UNL     1      -0.420 -32.911 -23.155  1.00  0.00    -0.292 OA
HETATM   15  C16 UNL     1      -0.924 -34.359 -24.929  1.00  0.00     0.047 C 
HETATM   16  C17 UNL     1      -0.436 -34.722 -26.121  1.00  0.00    -0.013 C 
HETATM   17  C18 UNL     1       0.505 -33.772 -26.685  1.00  0.00     0.075 A 
HETATM   18  C19 UNL     1       0.336 -32.843 -27.770  1.00  0.00     0.109 A 
HETATM   19 CL1  UNL     1      -0.743 -33.649 -29.019  1.00  0.00    -0.112 Cl
HETATM   20  C20 UNL     1       1.412 -32.228 -28.547  1.00  0.00     0.174 C 
HETATM   21  C21 UNL     1      -0.262 -32.389 -26.618  1.00  0.00     0.106 A 
ENDROOT
BRANCH   4  22
HETATM   22  C5  UNL     1       5.358 -30.293 -27.973  1.00  0.00     0.010 C 
BRANCH  22  23
HETATM   23  C6  UNL     1       6.242 -29.273 -28.716  1.00  0.00     0.028 C 
BRANCH  23  24
HETATM   24  C7  UNL     1       7.583 -29.291 -27.959  1.00  0.00     0.229 C 
BRANCH  24  25
HETATM   25  N1  UNL     1       7.989 -30.644 -27.642  1.00  0.00    -0.079 N 
ATOM     26  H13 UNL     1       8.709 -30.660 -26.920  1.00  0.00     0.274 HD
ATOM     27  H12 UNL     1       7.256 -31.148 -27.143  1.00  0.00     0.274 HD
ATOM     28  H11 UNL     1       8.286 -31.147 -28.479  1.00  0.00     0.274 HD
ENDBRANCH  24  25
ENDBRANCH  23  24
ENDBRANCH  22  23
ENDBRANCH   4  22
BRANCH  20  29
HETATM   29  O4  UNL     1       1.776 -33.096 -29.614  1.00  0.00    -0.389 OA
ATOM     30  H4  UNL     1       2.098 -33.900 -29.223  1.00  0.00     0.210 HD
ENDBRANCH  20  29
BRANCH   9  31
HETATM   31  O2  UNL     1       1.237 -29.342 -25.664  1.00  0.00    -0.395 OA
ATOM     32  H2  UNL     1       0.513 -29.214 -25.064  1.00  0.00     0.210 HD
ENDBRANCH   9  31
BRANCH  21  33
HETATM   33  O5  UNL     1      -1.703 -32.535 -26.652  1.00  0.00    -0.386 OA
ATOM     34  H5  UNL     1      -2.006 -31.966 -27.350  1.00  0.00     0.210 HD
ENDBRANCH  21  33
TORSDOF 7
ENDMDL
MODEL 2
REMARK VINA RESULT: -7.423424251      3.363      6.163
REMARK  7 active torsions:
REMARK  status: ('A' for Active; 'I' for Inactive)
REMARK    1  A    between atoms: C4_4  and  C5_5 
REMARK    2  A    between atoms: C5_5  and  C6_6 
REMARK    3  A    between atoms: C6_6  and  C7_7 
REMARK    4  A    between atoms: C7_7  and  N1_8 
REMARK    5  A    between atoms: C11_16  and  O2_17 
REMARK    6  A    between atoms: C20_29  and  O4_30 
REMARK    7  A    between atoms: C21_32  and  O5_33 
ROOT
HETATM    1  C1  UNL     1      -0.557 -32.970 -28.103  1.00  0.00     0.017 C 
HETATM    2  C2  UNL     1       0.503 -32.778 -27.342  1.00  0.00    -0.054 C 
HETATM    3  C3  UNL     1       0.539 -32.968 -25.913  1.00  0.00     0.033 C 
HETATM    4  C4  UNL     1       0.076 -34.183 -25.226  1.00  0.00     0.032 C 
HETATM    5  C8  UNL     1      -0.487 -33.251 -24.189  1.00  0.00     0.093 A 
HETATM    6  C9  UNL     1      -1.044 -33.384 -22.987  1.00  0.00     0.207 A 
HETATM    7  O1  UNL     1       0.377 -33.000 -23.127  1.00  0.00    -0.374 OA
HETATM    8  C10 UNL     1      -0.631 -32.240 -25.284  1.00  0.00     0.060 C 
HETATM    9  C11 UNL     1      -0.222 -30.814 -24.897  1.00  0.00     0.127 C 
HETATM   10  C12 UNL     1      -0.321 -29.842 -25.991  1.00  0.00     0.052 C 
HETATM   11  C13 UNL     1       0.869 -29.232 -26.589  1.00  0.00     0.057 C 
HETATM   12  C14 UNL     1       1.668 -28.559 -25.446  1.00  0.00     0.027 C 
HETATM   13  C15 UNL     1       0.355 -27.984 -27.314  1.00  0.00     0.160 C 
HETATM   14  O3  UNL     1      -0.356 -27.174 -26.660  1.00  0.00    -0.292 OA
HETATM   15  C16 UNL     1       0.653 -27.704 -28.708  1.00  0.00     0.047 C 
HETATM   16  C17 UNL     1       0.901 -28.769 -29.480  1.00  0.00    -0.013 C 
HETATM   17  C18 UNL     1       0.827 -30.035 -28.774  1.00  0.00     0.075 A 
HETATM   18  C19 UNL     1       1.883 -30.915 -28.351  1.00  0.00     0.109 A 
HETATM   19 CL1  UNL     1       3.194 -30.858 -29.637  1.00  0.00    -0.112 Cl
HETATM   20  C20 UNL     1       1.738 -32.335 -28.029  1.00  0.00     0.174 C 
HETATM   21  C21 UNL     1       1.768 -29.828 -27.518  1.00  0.00     0.106 A 
ENDROOT
BRANCH   4  22
HETATM   22  C5  UNL     1      -0.952 -35.072 -25.811  1.00  0.00     0.010 C 
BRANCH  22  23
HETATM   23  C6  UNL     1      -1.310 -36.145 -24.766  1.00  0.00     0.028 C 
BRANCH  23  24
HETATM   24  C7  UNL     1      -1.018 -37.486 -25.462  1.00  0.00     0.229 C 
BRANCH  24  25
HETATM   25  N1  UNL     1      -2.149 -37.925 -26.253  1.00  0.00    -0.079 N 
ATOM     26  H13 UNL     1      -2.129 -38.933 -26.408  1.00  0.00     0.274 HD
ATOM     27  H12 UNL     1      -3.020 -37.864 -25.726  1.00  0.00     0.274 HD
ATOM     28  H11 UNL     1      -2.207 -37.412 -27.132  1.00  0.00     0.274 HD
ENDBRANCH  24  25
ENDBRANCH  23  24
ENDBRANCH  22  23
ENDBRANCH   4  22
BRANCH  20  29
HETATM   29  O4  UNL     1       1.851 -33.101 -29.223  1.00  0.00    -0.389 OA
ATOM     30  H4  UNL     1       2.519 -32.688 -29.758  1.00  0.00     0.210 HD
ENDBRANCH  20  29
BRANCH   9  31
HETATM   31  O2  UNL     1       0.993 -30.945 -24.263  1.00  0.00    -0.395 OA
ATOM     32  H2  UNL     1       0.966 -30.327 -23.542  1.00  0.00     0.210 HD
ENDBRANCH   9  31
BRANCH  21  33
HETATM   33  O5  UNL     1       2.812 -28.849 -27.744  1.00  0.00    -0.386 OA
ATOM     34  H5  UNL     1       3.287 -29.146 -28.511  1.00  0.00     0.210 HD
ENDBRANCH  21  33
TORSDOF 7
ENDMDL
MODEL 3
REMARK VINA RESULT: -6.988331615      3.858      6.857
REMARK  7 active torsions:
REMARK  status: ('A' for Active; 'I' for Inactive)
REMARK    1  A    between atoms: C4_4  and  C5_5 
REMARK    2  A    between atoms: C5_5  and  C6_6 
REMARK    3  A    between atoms: C6_6  and  C7_7 
REMARK    4  A    between atoms: C7_7  and  N1_8 
REMARK    5  A    between atoms: C11_16  and  O2_17 
REMARK    6  A    between atoms: C20_29  and  O4_30 
REMARK    7  A    between atoms: C21_32  and  O5_33 
ROOT
HETATM    1  C1  UNL     1       1.653 -30.474 -24.612  1.00  0.00     0.017 C 
HETATM    2  C2  UNL     1       0.409 -30.252 -24.985  1.00  0.00    -0.054 C 
HETATM    3  C3  UNL     1      -0.423 -31.196 -25.690  1.00  0.00     0.033 C 
HETATM    4  C4  UNL     1      -0.636 -32.589 -25.269  1.00  0.00     0.032 C 
HETATM    5  C8  UNL     1      -0.556 -32.928 -26.732  1.00  0.00     0.093 A 
HETATM    6  C9  UNL     1      -0.767 -34.014 -27.475  1.00  0.00     0.207 A 
HETATM    7  O1  UNL     1      -1.790 -32.951 -27.375  1.00  0.00    -0.374 OA
HETATM    8  C10 UNL     1       0.337 -31.736 -26.883  1.00  0.00     0.060 C 
HETATM    9  C11 UNL     1       0.058 -30.878 -28.123  1.00  0.00     0.127 C 
HETATM   10  C12 UNL     1       0.907 -29.687 -28.234  1.00  0.00     0.052 C 
HETATM   11  C13 UNL     1       0.361 -28.337 -28.084  1.00  0.00     0.057 C 
HETATM   12  C14 UNL     1      -0.785 -28.182 -29.113  1.00  0.00     0.027 C 
HETATM   13  C15 UNL     1       1.405 -27.412 -28.720  1.00  0.00     0.160 C 
HETATM   14  O3  UNL     1       1.790 -27.677 -29.892  1.00  0.00    -0.292 OA
HETATM   15  C16 UNL     1       1.960 -26.259 -28.032  1.00  0.00     0.047 C 
HETATM   16  C17 UNL     1       1.972 -26.324 -26.695  1.00  0.00    -0.013 C 
HETATM   17  C18 UNL     1       1.419 -27.555 -26.163  1.00  0.00     0.075 A 
HETATM   18  C19 UNL     1       0.159 -27.791 -25.509  1.00  0.00     0.109 A 
HETATM   19 CL1  UNL     1      -0.219 -26.307 -24.494  1.00  0.00    -0.112 Cl
HETATM   20  C20 UNL     1      -0.157 -28.927 -24.643  1.00  0.00     0.174 C 
HETATM   21  C21 UNL     1       0.009 -27.679 -26.871  1.00  0.00     0.106 A 
ENDROOT
BRANCH   4  22
HETATM   22  C5  UNL     1       0.359 -33.325 -24.459  1.00  0.00     0.010 C 
BRANCH  22  23
HETATM   23  C6  UNL     1      -0.377 -33.987 -23.279  1.00  0.00     0.028 C 
BRANCH  23  24
HETATM   24  C7  UNL     1      -1.158 -35.155 -23.909  1.00  0.00     0.229 C 
BRANCH  24  25
HETATM   25  N1  UNL     1      -0.543 -36.428 -23.594  1.00  0.00    -0.079 N 
ATOM     26  H13 UNL     1       0.284 -36.596 -24.166  1.00  0.00     0.274 HD
ATOM     27  H12 UNL     1      -0.099 -36.412 -22.676  1.00  0.00     0.274 HD
ATOM     28  H11 UNL     1      -1.214 -37.192 -23.671  1.00  0.00     0.274 HD
ENDBRANCH  24  25
ENDBRANCH  23  24
ENDBRANCH  22  23
ENDBRANCH   4  22
BRANCH  20  29
HETATM   29  O4  UNL     1       0.248 -28.629 -23.311  1.00  0.00    -0.389 OA
ATOM     30  H4  UNL     1      -0.264 -29.182 -22.733  1.00  0.00     0.210 HD
ENDBRANCH  20  29
BRANCH   9  31
HETATM   31  O2  UNL     1      -1.307 -30.697 -28.138  1.00  0.00    -0.395 OA
ATOM     32  H2  UNL     1      -1.436 -29.768 -27.990  1.00  0.00     0.210 HD
ENDBRANCH   9  31
BRANCH  21  33
HETATM   33  O5  UNL     1      -0.548 -26.400 -27.260  1.00  0.00    -0.386 OA
ATOM     34  H5  UNL     1      -0.868 -26.513 -28.147  1.00  0.00     0.210 HD
ENDBRANCH  21  33
TORSDOF 7
ENDMDL
MODEL 4
REMARK VINA RESULT: -6.916533843      3.302      5.900
REMARK  7 active torsions:
REMARK  status: ('A' for Active; 'I' for Inactive)
REMARK    1  A    between atoms: C4_4  and  C5_5 
REMARK    2  A    between atoms: C5_5  and  C6_6 
REMARK    3  A    between atoms: C6_6  and  C7_7 
REMARK    4  A    between atoms: C7_7  and  N1_8 
REMARK    5  A    between atoms: C11_16  and  O2_17 
REMARK    6  A    between atoms: C20_29  and  O4_30 
REMARK    7  A    between atoms: C21_32  and  O5_33 
ROOT
HETATM    1  C1  UNL     1       2.828 -29.154 -27.654  1.00  0.00     0.017 C 
HETATM    2  C2  UNL     1       2.887 -29.258 -26.341  1.00  0.00    -0.054 C 
HETATM    3  C3  UNL     1       2.221 -30.272 -25.562  1.00  0.00     0.033 C 
HETATM    4  C4  UNL     1       2.306 -31.715 -25.833  1.00  0.00     0.032 C 
HETATM    5  C8  UNL     1       0.843 -31.756 -25.488  1.00  0.00     0.093 A 
HETATM    6  C9  UNL     1      -0.068 -32.708 -25.295  1.00  0.00     0.207 A 
HETATM    7  O1  UNL     1       0.586 -32.039 -24.150  1.00  0.00    -0.374 OA
HETATM    8  C10 UNL     1       0.765 -30.342 -25.975  1.00  0.00     0.060 C 
HETATM    9  C11 UNL     1      -0.080 -29.408 -25.101  1.00  0.00     0.127 C 
HETATM   10  C12 UNL     1      -0.109 -28.015 -25.562  1.00  0.00     0.052 C 
HETATM   11  C13 UNL     1       0.534 -26.941 -24.802  1.00  0.00     0.057 C 
HETATM   12  C14 UNL     1      -0.059 -26.964 -23.372  1.00  0.00     0.027 C 
HETATM   13  C15 UNL     1      -0.104 -25.648 -25.324  1.00  0.00     0.160 C 
HETATM   14  O3  UNL     1      -1.363 -25.577 -25.338  1.00  0.00    -0.292 OA
HETATM   15  C16 UNL     1       0.678 -24.518 -25.796  1.00  0.00     0.047 C 
HETATM   16  C17 UNL     1       1.894 -24.807 -26.276  1.00  0.00    -0.013 C 
HETATM   17  C18 UNL     1       2.219 -26.221 -26.238  1.00  0.00     0.075 A 
HETATM   18  C19 UNL     1       3.112 -26.936 -25.366  1.00  0.00     0.109 A 
HETATM   19 CL1  UNL     1       4.543 -25.835 -25.022  1.00  0.00    -0.112 Cl
HETATM   20  C20 UNL     1       3.706 -28.246 -25.634  1.00  0.00     0.174 C 
HETATM   21  C21 UNL     1       1.924 -26.641 -24.740  1.00  0.00     0.106 A 
ENDROOT
BRANCH   4  22
HETATM   22  C5  UNL     1       2.586 -32.244 -27.186  1.00  0.00     0.010 C 
BRANCH  22  23
HETATM   23  C6  UNL     1       4.028 -32.786 -27.200  1.00  0.00     0.028 C 
BRANCH  23  24
HETATM   24  C7  UNL     1       4.635 -32.256 -28.512  1.00  0.00     0.229 C 
BRANCH  24  25
HETATM   25  N1  UNL     1       5.793 -31.424 -28.256  1.00  0.00    -0.079 N 
ATOM     26  H13 UNL     1       5.538 -30.571 -27.757  1.00  0.00     0.274 HD
ATOM     27  H12 UNL     1       6.405 -31.840 -27.555  1.00  0.00     0.274 HD
ATOM     28  H11 UNL     1       6.297 -31.217 -29.118  1.00  0.00     0.274 HD
ENDBRANCH  24  25
ENDBRANCH  23  24
ENDBRANCH  22  23
ENDBRANCH   4  22
BRANCH  20  29
HETATM   29  O4  UNL     1       4.902 -28.075 -26.386  1.00  0.00    -0.389 OA
ATOM     30  H4  UNL     1       4.646 -27.941 -27.291  1.00  0.00     0.210 HD
ENDBRANCH  20  29
BRANCH   9  31
HETATM   31  O2  UNL     1       0.333 -29.648 -23.810  1.00  0.00    -0.395 OA
ATOM     32  H2  UNL     1      -0.073 -28.966 -23.287  1.00  0.00     0.210 HD
ENDBRANCH   9  31
BRANCH  21  33
HETATM   33  O5  UNL     1       2.053 -25.543 -23.805  1.00  0.00    -0.386 OA
ATOM     34  H5  UNL     1       2.960 -25.265 -23.852  1.00  0.00     0.210 HD
ENDBRANCH  21  33
TORSDOF 7
ENDMDL
MODEL 5
REMARK VINA RESULT: -6.820224262      5.195      7.969
REMARK  7 active torsions:
REMARK  status: ('A' for Active; 'I' for Inactive)
REMARK    1  A    between atoms: C4_4  and  C5_5 
REMARK    2  A    between atoms: C5_5  and  C6_6 
REMARK    3  A    between atoms: C6_6  and  C7_7 
REMARK    4  A    between atoms: C7_7  and  N1_8 
REMARK    5  A    between atoms: C11_16  and  O2_17 
REMARK    6  A    between atoms: C20_29  and  O4_30 
REMARK    7  A    between atoms: C21_32  and  O5_33 
ROOT
HETATM    1  C1  UNL     1      -0.587 -27.851 -22.780  1.00  0.00     0.017 C 
HETATM    2  C2  UNL     1      -0.750 -27.267 -23.950  1.00  0.00    -0.054 C 
HETATM    3  C3  UNL     1      -0.056 -27.632 -25.160  1.00  0.00     0.033 C 
HETATM    4  C4  UNL     1       0.026 -29.004 -25.686  1.00  0.00     0.032 C 
HETATM    5  C8  UNL     1       1.451 -28.668 -26.034  1.00  0.00     0.093 A 
HETATM    6  C9  UNL     1       2.432 -29.254 -26.718  1.00  0.00     0.207 A 
HETATM    7  O1  UNL     1       1.617 -28.180 -27.326  1.00  0.00    -0.374 OA
HETATM    8  C10 UNL     1       1.429 -27.716 -24.878  1.00  0.00     0.060 C 
HETATM    9  C11 UNL     1       2.097 -26.363 -25.149  1.00  0.00     0.127 C 
HETATM   10  C12 UNL     1       2.027 -25.421 -24.027  1.00  0.00     0.052 C 
HETATM   11  C13 UNL     1       1.217 -24.203 -24.094  1.00  0.00     0.057 C 
HETATM   12  C14 UNL     1       1.682 -23.404 -25.336  1.00  0.00     0.027 C 
HETATM   13  C15 UNL     1       1.765 -23.298 -22.986  1.00  0.00     0.160 C 
HETATM   14  O3  UNL     1       3.008 -23.081 -22.964  1.00  0.00    -0.292 OA
HETATM   15  C16 UNL     1       0.919 -22.690 -21.973  1.00  0.00     0.047 C 
HETATM   16  C17 UNL     1      -0.215 -23.342 -21.690  1.00  0.00    -0.013 C 
HETATM   17  C18 UNL     1      -0.400 -24.559 -22.457  1.00  0.00     0.075 A 
HETATM   18  C19 UNL     1      -1.290 -24.828 -23.555  1.00  0.00     0.109 A 
HETATM   19 CL1  UNL     1      -2.848 -23.907 -23.238  1.00  0.00    -0.112 Cl
HETATM   20  C20 UNL     1      -1.724 -26.152 -24.002  1.00  0.00     0.174 C 
HETATM   21  C21 UNL     1      -0.197 -24.099 -23.959  1.00  0.00     0.106 A 
ENDROOT
BRANCH   4  22
HETATM   22  C5  UNL     1      -0.080 -30.188 -24.807  1.00  0.00     0.010 C 
BRANCH  22  23
HETATM   23  C6  UNL     1      -0.328 -31.424 -25.694  1.00  0.00     0.028 C 
BRANCH  23  24
HETATM   24  C7  UNL     1       0.670 -32.479 -25.187  1.00  0.00     0.229 C 
BRANCH  24  25
HETATM   25  N1  UNL     1       1.399 -32.000 -24.030  1.00  0.00    -0.079 N 
ATOM     26  H13 UNL     1       1.243 -31.004 -23.876  1.00  0.00     0.274 HD
ATOM     27  H12 UNL     1       0.999 -32.357 -23.162  1.00  0.00     0.274 HD
ATOM     28  H11 UNL     1       2.392 -32.218 -24.102  1.00  0.00     0.274 HD
ENDBRANCH  24  25
ENDBRANCH  23  24
ENDBRANCH  22  23
ENDBRANCH   4  22
BRANCH  20  29
HETATM   29  O4  UNL     1      -2.861 -26.554 -23.246  1.00  0.00    -0.389 OA
ATOM     30  H4  UNL     1      -3.488 -25.841 -23.284  1.00  0.00     0.210 HD
ENDBRANCH  20  29
BRANCH   9  31
HETATM   31  O2  UNL     1       1.599 -25.950 -26.365  1.00  0.00    -0.395 OA
ATOM     32  H2  UNL     1       1.028 -25.218 -26.165  1.00  0.00     0.210 HD
ENDBRANCH   9  31
BRANCH  21  33
HETATM   33  O5  UNL     1      -0.515 -22.703 -24.175  1.00  0.00    -0.386 OA
ATOM     34  H5  UNL     1      -1.248 -22.511 -23.601  1.00  0.00     0.210 HD
ENDBRANCH  21  33
TORSDOF 7
ENDMDL
