MODEL 1
REMARK VINA RESULT: -7.708158018      0.000      0.000
REMARK  6 active torsions:
REMARK  status: ('A' for Active; 'I' for Inactive)
REMARK    1  A    between atoms: C3_3  and  O1_4 
REMARK    2  A    between atoms: C6_8  and  C7_9 
REMARK    3  A    between atoms: C7_9  and  O2_10 
REMARK    4  A    between atoms: C13_18  and  O3_19 
REMARK    5  A    between atoms: C15_23  and  C16_24 
REMARK    6  A    between atoms: C16_24  and  C17_25 
ROOT
HETATM    1  C1  UNL     1      -0.126 -27.784 -26.333  1.00  0.00     0.018 C 
HETATM    2  C2  UNL     1       0.252 -29.035 -26.188  1.00  0.00    -0.042 C 
HETATM    3  C3  UNL     1       1.463 -29.364 -25.421  1.00  0.00     0.155 C 
HETATM    4  C4  UNL     1       2.217 -30.430 -26.092  1.00  0.00     0.064 C 
HETATM    5  C5  UNL     1       2.930 -30.105 -27.353  1.00  0.00     0.035 C 
HETATM    6  C6  UNL     1       4.084 -29.172 -27.274  1.00  0.00     0.112 C 
HETATM    7  N1  UNL     1       5.194 -29.583 -28.152  1.00  0.00    -0.387 N 
HETATM    8  C8  UNL     1       6.488 -28.973 -27.934  1.00  0.00     0.149 C 
HETATM    9  C9  UNL     1       5.016 -30.542 -29.187  1.00  0.00     0.082 C 
HETATM   10  C10 UNL     1       4.160 -31.527 -28.948  1.00  0.00     0.002 C 
HETATM   11  C11 UNL     1       3.507 -31.502 -27.649  1.00  0.00     0.010 C 
HETATM   12  C12 UNL     1       4.435 -31.942 -26.535  1.00  0.00     0.023 C 
HETATM   13  C13 UNL     1       2.256 -32.320 -27.535  1.00  0.00     0.166 C 
HETATM   14  C14 UNL     1       1.440 -31.672 -26.427  1.00  0.00     0.100 C 
HETATM   15  O4  UNL     1       1.430 -32.568 -25.357  1.00  0.00    -0.371 OA
HETATM   16  C15 UNL     1       0.287 -33.333 -25.425  1.00  0.00     0.133 C 
HETATM   17  C18 UNL     1      -0.766 -32.314 -25.801  1.00  0.00     0.042 C 
HETATM   18  C19 UNL     1       0.026 -31.466 -26.785  1.00  0.00     0.048 C 
HETATM   19  C20 UNL     1      -0.527 -30.112 -26.776  1.00  0.00     0.120 C 
HETATM   20 CL1  UNL     1      -0.910 -29.630 -28.473  1.00  0.00    -0.120 Cl
ENDROOT
BRANCH  16  21
HETATM   21  C16 UNL     1       0.040 -33.940 -24.069  1.00  0.00     0.145 C 
BRANCH  21  22
HETATM   22  C17 UNL     1      -0.847 -35.119 -24.229  1.00  0.00     0.175 C 
HETATM   23  O5  UNL     1      -1.754 -35.293 -23.377  1.00  0.00    -0.648 OA
HETATM   24  O6  UNL     1      -0.737 -36.036 -25.256  1.00  0.00    -0.648 OA
ENDBRANCH  21  22
ENDBRANCH  16  21
BRANCH  13  25
HETATM   25  O3  UNL     1       2.675 -33.611 -27.180  1.00  0.00    -0.391 OA
ATOM     26  H3  UNL     1       1.947 -34.185 -27.388  1.00  0.00     0.210 HD
ENDBRANCH  13  25
BRANCH   3  27
HETATM   27  O1  UNL     1       1.136 -29.798 -24.128  1.00  0.00    -0.391 OA
ATOM     28  H1  UNL     1       0.345 -30.323 -24.135  1.00  0.00     0.210 HD
ENDBRANCH   3  27
BRANCH   6  29
HETATM   29  C7  UNL     1       3.703 -27.776 -27.790  1.00  0.00     0.189 C 
BRANCH  29  30
HETATM   30  O2  UNL     1       2.597 -27.886 -28.646  1.00  0.00    -0.399 OA
ATOM     31  H2  UNL     1       2.375 -27.026 -28.982  1.00  0.00     0.209 HD
ENDBRANCH  29  30
ENDBRANCH   6  29
TORSDOF 6
ENDMDL
MODEL 2
REMARK VINA RESULT: -7.381935765      2.617      4.131
REMARK  6 active torsions:
REMARK  status: ('A' for Active; 'I' for Inactive)
REMARK    1  A    between atoms: C3_3  and  O1_4 
REMARK    2  A    between atoms: C6_8  and  C7_9 
REMARK    3  A    between atoms: C7_9  and  O2_10 
REMARK    4  A    between atoms: C13_18  and  O3_19 
REMARK    5  A    between atoms: C15_23  and  C16_24 
REMARK    6  A    between atoms: C16_24  and  C17_25 
ROOT
HETATM    1  C1  UNL     1       4.261 -30.590 -27.497  1.00  0.00     0.018 C 
HETATM    2  C2  UNL     1       3.159 -31.214 -27.145  1.00  0.00    -0.042 C 
HETATM    3  C3  UNL     1       2.762 -32.463 -27.813  1.00  0.00     0.155 C 
HETATM    4  C4  UNL     1       1.314 -32.476 -28.051  1.00  0.00     0.064 C 
HETATM    5  C5  UNL     1       0.760 -31.575 -29.092  1.00  0.00     0.035 C 
HETATM    6  C6  UNL     1       1.118 -31.852 -30.508  1.00  0.00     0.112 C 
HETATM    7  N1  UNL     1      -0.022 -31.648 -31.420  1.00  0.00    -0.387 N 
HETATM    8  C8  UNL     1       0.079 -32.193 -32.757  1.00  0.00     0.149 C 
HETATM    9  C9  UNL     1      -1.187 -30.938 -31.018  1.00  0.00     0.082 C 
HETATM   10  C10 UNL     1      -1.562 -31.073 -29.752  1.00  0.00     0.002 C 
HETATM   11  C11 UNL     1      -0.728 -31.935 -28.930  1.00  0.00     0.010 C 
HETATM   12  C12 UNL     1      -0.957 -33.403 -29.228  1.00  0.00     0.023 C 
HETATM   13  C13 UNL     1      -0.871 -31.754 -27.449  1.00  0.00     0.166 C 
HETATM   14  C14 UNL     1       0.449 -32.212 -26.849  1.00  0.00     0.100 C 
HETATM   15  O4  UNL     1       0.187 -33.389 -26.146  1.00  0.00    -0.371 OA
HETATM   16  C15 UNL     1      -0.033 -33.079 -24.822  1.00  0.00     0.133 C 
HETATM   17  C18 UNL     1       1.037 -32.045 -24.548  1.00  0.00     0.042 C 
HETATM   18  C19 UNL     1       1.001 -31.273 -25.858  1.00  0.00     0.048 C 
HETATM   19  C20 UNL     1       2.320 -30.684 -26.083  1.00  0.00     0.120 C 
HETATM   20 CL1  UNL     1       2.122 -28.916 -26.390  1.00  0.00    -0.120 Cl
ENDROOT
BRANCH  16  21
HETATM   21  C16 UNL     1       0.155 -34.329 -24.005  1.00  0.00     0.145 C 
BRANCH  21  22
HETATM   22  C17 UNL     1      -1.063 -35.169 -24.131  1.00  0.00     0.175 C 
HETATM   23  O5  UNL     1      -1.916 -35.111 -23.210  1.00  0.00    -0.648 OA
HETATM   24  O6  UNL     1      -1.316 -36.008 -25.198  1.00  0.00    -0.648 OA
ENDBRANCH  21  22
ENDBRANCH  16  21
BRANCH  13  25
HETATM   25  O3  UNL     1      -1.930 -32.590 -27.063  1.00  0.00    -0.391 OA
ATOM     26  H3  UNL     1      -2.090 -32.397 -26.146  1.00  0.00     0.210 HD
ENDBRANCH  13  25
BRANCH   3  27
HETATM   27  O1  UNL     1       3.094 -33.579 -27.031  1.00  0.00    -0.391 OA
ATOM     28  H1  UNL     1       2.314 -34.047 -26.758  1.00  0.00     0.210 HD
ENDBRANCH   3  27
BRANCH   6  29
HETATM   29  C7  UNL     1       2.177 -30.863 -31.015  1.00  0.00     0.189 C 
BRANCH  29  30
HETATM   30  O2  UNL     1       2.133 -29.699 -30.235  1.00  0.00    -0.399 OA
ATOM     31  H2  UNL     1       2.531 -28.983 -30.717  1.00  0.00     0.209 HD
ENDBRANCH  29  30
ENDBRANCH   6  29
TORSDOF 6
ENDMDL
MODEL 3
REMARK VINA RESULT: -7.057587325      1.528      1.897
REMARK  6 active torsions:
REMARK  status: ('A' for Active; 'I' for Inactive)
REMARK    1  A    between atoms: C3_3  and  O1_4 
REMARK    2  A    between atoms: C6_8  and  C7_9 
REMARK    3  A    between atoms: C7_9  and  O2_10 
REMARK    4  A    between atoms: C13_18  and  O3_19 
REMARK    5  A    between atoms: C15_23  and  C16_24 
REMARK    6  A    between atoms: C16_24  and  C17_25 
ROOT
HETATM    1  C1  UNL     1       2.355 -27.744 -25.195  1.00  0.00     0.018 C 
HETATM    2  C2  UNL     1       1.962 -28.981 -25.402  1.00  0.00    -0.042 C 
HETATM    3  C3  UNL     1       2.945 -30.046 -25.652  1.00  0.00     0.155 C 
HETATM    4  C4  UNL     1       2.466 -30.945 -26.708  1.00  0.00     0.064 C 
HETATM    5  C5  UNL     1       2.440 -30.444 -28.105  1.00  0.00     0.035 C 
HETATM    6  C6  UNL     1       3.742 -30.166 -28.764  1.00  0.00     0.112 C 
HETATM    7  N1  UNL     1       3.751 -30.584 -30.178  1.00  0.00    -0.387 N 
HETATM    8  C8  UNL     1       5.032 -30.685 -30.843  1.00  0.00     0.149 C 
HETATM    9  C9  UNL     1       2.550 -30.878 -30.881  1.00  0.00     0.082 C 
HETATM   10  C10 UNL     1       1.574 -31.447 -30.184  1.00  0.00     0.002 C 
HETATM   11  C11 UNL     1       1.858 -31.700 -28.781  1.00  0.00     0.010 C 
HETATM   12  C12 UNL     1       2.781 -32.885 -28.589  1.00  0.00     0.023 C 
HETATM   13  C13 UNL     1       0.660 -31.922 -27.907  1.00  0.00     0.166 C 
HETATM   14  C14 UNL     1       1.092 -31.521 -26.505  1.00  0.00     0.100 C 
HETATM   15  O4  UNL     1       1.140 -32.691 -25.747  1.00  0.00    -0.371 OA
HETATM   16  C15 UNL     1      -0.055 -32.840 -25.078  1.00  0.00     0.133 C 
HETATM   17  C18 UNL     1      -0.341 -31.431 -24.606  1.00  0.00     0.042 C 
HETATM   18  C19 UNL     1       0.125 -30.645 -25.822  1.00  0.00     0.048 C 
HETATM   19  C20 UNL     1       0.547 -29.317 -25.379  1.00  0.00     0.120 C 
HETATM   20 CL1  UNL     1      -0.314 -28.074 -26.364  1.00  0.00    -0.120 Cl
ENDROOT
BRANCH  16  21
HETATM   21  C16 UNL     1       0.157 -33.796 -23.934  1.00  0.00     0.145 C 
BRANCH  21  22
HETATM   22  C17 UNL     1      -0.749 -34.958 -24.110  1.00  0.00     0.175 C 
HETATM   23  O5  UNL     1      -1.718 -35.074 -23.319  1.00  0.00    -0.648 OA
HETATM   24  O6  UNL     1      -0.592 -35.919 -25.090  1.00  0.00    -0.648 OA
ENDBRANCH  21  22
ENDBRANCH  16  21
BRANCH  13  25
HETATM   25  O3  UNL     1       0.380 -33.295 -27.987  1.00  0.00    -0.391 OA
ATOM     26  H3  UNL     1       1.030 -33.658 -28.576  1.00  0.00     0.210 HD
ENDBRANCH  13  25
BRANCH   3  27
HETATM   27  O1  UNL     1       3.172 -30.802 -24.493  1.00  0.00    -0.391 OA
ATOM     28  H1  UNL     1       3.763 -31.525 -24.668  1.00  0.00     0.210 HD
ENDBRANCH   3  27
BRANCH   6  29
HETATM   29  C7  UNL     1       4.021 -28.657 -28.824  1.00  0.00     0.189 C 
BRANCH  29  30
HETATM   30  O2  UNL     1       2.806 -27.960 -28.767  1.00  0.00    -0.399 OA
ATOM     31  H2  UNL     1       2.960 -27.089 -28.420  1.00  0.00     0.209 HD
ENDBRANCH  29  30
ENDBRANCH   6  29
TORSDOF 6
ENDMDL
MODEL 4
REMARK VINA RESULT: -7.055404273      2.697      4.054
REMARK  6 active torsions:
REMARK  status: ('A' for Active; 'I' for Inactive)
REMARK    1  A    between atoms: C3_3  and  O1_4 
REMARK    2  A    between atoms: C6_8  and  C7_9 
REMARK    3  A    between atoms: C7_9  and  O2_10 
REMARK    4  A    between atoms: C13_18  and  O3_19 
REMARK    5  A    between atoms: C15_23  and  C16_24 
REMARK    6  A    between atoms: C16_24  and  C17_25 
ROOT
HETATM    1  C1  UNL     1       0.246 -30.517 -30.466  1.00  0.00     0.018 C 
HETATM    2  C2  UNL     1       0.220 -30.892 -29.206  1.00  0.00    -0.042 C 
HETATM    3  C3  UNL     1      -0.856 -30.436 -28.313  1.00  0.00     0.155 C 
HETATM    4  C4  UNL     1      -0.314 -30.095 -26.993  1.00  0.00     0.064 C 
HETATM    5  C5  UNL     1       0.509 -28.866 -26.863  1.00  0.00     0.035 C 
HETATM    6  C6  UNL     1      -0.167 -27.557 -27.059  1.00  0.00     0.112 C 
HETATM    7  N1  UNL     1       0.306 -26.538 -26.105  1.00  0.00    -0.387 N 
HETATM    8  C8  UNL     1      -0.485 -25.336 -25.955  1.00  0.00     0.149 C 
HETATM    9  C9  UNL     1       1.501 -26.712 -25.352  1.00  0.00     0.082 C 
HETATM   10  C10 UNL     1       1.789 -27.949 -24.966  1.00  0.00     0.002 C 
HETATM   11  C11 UNL     1       0.840 -28.976 -25.364  1.00  0.00     0.010 C 
HETATM   12  C12 UNL     1      -0.427 -28.937 -24.534  1.00  0.00     0.023 C 
HETATM   13  C13 UNL     1       1.355 -30.384 -25.323  1.00  0.00     0.166 C 
HETATM   14  C14 UNL     1       0.519 -31.158 -26.331  1.00  0.00     0.100 C 
HETATM   15  O4  UNL     1      -0.277 -32.042 -25.602  1.00  0.00    -0.371 OA
HETATM   16  C15 UNL     1       0.353 -33.266 -25.545  1.00  0.00     0.133 C 
HETATM   17  C18 UNL     1       0.881 -33.427 -26.953  1.00  0.00     0.042 C 
HETATM   18  C19 UNL     1       1.321 -31.998 -27.236  1.00  0.00     0.048 C 
HETATM   19  C20 UNL     1       1.251 -31.771 -28.679  1.00  0.00     0.120 C 
HETATM   20 CL1  UNL     1       2.841 -31.130 -29.244  1.00  0.00    -0.120 Cl
ENDROOT
BRANCH  16  21
HETATM   21  C16 UNL     1      -0.672 -34.311 -25.193  1.00  0.00     0.145 C 
BRANCH  21  22
HETATM   22  C17 UNL     1      -0.857 -34.320 -23.720  1.00  0.00     0.175 C 
HETATM   23  O5  UNL     1      -1.760 -35.053 -23.246  1.00  0.00    -0.648 OA
HETATM   24  O6  UNL     1      -0.098 -33.573 -22.841  1.00  0.00    -0.648 OA
ENDBRANCH  21  22
ENDBRANCH  16  21
BRANCH  13  25
HETATM   25  O3  UNL     1       1.130 -30.835 -24.014  1.00  0.00    -0.391 OA
ATOM     26  H3  UNL     1       1.510 -31.705 -23.971  1.00  0.00     0.210 HD
ENDBRANCH  13  25
BRANCH   3  27
HETATM   27  O1  UNL     1      -1.829 -31.434 -28.149  1.00  0.00    -0.391 OA
ATOM     28  H1  UNL     1      -2.701 -31.057 -28.124  1.00  0.00     0.210 HD
ENDBRANCH   3  27
BRANCH   6  29
HETATM   29  C7  UNL     1       0.170 -26.960 -28.433  1.00  0.00     0.189 C 
BRANCH  29  30
HETATM   30  O2  UNL     1      -0.955 -27.052 -29.265  1.00  0.00    -0.399 OA
ATOM     31  H2  UNL     1      -1.124 -27.966 -29.464  1.00  0.00     0.209 HD
ENDBRANCH  29  30
ENDBRANCH   6  29
TORSDOF 6
ENDMDL
MODEL 5
REMARK VINA RESULT: -6.987074862      1.750      2.001
REMARK  6 active torsions:
REMARK  status: ('A' for Active; 'I' for Inactive)
REMARK    1  A    between atoms: C3_3  and  O1_4 
REMARK    2  A    between atoms: C6_8  and  C7_9 
REMARK    3  A    between atoms: C7_9  and  O2_10 
REMARK    4  A    between atoms: C13_18  and  O3_19 
REMARK    5  A    between atoms: C15_23  and  C16_24 
REMARK    6  A    between atoms: C16_24  and  C17_25 
ROOT
HETATM    1  C1  UNL     1      -1.718 -29.782 -29.369  1.00  0.00     0.018 C 
HETATM    2  C2  UNL     1      -0.999 -30.577 -28.607  1.00  0.00    -0.042 C 
HETATM    3  C3  UNL     1      -0.033 -30.020 -27.649  1.00  0.00     0.155 C 
HETATM    4  C4  UNL     1       1.201 -30.815 -27.647  1.00  0.00     0.064 C 
HETATM    5  C5  UNL     1       2.101 -30.728 -28.824  1.00  0.00     0.035 C 
HETATM    6  C6  UNL     1       2.791 -29.435 -29.072  1.00  0.00     0.112 C 
HETATM    7  N1  UNL     1       4.182 -29.624 -29.523  1.00  0.00    -0.387 N 
HETATM    8  C8  UNL     1       5.066 -28.480 -29.480  1.00  0.00     0.149 C 
HETATM    9  C9  UNL     1       4.654 -30.882 -29.991  1.00  0.00     0.082 C 
HETATM   10  C10 UNL     1       4.153 -31.963 -29.408  1.00  0.00     0.002 C 
HETATM   11  C11 UNL     1       3.177 -31.725 -28.357  1.00  0.00     0.010 C 
HETATM   12  C12 UNL     1       3.825 -31.247 -27.073  1.00  0.00     0.023 C 
HETATM   13  C13 UNL     1       2.303 -32.892 -28.006  1.00  0.00     0.166 C 
HETATM   14  C14 UNL     1       1.027 -32.294 -27.435  1.00  0.00     0.100 C 
HETATM   15  O4  UNL     1       1.005 -32.611 -26.076  1.00  0.00    -0.371 OA
HETATM   16  C15 UNL     1       0.264 -33.759 -25.897  1.00  0.00     0.133 C 
HETATM   17  C18 UNL     1      -0.910 -33.535 -26.824  1.00  0.00     0.042 C 
HETATM   18  C19 UNL     1      -0.200 -32.881 -28.000  1.00  0.00     0.048 C 
HETATM   19  C20 UNL     1      -1.155 -32.020 -28.695  1.00  0.00     0.120 C 
HETATM   20 CL1  UNL     1      -1.159 -32.452 -30.447  1.00  0.00    -0.120 Cl
ENDROOT
BRANCH  16  21
HETATM   21  C16 UNL     1      -0.152 -33.835 -24.452  1.00  0.00     0.145 C 
BRANCH  21  22
HETATM   22  C17 UNL     1      -0.883 -35.108 -24.234  1.00  0.00     0.175 C 
HETATM   23  O5  UNL     1      -1.782 -35.127 -23.357  1.00  0.00    -0.648 OA
HETATM   24  O6  UNL     1      -0.635 -36.272 -24.934  1.00  0.00    -0.648 OA
ENDBRANCH  21  22
ENDBRANCH  16  21
BRANCH  13  25
HETATM   25  O3  UNL     1       3.010 -33.620 -27.037  1.00  0.00    -0.391 OA
ATOM     26  H3  UNL     1       3.103 -33.037 -26.293  1.00  0.00     0.210 HD
ENDBRANCH  13  25
BRANCH   3  27
HETATM   27  O1  UNL     1      -0.560 -30.014 -26.349  1.00  0.00    -0.391 OA
ATOM     28  H1  UNL     1      -1.459 -30.321 -26.346  1.00  0.00     0.210 HD
ENDBRANCH   3  27
BRANCH   6  29
HETATM   29  C7  UNL     1       2.130 -28.668 -30.227  1.00  0.00     0.189 C 
BRANCH  29  30
HETATM   30  O2  UNL     1       1.409 -29.566 -31.026  1.00  0.00    -0.399 OA
ATOM     31  H2  UNL     1       0.577 -29.174 -31.266  1.00  0.00     0.209 HD
ENDBRANCH  29  30
ENDBRANCH   6  29
TORSDOF 6
ENDMDL
