MODEL 1
REMARK VINA RESULT: -6.279324850      0.000      0.000
REMARK  3 active torsions:
REMARK  status: ('A' for Active; 'I' for Inactive)
REMARK    1  A    between atoms: O1_2  and  C2_3 
REMARK    2  A    between atoms: C6_8  and  N1_9 
REMARK       I    between atoms: N2_12  and  C9_13 
REMARK       I    between atoms: C9_13  and  N3_15 
REMARK    3  A    between atoms: N3_15  and  C10_17 
ROOT
HETATM    1  N1  UNL     1     -32.338  27.612  94.531  1.00  0.00    -0.363 N 
HETATM    2  C7  UNL     1     -31.765  28.896  94.872  1.00  0.00     0.145 C 
HETATM    3  C8  UNL     1     -30.343  28.494  95.191  1.00  0.00     0.149 C 
HETATM    4  N2  UNL     1     -30.054  27.515  94.182  1.00  0.00    -0.316 N 
HETATM    5  C9  UNL     1     -28.763  27.211  93.687  1.00  0.00     0.320 C 
HETATM    6  O2  UNL     1     -28.689  26.319  92.798  1.00  0.00    -0.247 OA
HETATM    7  N3  UNL     1     -27.625  27.891  94.185  1.00  0.00    -0.334 N 
ATOM      8  H3  UNL     1     -27.768  28.601  94.904  1.00  0.00     0.165 HD
HETATM    9  C20 UNL     1     -31.309  26.914  93.783  1.00  0.00     0.254 C 
ENDROOT
BRANCH   7  10
HETATM   10  C10 UNL     1     -26.280  27.645  93.740  1.00  0.00     0.035 C 
HETATM   11  C11 UNL     1     -25.928  26.183  93.897  1.00  0.00     0.035 C 
HETATM   12  C12 UNL     1     -24.553  25.915  93.269  1.00  0.00    -0.012 C 
HETATM   13  C13 UNL     1     -24.595  26.294  91.826  1.00  0.00     0.009 C 
HETATM   14  C17 UNL     1     -23.555  26.709  94.074  1.00  0.00     0.009 C 
HETATM   15  C14 UNL     1     -24.820  27.781  91.714  1.00  0.00    -0.012 C 
HETATM   16  C15 UNL     1     -23.776  28.556  92.498  1.00  0.00     0.009 C 
HETATM   17  C19 UNL     1     -26.153  28.097  92.305  1.00  0.00     0.035 C 
HETATM   18  C16 UNL     1     -23.899  28.170  93.940  1.00  0.00    -0.012 C 
HETATM   19  C18 UNL     1     -25.259  28.434  94.529  1.00  0.00     0.035 C 
ENDBRANCH   7  10
BRANCH   1  20
HETATM   20  C6  UNL     1     -33.626  27.148  94.867  1.00  0.00     0.037 A 
HETATM   21  C5  UNL     1     -34.336  26.321  94.028  1.00  0.00     0.071 A 
HETATM   22  C4  UNL     1     -35.601  25.858  94.349  1.00  0.00     0.121 A 
HETATM   23  C3  UNL     1     -36.201  26.214  95.533  1.00  0.00     0.079 A 
HETATM   24  F1  UNL     1     -36.281  25.046  93.510  1.00  0.00    -0.206 F 
HETATM   25  C2  UNL     1     -35.507  27.047  96.399  1.00  0.00     0.073 A 
HETATM   26  C21 UNL     1     -34.253  27.489  96.051  1.00  0.00     0.066 A 
BRANCH  25  27
HETATM   27  O1  UNL     1     -36.100  27.420  97.609  1.00  0.00    -0.356 OA
HETATM   28  C1  UNL     1     -35.726  26.714  98.770  1.00  0.00     0.210 C 
ENDBRANCH  25  27
ENDBRANCH   1  20
TORSDOF 3
ENDMDL
MODEL 2
REMARK VINA RESULT: -6.237745246      0.124      1.412
REMARK  3 active torsions:
REMARK  status: ('A' for Active; 'I' for Inactive)
REMARK    1  A    between atoms: O1_2  and  C2_3 
REMARK    2  A    between atoms: C6_8  and  N1_9 
REMARK       I    between atoms: N2_12  and  C9_13 
REMARK       I    between atoms: C9_13  and  N3_15 
REMARK    3  A    between atoms: N3_15  and  C10_17 
ROOT
HETATM    1  N1  UNL     1     -32.325  27.649  94.525  1.00  0.00    -0.363 N 
HETATM    2  C7  UNL     1     -31.733  28.901  94.944  1.00  0.00     0.145 C 
HETATM    3  C8  UNL     1     -30.305  28.468  95.192  1.00  0.00     0.149 C 
HETATM    4  N2  UNL     1     -30.052  27.567  94.104  1.00  0.00    -0.316 N 
HETATM    5  C9  UNL     1     -28.778  27.293  93.551  1.00  0.00     0.320 C 
HETATM    6  O2  UNL     1     -28.735  26.469  92.596  1.00  0.00    -0.247 OA
HETATM    7  N3  UNL     1     -27.621  27.928  94.065  1.00  0.00    -0.334 N 
ATOM      8  H3  UNL     1     -27.739  28.583  94.838  1.00  0.00     0.165 HD
HETATM    9  C20 UNL     1     -31.322  27.004  93.698  1.00  0.00     0.254 C 
ENDROOT
BRANCH   7  10
HETATM   10  C10 UNL     1     -26.291  27.708  93.564  1.00  0.00     0.035 C 
HETATM   11  C11 UNL     1     -25.284  28.499  94.368  1.00  0.00     0.035 C 
HETATM   12  C12 UNL     1     -23.863  28.125  93.923  1.00  0.00    -0.012 C 
HETATM   13  C13 UNL     1     -23.660  26.659  94.122  1.00  0.00     0.009 C 
HETATM   14  C17 UNL     1     -23.738  28.563  92.485  1.00  0.00     0.009 C 
HETATM   15  C14 UNL     1     -24.595  25.905  93.208  1.00  0.00    -0.012 C 
HETATM   16  C15 UNL     1     -24.417  26.335  91.763  1.00  0.00     0.009 C 
HETATM   17  C19 UNL     1     -25.997  26.228  93.605  1.00  0.00     0.035 C 
HETATM   18  C16 UNL     1     -24.745  27.793  91.670  1.00  0.00    -0.012 C 
HETATM   19  C18 UNL     1     -26.140  28.135  92.121  1.00  0.00     0.035 C 
ENDBRANCH   7  10
BRANCH   1  20
HETATM   20  C6  UNL     1     -33.605  27.169  94.863  1.00  0.00     0.037 A 
HETATM   21  C5  UNL     1     -34.308  26.336  94.023  1.00  0.00     0.071 A 
HETATM   22  C4  UNL     1     -35.566  25.857  94.345  1.00  0.00     0.121 A 
HETATM   23  C3  UNL     1     -36.167  26.201  95.532  1.00  0.00     0.079 A 
HETATM   24  F1  UNL     1     -36.238  25.039  93.504  1.00  0.00    -0.206 F 
HETATM   25  C2  UNL     1     -35.481  27.040  96.399  1.00  0.00     0.073 A 
HETATM   26  C21 UNL     1     -34.234  27.497  96.050  1.00  0.00     0.066 A 
BRANCH  25  27
HETATM   27  O1  UNL     1     -36.076  27.401  97.612  1.00  0.00    -0.356 OA
HETATM   28  C1  UNL     1     -35.698  26.688  98.768  1.00  0.00     0.210 C 
ENDBRANCH  25  27
ENDBRANCH   1  20
TORSDOF 3
ENDMDL
MODEL 3
REMARK VINA RESULT: -6.131132273      0.147      1.464
REMARK  3 active torsions:
REMARK  status: ('A' for Active; 'I' for Inactive)
REMARK    1  A    between atoms: O1_2  and  C2_3 
REMARK    2  A    between atoms: C6_8  and  N1_9 
REMARK       I    between atoms: N2_12  and  C9_13 
REMARK       I    between atoms: C9_13  and  N3_15 
REMARK    3  A    between atoms: N3_15  and  C10_17 
ROOT
HETATM    1  N1  UNL     1     -32.368  27.573  94.497  1.00  0.00    -0.363 N 
HETATM    2  C7  UNL     1     -31.777  28.843  94.859  1.00  0.00     0.145 C 
HETATM    3  C8  UNL     1     -30.354  28.421  95.146  1.00  0.00     0.149 C 
HETATM    4  N2  UNL     1     -30.090  27.463  94.110  1.00  0.00    -0.316 N 
HETATM    5  C9  UNL     1     -28.810  27.159  93.588  1.00  0.00     0.320 C 
HETATM    6  O2  UNL     1     -28.758  26.287  92.677  1.00  0.00    -0.247 OA
HETATM    7  N3  UNL     1     -27.658  27.817  94.083  1.00  0.00    -0.334 N 
ATOM      8  H3  UNL     1     -27.783  28.511  94.820  1.00  0.00     0.165 HD
HETATM    9  C20 UNL     1     -31.357  26.883  93.717  1.00  0.00     0.254 C 
ENDROOT
BRANCH   7  10
HETATM   10  C10 UNL     1     -26.322  27.568  93.612  1.00  0.00     0.035 C 
HETATM   11  C11 UNL     1     -26.152  28.085  92.201  1.00  0.00     0.035 C 
HETATM   12  C12 UNL     1     -24.681  27.956  91.780  1.00  0.00    -0.012 C 
HETATM   13  C13 UNL     1     -23.833  28.734  92.731  1.00  0.00     0.009 C 
HETATM   14  C17 UNL     1     -24.371  26.480  91.762  1.00  0.00     0.009 C 
HETATM   15  C14 UNL     1     -23.929  28.109  94.101  1.00  0.00    -0.012 C 
HETATM   16  C15 UNL     1     -23.571  26.635  94.060  1.00  0.00     0.009 C 
HETATM   17  C19 UNL     1     -25.345  28.215  94.563  1.00  0.00     0.035 C 
HETATM   18  C16 UNL     1     -24.549  25.944  93.159  1.00  0.00    -0.012 C 
HETATM   19  C18 UNL     1     -25.984  26.094  93.588  1.00  0.00     0.035 C 
ENDBRANCH   7  10
BRANCH   1  20
HETATM   20  C6  UNL     1     -33.654  27.113  94.842  1.00  0.00     0.037 A 
HETATM   21  C5  UNL     1     -34.378  26.297  94.004  1.00  0.00     0.071 A 
HETATM   22  C4  UNL     1     -35.642  25.839  94.334  1.00  0.00     0.121 A 
HETATM   23  C3  UNL     1     -36.227  26.187  95.527  1.00  0.00     0.079 A 
HETATM   24  F1  UNL     1     -36.335  25.038  93.494  1.00  0.00    -0.206 F 
HETATM   25  C2  UNL     1     -35.519  27.008  96.393  1.00  0.00     0.073 A 
HETATM   26  C21 UNL     1     -34.266  27.446  96.036  1.00  0.00     0.066 A 
BRANCH  25  27
HETATM   27  O1  UNL     1     -36.097  27.373  97.613  1.00  0.00    -0.356 OA
HETATM   28  C1  UNL     1     -35.661  26.705  98.774  1.00  0.00     0.210 C 
ENDBRANCH  25  27
ENDBRANCH   1  20
TORSDOF 3
ENDMDL
MODEL 4
REMARK VINA RESULT: -4.794679528      1.582      2.546
REMARK  3 active torsions:
REMARK  status: ('A' for Active; 'I' for Inactive)
REMARK    1  A    between atoms: O1_2  and  C2_3 
REMARK    2  A    between atoms: C6_8  and  N1_9 
REMARK       I    between atoms: N2_12  and  C9_13 
REMARK       I    between atoms: C9_13  and  N3_15 
REMARK    3  A    between atoms: N3_15  and  C10_17 
ROOT
HETATM    1  N1  UNL     1     -32.099  28.275  95.063  1.00  0.00    -0.363 N 
HETATM    2  C7  UNL     1     -31.512  29.557  94.736  1.00  0.00     0.145 C 
HETATM    3  C8  UNL     1     -30.047  29.264  94.972  1.00  0.00     0.149 C 
HETATM    4  N2  UNL     1     -29.897  27.940  94.440  1.00  0.00    -0.316 N 
HETATM    5  C9  UNL     1     -28.693  27.399  93.928  1.00  0.00     0.320 C 
HETATM    6  O2  UNL     1     -28.738  26.212  93.499  1.00  0.00    -0.247 OA
HETATM    7  N3  UNL     1     -27.508  28.174  93.909  1.00  0.00    -0.334 N 
ATOM      8  H3  UNL     1     -27.554  29.126  94.273  1.00  0.00     0.165 HD
HETATM    9  C20 UNL     1     -31.183  27.283  94.532  1.00  0.00     0.254 C 
ENDROOT
BRANCH   7  10
HETATM   10  C10 UNL     1     -26.244  27.704  93.409  1.00  0.00     0.035 C 
HETATM   11  C11 UNL     1     -26.116  27.997  91.931  1.00  0.00     0.035 C 
HETATM   12  C12 UNL     1     -24.702  27.634  91.456  1.00  0.00    -0.012 C 
HETATM   13  C13 UNL     1     -23.708  28.428  92.238  1.00  0.00     0.009 C 
HETATM   14  C17 UNL     1     -24.561  26.143  91.636  1.00  0.00     0.009 C 
HETATM   15  C14 UNL     1     -23.778  28.014  93.687  1.00  0.00    -0.012 C 
HETATM   16  C15 UNL     1     -23.590  26.516  93.841  1.00  0.00     0.009 C 
HETATM   17  C19 UNL     1     -25.137  28.353  94.203  1.00  0.00     0.035 C 
HETATM   18  C16 UNL     1     -24.700  25.831  93.103  1.00  0.00    -0.012 C 
HETATM   19  C18 UNL     1     -26.076  26.210  93.582  1.00  0.00     0.035 C 
ENDBRANCH   7  10
BRANCH   1  20
HETATM   20  C6  UNL     1     -33.304  28.054  95.758  1.00  0.00     0.037 A 
HETATM   21  C5  UNL     1     -33.587  28.703  96.937  1.00  0.00     0.071 A 
HETATM   22  C4  UNL     1     -34.769  28.494  97.627  1.00  0.00     0.121 A 
HETATM   23  C3  UNL     1     -35.714  27.617  97.153  1.00  0.00     0.079 A 
HETATM   24  F1  UNL     1     -35.025  29.143  98.785  1.00  0.00    -0.206 F 
HETATM   25  C2  UNL     1     -35.456  26.948  95.965  1.00  0.00     0.073 A 
HETATM   26  C21 UNL     1     -34.274  27.179  95.304  1.00  0.00     0.066 A 
BRANCH  25  27
HETATM   27  O1  UNL     1     -36.407  26.052  95.466  1.00  0.00    -0.356 OA
HETATM   28  C1  UNL     1     -36.159  25.462  94.210  1.00  0.00     0.210 C 
ENDBRANCH  25  27
ENDBRANCH   1  20
TORSDOF 3
ENDMDL
MODEL 5
REMARK VINA RESULT: -4.749238739      1.592      2.575
REMARK  3 active torsions:
REMARK  status: ('A' for Active; 'I' for Inactive)
REMARK    1  A    between atoms: O1_2  and  C2_3 
REMARK    2  A    between atoms: C6_8  and  N1_9 
REMARK       I    between atoms: N2_12  and  C9_13 
REMARK       I    between atoms: C9_13  and  N3_15 
REMARK    3  A    between atoms: N3_15  and  C10_17 
ROOT
HETATM    1  N1  UNL     1     -32.107  28.327  95.044  1.00  0.00    -0.363 N 
HETATM    2  C7  UNL     1     -31.559  29.626  94.713  1.00  0.00     0.145 C 
HETATM    3  C8  UNL     1     -30.086  29.377  94.945  1.00  0.00     0.149 C 
HETATM    4  N2  UNL     1     -29.898  28.057  94.414  1.00  0.00    -0.316 N 
HETATM    5  C9  UNL     1     -28.680  27.551  93.899  1.00  0.00     0.320 C 
HETATM    6  O2  UNL     1     -28.691  26.363  93.473  1.00  0.00    -0.247 OA
HETATM    7  N3  UNL     1     -27.519  28.361  93.875  1.00  0.00    -0.334 N 
ATOM      8  H3  UNL     1     -27.592  29.312  94.238  1.00  0.00     0.165 HD
HETATM    9  C20 UNL     1     -31.164  27.362  94.511  1.00  0.00     0.254 C 
ENDROOT
BRANCH   7  10
HETATM   10  C10 UNL     1     -26.243  27.928  93.371  1.00  0.00     0.035 C 
HETATM   11  C11 UNL     1     -25.127  28.747  93.980  1.00  0.00     0.035 C 
HETATM   12  C12 UNL     1     -23.772  28.164  93.554  1.00  0.00    -0.012 C 
HETATM   13  C13 UNL     1     -23.690  26.744  94.007  1.00  0.00     0.009 C 
HETATM   14  C17 UNL     1     -23.689  28.328  92.057  1.00  0.00     0.009 C 
HETATM   15  C14 UNL     1     -24.736  25.935  93.281  1.00  0.00    -0.012 C 
HETATM   16  C15 UNL     1     -24.602  26.084  91.776  1.00  0.00     0.009 C 
HETATM   17  C19 UNL     1     -26.080  26.457  93.667  1.00  0.00     0.035 C 
HETATM   18  C16 UNL     1     -24.804  27.528  91.434  1.00  0.00    -0.012 C 
HETATM   19  C18 UNL     1     -26.136  28.078  91.870  1.00  0.00     0.035 C 
ENDBRANCH   7  10
BRANCH   1  20
HETATM   20  C6  UNL     1     -33.303  28.071  95.743  1.00  0.00     0.037 A 
HETATM   21  C5  UNL     1     -33.582  28.682  96.943  1.00  0.00     0.071 A 
HETATM   22  C4  UNL     1     -34.755  28.438  97.638  1.00  0.00     0.121 A 
HETATM   23  C3  UNL     1     -35.694  27.564  97.147  1.00  0.00     0.079 A 
HETATM   24  F1  UNL     1     -35.008  29.050  98.816  1.00  0.00    -0.206 F 
HETATM   25  C2  UNL     1     -35.439  26.933  95.937  1.00  0.00     0.073 A 
HETATM   26  C21 UNL     1     -34.266  27.197  95.272  1.00  0.00     0.066 A 
BRANCH  25  27
HETATM   27  O1  UNL     1     -36.384  26.041  95.421  1.00  0.00    -0.356 OA
HETATM   28  C1  UNL     1     -36.122  25.462  94.162  1.00  0.00     0.210 C 
ENDBRANCH  25  27
ENDBRANCH   1  20
TORSDOF 3
ENDMDL
