MODEL 1
REMARK VINA RESULT: -9.364932023      0.000      0.000
REMARK  6 active torsions:
REMARK  status: ('A' for Active; 'I' for Inactive)
REMARK    1  A    between atoms: C2_2  and  O1_3 
REMARK    2  A    between atoms: O1_3  and  C3_4 
REMARK    3  A    between atoms: C3_4  and  C4_6 
REMARK    4  A    between atoms: C4_6  and  C5_7 
REMARK    5  A    between atoms: C16_18  and  C17_19 
REMARK    6  A    between atoms: C17_19  and  O3_20 
ROOT
HETATM    1  C4  UNL     1     -28.054  27.064  94.226  1.00  0.00     0.086 C 
HETATM    2  C15 UNL     1     -28.141  26.988  95.753  1.00  0.00     0.033 C 
HETATM    3  C16 UNL     1     -28.514  25.805  96.139  1.00  0.00     0.015 C 
HETATM    4  C18 UNL     1     -28.725  24.888  94.993  1.00  0.00     0.050 C 
HETATM    5  C19 UNL     1     -28.853  25.886  93.892  1.00  0.00    -0.014 C 
HETATM    6 BR1  UNL     1     -28.839  25.199  92.138  1.00  0.00    -0.059 Br
ENDROOT
BRANCH   1   7
HETATM    7  C3  UNL     1     -28.868  28.300  93.958  1.00  0.00     0.273 C 
HETATM    8  O2  UNL     1     -29.923  28.437  94.624  1.00  0.00    -0.264 OA
BRANCH   7   9
HETATM    9  O1  UNL     1     -28.618  29.294  93.089  1.00  0.00    -0.321 OA
BRANCH   9  10
HETATM   10  C2  UNL     1     -29.461  29.919  92.192  1.00  0.00     0.174 C 
HETATM   11  C1  UNL     1     -29.724  29.149  90.930  1.00  0.00     0.034 C 
ENDBRANCH   9  10
ENDBRANCH   7   9
ENDBRANCH   1   7
BRANCH   1  12
HETATM   12  C5  UNL     1     -26.633  27.193  93.888  1.00  0.00    -0.018 C 
HETATM   13  C6  UNL     1     -25.851  25.903  93.898  1.00  0.00     0.015 C 
HETATM   14  C7  UNL     1     -24.372  26.121  93.667  1.00  0.00    -0.013 C 
HETATM   15  C8  UNL     1     -24.200  26.626  92.275  1.00  0.00     0.009 C 
HETATM   16  C12 UNL     1     -23.766  27.050  94.692  1.00  0.00     0.009 C 
HETATM   17  C9  UNL     1     -24.927  27.939  92.200  1.00  0.00    -0.013 C 
HETATM   18  C10 UNL     1     -24.278  28.916  93.170  1.00  0.00     0.009 C 
HETATM   19  C14 UNL     1     -26.384  27.839  92.537  1.00  0.00     0.015 C 
HETATM   20  C11 UNL     1     -24.504  28.375  94.542  1.00  0.00    -0.013 C 
HETATM   21  C13 UNL     1     -25.945  28.114  94.874  1.00  0.00     0.015 C 
ENDBRANCH   1  12
BRANCH   3  22
HETATM   22  C17 UNL     1     -28.699  25.394  97.559  1.00  0.00     0.169 C 
BRANCH  22  23
HETATM   23  O3  UNL     1     -29.694  26.167  98.107  1.00  0.00    -0.400 OA
ATOM     24  H3  UNL     1     -29.660  27.026  97.705  1.00  0.00     0.209 HD
ENDBRANCH  22  23
ENDBRANCH   3  22
TORSDOF 6
ENDMDL
MODEL 2
REMARK VINA RESULT: -9.278150133      0.085      1.514
REMARK  6 active torsions:
REMARK  status: ('A' for Active; 'I' for Inactive)
REMARK    1  A    between atoms: C2_2  and  O1_3 
REMARK    2  A    between atoms: O1_3  and  C3_4 
REMARK    3  A    between atoms: C3_4  and  C4_6 
REMARK    4  A    between atoms: C4_6  and  C5_7 
REMARK    5  A    between atoms: C16_18  and  C17_19 
REMARK    6  A    between atoms: C17_19  and  O3_20 
ROOT
HETATM    1  C4  UNL     1     -28.037  27.057  94.253  1.00  0.00     0.086 C 
HETATM    2  C15 UNL     1     -28.176  26.986  95.776  1.00  0.00     0.033 C 
HETATM    3  C16 UNL     1     -28.531  25.795  96.156  1.00  0.00     0.015 C 
HETATM    4  C18 UNL     1     -28.678  24.867  95.008  1.00  0.00     0.050 C 
HETATM    5  C19 UNL     1     -28.794  25.856  93.898  1.00  0.00    -0.014 C 
HETATM    6 BR1  UNL     1     -28.700  25.162  92.149  1.00  0.00    -0.059 Br
ENDROOT
BRANCH   1   7
HETATM    7  C3  UNL     1     -28.873  28.269  93.949  1.00  0.00     0.273 C 
HETATM    8  O2  UNL     1     -29.998  28.334  94.504  1.00  0.00    -0.264 OA
BRANCH   7   9
HETATM    9  O1  UNL     1     -28.579  29.310  93.153  1.00  0.00    -0.321 OA
BRANCH   9  10
HETATM   10  C2  UNL     1     -29.371  29.981  92.242  1.00  0.00     0.174 C 
HETATM   11  C1  UNL     1     -29.736  29.191  91.019  1.00  0.00     0.034 C 
ENDBRANCH   9  10
ENDBRANCH   7   9
ENDBRANCH   1   7
BRANCH   1  12
HETATM   12  C5  UNL     1     -26.609  27.221  93.964  1.00  0.00    -0.018 C 
HETATM   13  C6  UNL     1     -25.855  28.101  94.929  1.00  0.00     0.015 C 
HETATM   14  C7  UNL     1     -24.422  28.331  94.504  1.00  0.00    -0.013 C 
HETATM   15  C8  UNL     1     -23.708  27.024  94.589  1.00  0.00     0.009 C 
HETATM   16  C12 UNL     1     -24.327  28.946  93.128  1.00  0.00     0.009 C 
HETATM   17  C9  UNL     1     -24.387  26.100  93.617  1.00  0.00    -0.013 C 
HETATM   18  C10 UNL     1     -24.232  26.663  92.212  1.00  0.00     0.009 C 
HETATM   19  C14 UNL     1     -25.848  25.909  93.890  1.00  0.00     0.015 C 
HETATM   20  C11 UNL     1     -24.985  27.951  92.179  1.00  0.00    -0.013 C 
HETATM   21  C13 UNL     1     -26.424  27.837  92.592  1.00  0.00     0.015 C 
ENDBRANCH   1  12
BRANCH   3  22
HETATM   22  C17 UNL     1     -28.755  25.386  97.571  1.00  0.00     0.169 C 
BRANCH  22  23
HETATM   23  O3  UNL     1     -29.702  26.218  98.117  1.00  0.00    -0.400 OA
ATOM     24  H3  UNL     1     -29.797  26.975  97.551  1.00  0.00     0.209 HD
ENDBRANCH  22  23
ENDBRANCH   3  22
TORSDOF 6
ENDMDL
MODEL 3
REMARK VINA RESULT: -9.241102126      0.097      1.522
REMARK  6 active torsions:
REMARK  status: ('A' for Active; 'I' for Inactive)
REMARK    1  A    between atoms: C2_2  and  O1_3 
REMARK    2  A    between atoms: O1_3  and  C3_4 
REMARK    3  A    between atoms: C3_4  and  C4_6 
REMARK    4  A    between atoms: C4_6  and  C5_7 
REMARK    5  A    between atoms: C16_18  and  C17_19 
REMARK    6  A    between atoms: C17_19  and  O3_20 
ROOT
HETATM    1  C4  UNL     1     -28.082  27.096  94.181  1.00  0.00     0.086 C 
HETATM    2  C15 UNL     1     -28.192  27.026  95.707  1.00  0.00     0.033 C 
HETATM    3  C16 UNL     1     -28.531  25.833  96.094  1.00  0.00     0.015 C 
HETATM    4  C18 UNL     1     -28.693  24.903  94.950  1.00  0.00     0.050 C 
HETATM    5  C19 UNL     1     -28.837  25.890  93.842  1.00  0.00    -0.014 C 
HETATM    6 BR1  UNL     1     -28.771  25.194  92.092  1.00  0.00    -0.059 Br
ENDROOT
BRANCH   1   7
HETATM    7  C3  UNL     1     -28.933  28.302  93.892  1.00  0.00     0.273 C 
HETATM    8  O2  UNL     1     -30.068  28.335  94.429  1.00  0.00    -0.264 OA
BRANCH   7   9
HETATM    9  O1  UNL     1     -28.641  29.367  93.126  1.00  0.00    -0.321 OA
BRANCH   9  10
HETATM   10  C2  UNL     1     -29.400  29.997  92.160  1.00  0.00     0.174 C 
HETATM   11  C1  UNL     1     -29.677  29.172  90.936  1.00  0.00     0.034 C 
ENDBRANCH   9  10
ENDBRANCH   7   9
ENDBRANCH   1   7
BRANCH   1  12
HETATM   12  C5  UNL     1     -26.661  27.270  93.864  1.00  0.00    -0.018 C 
HETATM   13  C6  UNL     1     -26.372  27.848  92.502  1.00  0.00     0.015 C 
HETATM   14  C7  UNL     1     -24.892  27.882  92.190  1.00  0.00    -0.013 C 
HETATM   15  C8  UNL     1     -24.254  28.851  93.125  1.00  0.00     0.009 C 
HETATM   16  C12 UNL     1     -24.262  26.512  92.267  1.00  0.00     0.009 C 
HETATM   17  C9  UNL     1     -24.470  28.317  94.513  1.00  0.00    -0.013 C 
HETATM   18  C10 UNL     1     -23.772  26.970  94.635  1.00  0.00     0.009 C 
HETATM   19  C14 UNL     1     -25.915  28.132  94.867  1.00  0.00     0.015 C 
HETATM   20  C11 UNL     1     -24.467  26.038  93.701  1.00  0.00    -0.013 C 
HETATM   21  C13 UNL     1     -25.949  25.934  93.919  1.00  0.00     0.015 C 
ENDBRANCH   1  12
BRANCH   3  22
HETATM   22  C17 UNL     1     -28.725  25.424  97.514  1.00  0.00     0.169 C 
BRANCH  22  23
HETATM   23  O3  UNL     1     -29.678  26.241  98.072  1.00  0.00    -0.400 OA
ATOM     24  H3  UNL     1     -30.261  25.705  98.596  1.00  0.00     0.209 HD
ENDBRANCH  22  23
ENDBRANCH   3  22
TORSDOF 6
ENDMDL
MODEL 4
REMARK VINA RESULT: -8.944066941      0.989      1.462
REMARK  6 active torsions:
REMARK  status: ('A' for Active; 'I' for Inactive)
REMARK    1  A    between atoms: C2_2  and  O1_3 
REMARK    2  A    between atoms: O1_3  and  C3_4 
REMARK    3  A    between atoms: C3_4  and  C4_6 
REMARK    4  A    between atoms: C4_6  and  C5_7 
REMARK    5  A    between atoms: C16_18  and  C17_19 
REMARK    6  A    between atoms: C17_19  and  O3_20 
ROOT
HETATM    1  C4  UNL     1     -28.160  26.936  94.187  1.00  0.00     0.086 C 
HETATM    2  C15 UNL     1     -28.295  26.911  95.712  1.00  0.00     0.033 C 
HETATM    3  C16 UNL     1     -28.583  25.716  96.134  1.00  0.00     0.015 C 
HETATM    4  C18 UNL     1     -28.678  24.742  95.019  1.00  0.00     0.050 C 
HETATM    5  C19 UNL     1     -28.848  25.684  93.875  1.00  0.00    -0.014 C 
HETATM    6 BR1  UNL     1     -28.716  24.935  92.151  1.00  0.00    -0.059 Br
ENDROOT
BRANCH   1   7
HETATM    7  C3  UNL     1     -29.062  28.089  93.843  1.00  0.00     0.273 C 
HETATM    8  O2  UNL     1     -29.254  28.313  92.622  1.00  0.00    -0.264 OA
BRANCH   7   9
HETATM    9  O1  UNL     1     -29.702  28.927  94.675  1.00  0.00    -0.321 OA
BRANCH   9  10
HETATM   10  C2  UNL     1     -31.049  29.214  94.781  1.00  0.00     0.174 C 
HETATM   11  C1  UNL     1     -31.478  29.747  96.119  1.00  0.00     0.034 C 
ENDBRANCH   9  10
ENDBRANCH   7   9
ENDBRANCH   1   7
BRANCH   1  12
HETATM   12  C5  UNL     1     -26.743  27.169  93.890  1.00  0.00    -0.018 C 
HETATM   13  C6  UNL     1     -25.892  25.928  93.806  1.00  0.00     0.015 C 
HETATM   14  C7  UNL     1     -24.423  26.244  93.625  1.00  0.00    -0.013 C 
HETATM   15  C8  UNL     1     -24.257  26.875  92.284  1.00  0.00     0.009 C 
HETATM   16  C12 UNL     1     -23.886  27.114  94.737  1.00  0.00     0.009 C 
HETATM   17  C9  UNL     1     -25.055  28.148  92.306  1.00  0.00    -0.013 C 
HETATM   18  C10 UNL     1     -24.477  29.073  93.367  1.00  0.00     0.009 C 
HETATM   19  C14 UNL     1     -26.509  27.941  92.603  1.00  0.00     0.015 C 
HETATM   20  C11 UNL     1     -24.694  28.405  94.684  1.00  0.00    -0.013 C 
HETATM   21  C13 UNL     1     -26.123  28.039  94.964  1.00  0.00     0.015 C 
ENDBRANCH   1  12
BRANCH   3  22
HETATM   22  C17 UNL     1     -28.784  25.344  97.562  1.00  0.00     0.169 C 
BRANCH  22  23
HETATM   23  O3  UNL     1     -29.719  26.194  98.102  1.00  0.00    -0.400 OA
ATOM     24  H3  UNL     1     -29.958  25.868  98.961  1.00  0.00     0.209 HD
ENDBRANCH  22  23
ENDBRANCH   3  22
TORSDOF 6
ENDMDL
MODEL 5
REMARK VINA RESULT: -8.870056868      2.205      4.526
REMARK  6 active torsions:
REMARK  status: ('A' for Active; 'I' for Inactive)
REMARK    1  A    between atoms: C2_2  and  O1_3 
REMARK    2  A    between atoms: O1_3  and  C3_4 
REMARK    3  A    between atoms: C3_4  and  C4_6 
REMARK    4  A    between atoms: C4_6  and  C5_7 
REMARK    5  A    between atoms: C16_18  and  C17_19 
REMARK    6  A    between atoms: C17_19  and  O3_20 
ROOT
HETATM    1  C4  UNL     1     -27.145  26.735  93.927  1.00  0.00     0.086 C 
HETATM    2  C15 UNL     1     -28.052  25.864  94.801  1.00  0.00     0.033 C 
HETATM    3  C16 UNL     1     -27.834  26.084  96.062  1.00  0.00     0.015 C 
HETATM    4  C18 UNL     1     -26.789  27.115  96.274  1.00  0.00     0.050 C 
HETATM    5  C19 UNL     1     -26.143  27.098  94.930  1.00  0.00    -0.014 C 
HETATM    6 BR1  UNL     1     -24.911  28.481  94.579  1.00  0.00    -0.059 Br
ENDROOT
BRANCH   1   7
HETATM    7  C3  UNL     1     -26.561  25.700  93.006  1.00  0.00     0.273 C 
HETATM    8  O2  UNL     1     -27.118  24.574  92.996  1.00  0.00    -0.264 OA
BRANCH   7   9
HETATM    9  O1  UNL     1     -25.509  25.814  92.179  1.00  0.00    -0.321 OA
BRANCH   9  10
HETATM   10  C2  UNL     1     -24.258  25.234  92.251  1.00  0.00     0.174 C 
HETATM   11  C1  UNL     1     -23.243  25.799  91.299  1.00  0.00     0.034 C 
ENDBRANCH   9  10
ENDBRANCH   7   9
ENDBRANCH   1   7
BRANCH   1  12
HETATM   12  C5  UNL     1     -28.008  27.716  93.263  1.00  0.00    -0.018 C 
HETATM   13  C6  UNL     1     -28.603  28.765  94.169  1.00  0.00     0.015 C 
HETATM   14  C7  UNL     1     -29.581  29.666  93.446  1.00  0.00    -0.013 C 
HETATM   15  C8  UNL     1     -28.813  30.460  92.446  1.00  0.00     0.009 C 
HETATM   16  C12 UNL     1     -30.712  28.889  92.814  1.00  0.00     0.009 C 
HETATM   17  C9  UNL     1     -28.217  29.475  91.480  1.00  0.00    -0.013 C 
HETATM   18  C10 UNL     1     -29.344  28.737  90.772  1.00  0.00     0.009 C 
HETATM   19  C14 UNL     1     -27.325  28.461  92.130  1.00  0.00     0.015 C 
HETATM   20  C11 UNL     1     -30.059  27.942  91.813  1.00  0.00    -0.013 C 
HETATM   21  C13 UNL     1     -29.176  27.016  92.599  1.00  0.00     0.015 C 
ENDBRANCH   1  12
BRANCH   3  22
HETATM   22  C17 UNL     1     -28.546  25.402  97.179  1.00  0.00     0.169 C 
BRANCH  22  23
HETATM   23  O3  UNL     1     -29.420  26.298  97.746  1.00  0.00    -0.400 OA
ATOM     24  H3  UNL     1     -29.292  26.286  98.686  1.00  0.00     0.209 HD
ENDBRANCH  22  23
ENDBRANCH   3  22
TORSDOF 6
ENDMDL
