MODEL 1
REMARK VINA RESULT: -8.153794780      0.000      0.000
REMARK  5 active torsions:
REMARK  status: ('A' for Active; 'I' for Inactive)
REMARK    1  A    between atoms: C2_2  and  C3_3 
REMARK    2  A    between atoms: C3_3  and  C4_4 
REMARK    3  A    between atoms: C4_4  and  C5_5 
REMARK       I    between atoms: C5_5  and  N1_7 
REMARK    4  A    between atoms: N1_7  and  C6_9 
REMARK    5  A    between atoms: N3_16  and  C10_17 
ROOT
HETATM    1  C6  UNL     1     -27.985  27.956  94.020  1.00  0.00     0.144 A 
HETATM    2  C7  UNL     1     -29.163  28.543  93.596  1.00  0.00     0.080 A 
HETATM    3 BR1  UNL     1     -30.674  29.047  94.664  1.00  0.00    -0.045 Br
HETATM    4  C8  UNL     1     -29.027  28.692  92.230  1.00  0.00     0.043 A 
HETATM    5  C9  UNL     1     -30.081  29.290  91.372  1.00  0.00     0.071 C 
HETATM    6  N2  UNL     1     -27.820  28.209  91.901  1.00  0.00    -0.300 N 
ATOM      7  H2  UNL     1     -27.445  28.188  90.953  1.00  0.00     0.187 HD
HETATM    8  N3  UNL     1     -27.186  27.766  92.964  1.00  0.00    -0.270 N 
ENDROOT
BRANCH   1   9
HETATM    9  N1  UNL     1     -27.686  27.642  95.208  1.00  0.00    -0.311 N 
HETATM   10  C5  UNL     1     -28.154  26.599  96.005  1.00  0.00     0.223 C 
HETATM   11  O1  UNL     1     -29.277  26.727  96.599  1.00  0.00    -0.273 OA
ATOM     12  H1  UNL     1     -26.995  28.247  95.652  1.00  0.00     0.170 HD
BRANCH  10  13
HETATM   13  C4  UNL     1     -27.406  25.332  96.201  1.00  0.00     0.103 C 
BRANCH  13  14
HETATM   14  C3  UNL     1     -27.450  24.485  94.957  1.00  0.00     0.009 C 
BRANCH  14  15
HETATM   15  C2  UNL     1     -28.835  24.153  94.518  1.00  0.00    -0.004 C 
HETATM   16  C1  UNL     1     -28.992  24.613  93.078  1.00  0.00     0.005 C 
ENDBRANCH  14  15
ENDBRANCH  13  14
ENDBRANCH  10  13
ENDBRANCH   1   9
BRANCH   8  17
HETATM   17  C10 UNL     1     -25.880  27.196  92.912  1.00  0.00     0.115 C 
HETATM   18  C11 UNL     1     -24.894  28.086  92.174  1.00  0.00     0.059 C 
HETATM   19  C12 UNL     1     -23.528  27.419  92.335  1.00  0.00     0.124 C 
HETATM   20  C13 UNL     1     -23.047  26.784  91.071  1.00  0.00     0.034 C 
HETATM   21  O2  UNL     1     -23.575  26.351  93.227  1.00  0.00    -0.380 OA
HETATM   22  C14 UNL     1     -23.619  25.374  91.146  1.00  0.00     0.034 C 
HETATM   23  C15 UNL     1     -24.302  25.408  92.502  1.00  0.00     0.124 C 
HETATM   24  C16 UNL     1     -25.772  25.833  92.336  1.00  0.00     0.059 C 
ENDBRANCH   8  17
TORSDOF 5
ENDMDL
MODEL 2
REMARK VINA RESULT: -7.750423170      0.967      1.557
REMARK  5 active torsions:
REMARK  status: ('A' for Active; 'I' for Inactive)
REMARK    1  A    between atoms: C2_2  and  C3_3 
REMARK    2  A    between atoms: C3_3  and  C4_4 
REMARK    3  A    between atoms: C4_4  and  C5_5 
REMARK       I    between atoms: C5_5  and  N1_7 
REMARK    4  A    between atoms: N1_7  and  C6_9 
REMARK    5  A    between atoms: N3_16  and  C10_17 
ROOT
HETATM    1  C6  UNL     1     -28.335  27.908  93.650  1.00  0.00     0.144 A 
HETATM    2  C7  UNL     1     -29.208  28.912  93.271  1.00  0.00     0.080 A 
HETATM    3 BR1  UNL     1     -30.902  29.352  94.055  1.00  0.00    -0.045 Br
HETATM    4  C8  UNL     1     -28.602  29.539  92.201  1.00  0.00     0.043 A 
HETATM    5  C9  UNL     1     -29.212  30.689  91.485  1.00  0.00     0.071 C 
HETATM    6  N2  UNL     1     -27.436  28.913  91.987  1.00  0.00    -0.300 N 
ATOM      7  H2  UNL     1     -26.771  29.162  91.255  1.00  0.00     0.187 HD
HETATM    8  N3  UNL     1     -27.264  27.934  92.849  1.00  0.00    -0.270 N 
ENDROOT
BRANCH   1   9
HETATM    9  N1  UNL     1     -28.499  27.087  94.597  1.00  0.00    -0.311 N 
HETATM   10  C5  UNL     1     -29.240  25.906  94.642  1.00  0.00     0.223 C 
HETATM   11  O1  UNL     1     -30.501  25.971  94.829  1.00  0.00    -0.273 OA
ATOM     12  H1  UNL     1     -28.015  27.326  95.462  1.00  0.00     0.170 HD
BRANCH  10  13
HETATM   13  C4  UNL     1     -28.630  24.562  94.484  1.00  0.00     0.103 C 
BRANCH  13  14
HETATM   14  C3  UNL     1     -27.334  24.468  95.244  1.00  0.00     0.009 C 
BRANCH  14  15
HETATM   15  C2  UNL     1     -27.350  25.218  96.532  1.00  0.00    -0.004 C 
HETATM   16  C1  UNL     1     -26.109  26.095  96.578  1.00  0.00     0.005 C 
ENDBRANCH  14  15
ENDBRANCH  13  14
ENDBRANCH  10  13
ENDBRANCH   1   9
BRANCH   8  17
HETATM   17  C10 UNL     1     -26.110  27.096  92.859  1.00  0.00     0.115 C 
HETATM   18  C11 UNL     1     -24.863  27.831  92.397  1.00  0.00     0.059 C 
HETATM   19  C12 UNL     1     -23.703  26.856  92.606  1.00  0.00     0.124 C 
HETATM   20  C13 UNL     1     -23.180  26.305  91.320  1.00  0.00     0.034 C 
HETATM   21  O2  UNL     1     -24.103  25.717  93.298  1.00  0.00    -0.380 OA
HETATM   22  C14 UNL     1     -24.035  25.064  91.095  1.00  0.00     0.034 C 
HETATM   23  C15 UNL     1     -24.891  25.069  92.349  1.00  0.00     0.124 C 
HETATM   24  C16 UNL     1     -26.201  25.834  92.084  1.00  0.00     0.059 C 
ENDBRANCH   8  17
TORSDOF 5
ENDMDL
MODEL 3
REMARK VINA RESULT: -7.583474879      1.215      1.650
REMARK  5 active torsions:
REMARK  status: ('A' for Active; 'I' for Inactive)
REMARK    1  A    between atoms: C2_2  and  C3_3 
REMARK    2  A    between atoms: C3_3  and  C4_4 
REMARK    3  A    between atoms: C4_4  and  C5_5 
REMARK       I    between atoms: C5_5  and  N1_7 
REMARK    4  A    between atoms: N1_7  and  C6_9 
REMARK    5  A    between atoms: N3_16  and  C10_17 
ROOT
HETATM    1  C6  UNL     1     -28.177  28.256  94.019  1.00  0.00     0.144 A 
HETATM    2  C7  UNL     1     -29.392  28.711  93.537  1.00  0.00     0.080 A 
HETATM    3 BR1  UNL     1     -31.118  28.535  94.355  1.00  0.00    -0.045 Br
HETATM    4  C8  UNL     1     -29.103  29.324  92.335  1.00  0.00     0.043 A 
HETATM    5  C9  UNL     1     -30.140  29.954  91.479  1.00  0.00     0.071 C 
HETATM    6  N2  UNL     1     -27.780  29.218  92.147  1.00  0.00    -0.300 N 
ATOM      7  H2  UNL     1     -27.279  29.582  91.337  1.00  0.00     0.187 HD
HETATM    8  N3  UNL     1     -27.214  28.581  93.149  1.00  0.00    -0.270 N 
ENDROOT
BRANCH   1   9
HETATM    9  N1  UNL     1     -27.983  27.635  95.102  1.00  0.00    -0.311 N 
HETATM   10  C5  UNL     1     -28.354  26.343  95.474  1.00  0.00     0.223 C 
HETATM   11  O1  UNL     1     -29.548  26.131  95.872  1.00  0.00    -0.273 OA
ATOM     12  H1  UNL     1     -27.475  28.160  95.814  1.00  0.00     0.170 HD
BRANCH  10  13
HETATM   13  C4  UNL     1     -27.421  25.189  95.432  1.00  0.00     0.103 C 
BRANCH  13  14
HETATM   14  C3  UNL     1     -27.786  24.245  94.319  1.00  0.00     0.009 C 
BRANCH  14  15
HETATM   15  C2  UNL     1     -27.321  24.704  92.978  1.00  0.00    -0.004 C 
HETATM   16  C1  UNL     1     -28.546  25.080  92.161  1.00  0.00     0.005 C 
ENDBRANCH  14  15
ENDBRANCH  13  14
ENDBRANCH  10  13
ENDBRANCH   1   9
BRANCH   8  17
HETATM   17  C10 UNL     1     -25.813  28.324  93.219  1.00  0.00     0.115 C 
HETATM   18  C11 UNL     1     -25.409  27.114  92.392  1.00  0.00     0.059 C 
HETATM   19  C12 UNL     1     -23.882  27.062  92.447  1.00  0.00     0.124 C 
HETATM   20  C13 UNL     1     -23.378  25.948  93.304  1.00  0.00     0.034 C 
HETATM   21  O2  UNL     1     -23.347  28.194  93.053  1.00  0.00    -0.380 OA
HETATM   22  C14 UNL     1     -23.293  26.579  94.688  1.00  0.00     0.034 C 
HETATM   23  C15 UNL     1     -23.716  28.006  94.384  1.00  0.00     0.124 C 
HETATM   24  C16 UNL     1     -25.236  28.153  94.575  1.00  0.00     0.059 C 
ENDBRANCH   8  17
TORSDOF 5
ENDMDL
MODEL 4
REMARK VINA RESULT: -7.410363030      1.605      1.962
REMARK  5 active torsions:
REMARK  status: ('A' for Active; 'I' for Inactive)
REMARK    1  A    between atoms: C2_2  and  C3_3 
REMARK    2  A    between atoms: C3_3  and  C4_4 
REMARK    3  A    between atoms: C4_4  and  C5_5 
REMARK       I    between atoms: C5_5  and  N1_7 
REMARK    4  A    between atoms: N1_7  and  C6_9 
REMARK    5  A    between atoms: N3_16  and  C10_17 
ROOT
HETATM    1  C6  UNL     1     -27.855  27.506  93.347  1.00  0.00     0.144 A 
HETATM    2  C7  UNL     1     -29.065  28.098  93.034  1.00  0.00     0.080 A 
HETATM    3 BR1  UNL     1     -30.738  27.904  93.952  1.00  0.00    -0.045 Br
HETATM    4  C8  UNL     1     -28.820  28.865  91.913  1.00  0.00     0.043 A 
HETATM    5  C9  UNL     1     -29.867  29.676  91.242  1.00  0.00     0.071 C 
HETATM    6  N2  UNL     1     -27.523  28.710  91.608  1.00  0.00    -0.300 N 
ATOM      7  H2  UNL     1     -27.056  29.161  90.821  1.00  0.00     0.187 HD
HETATM    8  N3  UNL     1     -26.934  27.900  92.459  1.00  0.00    -0.270 N 
ENDROOT
BRANCH   1   9
HETATM    9  N1  UNL     1     -27.629  26.720  94.310  1.00  0.00    -0.311 N 
HETATM   10  C5  UNL     1     -26.912  26.926  95.488  1.00  0.00     0.223 C 
HETATM   11  O1  UNL     1     -25.638  26.841  95.462  1.00  0.00    -0.273 OA
ATOM     12  H1  UNL     1     -28.034  25.789  94.209  1.00  0.00     0.170 HD
BRANCH  10  13
HETATM   13  C4  UNL     1     -27.560  27.243  96.785  1.00  0.00     0.103 C 
BRANCH  13  14
HETATM   14  C3  UNL     1     -28.861  26.499  96.930  1.00  0.00     0.009 C 
BRANCH  14  15
HETATM   15  C2  UNL     1     -28.689  25.097  97.405  1.00  0.00    -0.004 C 
HETATM   16  C1  UNL     1     -29.310  24.991  98.789  1.00  0.00     0.005 C 
ENDBRANCH  14  15
ENDBRANCH  13  14
ENDBRANCH  10  13
ENDBRANCH   1   9
BRANCH   8  17
HETATM   17  C10 UNL     1     -25.553  27.553  92.380  1.00  0.00     0.115 C 
HETATM   18  C11 UNL     1     -24.791  28.446  91.416  1.00  0.00     0.059 C 
HETATM   19  C12 UNL     1     -23.320  28.052  91.555  1.00  0.00     0.124 C 
HETATM   20  C13 UNL     1     -22.817  27.290  90.373  1.00  0.00     0.034 C 
HETATM   21  O2  UNL     1     -23.120  27.166  92.610  1.00  0.00    -0.380 OA
HETATM   22  C14 UNL     1     -23.123  25.841  90.731  1.00  0.00     0.034 C 
HETATM   23  C15 UNL     1     -23.712  26.003  92.122  1.00  0.00     0.124 C 
HETATM   24  C16 UNL     1     -25.242  26.145  92.028  1.00  0.00     0.059 C 
ENDBRANCH   8  17
TORSDOF 5
ENDMDL
MODEL 5
REMARK VINA RESULT: -7.371468141      2.458      5.584
REMARK  5 active torsions:
REMARK  status: ('A' for Active; 'I' for Inactive)
REMARK    1  A    between atoms: C2_2  and  C3_3 
REMARK    2  A    between atoms: C3_3  and  C4_4 
REMARK    3  A    between atoms: C4_4  and  C5_5 
REMARK       I    between atoms: C5_5  and  N1_7 
REMARK    4  A    between atoms: N1_7  and  C6_9 
REMARK    5  A    between atoms: N3_16  and  C10_17 
ROOT
HETATM    1  C6  UNL     1     -26.038  27.553  92.769  1.00  0.00     0.144 A 
HETATM    2  C7  UNL     1     -24.820  27.355  92.144  1.00  0.00     0.080 A 
HETATM    3 BR1  UNL     1     -23.888  28.564  90.982  1.00  0.00    -0.045 Br
HETATM    4  C8  UNL     1     -24.409  26.096  92.531  1.00  0.00     0.043 A 
HETATM    5  C9  UNL     1     -23.133  25.486  92.078  1.00  0.00     0.071 C 
HETATM    6  N2  UNL     1     -25.358  25.606  93.342  1.00  0.00    -0.300 N 
ATOM      7  H2  UNL     1     -25.323  24.686  93.783  1.00  0.00     0.187 HD
HETATM    8  N3  UNL     1     -26.338  26.468  93.493  1.00  0.00    -0.270 N 
ENDROOT
BRANCH   1   9
HETATM    9  N1  UNL     1     -26.767  28.582  92.687  1.00  0.00    -0.311 N 
HETATM   10  C5  UNL     1     -27.788  28.889  91.789  1.00  0.00     0.223 C 
HETATM   11  O1  UNL     1     -27.485  29.333  90.632  1.00  0.00    -0.273 OA
ATOM     12  H1  UNL     1     -26.578  29.300  93.387  1.00  0.00     0.170 HD
BRANCH  10  13
HETATM   13  C4  UNL     1     -29.228  28.725  92.115  1.00  0.00     0.103 C 
BRANCH  13  14
HETATM   14  C3  UNL     1     -29.565  29.404  93.415  1.00  0.00     0.009 C 
BRANCH  14  15
HETATM   15  C2  UNL     1     -30.869  28.965  93.989  1.00  0.00    -0.004 C 
HETATM   16  C1  UNL     1     -31.030  29.631  95.346  1.00  0.00     0.005 C 
ENDBRANCH  14  15
ENDBRANCH  13  14
ENDBRANCH  10  13
ENDBRANCH   1   9
BRANCH   8  17
HETATM   17  C10 UNL     1     -27.484  26.215  94.303  1.00  0.00     0.115 C 
HETATM   18  C11 UNL     1     -27.495  27.063  95.564  1.00  0.00     0.059 C 
HETATM   19  C12 UNL     1     -28.840  26.790  96.238  1.00  0.00     0.124 C 
HETATM   20  C13 UNL     1     -28.704  25.955  97.469  1.00  0.00     0.034 C 
HETATM   21  O2  UNL     1     -29.679  26.028  95.431  1.00  0.00    -0.380 OA
HETATM   22  C14 UNL     1     -28.807  24.530  96.941  1.00  0.00     0.034 C 
HETATM   23  C15 UNL     1     -29.052  24.783  95.464  1.00  0.00     0.124 C 
HETATM   24  C16 UNL     1     -27.711  24.806  94.708  1.00  0.00     0.059 C 
ENDBRANCH   8  17
TORSDOF 5
ENDMDL
