MODEL 1
REMARK VINA RESULT: -8.442474900      0.000      0.000
REMARK  5 active torsions:
REMARK  status: ('A' for Active; 'I' for Inactive)
REMARK    1  A    between atoms: C2_2  and  N1_3 
REMARK    2  A    between atoms: N1_3  and  O1_4 
REMARK    3  A    between atoms: C3_6  and  C4_7 
REMARK    4  A    between atoms: C12_16  and  C13_17 
REMARK    5  A    between atoms: C13_17  and  C14_18 
REMARK       I    between atoms: C14_18  and  N2_20 
ROOT
HETATM    1  C1  UNL     1     -30.622  28.305  94.739  1.00  0.00     0.041 C 
HETATM    2  C2  UNL     1     -29.315  27.943  93.982  1.00  0.00     0.056 C 
HETATM    3  C5  UNL     1     -29.592  26.562  93.374  1.00  0.00     0.042 C 
HETATM    4  C6  UNL     1     -28.715  25.634  93.989  1.00  0.00    -0.037 C 
HETATM    5  C7  UNL     1     -28.492  24.204  93.629  1.00  0.00     0.010 C 
HETATM    6  C8  UNL     1     -27.609  23.878  94.871  1.00  0.00     0.005 C 
HETATM    7  C9  UNL     1     -27.940  24.861  95.936  1.00  0.00    -0.013 C 
HETATM    8  C10 UNL     1     -29.233  25.367  95.365  1.00  0.00     0.014 C 
HETATM    9  C11 UNL     1     -27.096  26.064  96.127  1.00  0.00     0.014 C 
HETATM   10  C12 UNL     1     -27.129  27.074  95.006  1.00  0.00    -0.029 C 
HETATM   11  C19 UNL     1     -27.333  26.192  93.818  1.00  0.00     0.019 C 
HETATM   12  C20 UNL     1     -28.248  28.053  94.978  1.00  0.00     0.043 C 
ENDROOT
BRANCH  10  13
HETATM   13  C13 UNL     1     -25.803  27.770  94.835  1.00  0.00     0.112 C 
BRANCH  13  14
HETATM   14  C14 UNL     1     -25.463  28.158  93.488  1.00  0.00     0.220 C 
HETATM   15  O2  UNL     1     -26.035  29.101  92.917  1.00  0.00    -0.273 OA
HETATM   16  N2  UNL     1     -24.466  27.470  92.789  1.00  0.00    -0.349 N 
HETATM   17  C15 UNL     1     -24.037  27.763  91.443  1.00  0.00     0.153 C 
HETATM   18  C18 UNL     1     -23.792  26.369  93.446  1.00  0.00     0.153 C 
HETATM   19  C16 UNL     1     -24.172  26.501  90.631  1.00  0.00     0.252 C 
HETATM   20  N3  UNL     1     -23.695  25.335  91.299  1.00  0.00    -0.072 N 
HETATM   21  C17 UNL     1     -22.935  25.594  92.483  1.00  0.00     0.252 C 
ATOM     22  H32 UNL     1     -24.468  24.704  91.505  1.00  0.00     0.277 HD
ATOM     23  H31 UNL     1     -23.159  24.753  90.655  1.00  0.00     0.277 HD
ENDBRANCH  13  14
ENDBRANCH  10  13
BRANCH   2  24
HETATM   24  N1  UNL     1     -29.318  28.853  92.865  1.00  0.00    -0.265 N 
HETATM   25  C3  UNL     1     -29.586  28.519  91.675  1.00  0.00     0.105 C 
BRANCH  24  26
HETATM   26  O1  UNL     1     -29.004  30.205  93.080  1.00  0.00    -0.287 OA
ATOM     27  H1  UNL     1     -28.165  30.432  93.465  1.00  0.00     0.244 HD
ENDBRANCH  24  26
BRANCH  25  28
HETATM   28  C4  UNL     1     -29.562  29.557  90.560  1.00  0.00     0.161 C 
HETATM   29 CL1  UNL     1     -27.876  29.602  89.957  1.00  0.00    -0.125 Cl
ENDBRANCH  25  28
ENDBRANCH   2  24
TORSDOF 5
ENDMDL
MODEL 2
REMARK VINA RESULT: -8.226985970      2.136      4.791
REMARK  5 active torsions:
REMARK  status: ('A' for Active; 'I' for Inactive)
REMARK    1  A    between atoms: C2_2  and  N1_3 
REMARK    2  A    between atoms: N1_3  and  O1_4 
REMARK    3  A    between atoms: C3_6  and  C4_7 
REMARK    4  A    between atoms: C12_16  and  C13_17 
REMARK    5  A    between atoms: C13_17  and  C14_18 
REMARK       I    between atoms: C14_18  and  N2_20 
ROOT
HETATM    1  C1  UNL     1     -23.320  26.484  94.564  1.00  0.00     0.041 C 
HETATM    2  C2  UNL     1     -24.687  27.022  94.059  1.00  0.00     0.056 C 
HETATM    3  C5  UNL     1     -25.279  27.761  95.266  1.00  0.00     0.042 C 
HETATM    4  C6  UNL     1     -26.446  27.065  95.671  1.00  0.00    -0.037 C 
HETATM    5  C7  UNL     1     -27.453  27.475  96.692  1.00  0.00     0.010 C 
HETATM    6  C8  UNL     1     -28.226  26.122  96.685  1.00  0.00     0.005 C 
HETATM    7  C9  UNL     1     -27.296  25.068  96.200  1.00  0.00    -0.013 C 
HETATM    8  C10 UNL     1     -26.009  25.822  96.376  1.00  0.00     0.014 C 
HETATM    9  C11 UNL     1     -27.318  24.652  94.777  1.00  0.00     0.014 C 
HETATM   10  C12 UNL     1     -26.863  25.692  93.782  1.00  0.00    -0.029 C 
HETATM   11  C19 UNL     1     -27.307  26.953  94.447  1.00  0.00     0.019 C 
HETATM   12  C20 UNL     1     -25.402  25.850  93.553  1.00  0.00     0.043 C 
ENDROOT
BRANCH  10  13
HETATM   13  C13 UNL     1     -27.603  25.581  92.474  1.00  0.00     0.112 C 
BRANCH  13  14
HETATM   14  C14 UNL     1     -28.851  26.301  92.392  1.00  0.00     0.220 C 
HETATM   15  O2  UNL     1     -29.938  25.750  92.633  1.00  0.00    -0.273 OA
HETATM   16  N2  UNL     1     -28.859  27.652  92.035  1.00  0.00    -0.349 N 
HETATM   17  C15 UNL     1     -30.038  28.477  91.920  1.00  0.00     0.153 C 
HETATM   18  C18 UNL     1     -27.597  28.303  91.751  1.00  0.00     0.153 C 
HETATM   19  C16 UNL     1     -30.050  29.074  90.537  1.00  0.00     0.252 C 
HETATM   20  N3  UNL     1     -28.782  29.571  90.115  1.00  0.00    -0.072 N 
HETATM   21  C17 UNL     1     -27.803  29.668  91.154  1.00  0.00     0.252 C 
ATOM     22  H32 UNL     1     -28.423  29.014  89.341  1.00  0.00     0.277 HD
ATOM     23  H31 UNL     1     -28.893  30.471  89.648  1.00  0.00     0.277 HD
ENDBRANCH  13  14
ENDBRANCH  10  13
BRANCH   2  24
HETATM   24  N1  UNL     1     -24.311  28.059  93.132  1.00  0.00    -0.265 N 
HETATM   25  C3  UNL     1     -23.775  27.847  92.006  1.00  0.00     0.105 C 
BRANCH  24  26
HETATM   26  O1  UNL     1     -24.540  29.402  93.474  1.00  0.00    -0.287 OA
ATOM     27  H1  UNL     1     -24.491  29.663  94.386  1.00  0.00     0.244 HD
ENDBRANCH  24  26
BRANCH  25  28
HETATM   28  C4  UNL     1     -23.412  29.013  91.095  1.00  0.00     0.161 C 
HETATM   29 CL1  UNL     1     -21.879  28.558  90.289  1.00  0.00    -0.125 Cl
ENDBRANCH  25  28
ENDBRANCH   2  24
TORSDOF 5
ENDMDL
MODEL 3
REMARK VINA RESULT: -8.128613789      1.862      4.608
REMARK  5 active torsions:
REMARK  status: ('A' for Active; 'I' for Inactive)
REMARK    1  A    between atoms: C2_2  and  N1_3 
REMARK    2  A    between atoms: N1_3  and  O1_4 
REMARK    3  A    between atoms: C3_6  and  C4_7 
REMARK    4  A    between atoms: C12_16  and  C13_17 
REMARK    5  A    between atoms: C13_17  and  C14_18 
REMARK       I    between atoms: C14_18  and  N2_20 
ROOT
HETATM    1  C1  UNL     1     -25.939  24.910  92.622  1.00  0.00     0.041 C 
HETATM    2  C2  UNL     1     -26.497  26.189  93.304  1.00  0.00     0.056 C 
HETATM    3  C5  UNL     1     -25.820  26.217  94.680  1.00  0.00     0.042 C 
HETATM    4  C6  UNL     1     -26.827  26.047  95.663  1.00  0.00    -0.037 C 
HETATM    5  C7  UNL     1     -26.695  26.160  97.144  1.00  0.00     0.010 C 
HETATM    6  C8  UNL     1     -28.125  25.626  97.459  1.00  0.00     0.005 C 
HETATM    7  C9  UNL     1     -28.569  24.803  96.303  1.00  0.00    -0.013 C 
HETATM    8  C10 UNL     1     -27.229  24.607  95.654  1.00  0.00     0.014 C 
HETATM    9  C11 UNL     1     -29.433  25.395  95.255  1.00  0.00     0.014 C 
HETATM   10  C12 UNL     1     -28.795  26.470  94.408  1.00  0.00    -0.029 C 
HETATM   11  C19 UNL     1     -27.859  27.101  95.386  1.00  0.00     0.019 C 
HETATM   12  C20 UNL     1     -27.953  26.048  93.258  1.00  0.00     0.043 C 
ENDROOT
BRANCH  10  13
HETATM   13  C13 UNL     1     -29.792  27.520  93.988  1.00  0.00     0.112 C 
BRANCH  13  14
HETATM   14  C14 UNL     1     -30.064  27.599  92.573  1.00  0.00     0.220 C 
HETATM   15  O2  UNL     1     -30.551  26.643  91.948  1.00  0.00    -0.273 OA
HETATM   16  N2  UNL     1     -29.784  28.774  91.869  1.00  0.00    -0.349 N 
HETATM   17  C15 UNL     1     -30.012  28.976  90.458  1.00  0.00     0.153 C 
HETATM   18  C18 UNL     1     -29.217  29.896  92.588  1.00  0.00     0.153 C 
HETATM   19  C16 UNL     1     -28.707  29.398  89.836  1.00  0.00     0.252 C 
HETATM   20  N3  UNL     1     -27.998  30.375  90.595  1.00  0.00    -0.072 N 
HETATM   21  C17 UNL     1     -28.756  30.976  91.649  1.00  0.00     0.252 C 
ATOM     22  H32 UNL     1     -27.133  29.979  90.961  1.00  0.00     0.277 HD
ATOM     23  H31 UNL     1     -27.616  31.093  89.979  1.00  0.00     0.277 HD
ENDBRANCH  13  14
ENDBRANCH  10  13
BRANCH   2  24
HETATM   24  N1  UNL     1     -25.880  27.257  92.560  1.00  0.00    -0.265 N 
HETATM   25  C3  UNL     1     -24.855  27.117  91.831  1.00  0.00     0.105 C 
BRANCH  24  26
HETATM   26  O1  UNL     1     -26.427  28.548  92.630  1.00  0.00    -0.287 OA
ATOM     27  H1  UNL     1     -27.289  28.667  93.013  1.00  0.00     0.244 HD
ENDBRANCH  24  26
BRANCH  25  28
HETATM   28  C4  UNL     1     -24.275  28.310  91.083  1.00  0.00     0.161 C 
HETATM   29 CL1  UNL     1     -22.639  27.815  90.546  1.00  0.00    -0.125 Cl
ENDBRANCH  25  28
ENDBRANCH   2  24
TORSDOF 5
ENDMDL
MODEL 4
REMARK VINA RESULT: -7.995860838      2.516      5.818
REMARK  5 active torsions:
REMARK  status: ('A' for Active; 'I' for Inactive)
REMARK    1  A    between atoms: C2_2  and  N1_3 
REMARK    2  A    between atoms: N1_3  and  O1_4 
REMARK    3  A    between atoms: C3_6  and  C4_7 
REMARK    4  A    between atoms: C12_16  and  C13_17 
REMARK    5  A    between atoms: C13_17  and  C14_18 
REMARK       I    between atoms: C14_18  and  N2_20 
ROOT
HETATM    1  C1  UNL     1     -24.518  28.750  95.285  1.00  0.00     0.041 C 
HETATM    2  C2  UNL     1     -25.266  27.599  94.558  1.00  0.00     0.056 C 
HETATM    3  C5  UNL     1     -24.177  26.560  94.261  1.00  0.00     0.042 C 
HETATM    4  C6  UNL     1     -24.033  26.473  92.854  1.00  0.00    -0.037 C 
HETATM    5  C7  UNL     1     -23.219  25.498  92.072  1.00  0.00     0.010 C 
HETATM    6  C8  UNL     1     -23.421  26.209  90.699  1.00  0.00     0.005 C 
HETATM    7  C9  UNL     1     -23.745  27.635  90.968  1.00  0.00    -0.013 C 
HETATM    8  C10 UNL     1     -23.294  27.690  92.399  1.00  0.00     0.014 C 
HETATM    9  C11 UNL     1     -25.156  28.089  90.980  1.00  0.00     0.014 C 
HETATM   10  C12 UNL     1     -26.009  27.551  92.104  1.00  0.00    -0.029 C 
HETATM   11  C19 UNL     1     -25.406  26.200  92.312  1.00  0.00     0.019 C 
HETATM   12  C20 UNL     1     -25.940  28.232  93.423  1.00  0.00     0.043 C 
ENDROOT
BRANCH  10  13
HETATM   13  C13 UNL     1     -27.440  27.351  91.677  1.00  0.00     0.112 C 
BRANCH  13  14
HETATM   14  C14 UNL     1     -28.320  28.478  91.871  1.00  0.00     0.220 C 
HETATM   15  O2  UNL     1     -28.073  29.591  91.377  1.00  0.00    -0.273 OA
HETATM   16  N2  UNL     1     -29.485  28.337  92.630  1.00  0.00    -0.349 N 
HETATM   17  C15 UNL     1     -30.441  29.386  92.894  1.00  0.00     0.153 C 
HETATM   18  C18 UNL     1     -29.783  27.044  93.210  1.00  0.00     0.153 C 
HETATM   19  C16 UNL     1     -30.598  29.500  94.387  1.00  0.00     0.252 C 
HETATM   20  N3  UNL     1     -30.710  28.244  95.052  1.00  0.00    -0.072 N 
HETATM   21  C17 UNL     1     -30.927  27.127  94.183  1.00  0.00     0.252 C 
ATOM     22  H32 UNL     1     -29.894  28.081  95.641  1.00  0.00     0.277 HD
ATOM     23  H31 UNL     1     -31.438  28.284  95.765  1.00  0.00     0.277 HD
ENDBRANCH  13  14
ENDBRANCH  10  13
BRANCH   2  24
HETATM   24  N1  UNL     1     -26.068  27.015  95.603  1.00  0.00    -0.265 N 
HETATM   25  C3  UNL     1     -27.311  27.209  95.739  1.00  0.00     0.105 C 
BRANCH  24  26
HETATM   26  O1  UNL     1     -25.458  26.173  96.547  1.00  0.00    -0.287 OA
ATOM     27  H1  UNL     1     -25.929  25.411  96.863  1.00  0.00     0.244 HD
ENDBRANCH  24  26
BRANCH  25  28
HETATM   28  C4  UNL     1     -28.072  26.545  96.880  1.00  0.00     0.161 C 
HETATM   29 CL1  UNL     1     -28.714  25.007  96.222  1.00  0.00    -0.125 Cl
ENDBRANCH  25  28
ENDBRANCH   2  24
TORSDOF 5
ENDMDL
MODEL 5
REMARK VINA RESULT: -7.847136098      1.875      5.293
REMARK  5 active torsions:
REMARK  status: ('A' for Active; 'I' for Inactive)
REMARK    1  A    between atoms: C2_2  and  N1_3 
REMARK    2  A    between atoms: N1_3  and  O1_4 
REMARK    3  A    between atoms: C3_6  and  C4_7 
REMARK    4  A    between atoms: C12_16  and  C13_17 
REMARK    5  A    between atoms: C13_17  and  C14_18 
REMARK       I    between atoms: C14_18  and  N2_20 
ROOT
HETATM    1  C1  UNL     1     -24.444  24.944  92.547  1.00  0.00     0.041 C 
HETATM    2  C2  UNL     1     -25.579  25.964  92.835  1.00  0.00     0.056 C 
HETATM    3  C5  UNL     1     -25.546  26.156  94.357  1.00  0.00     0.042 C 
HETATM    4  C6  UNL     1     -26.762  25.651  94.883  1.00  0.00    -0.037 C 
HETATM    5  C7  UNL     1     -27.269  25.752  96.282  1.00  0.00     0.010 C 
HETATM    6  C8  UNL     1     -28.478  24.792  96.068  1.00  0.00     0.005 C 
HETATM    7  C9  UNL     1     -28.160  23.909  94.915  1.00  0.00    -0.013 C 
HETATM    8  C10 UNL     1     -26.681  24.159  94.856  1.00  0.00     0.014 C 
HETATM    9  C11 UNL     1     -28.669  24.239  93.562  1.00  0.00     0.014 C 
HETATM   10  C12 UNL     1     -28.098  25.485  92.930  1.00  0.00    -0.029 C 
HETATM   11  C19 UNL     1     -27.860  26.342  94.130  1.00  0.00     0.019 C 
HETATM   12  C20 UNL     1     -26.784  25.381  92.242  1.00  0.00     0.043 C 
ENDROOT
BRANCH  10  13
HETATM   13  C13 UNL     1     -29.106  26.188  92.059  1.00  0.00     0.112 C 
BRANCH  13  14
HETATM   14  C14 UNL     1     -29.214  27.615  92.244  1.00  0.00     0.220 C 
HETATM   15  O2  UNL     1     -28.407  28.403  91.724  1.00  0.00    -0.273 OA
HETATM   16  N2  UNL     1     -30.246  28.146  93.024  1.00  0.00    -0.349 N 
HETATM   17  C15 UNL     1     -30.458  29.550  93.282  1.00  0.00     0.153 C 
HETATM   18  C18 UNL     1     -31.192  27.236  93.635  1.00  0.00     0.153 C 
HETATM   19  C16 UNL     1     -30.490  29.745  94.774  1.00  0.00     0.252 C 
HETATM   20  N3  UNL     1     -31.260  28.764  95.466  1.00  0.00    -0.072 N 
HETATM   21  C17 UNL     1     -32.077  27.944  94.624  1.00  0.00     0.252 C 
ATOM     22  H32 UNL     1     -30.655  28.183  96.046  1.00  0.00     0.277 HD
ATOM     23  H31 UNL     1     -31.828  29.204  96.189  1.00  0.00     0.277 HD
ENDBRANCH  13  14
ENDBRANCH  10  13
BRANCH   2  24
HETATM   24  N1  UNL     1     -25.063  27.194  92.290  1.00  0.00    -0.265 N 
HETATM   25  C3  UNL     1     -24.020  27.275  91.580  1.00  0.00     0.105 C 
BRANCH  24  26
HETATM   26  O1  UNL     1     -25.740  28.397  92.550  1.00  0.00    -0.287 OA
ATOM     27  H1  UNL     1     -25.460  28.939  93.278  1.00  0.00     0.244 HD
ENDBRANCH  24  26
BRANCH  25  28
HETATM   28  C4  UNL     1     -23.554  28.626  91.049  1.00  0.00     0.161 C 
HETATM   29 CL1  UNL     1     -21.970  28.334  90.265  1.00  0.00    -0.125 Cl
ENDBRANCH  25  28
ENDBRANCH   2  24
TORSDOF 5
ENDMDL
