MODEL 1
REMARK VINA RESULT: -8.119976175      0.000      0.000
REMARK  8 active torsions:
REMARK  status: ('A' for Active; 'I' for Inactive)
REMARK    1  A    between atoms: C7_7  and  C8_8 
REMARK       I    between atoms: C8_8  and  N1_10 
REMARK    2  A    between atoms: C10_12  and  S1_13 
REMARK    3  A    between atoms: S1_13  and  C11_16 
REMARK    4  A    between atoms: C18_25  and  C19_26 
REMARK       I    between atoms: C19_26  and  N2_28 
REMARK    5  A    between atoms: N2_28  and  C20_30 
REMARK    6  A    between atoms: C20_30  and  C23_33 
REMARK    7  A    between atoms: C23_33  and  C24_34 
REMARK    8  A    between atoms: C24_34  and  C25_35 
ROOT
HETATM    1  C8  UNL     1     -12.409  23.806  52.375  1.00  0.00     0.229 C 
HETATM    2  O1  UNL     1     -11.797  23.920  51.312  1.00  0.00    -0.272 OA
HETATM    3  N1  UNL     1     -12.445  25.041  53.138  1.00  0.00    -0.337 N 
HETATM    4  C9  UNL     1     -13.210  25.097  54.384  1.00  0.00     0.147 C 
HETATM    5  C10 UNL     1     -12.955  26.447  54.989  1.00  0.00     0.134 C 
HETATM    6  C17 UNL     1     -11.743  26.957  54.264  1.00  0.00     0.057 C 
HETATM    7  C18 UNL     1     -11.865  26.289  52.892  1.00  0.00     0.180 C 
ENDROOT
BRANCH   5   8
HETATM    8  S1  UNL     1     -12.615  26.313  56.732  1.00  0.00     0.181 S 
HETATM    9  O2  UNL     1     -11.495  25.308  56.915  1.00  0.00    -0.222 OA
HETATM   10  O3  UNL     1     -12.182  27.667  57.223  1.00  0.00    -0.222 OA
BRANCH   8  11
HETATM   11  C11 UNL     1     -14.040  25.757  57.547  1.00  0.00     0.065 A 
HETATM   12  C12 UNL     1     -13.990  24.580  58.272  1.00  0.00     0.065 A 
HETATM   13  C13 UNL     1     -15.124  24.118  58.932  1.00  0.00     0.120 A 
HETATM   14  F1  UNL     1     -15.007  22.964  59.621  1.00  0.00    -0.206 F 
HETATM   15  C14 UNL     1     -16.284  24.847  58.848  1.00  0.00     0.084 A 
HETATM   16  C15 UNL     1     -16.327  26.028  58.117  1.00  0.00     0.120 A 
HETATM   17  F2  UNL     1     -17.471  26.737  58.046  1.00  0.00    -0.206 F 
HETATM   18  C16 UNL     1     -15.215  26.496  57.461  1.00  0.00     0.065 A 
ENDBRANCH   8  11
ENDBRANCH   5   8
BRANCH   7  19
HETATM   19  C19 UNL     1     -10.523  26.369  52.319  1.00  0.00     0.241 C 
HETATM   20  O4  UNL     1      -9.466  26.321  52.968  1.00  0.00    -0.271 OA
HETATM   21  N2  UNL     1     -10.423  26.513  50.893  1.00  0.00    -0.351 N 
ATOM     22  H2  UNL     1     -11.273  26.555  50.331  1.00  0.00     0.163 HD
BRANCH  21  23
HETATM   23  C20 UNL     1      -9.131  26.600  50.243  1.00  0.00     0.025 C 
HETATM   24  C21 UNL     1      -9.389  26.528  48.738  1.00  0.00     0.038 C 
HETATM   25  C22 UNL     1      -8.223  25.460  50.610  1.00  0.00     0.038 C 
BRANCH  23  26
HETATM   26  C23 UNL     1      -8.503  27.933  50.493  1.00  0.00     0.031 C 
BRANCH  26  27
HETATM   27  C24 UNL     1      -8.728  28.917  49.381  1.00  0.00     0.013 C 
BRANCH  27  28
HETATM   28  C25 UNL     1      -9.556  30.087  49.935  1.00  0.00     0.086 C 
HETATM   29  S2  UNL     1      -9.487  30.137  51.744  1.00  0.00    -0.098 SA
ENDBRANCH  27  28
ENDBRANCH  26  27
ENDBRANCH  23  26
ENDBRANCH  21  23
ENDBRANCH   7  19
BRANCH   1  30
HETATM   30  C7  UNL     1     -13.084  22.678  52.991  1.00  0.00     0.046 A 
HETATM   31  C5  UNL     1     -12.783  21.191  52.672  1.00  0.00     0.005 A 
HETATM   32  C4  UNL     1     -11.392  21.267  53.063  1.00  0.00     0.014 C 
HETATM   33  C6  UNL     1     -13.804  21.900  52.025  1.00  0.00     0.025 A 
HETATM   34  C2  UNL     1     -11.553  21.736  54.505  1.00  0.00    -0.046 C 
HETATM   35  C1  UNL     1     -11.846  20.550  55.418  1.00  0.00     0.015 C 
HETATM   36  C3  UNL     1     -10.416  22.473  55.044  1.00  0.00     0.015 C 
HETATM   37  C26 UNL     1     -12.857  22.548  54.437  1.00  0.00     0.028 C 
ENDBRANCH   1  30
TORSDOF 8
ENDMDL
MODEL 2
REMARK VINA RESULT: -8.081787955      0.034      1.382
REMARK  8 active torsions:
REMARK  status: ('A' for Active; 'I' for Inactive)
REMARK    1  A    between atoms: C7_7  and  C8_8 
REMARK       I    between atoms: C8_8  and  N1_10 
REMARK    2  A    between atoms: C10_12  and  S1_13 
REMARK    3  A    between atoms: S1_13  and  C11_16 
REMARK    4  A    between atoms: C18_25  and  C19_26 
REMARK       I    between atoms: C19_26  and  N2_28 
REMARK    5  A    between atoms: N2_28  and  C20_30 
REMARK    6  A    between atoms: C20_30  and  C23_33 
REMARK    7  A    between atoms: C23_33  and  C24_34 
REMARK    8  A    between atoms: C24_34  and  C25_35 
ROOT
HETATM    1  C8  UNL     1     -12.412  23.825  52.400  1.00  0.00     0.229 C 
HETATM    2  O1  UNL     1     -11.804  23.941  51.335  1.00  0.00    -0.272 OA
HETATM    3  N1  UNL     1     -12.448  25.059  53.165  1.00  0.00    -0.337 N 
HETATM    4  C9  UNL     1     -13.208  25.113  54.414  1.00  0.00     0.147 C 
HETATM    5  C10 UNL     1     -12.954  26.462  55.019  1.00  0.00     0.134 C 
HETATM    6  C17 UNL     1     -11.745  26.976  54.290  1.00  0.00     0.057 C 
HETATM    7  C18 UNL     1     -11.871  26.308  52.917  1.00  0.00     0.180 C 
ENDROOT
BRANCH   5   8
HETATM    8  S1  UNL     1     -12.608  26.328  56.761  1.00  0.00     0.181 S 
HETATM    9  O2  UNL     1     -11.469  25.342  56.937  1.00  0.00    -0.222 OA
HETATM   10  O3  UNL     1     -12.198  27.687  57.256  1.00  0.00    -0.222 OA
BRANCH   8  11
HETATM   11  C11 UNL     1     -14.021  25.742  57.576  1.00  0.00     0.065 A 
HETATM   12  C12 UNL     1     -15.200  26.460  57.487  1.00  0.00     0.065 A 
HETATM   13  C13 UNL     1     -16.344  26.005  58.134  1.00  0.00     0.120 A 
HETATM   14  F1  UNL     1     -17.460  26.752  58.007  1.00  0.00    -0.206 F 
HETATM   15  C14 UNL     1     -16.279  24.841  58.858  1.00  0.00     0.084 A 
HETATM   16  C15 UNL     1     -15.091  24.125  58.943  1.00  0.00     0.120 A 
HETATM   17  F2  UNL     1     -15.040  22.981  59.653  1.00  0.00    -0.206 F 
HETATM   18  C16 UNL     1     -13.954  24.562  58.309  1.00  0.00     0.065 A 
ENDBRANCH   8  11
ENDBRANCH   5   8
BRANCH   7  19
HETATM   19  C19 UNL     1     -10.531  26.392  52.340  1.00  0.00     0.241 C 
HETATM   20  O4  UNL     1      -9.472  26.346  52.986  1.00  0.00    -0.271 OA
HETATM   21  N2  UNL     1     -10.436  26.535  50.914  1.00  0.00    -0.351 N 
ATOM     22  H2  UNL     1     -11.288  26.575  50.355  1.00  0.00     0.163 HD
BRANCH  21  23
HETATM   23  C20 UNL     1      -9.147  26.624  50.260  1.00  0.00     0.025 C 
HETATM   24  C21 UNL     1      -9.410  26.554  48.755  1.00  0.00     0.038 C 
HETATM   25  C22 UNL     1      -8.235  25.486  50.622  1.00  0.00     0.038 C 
BRANCH  23  26
HETATM   26  C23 UNL     1      -8.519  27.959  50.509  1.00  0.00     0.031 C 
BRANCH  26  27
HETATM   27  C24 UNL     1      -8.733  28.937  49.390  1.00  0.00     0.013 C 
BRANCH  27  28
HETATM   28  C25 UNL     1      -9.539  30.125  49.939  1.00  0.00     0.086 C 
HETATM   29  S2  UNL     1      -9.492  30.167  51.748  1.00  0.00    -0.098 SA
ENDBRANCH  27  28
ENDBRANCH  26  27
ENDBRANCH  23  26
ENDBRANCH  21  23
ENDBRANCH   7  19
BRANCH   1  30
HETATM   30  C7  UNL     1     -13.083  22.695  53.017  1.00  0.00     0.046 A 
HETATM   31  C5  UNL     1     -12.788  21.209  52.688  1.00  0.00     0.005 A 
HETATM   32  C4  UNL     1     -11.393  21.280  53.065  1.00  0.00     0.014 C 
HETATM   33  C6  UNL     1     -13.814  21.923  52.055  1.00  0.00     0.025 A 
HETATM   34  C2  UNL     1     -11.538  21.743  54.512  1.00  0.00    -0.046 C 
HETATM   35  C1  UNL     1     -11.824  20.552  55.421  1.00  0.00     0.015 C 
HETATM   36  C3  UNL     1     -10.394  22.475  55.042  1.00  0.00     0.015 C 
HETATM   37  C26 UNL     1     -12.841  22.557  54.460  1.00  0.00     0.028 C 
ENDBRANCH   1  30
TORSDOF 8
ENDMDL
MODEL 3
REMARK VINA RESULT: -8.066954161      1.023      1.103
REMARK  8 active torsions:
REMARK  status: ('A' for Active; 'I' for Inactive)
REMARK    1  A    between atoms: C7_7  and  C8_8 
REMARK       I    between atoms: C8_8  and  N1_10 
REMARK    2  A    between atoms: C10_12  and  S1_13 
REMARK    3  A    between atoms: S1_13  and  C11_16 
REMARK    4  A    between atoms: C18_25  and  C19_26 
REMARK       I    between atoms: C19_26  and  N2_28 
REMARK    5  A    between atoms: N2_28  and  C20_30 
REMARK    6  A    between atoms: C20_30  and  C23_33 
REMARK    7  A    between atoms: C23_33  and  C24_34 
REMARK    8  A    between atoms: C24_34  and  C25_35 
ROOT
HETATM    1  C8  UNL     1     -12.427  23.790  52.403  1.00  0.00     0.229 C 
HETATM    2  O1  UNL     1     -11.814  23.907  51.341  1.00  0.00    -0.272 OA
HETATM    3  N1  UNL     1     -12.466  25.023  53.169  1.00  0.00    -0.337 N 
HETATM    4  C9  UNL     1     -13.232  25.075  54.415  1.00  0.00     0.147 C 
HETATM    5  C10 UNL     1     -12.980  26.424  55.023  1.00  0.00     0.134 C 
HETATM    6  C17 UNL     1     -11.768  26.938  54.300  1.00  0.00     0.057 C 
HETATM    7  C18 UNL     1     -11.889  26.273  52.925  1.00  0.00     0.180 C 
ENDROOT
BRANCH   5   8
HETATM    8  S1  UNL     1     -12.641  26.287  56.766  1.00  0.00     0.181 S 
HETATM    9  O2  UNL     1     -11.527  25.275  56.948  1.00  0.00    -0.222 OA
HETATM   10  O3  UNL     1     -12.200  27.638  57.257  1.00  0.00    -0.222 OA
BRANCH   8  11
HETATM   11  C11 UNL     1     -14.070  25.739  57.580  1.00  0.00     0.065 A 
HETATM   12  C12 UNL     1     -14.028  24.561  58.304  1.00  0.00     0.065 A 
HETATM   13  C13 UNL     1     -15.165  24.106  58.963  1.00  0.00     0.120 A 
HETATM   14  F1  UNL     1     -15.055  22.951  59.651  1.00  0.00    -0.206 F 
HETATM   15  C14 UNL     1     -16.320  24.842  58.879  1.00  0.00     0.084 A 
HETATM   16  C15 UNL     1     -16.355  26.025  58.151  1.00  0.00     0.120 A 
HETATM   17  F2  UNL     1     -17.494  26.741  58.080  1.00  0.00    -0.206 F 
HETATM   18  C16 UNL     1     -15.240  26.486  57.495  1.00  0.00     0.065 A 
ENDBRANCH   8  11
ENDBRANCH   5   8
BRANCH   7  19
HETATM   19  C19 UNL     1     -10.546  26.357  52.354  1.00  0.00     0.241 C 
HETATM   20  O4  UNL     1      -9.489  26.290  53.002  1.00  0.00    -0.271 OA
HETATM   21  N2  UNL     1     -10.445  26.529  50.931  1.00  0.00    -0.351 N 
ATOM     22  H2  UNL     1     -11.295  26.586  50.371  1.00  0.00     0.163 HD
BRANCH  21  23
HETATM   23  C20 UNL     1      -9.153  26.621  50.283  1.00  0.00     0.025 C 
HETATM   24  C21 UNL     1      -9.416  26.628  48.777  1.00  0.00     0.038 C 
HETATM   25  C22 UNL     1      -8.268  25.446  50.591  1.00  0.00     0.038 C 
BRANCH  23  26
HETATM   26  C23 UNL     1      -8.497  27.928  50.595  1.00  0.00     0.031 C 
BRANCH  26  27
HETATM   27  C24 UNL     1      -8.053  28.680  49.374  1.00  0.00     0.013 C 
BRANCH  27  28
HETATM   28  C25 UNL     1      -6.526  28.837  49.436  1.00  0.00     0.086 C 
HETATM   29  S2  UNL     1      -5.708  27.747  48.243  1.00  0.00    -0.098 SA
ENDBRANCH  27  28
ENDBRANCH  26  27
ENDBRANCH  23  26
ENDBRANCH  21  23
ENDBRANCH   7  19
BRANCH   1  30
HETATM   30  C7  UNL     1     -13.100  22.659  53.015  1.00  0.00     0.046 A 
HETATM   31  C5  UNL     1     -12.804  21.174  52.684  1.00  0.00     0.005 A 
HETATM   32  C4  UNL     1     -11.411  21.244  53.066  1.00  0.00     0.014 C 
HETATM   33  C6  UNL     1     -13.828  21.889  52.050  1.00  0.00     0.025 A 
HETATM   34  C2  UNL     1     -11.561  21.704  54.513  1.00  0.00    -0.046 C 
HETATM   35  C1  UNL     1     -11.850  20.512  55.420  1.00  0.00     0.015 C 
HETATM   36  C3  UNL     1     -10.419  22.435  55.049  1.00  0.00     0.015 C 
HETATM   37  C26 UNL     1     -12.864  22.519  54.459  1.00  0.00     0.028 C 
ENDBRANCH   1  30
TORSDOF 8
ENDMDL
MODEL 4
REMARK VINA RESULT: -8.029743851      1.023      1.766
REMARK  8 active torsions:
REMARK  status: ('A' for Active; 'I' for Inactive)
REMARK    1  A    between atoms: C7_7  and  C8_8 
REMARK       I    between atoms: C8_8  and  N1_10 
REMARK    2  A    between atoms: C10_12  and  S1_13 
REMARK    3  A    between atoms: S1_13  and  C11_16 
REMARK    4  A    between atoms: C18_25  and  C19_26 
REMARK       I    between atoms: C19_26  and  N2_28 
REMARK    5  A    between atoms: N2_28  and  C20_30 
REMARK    6  A    between atoms: C20_30  and  C23_33 
REMARK    7  A    between atoms: C23_33  and  C24_34 
REMARK    8  A    between atoms: C24_34  and  C25_35 
ROOT
HETATM    1  C8  UNL     1     -12.424  23.814  52.406  1.00  0.00     0.229 C 
HETATM    2  O1  UNL     1     -11.812  23.941  51.344  1.00  0.00    -0.272 OA
HETATM    3  N1  UNL     1     -12.463  25.041  53.183  1.00  0.00    -0.337 N 
HETATM    4  C9  UNL     1     -13.228  25.081  54.430  1.00  0.00     0.147 C 
HETATM    5  C10 UNL     1     -12.976  26.425  55.049  1.00  0.00     0.134 C 
HETATM    6  C17 UNL     1     -11.766  26.946  54.329  1.00  0.00     0.057 C 
HETATM    7  C18 UNL     1     -11.887  26.293  52.950  1.00  0.00     0.180 C 
ENDROOT
BRANCH   5   8
HETATM    8  S1  UNL     1     -12.636  26.273  56.791  1.00  0.00     0.181 S 
HETATM    9  O2  UNL     1     -11.535  25.245  56.965  1.00  0.00    -0.222 OA
HETATM   10  O3  UNL     1     -12.175  27.615  57.289  1.00  0.00    -0.222 OA
BRANCH   8  11
HETATM   11  C11 UNL     1     -14.070  25.740  57.605  1.00  0.00     0.065 A 
HETATM   12  C12 UNL     1     -15.239  26.464  57.461  1.00  0.00     0.065 A 
HETATM   13  C13 UNL     1     -16.400  26.051  58.107  1.00  0.00     0.120 A 
HETATM   14  F1  UNL     1     -17.505  26.803  57.926  1.00  0.00    -0.206 F 
HETATM   15  C14 UNL     1     -16.361  24.920  58.884  1.00  0.00     0.084 A 
HETATM   16  C15 UNL     1     -15.182  24.197  59.022  1.00  0.00     0.120 A 
HETATM   17  F2  UNL     1     -15.157  23.085  59.784  1.00  0.00    -0.206 F 
HETATM   18  C16 UNL     1     -14.029  24.593  58.390  1.00  0.00     0.065 A 
ENDBRANCH   8  11
ENDBRANCH   5   8
BRANCH   7  19
HETATM   19  C19 UNL     1     -10.545  26.383  52.377  1.00  0.00     0.241 C 
HETATM   20  O4  UNL     1      -9.488  26.351  53.028  1.00  0.00    -0.271 OA
HETATM   21  N2  UNL     1     -10.445  26.518  50.951  1.00  0.00    -0.351 N 
ATOM     22  H2  UNL     1     -11.295  26.547  50.388  1.00  0.00     0.163 HD
BRANCH  21  23
HETATM   23  C20 UNL     1      -9.154  26.613  50.302  1.00  0.00     0.025 C 
HETATM   24  C21 UNL     1      -9.416  26.611  48.795  1.00  0.00     0.038 C 
HETATM   25  C22 UNL     1      -8.262  25.445  50.616  1.00  0.00     0.038 C 
BRANCH  23  26
HETATM   26  C23 UNL     1      -8.505  27.925  50.607  1.00  0.00     0.031 C 
BRANCH  26  27
HETATM   27  C24 UNL     1      -8.055  28.668  49.382  1.00  0.00     0.013 C 
BRANCH  27  28
HETATM   28  C25 UNL     1      -6.534  28.869  49.473  1.00  0.00     0.086 C 
HETATM   29  S2  UNL     1      -5.676  27.960  48.163  1.00  0.00    -0.098 SA
ENDBRANCH  27  28
ENDBRANCH  26  27
ENDBRANCH  23  26
ENDBRANCH  21  23
ENDBRANCH   7  19
BRANCH   1  30
HETATM   30  C7  UNL     1     -13.095  22.678  53.010  1.00  0.00     0.046 A 
HETATM   31  C5  UNL     1     -12.796  21.195  52.668  1.00  0.00     0.005 A 
HETATM   32  C4  UNL     1     -11.403  21.265  53.052  1.00  0.00     0.014 C 
HETATM   33  C6  UNL     1     -13.821  21.913  52.038  1.00  0.00     0.025 A 
HETATM   34  C2  UNL     1     -11.556  21.714  54.502  1.00  0.00    -0.046 C 
HETATM   35  C1  UNL     1     -11.844  20.515  55.399  1.00  0.00     0.015 C 
HETATM   36  C3  UNL     1     -10.415  22.443  55.044  1.00  0.00     0.015 C 
HETATM   37  C26 UNL     1     -12.860  22.527  54.453  1.00  0.00     0.028 C 
ENDBRANCH   1  30
TORSDOF 8
ENDMDL
MODEL 5
REMARK VINA RESULT: -7.855660908      1.252      1.814
REMARK  8 active torsions:
REMARK  status: ('A' for Active; 'I' for Inactive)
REMARK    1  A    between atoms: C7_7  and  C8_8 
REMARK       I    between atoms: C8_8  and  N1_10 
REMARK    2  A    between atoms: C10_12  and  S1_13 
REMARK    3  A    between atoms: S1_13  and  C11_16 
REMARK    4  A    between atoms: C18_25  and  C19_26 
REMARK       I    between atoms: C19_26  and  N2_28 
REMARK    5  A    between atoms: N2_28  and  C20_30 
REMARK    6  A    between atoms: C20_30  and  C23_33 
REMARK    7  A    between atoms: C23_33  and  C24_34 
REMARK    8  A    between atoms: C24_34  and  C25_35 
ROOT
HETATM    1  C8  UNL     1     -12.492  23.757  52.421  1.00  0.00     0.229 C 
HETATM    2  O1  UNL     1     -11.896  23.884  51.351  1.00  0.00    -0.272 OA
HETATM    3  N1  UNL     1     -12.530  24.987  53.193  1.00  0.00    -0.337 N 
HETATM    4  C9  UNL     1     -13.279  25.027  54.449  1.00  0.00     0.147 C 
HETATM    5  C10 UNL     1     -13.030  26.376  55.059  1.00  0.00     0.134 C 
HETATM    6  C17 UNL     1     -11.833  26.903  54.321  1.00  0.00     0.057 C 
HETATM    7  C18 UNL     1     -11.967  26.242  52.946  1.00  0.00     0.180 C 
ENDROOT
BRANCH   5   8
HETATM    8  S1  UNL     1     -12.665  26.235  56.797  1.00  0.00     0.181 S 
HETATM    9  O2  UNL     1     -11.562  25.207  56.962  1.00  0.00    -0.222 OA
HETATM   10  O3  UNL     1     -12.198  27.579  57.281  1.00  0.00    -0.222 OA
BRANCH   8  11
HETATM   11  C11 UNL     1     -14.088  25.705  57.634  1.00  0.00     0.065 A 
HETATM   12  C12 UNL     1     -14.033  24.559  58.405  1.00  0.00     0.065 A 
HETATM   13  C13 UNL     1     -15.165  24.119  59.083  1.00  0.00     0.120 A 
HETATM   14  F1  UNL     1     -15.044  22.993  59.816  1.00  0.00    -0.206 F 
HETATM   15  C14 UNL     1     -16.328  24.840  58.971  1.00  0.00     0.084 A 
HETATM   16  C15 UNL     1     -16.375  25.991  58.195  1.00  0.00     0.120 A 
HETATM   17  F2  UNL     1     -17.521  26.693  58.096  1.00  0.00    -0.206 F 
HETATM   18  C16 UNL     1     -15.265  26.437  57.520  1.00  0.00     0.065 A 
ENDBRANCH   8  11
ENDBRANCH   5   8
BRANCH   7  19
HETATM   19  C19 UNL     1     -10.633  26.340  52.356  1.00  0.00     0.241 C 
HETATM   20  O4  UNL     1      -9.567  26.274  52.988  1.00  0.00    -0.271 OA
HETATM   21  N2  UNL     1     -10.554  26.525  50.934  1.00  0.00    -0.351 N 
ATOM     22  H2  UNL     1     -11.413  26.582  50.386  1.00  0.00     0.163 HD
BRANCH  21  23
HETATM   23  C20 UNL     1      -9.273  26.631  50.268  1.00  0.00     0.025 C 
HETATM   24  C21 UNL     1      -8.576  27.863  50.846  1.00  0.00     0.038 C 
HETATM   25  C22 UNL     1      -9.409  26.832  48.784  1.00  0.00     0.038 C 
BRANCH  23  26
HETATM   26  C23 UNL     1      -8.402  25.464  50.608  1.00  0.00     0.031 C 
BRANCH  26  27
HETATM   27  C24 UNL     1      -6.937  25.793  50.611  1.00  0.00     0.013 C 
BRANCH  27  28
HETATM   28  C25 UNL     1      -6.237  24.880  49.593  1.00  0.00     0.086 C 
HETATM   29  S2  UNL     1      -5.882  25.768  48.055  1.00  0.00    -0.098 SA
ENDBRANCH  27  28
ENDBRANCH  26  27
ENDBRANCH  23  26
ENDBRANCH  21  23
ENDBRANCH   7  19
BRANCH   1  30
HETATM   30  C7  UNL     1     -13.147  22.618  53.038  1.00  0.00     0.046 A 
HETATM   31  C5  UNL     1     -12.851  21.137  52.690  1.00  0.00     0.005 A 
HETATM   32  C4  UNL     1     -11.450  21.211  53.043  1.00  0.00     0.014 C 
HETATM   33  C6  UNL     1     -13.891  21.852  52.082  1.00  0.00     0.025 A 
HETATM   34  C2  UNL     1     -11.573  21.659  54.497  1.00  0.00    -0.046 C 
HETATM   35  C1  UNL     1     -11.837  20.458  55.400  1.00  0.00     0.015 C 
HETATM   36  C3  UNL     1     -10.423  22.391  55.015  1.00  0.00     0.015 C 
HETATM   37  C26 UNL     1     -12.880  22.468  54.476  1.00  0.00     0.028 C 
ENDBRANCH   1  30
TORSDOF 8
ENDMDL
