MODEL 1
REMARK VINA RESULT: -7.240956161      0.000      0.000
REMARK  8 active torsions:
REMARK  status: ('A' for Active; 'I' for Inactive)
REMARK    1  A    between atoms: C2_2  and  C3_3 
REMARK    2  A    between atoms: C2_2  and  N1_6 
REMARK    3  A    between atoms: C3_3  and  O1_4 
REMARK    4  A    between atoms: C6_9  and  O2_10 
REMARK    5  A    between atoms: O2_10  and  C7_11 
REMARK    6  A    between atoms: C9_13  and  O3_14 
REMARK    7  A    between atoms: O3_14  and  C10_15 
REMARK    8  A    between atoms: C10_15  and  C11_16 
ROOT
HETATM    1  C11 UNL     1     -12.418  22.075  52.510  1.00  0.00     0.030 C 
HETATM    2  C12 UNL     1     -13.487  22.675  51.593  1.00  0.00     0.027 C 
HETATM    3  C13 UNL     1     -14.151  21.529  50.835  1.00  0.00     0.114 C 
HETATM    4  N2  UNL     1     -14.564  20.476  51.683  1.00  0.00    -0.420 N 
ATOM      5  H2  UNL     1     -15.456  20.008  51.526  1.00  0.00     0.153 HD
HETATM    6  C14 UNL     1     -13.726  20.079  52.751  1.00  0.00     0.133 C 
HETATM    7  C15 UNL     1     -13.263  21.319  53.527  1.00  0.00     0.116 C 
HETATM    8  C16 UNL     1     -12.583  21.026  54.741  1.00  0.00     0.066 C 
HETATM    9  N3  UNL     1     -12.055  20.786  55.739  1.00  0.00    -0.197 NA
ENDROOT
BRANCH   1  10
HETATM   10  C10 UNL     1     -11.536  23.129  53.057  1.00  0.00     0.181 C 
BRANCH  10  11
HETATM   11  O3  UNL     1     -12.297  24.239  53.365  1.00  0.00    -0.349 OA
BRANCH  11  12
HETATM   12  C9  UNL     1     -12.435  25.009  54.467  1.00  0.00     0.088 A 
HETATM   13  C8  UNL     1     -13.199  24.712  55.577  1.00  0.00     0.076 A 
HETATM   14  C7  UNL     1     -13.278  25.559  56.664  1.00  0.00     0.089 A 
HETATM   15  C19 UNL     1     -12.559  26.762  56.633  1.00  0.00     0.045 A 
HETATM   16  C18 UNL     1     -11.795  27.089  55.561  1.00  0.00     0.044 A 
HETATM   17 BR2  UNL     1     -12.667  27.951  58.135  1.00  0.00    -0.048 Br
HETATM   18  C17 UNL     1     -11.737  26.218  54.497  1.00  0.00     0.045 A 
HETATM   19 BR1  UNL     1     -10.643  26.666  53.003  1.00  0.00    -0.048 Br
BRANCH  14  20
HETATM   20  O2  UNL     1     -13.999  25.323  57.806  1.00  0.00    -0.344 OA
BRANCH  20  21
HETATM   21  C6  UNL     1     -15.374  25.231  57.994  1.00  0.00     0.132 C 
HETATM   22  C5  UNL     1     -15.655  24.234  59.139  1.00  0.00     0.052 C 
HETATM   23  C4  UNL     1     -16.279  24.952  60.340  1.00  0.00     0.119 C 
HETATM   24  N1  UNL     1     -17.553  25.405  59.932  1.00  0.00    -0.406 N 
HETATM   25  C21 UNL     1     -17.559  26.098  58.679  1.00  0.00     0.119 C 
HETATM   26  C20 UNL     1     -16.112  26.483  58.284  1.00  0.00     0.052 C 
BRANCH  24  27
HETATM   27  C2  UNL     1     -18.519  25.804  60.850  1.00  0.00     0.098 C 
HETATM   28  C1  UNL     1     -17.921  26.844  61.807  1.00  0.00     0.034 C 
BRANCH  27  29
HETATM   29  C3  UNL     1     -19.766  26.476  60.260  1.00  0.00     0.188 C 
BRANCH  29  30
HETATM   30  O1  UNL     1     -20.225  27.531  61.021  1.00  0.00    -0.399 OA
ATOM     31  H1  UNL     1     -20.388  28.315  60.512  1.00  0.00     0.209 HD
ENDBRANCH  29  30
ENDBRANCH  27  29
ENDBRANCH  24  27
ENDBRANCH  20  21
ENDBRANCH  14  20
ENDBRANCH  11  12
ENDBRANCH  10  11
ENDBRANCH   1  10
TORSDOF 8
ENDMDL
MODEL 2
REMARK VINA RESULT: -7.177368538      5.800     10.880
REMARK  8 active torsions:
REMARK  status: ('A' for Active; 'I' for Inactive)
REMARK    1  A    between atoms: C2_2  and  C3_3 
REMARK    2  A    between atoms: C2_2  and  N1_6 
REMARK    3  A    between atoms: C3_3  and  O1_4 
REMARK    4  A    between atoms: C6_9  and  O2_10 
REMARK    5  A    between atoms: O2_10  and  C7_11 
REMARK    6  A    between atoms: C9_13  and  O3_14 
REMARK    7  A    between atoms: O3_14  and  C10_15 
REMARK    8  A    between atoms: C10_15  and  C11_16 
ROOT
HETATM    1  C11 UNL     1     -12.239  21.674  52.414  1.00  0.00     0.030 C 
HETATM    2  C12 UNL     1     -13.270  22.354  51.509  1.00  0.00     0.027 C 
HETATM    3  C13 UNL     1     -14.137  21.265  50.886  1.00  0.00     0.114 C 
HETATM    4  N2  UNL     1     -14.639  20.349  51.840  1.00  0.00    -0.420 N 
ATOM      5  H2  UNL     1     -15.597  20.006  51.771  1.00  0.00     0.153 HD
HETATM    6  C14 UNL     1     -13.798  19.914  52.890  1.00  0.00     0.133 C 
HETATM    7  C15 UNL     1     -13.114  21.128  53.534  1.00  0.00     0.116 C 
HETATM    8  C16 UNL     1     -12.405  20.830  54.730  1.00  0.00     0.066 C 
HETATM    9  N3  UNL     1     -11.851  20.591  55.714  1.00  0.00    -0.197 NA
ENDROOT
BRANCH   1  10
HETATM   10  C10 UNL     1     -11.183  22.626  52.823  1.00  0.00     0.181 C 
BRANCH  10  11
HETATM   11  O3  UNL     1     -11.552  23.900  52.441  1.00  0.00    -0.349 OA
BRANCH  11  12
HETATM   12  C9  UNL     1     -10.873  25.047  52.212  1.00  0.00     0.088 A 
HETATM   13  C8  UNL     1      -9.745  25.183  51.431  1.00  0.00     0.076 A 
HETATM   14  C7  UNL     1      -9.117  26.399  51.249  1.00  0.00     0.089 A 
HETATM   15  C19 UNL     1      -9.646  27.530  51.886  1.00  0.00     0.045 A 
HETATM   16  C18 UNL     1     -10.755  27.438  52.661  1.00  0.00     0.044 A 
HETATM   17 BR2  UNL     1      -8.778  29.224  51.647  1.00  0.00    -0.048 Br
HETATM   18  C17 UNL     1     -11.356  26.210  52.816  1.00  0.00     0.045 A 
HETATM   19 BR1  UNL     1     -12.929  26.086  53.884  1.00  0.00    -0.048 Br
BRANCH  14  20
HETATM   20  O2  UNL     1      -8.007  26.613  50.474  1.00  0.00    -0.344 OA
BRANCH  20  21
HETATM   21  C6  UNL     1      -7.362  25.766  49.577  1.00  0.00     0.132 C 
HETATM   22  C5  UNL     1      -6.914  26.587  48.350  1.00  0.00     0.052 C 
HETATM   23  C4  UNL     1      -5.385  26.639  48.263  1.00  0.00     0.119 C 
HETATM   24  N1  UNL     1      -4.943  25.324  48.001  1.00  0.00    -0.406 N 
HETATM   25  C21 UNL     1      -5.517  24.329  48.855  1.00  0.00     0.119 C 
HETATM   26  C20 UNL     1      -6.191  25.005  50.074  1.00  0.00     0.052 C 
BRANCH  24  27
HETATM   27  C2  UNL     1      -3.658  25.060  47.542  1.00  0.00     0.098 C 
HETATM   28  C1  UNL     1      -3.703  24.732  46.044  1.00  0.00     0.034 C 
BRANCH  27  29
HETATM   29  C3  UNL     1      -2.652  26.212  47.668  1.00  0.00     0.188 C 
BRANCH  29  30
HETATM   30  O1  UNL     1      -2.500  26.928  46.499  1.00  0.00    -0.399 OA
ATOM     31  H1  UNL     1      -3.128  27.635  46.411  1.00  0.00     0.209 HD
ENDBRANCH  29  30
ENDBRANCH  27  29
ENDBRANCH  24  27
ENDBRANCH  20  21
ENDBRANCH  14  20
ENDBRANCH  11  12
ENDBRANCH  10  11
ENDBRANCH   1  10
TORSDOF 8
ENDMDL
MODEL 3
REMARK VINA RESULT: -7.151944767      6.493     11.737
REMARK  8 active torsions:
REMARK  status: ('A' for Active; 'I' for Inactive)
REMARK    1  A    between atoms: C2_2  and  C3_3 
REMARK    2  A    between atoms: C2_2  and  N1_6 
REMARK    3  A    between atoms: C3_3  and  O1_4 
REMARK    4  A    between atoms: C6_9  and  O2_10 
REMARK    5  A    between atoms: O2_10  and  C7_11 
REMARK    6  A    between atoms: C9_13  and  O3_14 
REMARK    7  A    between atoms: O3_14  and  C10_15 
REMARK    8  A    between atoms: C10_15  and  C11_16 
ROOT
HETATM    1  C11 UNL     1     -11.952  22.202  53.103  1.00  0.00     0.030 C 
HETATM    2  C12 UNL     1     -10.750  21.776  53.950  1.00  0.00     0.027 C 
HETATM    3  C13 UNL     1     -11.274  21.305  55.303  1.00  0.00     0.114 C 
HETATM    4  N2  UNL     1     -12.331  20.373  55.189  1.00  0.00    -0.420 N 
ATOM      5  H2  UNL     1     -12.377  19.567  55.813  1.00  0.00     0.153 HD
HETATM    6  C14 UNL     1     -13.322  20.569  54.201  1.00  0.00     0.133 C 
HETATM    7  C15 UNL     1     -12.651  20.873  52.855  1.00  0.00     0.116 C 
HETATM    8  C16 UNL     1     -13.544  20.885  51.748  1.00  0.00     0.066 C 
HETATM    9  N3  UNL     1     -14.266  20.870  50.848  1.00  0.00    -0.197 NA
ENDROOT
BRANCH   1  10
HETATM   10  C10 UNL     1     -11.515  22.940  51.897  1.00  0.00     0.181 C 
BRANCH  10  11
HETATM   11  O3  UNL     1     -10.689  23.978  52.277  1.00  0.00    -0.349 OA
BRANCH  11  12
HETATM   12  C9  UNL     1     -10.181  25.057  51.642  1.00  0.00     0.088 A 
HETATM   13  C8  UNL     1      -9.246  25.040  50.628  1.00  0.00     0.076 A 
HETATM   14  C7  UNL     1      -8.785  26.196  50.031  1.00  0.00     0.089 A 
HETATM   15  C19 UNL     1      -9.285  27.428  50.477  1.00  0.00     0.045 A 
HETATM   16  C18 UNL     1     -10.206  27.487  51.470  1.00  0.00     0.044 A 
HETATM   17 BR2  UNL     1      -8.646  29.042  49.660  1.00  0.00    -0.048 Br
HETATM   18  C17 UNL     1     -10.645  26.313  52.039  1.00  0.00     0.045 A 
HETATM   19 BR1  UNL     1     -11.959  26.396  53.416  1.00  0.00    -0.048 Br
BRANCH  14  20
HETATM   20  O2  UNL     1      -7.874  26.255  49.009  1.00  0.00    -0.344 OA
BRANCH  20  21
HETATM   21  C6  UNL     1      -6.483  26.243  49.046  1.00  0.00     0.132 C 
HETATM   22  C5  UNL     1      -5.988  24.811  48.748  1.00  0.00     0.052 C 
HETATM   23  C4  UNL     1      -5.221  24.769  47.423  1.00  0.00     0.119 C 
HETATM   24  N1  UNL     1      -4.045  25.530  47.604  1.00  0.00    -0.406 N 
HETATM   25  C21 UNL     1      -4.260  26.816  48.196  1.00  0.00     0.119 C 
HETATM   26  C20 UNL     1      -5.765  27.174  48.143  1.00  0.00     0.052 C 
BRANCH  24  27
HETATM   27  C2  UNL     1      -2.969  25.438  46.727  1.00  0.00     0.098 C 
HETATM   28  C1  UNL     1      -1.828  24.658  47.392  1.00  0.00     0.034 C 
BRANCH  27  29
HETATM   29  C3  UNL     1      -3.242  24.701  45.409  1.00  0.00     0.188 C 
BRANCH  29  30
HETATM   30  O1  UNL     1      -2.614  25.279  44.326  1.00  0.00    -0.399 OA
ATOM     31  H1  UNL     1      -2.176  26.094  44.539  1.00  0.00     0.209 HD
ENDBRANCH  29  30
ENDBRANCH  27  29
ENDBRANCH  24  27
ENDBRANCH  20  21
ENDBRANCH  14  20
ENDBRANCH  11  12
ENDBRANCH  10  11
ENDBRANCH   1  10
TORSDOF 8
ENDMDL
MODEL 4
REMARK VINA RESULT: -7.056834152      4.997      9.834
REMARK  8 active torsions:
REMARK  status: ('A' for Active; 'I' for Inactive)
REMARK    1  A    between atoms: C2_2  and  C3_3 
REMARK    2  A    between atoms: C2_2  and  N1_6 
REMARK    3  A    between atoms: C3_3  and  O1_4 
REMARK    4  A    between atoms: C6_9  and  O2_10 
REMARK    5  A    between atoms: O2_10  and  C7_11 
REMARK    6  A    between atoms: C9_13  and  O3_14 
REMARK    7  A    between atoms: O3_14  and  C10_15 
REMARK    8  A    between atoms: C10_15  and  C11_16 
ROOT
HETATM    1  C11 UNL     1     -13.087  22.426  53.793  1.00  0.00     0.030 C 
HETATM    2  C12 UNL     1     -11.842  22.560  54.673  1.00  0.00     0.027 C 
HETATM    3  C13 UNL     1     -11.863  21.424  55.691  1.00  0.00     0.114 C 
HETATM    4  N2  UNL     1     -12.086  20.159  55.099  1.00  0.00    -0.420 N 
ATOM      5  H2  UNL     1     -11.571  19.341  55.422  1.00  0.00     0.153 HD
HETATM    6  C14 UNL     1     -13.032  20.042  54.054  1.00  0.00     0.133 C 
HETATM    7  C15 UNL     1     -12.791  21.149  53.019  1.00  0.00     0.116 C 
HETATM    8  C16 UNL     1     -13.550  21.006  51.825  1.00  0.00     0.066 C 
HETATM    9  N3  UNL     1     -14.149  20.873  50.847  1.00  0.00    -0.197 NA
ENDROOT
BRANCH   1  10
HETATM   10  C10 UNL     1     -13.295  23.644  52.979  1.00  0.00     0.181 C 
BRANCH  10  11
HETATM   11  O3  UNL     1     -12.963  24.752  53.732  1.00  0.00    -0.349 OA
BRANCH  11  12
HETATM   12  C9  UNL     1     -12.231  25.864  53.497  1.00  0.00     0.088 A 
HETATM   13  C8  UNL     1     -11.120  25.950  52.684  1.00  0.00     0.076 A 
HETATM   14  C7  UNL     1     -10.434  27.133  52.498  1.00  0.00     0.089 A 
HETATM   15  C19 UNL     1     -10.883  28.282  53.164  1.00  0.00     0.045 A 
HETATM   16  C18 UNL     1     -11.971  28.239  53.971  1.00  0.00     0.044 A 
HETATM   17 BR2  UNL     1      -9.932  29.931  52.919  1.00  0.00    -0.048 Br
HETATM   18  C17 UNL     1     -12.633  27.042  54.129  1.00  0.00     0.045 A 
HETATM   19 BR1  UNL     1     -14.178  26.988  55.242  1.00  0.00    -0.048 Br
BRANCH  14  20
HETATM   20  O2  UNL     1      -9.337  27.298  51.692  1.00  0.00    -0.344 OA
BRANCH  20  21
HETATM   21  C6  UNL     1      -8.739  26.415  50.799  1.00  0.00     0.132 C 
HETATM   22  C5  UNL     1      -8.559  27.125  49.440  1.00  0.00     0.052 C 
HETATM   23  C4  UNL     1      -7.073  27.304  49.117  1.00  0.00     0.119 C 
HETATM   24  N1  UNL     1      -6.535  26.012  48.926  1.00  0.00    -0.406 N 
HETATM   25  C21 UNL     1      -6.873  25.076  49.954  1.00  0.00     0.119 C 
HETATM   26  C20 UNL     1      -7.435  25.825  51.186  1.00  0.00     0.052 C 
BRANCH  24  27
HETATM   27  C2  UNL     1      -5.307  25.814  48.304  1.00  0.00     0.098 C 
HETATM   28  C1  UNL     1      -4.462  24.837  49.133  1.00  0.00     0.034 C 
BRANCH  27  29
HETATM   29  C3  UNL     1      -5.359  25.202  46.898  1.00  0.00     0.188 C 
BRANCH  29  30
HETATM   30  O1  UNL     1      -6.271  25.823  46.071  1.00  0.00    -0.399 OA
ATOM     31  H1  UNL     1      -5.996  25.845  45.162  1.00  0.00     0.209 HD
ENDBRANCH  29  30
ENDBRANCH  27  29
ENDBRANCH  24  27
ENDBRANCH  20  21
ENDBRANCH  14  20
ENDBRANCH  11  12
ENDBRANCH  10  11
ENDBRANCH   1  10
TORSDOF 8
ENDMDL
MODEL 5
REMARK VINA RESULT: -6.989871528      6.282     11.476
REMARK  8 active torsions:
REMARK  status: ('A' for Active; 'I' for Inactive)
REMARK    1  A    between atoms: C2_2  and  C3_3 
REMARK    2  A    between atoms: C2_2  and  N1_6 
REMARK    3  A    between atoms: C3_3  and  O1_4 
REMARK    4  A    between atoms: C6_9  and  O2_10 
REMARK    5  A    between atoms: O2_10  and  C7_11 
REMARK    6  A    between atoms: C9_13  and  O3_14 
REMARK    7  A    between atoms: O3_14  and  C10_15 
REMARK    8  A    between atoms: C10_15  and  C11_16 
ROOT
HETATM    1  C11 UNL     1     -12.109  22.311  53.310  1.00  0.00     0.030 C 
HETATM    2  C12 UNL     1     -10.801  22.050  54.059  1.00  0.00     0.027 C 
HETATM    3  C13 UNL     1     -11.140  21.320  55.355  1.00  0.00     0.114 C 
HETATM    4  N2  UNL     1     -11.986  20.205  55.152  1.00  0.00    -0.420 N 
ATOM      5  H2  UNL     1     -11.831  19.339  55.668  1.00  0.00     0.153 HD
HETATM    6  C14 UNL     1     -13.050  20.304  54.226  1.00  0.00     0.133 C 
HETATM    7  C15 UNL     1     -12.532  20.903  52.912  1.00  0.00     0.116 C 
HETATM    8  C16 UNL     1     -13.468  20.860  51.842  1.00  0.00     0.066 C 
HETATM    9  N3  UNL     1     -14.220  20.800  50.969  1.00  0.00    -0.197 NA
ENDROOT
BRANCH   1  10
HETATM   10  C10 UNL     1     -11.903  23.264  52.197  1.00  0.00     0.181 C 
BRANCH  10  11
HETATM   11  O3  UNL     1     -10.945  24.187  52.566  1.00  0.00    -0.349 OA
BRANCH  11  12
HETATM   12  C9  UNL     1     -10.300  25.183  51.919  1.00  0.00     0.088 A 
HETATM   13  C8  UNL     1      -9.264  25.032  51.021  1.00  0.00     0.076 A 
HETATM   14  C7  UNL     1      -8.664  26.110  50.402  1.00  0.00     0.089 A 
HETATM   15  C19 UNL     1      -9.124  27.400  50.702  1.00  0.00     0.045 A 
HETATM   16  C18 UNL     1     -10.140  27.590  51.579  1.00  0.00     0.044 A 
HETATM   17 BR2  UNL     1      -8.292  28.906  49.853  1.00  0.00    -0.048 Br
HETATM   18  C17 UNL     1     -10.717  26.491  52.174  1.00  0.00     0.045 A 
HETATM   19 BR1  UNL     1     -12.164  26.757  53.385  1.00  0.00    -0.048 Br
BRANCH  14  20
HETATM   20  O2  UNL     1      -7.645  26.036  49.486  1.00  0.00    -0.344 OA
BRANCH  20  21
HETATM   21  C6  UNL     1      -6.319  25.648  49.651  1.00  0.00     0.132 C 
HETATM   22  C5  UNL     1      -6.009  24.503  48.663  1.00  0.00     0.052 C 
HETATM   23  C4  UNL     1      -4.980  24.953  47.621  1.00  0.00     0.119 C 
HETATM   24  N1  UNL     1      -3.767  25.178  48.309  1.00  0.00    -0.406 N 
HETATM   25  C21 UNL     1      -3.900  25.980  49.488  1.00  0.00     0.119 C 
HETATM   26  C20 UNL     1      -5.276  26.689  49.491  1.00  0.00     0.052 C 
BRANCH  24  27
HETATM   27  C2  UNL     1      -2.552  25.277  47.642  1.00  0.00     0.098 C 
HETATM   28  C1  UNL     1      -2.695  24.709  46.224  1.00  0.00     0.034 C 
BRANCH  27  29
HETATM   29  C3  UNL     1      -2.008  26.699  47.448  1.00  0.00     0.188 C 
BRANCH  29  30
HETATM   30  O1  UNL     1      -2.848  27.504  46.708  1.00  0.00    -0.399 OA
ATOM     31  H1  UNL     1      -3.648  27.729  47.165  1.00  0.00     0.209 HD
ENDBRANCH  29  30
ENDBRANCH  27  29
ENDBRANCH  24  27
ENDBRANCH  20  21
ENDBRANCH  14  20
ENDBRANCH  11  12
ENDBRANCH  10  11
ENDBRANCH   1  10
TORSDOF 8
ENDMDL
