MODEL 1
REMARK VINA RESULT: -7.181961035      0.000      0.000
REMARK  5 active torsions:
REMARK  status: ('A' for Active; 'I' for Inactive)
REMARK    1  A    between atoms: C4_4  and  N1_5 
REMARK    2  A    between atoms: N1_5  and  C5_7 
REMARK    3  A    between atoms: C5_7  and  C6_8 
REMARK    4  A    between atoms: C6_8  and  C7_9 
REMARK    5  A    between atoms: C7_9  and  N2_10 
ROOT
HETATM    1  C1  UNL     1     186.835  27.693 529.310  1.00  0.00     0.068 C 
HETATM    2  C2  UNL     1     186.067  27.499 528.028  1.00  0.00     0.007 A 
HETATM    3  C3  UNL     1     185.501  28.558 527.349  1.00  0.00     0.054 A 
HETATM    4  C4  UNL     1     184.788  28.371 526.155  1.00  0.00     0.038 A 
HETATM    5  C13 UNL     1     184.658  27.088 525.656  1.00  0.00    -0.006 A 
HETATM    6  C14 UNL     1     185.236  26.057 526.360  1.00  0.00     0.046 A 
HETATM    7  N4  UNL     1     185.915  26.263 527.503  1.00  0.00    -0.361 N 
ATOM      8  H4  UNL     1     186.325  25.464 527.987  1.00  0.00     0.165 HD
HETATM    9  C15 UNL     1     185.049  24.710 525.729  1.00  0.00     0.329 C 
HETATM   10  N5  UNL     1     185.318  24.767 524.326  1.00  0.00     0.090 N 
HETATM   11  C16 UNL     1     186.740  24.579 524.070  1.00  0.00     0.310 C 
HETATM   12  C17 UNL     1     184.790  25.859 523.597  1.00  0.00     0.277 C 
HETATM   13  C18 UNL     1     183.924  26.776 524.423  1.00  0.00     0.073 C 
ENDROOT
BRANCH   4  14
HETATM   14  N1  UNL     1     184.259  29.333 525.504  1.00  0.00    -0.389 N 
ATOM     15  H1  UNL     1     184.294  29.236 524.489  1.00  0.00     0.159 HD
BRANCH  14  16
HETATM   16  C5  UNL     1     183.636  30.511 525.968  1.00  0.00     0.121 C 
BRANCH  16  17
HETATM   17  C6  UNL     1     182.506  30.909 525.001  1.00  0.00     0.050 C 
BRANCH  17  18
HETATM   18  C7  UNL     1     182.098  29.672 524.284  1.00  0.00     0.274 C 
BRANCH  18  19
HETATM   19  N2  UNL     1     180.835  29.113 524.631  1.00  0.00     0.091 N 
HETATM   20  C8  UNL     1     179.944  30.168 525.056  1.00  0.00     0.302 C 
HETATM   21  C9  UNL     1     178.815  29.677 525.921  1.00  0.00     0.302 C 
HETATM   22  N3  UNL     1     179.268  28.971 527.093  1.00  0.00     0.087 N 
HETATM   23  C10 UNL     1     179.228  29.894 528.244  1.00  0.00     0.310 C 
HETATM   24  C11 UNL     1     180.657  28.557 527.001  1.00  0.00     0.302 C 
HETATM   25  C12 UNL     1     180.914  28.052 525.622  1.00  0.00     0.302 C 
ENDBRANCH  18  19
ENDBRANCH  17  18
ENDBRANCH  16  17
ENDBRANCH  14  16
ENDBRANCH   4  14
TORSDOF 5
ENDMDL
MODEL 2
REMARK VINA RESULT: -6.766754520      1.090      1.254
REMARK  5 active torsions:
REMARK  status: ('A' for Active; 'I' for Inactive)
REMARK    1  A    between atoms: C4_4  and  N1_5 
REMARK    2  A    between atoms: N1_5  and  C5_7 
REMARK    3  A    between atoms: C5_7  and  C6_8 
REMARK    4  A    between atoms: C6_8  and  C7_9 
REMARK    5  A    between atoms: C7_9  and  N2_10 
ROOT
HETATM    1  C1  UNL     1     185.937  25.409 528.568  1.00  0.00     0.068 C 
HETATM    2  C2  UNL     1     185.520  25.852 527.189  1.00  0.00     0.007 A 
HETATM    3  C3  UNL     1     185.213  27.167 526.907  1.00  0.00     0.054 A 
HETATM    4  C4  UNL     1     184.827  27.573 525.620  1.00  0.00     0.038 A 
HETATM    5  C13 UNL     1     184.758  26.623 524.619  1.00  0.00    -0.006 A 
HETATM    6  C14 UNL     1     185.071  25.322 524.938  1.00  0.00     0.046 A 
HETATM    7  N4  UNL     1     185.439  24.957 526.180  1.00  0.00    -0.361 N 
ATOM      8  H4  UNL     1     185.662  23.979 526.365  1.00  0.00     0.165 HD
HETATM    9  C15 UNL     1     184.978  24.373 523.782  1.00  0.00     0.329 C 
HETATM   10  N5  UNL     1     185.607  24.925 522.622  1.00  0.00     0.090 N 
HETATM   11  C16 UNL     1     187.033  24.627 522.623  1.00  0.00     0.310 C 
HETATM   12  C17 UNL     1     185.351  26.283 522.317  1.00  0.00     0.277 C 
HETATM   13  C18 UNL     1     184.354  26.934 523.242  1.00  0.00     0.073 C 
ENDROOT
BRANCH   4  14
HETATM   14  N1  UNL     1     184.543  28.784 525.331  1.00  0.00    -0.389 N 
ATOM     15  H1  UNL     1     184.652  29.027 524.347  1.00  0.00     0.159 HD
BRANCH  14  16
HETATM   16  C5  UNL     1     184.102  29.837 526.159  1.00  0.00     0.121 C 
BRANCH  16  17
HETATM   17  C6  UNL     1     183.004  30.636 525.432  1.00  0.00     0.050 C 
BRANCH  17  18
HETATM   18  C7  UNL     1     182.459  29.750 524.372  1.00  0.00     0.274 C 
BRANCH  18  19
HETATM   19  N2  UNL     1     181.138  29.251 524.565  1.00  0.00     0.091 N 
HETATM   20  C8  UNL     1     180.284  30.320 525.027  1.00  0.00     0.302 C 
HETATM   21  C9  UNL     1     179.060  29.829 525.752  1.00  0.00     0.302 C 
HETATM   22  N3  UNL     1     179.372  28.983 526.876  1.00  0.00     0.087 N 
HETATM   23  C10 UNL     1     179.297  29.792 528.109  1.00  0.00     0.310 C 
HETATM   24  C11 UNL     1     180.735  28.483 526.846  1.00  0.00     0.302 C 
HETATM   25  C12 UNL     1     181.070  28.096 525.445  1.00  0.00     0.302 C 
ENDBRANCH  18  19
ENDBRANCH  17  18
ENDBRANCH  16  17
ENDBRANCH  14  16
ENDBRANCH   4  14
TORSDOF 5
ENDMDL
MODEL 3
REMARK VINA RESULT: -6.499646653      1.805      5.973
REMARK  5 active torsions:
REMARK  status: ('A' for Active; 'I' for Inactive)
REMARK    1  A    between atoms: C4_4  and  N1_5 
REMARK    2  A    between atoms: N1_5  and  C5_7 
REMARK    3  A    between atoms: C5_7  and  C6_8 
REMARK    4  A    between atoms: C6_8  and  C7_9 
REMARK    5  A    between atoms: C7_9  and  N2_10 
ROOT
HETATM    1  C1  UNL     1     181.689  24.284 526.514  1.00  0.00     0.068 C 
HETATM    2  C2  UNL     1     182.015  25.674 526.034  1.00  0.00     0.007 A 
HETATM    3  C3  UNL     1     182.954  25.905 525.050  1.00  0.00     0.054 A 
HETATM    4  C4  UNL     1     183.252  27.202 524.606  1.00  0.00     0.038 A 
HETATM    5  C13 UNL     1     182.581  28.268 525.176  1.00  0.00    -0.006 A 
HETATM    6  C14 UNL     1     181.652  28.000 526.154  1.00  0.00     0.046 A 
HETATM    7  N4  UNL     1     181.383  26.746 526.563  1.00  0.00    -0.361 N 
ATOM      8  H4  UNL     1     180.685  26.600 527.292  1.00  0.00     0.165 HD
HETATM    9  C15 UNL     1     180.971  29.219 526.698  1.00  0.00     0.329 C 
HETATM   10  N5  UNL     1     180.561  30.086 525.636  1.00  0.00     0.090 N 
HETATM   11  C16 UNL     1     179.249  29.698 525.138  1.00  0.00     0.310 C 
HETATM   12  C17 UNL     1     181.479  30.319 524.585  1.00  0.00     0.277 C 
HETATM   13  C18 UNL     1     182.822  29.665 524.797  1.00  0.00     0.073 C 
ENDROOT
BRANCH   4  14
HETATM   14  N1  UNL     1     184.111  27.443 523.693  1.00  0.00    -0.389 N 
ATOM     15  H1  UNL     1     183.932  28.285 523.146  1.00  0.00     0.159 HD
BRANCH  14  16
HETATM   16  C5  UNL     1     185.269  26.728 523.323  1.00  0.00     0.121 C 
BRANCH  16  17
HETATM   17  C6  UNL     1     185.871  26.045 524.566  1.00  0.00     0.050 C 
BRANCH  17  18
HETATM   18  C7  UNL     1     186.791  27.029 525.193  1.00  0.00     0.274 C 
BRANCH  18  19
HETATM   19  N2  UNL     1     186.260  27.828 526.246  1.00  0.00     0.091 N 
HETATM   20  C8  UNL     1     187.334  28.554 526.885  1.00  0.00     0.302 C 
HETATM   21  C9  UNL     1     187.002  28.990 528.287  1.00  0.00     0.302 C 
HETATM   22  N3  UNL     1     186.626  27.895 529.144  1.00  0.00     0.087 N 
HETATM   23  C10 UNL     1     187.796  27.513 529.960  1.00  0.00     0.310 C 
HETATM   24  C11 UNL     1     186.283  26.692 528.406  1.00  0.00     0.302 C 
HETATM   25  C12 UNL     1     185.476  27.078 527.213  1.00  0.00     0.302 C 
ENDBRANCH  18  19
ENDBRANCH  17  18
ENDBRANCH  16  17
ENDBRANCH  14  16
ENDBRANCH   4  14
TORSDOF 5
ENDMDL
MODEL 4
REMARK VINA RESULT: -6.410437700      1.939      5.966
REMARK  5 active torsions:
REMARK  status: ('A' for Active; 'I' for Inactive)
REMARK    1  A    between atoms: C4_4  and  N1_5 
REMARK    2  A    between atoms: N1_5  and  C5_7 
REMARK    3  A    between atoms: C5_7  and  C6_8 
REMARK    4  A    between atoms: C6_8  and  C7_9 
REMARK    5  A    between atoms: C7_9  and  N2_10 
ROOT
HETATM    1  C1  UNL     1     186.209  26.142 522.073  1.00  0.00     0.068 C 
HETATM    2  C2  UNL     1     185.131  26.302 523.113  1.00  0.00     0.007 A 
HETATM    3  C3  UNL     1     185.013  25.436 524.181  1.00  0.00     0.054 A 
HETATM    4  C4  UNL     1     184.008  25.593 525.147  1.00  0.00     0.038 A 
HETATM    5  C13 UNL     1     183.120  26.643 525.015  1.00  0.00    -0.006 A 
HETATM    6  C14 UNL     1     183.268  27.485 523.938  1.00  0.00     0.046 A 
HETATM    7  N4  UNL     1     184.241  27.315 523.024  1.00  0.00    -0.361 N 
ATOM      8  H4  UNL     1     184.310  27.968 522.243  1.00  0.00     0.165 HD
HETATM    9  C15 UNL     1     182.265  28.599 523.892  1.00  0.00     0.329 C 
HETATM   10  N5  UNL     1     182.130  29.210 525.179  1.00  0.00     0.090 N 
HETATM   11  C16 UNL     1     183.132  30.253 525.356  1.00  0.00     0.310 C 
HETATM   12  C17 UNL     1     182.046  28.360 526.307  1.00  0.00     0.277 C 
HETATM   13  C18 UNL     1     182.023  26.893 525.959  1.00  0.00     0.073 C 
ENDROOT
BRANCH   4  14
HETATM   14  N1  UNL     1     183.880  24.810 526.147  1.00  0.00    -0.389 N 
ATOM     15  H1  UNL     1     182.919  24.549 526.368  1.00  0.00     0.159 HD
BRANCH  14  16
HETATM   16  C5  UNL     1     184.858  24.249 526.995  1.00  0.00     0.121 C 
BRANCH  16  17
HETATM   17  C6  UNL     1     186.016  25.248 527.174  1.00  0.00     0.050 C 
BRANCH  17  18
HETATM   18  C7  UNL     1     186.069  25.590 528.620  1.00  0.00     0.274 C 
BRANCH  18  19
HETATM   19  N2  UNL     1     185.894  26.961 528.965  1.00  0.00     0.091 N 
HETATM   20  C8  UNL     1     185.283  27.660 527.857  1.00  0.00     0.302 C 
HETATM   21  C9  UNL     1     185.531  29.144 527.884  1.00  0.00     0.302 C 
HETATM   22  N3  UNL     1     186.932  29.481 527.913  1.00  0.00     0.087 N 
HETATM   23  C10 UNL     1     187.360  29.832 526.544  1.00  0.00     0.310 C 
HETATM   24  C11 UNL     1     187.776  28.360 528.287  1.00  0.00     0.302 C 
HETATM   25  C12 UNL     1     187.117  27.617 529.399  1.00  0.00     0.302 C 
ENDBRANCH  18  19
ENDBRANCH  17  18
ENDBRANCH  16  17
ENDBRANCH  14  16
ENDBRANCH   4  14
TORSDOF 5
ENDMDL
MODEL 5
REMARK VINA RESULT: -6.176096386      1.385      5.824
REMARK  5 active torsions:
REMARK  status: ('A' for Active; 'I' for Inactive)
REMARK    1  A    between atoms: C4_4  and  N1_5 
REMARK    2  A    between atoms: N1_5  and  C5_7 
REMARK    3  A    between atoms: C5_7  and  C6_8 
REMARK    4  A    between atoms: C6_8  and  C7_9 
REMARK    5  A    between atoms: C7_9  and  N2_10 
ROOT
HETATM    1  C1  UNL     1     185.954  29.872 527.219  1.00  0.00     0.068 C 
HETATM    2  C2  UNL     1     184.884  29.442 526.249  1.00  0.00     0.007 A 
HETATM    3  C3  UNL     1     185.027  28.325 525.452  1.00  0.00     0.054 A 
HETATM    4  C4  UNL     1     184.026  27.929 524.552  1.00  0.00     0.038 A 
HETATM    5  C13 UNL     1     182.872  28.686 524.472  1.00  0.00    -0.006 A 
HETATM    6  C14 UNL     1     182.764  29.792 525.281  1.00  0.00     0.046 A 
HETATM    7  N4  UNL     1     183.739  30.151 526.137  1.00  0.00    -0.361 N 
ATOM      8  H4  UNL     1     183.611  30.981 526.717  1.00  0.00     0.165 HD
HETATM    9  C15 UNL     1     181.472  30.536 525.128  1.00  0.00     0.329 C 
HETATM   10  N5  UNL     1     180.365  29.629 525.121  1.00  0.00     0.090 N 
HETATM   11  C16 UNL     1     179.927  29.347 526.481  1.00  0.00     0.310 C 
HETATM   12  C17 UNL     1     180.484  28.450 524.348  1.00  0.00     0.277 C 
HETATM   13  C18 UNL     1     181.766  28.371 523.558  1.00  0.00     0.073 C 
ENDROOT
BRANCH   4  14
HETATM   14  N1  UNL     1     184.130  26.898 523.808  1.00  0.00    -0.389 N 
ATOM     15  H1  UNL     1     183.330  26.265 523.836  1.00  0.00     0.159 HD
BRANCH  14  16
HETATM   16  C5  UNL     1     185.178  26.494 522.954  1.00  0.00     0.121 C 
BRANCH  16  17
HETATM   17  C6  UNL     1     185.787  25.179 523.474  1.00  0.00     0.050 C 
BRANCH  17  18
HETATM   18  C7  UNL     1     184.944  24.737 524.616  1.00  0.00     0.274 C 
BRANCH  18  19
HETATM   19  N2  UNL     1     185.621  24.396 525.822  1.00  0.00     0.091 N 
HETATM   20  C8  UNL     1     184.780  24.722 526.952  1.00  0.00     0.302 C 
HETATM   21  C9  UNL     1     185.552  24.908 528.230  1.00  0.00     0.302 C 
HETATM   22  N3  UNL     1     186.580  25.913 528.127  1.00  0.00     0.087 N 
HETATM   23  C10 UNL     1     186.069  27.169 528.713  1.00  0.00     0.310 C 
HETATM   24  C11 UNL     1     186.903  26.252 526.753  1.00  0.00     0.302 C 
HETATM   25  C12 UNL     1     186.938  24.998 525.947  1.00  0.00     0.302 C 
ENDBRANCH  18  19
ENDBRANCH  17  18
ENDBRANCH  16  17
ENDBRANCH  14  16
ENDBRANCH   4  14
TORSDOF 5
ENDMDL
