MODEL 1
REMARK VINA RESULT: -8.121283290      0.000      0.000
REMARK  7 active torsions:
REMARK  status: ('A' for Active; 'I' for Inactive)
REMARK    1  A    between atoms: O1_1  and  C1_3 
REMARK    2  A    between atoms: C1_3  and  N3_20 
REMARK    3  A    between atoms: C2_4  and  N1_5 
REMARK    4  A    between atoms: C5_8  and  C6_9 
REMARK    5  A    between atoms: C6_9  and  O2_10 
REMARK    6  A    between atoms: C6_9  and  N2_12 
REMARK    7  A    between atoms: N3_20  and  C13_22 
ROOT
HETATM    1  N1  UNL     1     182.029  28.118 524.281  1.00  0.00    -0.386 N 
HETATM    2  C3  UNL     1     183.124  27.580 523.545  1.00  0.00     0.123 C 
HETATM    3  C4  UNL     1     184.042  26.625 524.194  1.00  0.00     0.032 C 
HETATM    4  C5  UNL     1     183.717  26.528 525.668  1.00  0.00     0.063 C 
HETATM    5  C11 UNL     1     182.277  26.086 525.701  1.00  0.00     0.032 C 
HETATM    6  C12 UNL     1     181.470  27.305 525.291  1.00  0.00     0.123 C 
ENDROOT
BRANCH   1   7
HETATM    7  C2  UNL     1     182.130  29.505 524.532  1.00  0.00     0.141 C 
HETATM    8  C1  UNL     1     181.645  30.101 525.735  1.00  0.00     0.151 C 
BRANCH   8   9
HETATM    9  O1  UNL     1     181.853  31.382 525.839  1.00  0.00    -0.345 OA
ATOM     10  H1  UNL     1     182.075  31.684 526.712  1.00  0.00     0.219 HD
ENDBRANCH   8   9
BRANCH   8  11
HETATM   11  N3  UNL     1     180.983  29.521 526.812  1.00  0.00    -0.365 N 
ATOM     12  H3  UNL     1     181.437  28.784 527.353  1.00  0.00     0.162 HD
BRANCH  11  13
HETATM   13  C13 UNL     1     179.631  29.968 527.175  1.00  0.00     0.083 C 
HETATM   14  C14 UNL     1     179.628  31.192 528.031  1.00  0.00     0.025 C 
HETATM   15  C15 UNL     1     178.829  30.438 529.072  1.00  0.00     0.004 C 
HETATM   16  C16 UNL     1     179.164  29.161 528.369  1.00  0.00     0.025 C 
ENDBRANCH  11  13
ENDBRANCH   8  11
ENDBRANCH   1   7
BRANCH   4  17
HETATM   17  C6  UNL     1     184.649  25.777 526.488  1.00  0.00     0.117 C 
BRANCH  17  18
HETATM   18  O2  UNL     1     184.328  24.518 526.708  1.00  0.00    -0.349 OA
ATOM     19  H2  UNL     1     184.041  24.316 527.591  1.00  0.00     0.219 HD
ENDBRANCH  17  18
BRANCH  17  20
HETATM   20  N2  UNL     1     185.847  26.152 527.100  1.00  0.00    -0.364 N 
HETATM   21  C7  UNL     1     186.164  26.155 528.507  1.00  0.00     0.134 C 
HETATM   22  C8  UNL     1     186.180  27.584 529.032  1.00  0.00     0.093 C 
HETATM   23  S1  UNL     1     187.386  28.561 528.033  1.00  0.00    -0.166 SA
HETATM   24  C9  UNL     1     186.993  28.132 526.292  1.00  0.00     0.093 C 
HETATM   25  C10 UNL     1     186.950  26.621 526.214  1.00  0.00     0.134 C 
ENDBRANCH  17  20
ENDBRANCH   4  17
TORSDOF 7
ENDMDL
MODEL 2
REMARK VINA RESULT: -7.834319840      2.672      5.855
REMARK  7 active torsions:
REMARK  status: ('A' for Active; 'I' for Inactive)
REMARK    1  A    between atoms: O1_1  and  C1_3 
REMARK    2  A    between atoms: C1_3  and  N3_20 
REMARK    3  A    between atoms: C2_4  and  N1_5 
REMARK    4  A    between atoms: C5_8  and  C6_9 
REMARK    5  A    between atoms: C6_9  and  O2_10 
REMARK    6  A    between atoms: C6_9  and  N2_12 
REMARK    7  A    between atoms: N3_20  and  C13_22 
ROOT
HETATM    1  N1  UNL     1     186.338  25.202 525.569  1.00  0.00    -0.386 N 
HETATM    2  C3  UNL     1     185.142  24.653 525.024  1.00  0.00     0.123 C 
HETATM    3  C4  UNL     1     184.085  25.552 524.525  1.00  0.00     0.032 C 
HETATM    4  C5  UNL     1     184.430  26.984 524.872  1.00  0.00     0.063 C 
HETATM    5  C11 UNL     1     185.765  27.212 524.213  1.00  0.00     0.032 C 
HETATM    6  C12 UNL     1     186.769  26.444 525.055  1.00  0.00     0.123 C 
ENDROOT
BRANCH   1   7
HETATM    7  C2  UNL     1     186.499  24.970 526.954  1.00  0.00     0.141 C 
HETATM    8  C1  UNL     1     185.975  25.856 527.942  1.00  0.00     0.151 C 
BRANCH   8   9
HETATM    9  O1  UNL     1     186.166  25.482 529.175  1.00  0.00    -0.345 OA
ATOM     10  H1  UNL     1     187.051  25.600 529.499  1.00  0.00     0.219 HD
ENDBRANCH   8   9
BRANCH   8  11
HETATM   11  N3  UNL     1     185.295  27.060 527.790  1.00  0.00    -0.365 N 
ATOM     12  H3  UNL     1     184.386  27.076 527.326  1.00  0.00     0.162 HD
BRANCH  11  13
HETATM   13  C13 UNL     1     185.882  28.309 528.296  1.00  0.00     0.083 C 
HETATM   14  C14 UNL     1     185.866  29.412 527.290  1.00  0.00     0.025 C 
HETATM   15  C15 UNL     1     187.367  29.545 527.440  1.00  0.00     0.004 C 
HETATM   16  C16 UNL     1     187.386  28.226 528.145  1.00  0.00     0.025 C 
ENDBRANCH  11  13
ENDBRANCH   8  11
ENDBRANCH   1   7
BRANCH   4  17
HETATM   17  C6  UNL     1     183.401  27.976 524.622  1.00  0.00     0.117 C 
BRANCH  17  18
HETATM   18  O2  UNL     1     183.033  28.110 523.364  1.00  0.00    -0.349 OA
ATOM     19  H2  UNL     1     182.668  27.333 522.957  1.00  0.00     0.219 HD
ENDBRANCH  17  18
BRANCH  17  20
HETATM   20  N2  UNL     1     182.718  28.833 525.487  1.00  0.00    -0.364 N 
HETATM   21  C7  UNL     1     181.766  28.486 526.514  1.00  0.00     0.134 C 
HETATM   22  C8  UNL     1     180.359  28.847 526.059  1.00  0.00     0.093 C 
HETATM   23  S1  UNL     1     180.322  30.644 525.638  1.00  0.00    -0.166 SA
HETATM   24  C9  UNL     1     181.813  30.901 524.599  1.00  0.00     0.093 C 
HETATM   25  C10 UNL     1     182.978  30.293 525.350  1.00  0.00     0.134 C 
ENDBRANCH  17  20
ENDBRANCH   4  17
TORSDOF 7
ENDMDL
MODEL 3
REMARK VINA RESULT: -7.800180773      1.457      1.751
REMARK  7 active torsions:
REMARK  status: ('A' for Active; 'I' for Inactive)
REMARK    1  A    between atoms: O1_1  and  C1_3 
REMARK    2  A    between atoms: C1_3  and  N3_20 
REMARK    3  A    between atoms: C2_4  and  N1_5 
REMARK    4  A    between atoms: C5_8  and  C6_9 
REMARK    5  A    between atoms: C6_9  and  O2_10 
REMARK    6  A    between atoms: C6_9  and  N2_12 
REMARK    7  A    between atoms: N3_20  and  C13_22 
ROOT
HETATM    1  N1  UNL     1     181.335  28.615 525.225  1.00  0.00    -0.386 N 
HETATM    2  C3  UNL     1     181.730  28.215 523.916  1.00  0.00     0.123 C 
HETATM    3  C4  UNL     1     183.016  27.520 523.721  1.00  0.00     0.032 C 
HETATM    4  C5  UNL     1     183.795  27.518 525.017  1.00  0.00     0.063 C 
HETATM    5  C11 UNL     1     182.885  26.823 525.995  1.00  0.00     0.032 C 
HETATM    6  C12 UNL     1     181.784  27.822 526.303  1.00  0.00     0.123 C 
ENDROOT
BRANCH   1   7
HETATM    7  C2  UNL     1     181.290  30.016 525.410  1.00  0.00     0.141 C 
HETATM    8  C1  UNL     1     180.654  30.615 526.539  1.00  0.00     0.151 C 
BRANCH   8   9
HETATM    9  O1  UNL     1     180.736  31.914 526.592  1.00  0.00    -0.345 OA
ATOM     10  H1  UNL     1     180.834  32.345 525.751  1.00  0.00     0.219 HD
ENDBRANCH   8   9
BRANCH   8  11
HETATM   11  N3  UNL     1     179.960  30.025 527.590  1.00  0.00    -0.365 N 
ATOM     12  H3  UNL     1     179.876  29.009 527.637  1.00  0.00     0.162 HD
BRANCH  11  13
HETATM   13  C13 UNL     1     179.347  30.860 528.631  1.00  0.00     0.083 C 
HETATM   14  C14 UNL     1     179.943  30.642 529.983  1.00  0.00     0.025 C 
HETATM   15  C15 UNL     1     178.565  30.309 530.516  1.00  0.00     0.004 C 
HETATM   16  C16 UNL     1     178.080  30.180 529.106  1.00  0.00     0.025 C 
ENDBRANCH  11  13
ENDBRANCH   8  11
ENDBRANCH   1   7
BRANCH   4  17
HETATM   17  C6  UNL     1     185.164  27.041 524.948  1.00  0.00     0.117 C 
BRANCH  17  18
HETATM   18  O2  UNL     1     185.597  26.724 523.745  1.00  0.00    -0.349 OA
ATOM     19  H2  UNL     1     185.920  27.447 523.220  1.00  0.00     0.219 HD
ENDBRANCH  17  18
BRANCH  17  20
HETATM   20  N2  UNL     1     186.125  26.852 525.944  1.00  0.00    -0.364 N 
HETATM   21  C7  UNL     1     186.455  25.633 526.641  1.00  0.00     0.134 C 
HETATM   22  C8  UNL     1     185.906  25.682 528.060  1.00  0.00     0.093 C 
HETATM   23  S1  UNL     1     186.583  27.182 528.898  1.00  0.00    -0.166 SA
HETATM   24  C9  UNL     1     186.345  28.533 527.679  1.00  0.00     0.093 C 
HETATM   25  C10 UNL     1     186.916  28.042 526.366  1.00  0.00     0.134 C 
ENDBRANCH  17  20
ENDBRANCH   4  17
TORSDOF 7
ENDMDL
MODEL 4
REMARK VINA RESULT: -7.778729853      1.396      1.847
REMARK  7 active torsions:
REMARK  status: ('A' for Active; 'I' for Inactive)
REMARK    1  A    between atoms: O1_1  and  C1_3 
REMARK    2  A    between atoms: C1_3  and  N3_20 
REMARK    3  A    between atoms: C2_4  and  N1_5 
REMARK    4  A    between atoms: C5_8  and  C6_9 
REMARK    5  A    between atoms: C6_9  and  O2_10 
REMARK    6  A    between atoms: C6_9  and  N2_12 
REMARK    7  A    between atoms: N3_20  and  C13_22 
ROOT
HETATM    1  N1  UNL     1     181.802  28.678 524.324  1.00  0.00    -0.386 N 
HETATM    2  C3  UNL     1     182.336  29.036 525.595  1.00  0.00     0.123 C 
HETATM    3  C4  UNL     1     183.373  28.191 526.216  1.00  0.00     0.032 C 
HETATM    4  C5  UNL     1     183.556  26.929 525.402  1.00  0.00     0.063 C 
HETATM    5  C11 UNL     1     183.935  27.425 524.031  1.00  0.00     0.032 C 
HETATM    6  C12 UNL     1     182.657  27.989 523.437  1.00  0.00     0.123 C 
ENDROOT
BRANCH   1   7
HETATM    7  C2  UNL     1     180.441  28.299 524.357  1.00  0.00     0.141 C 
HETATM    8  C1  UNL     1     179.455  29.055 525.061  1.00  0.00     0.151 C 
BRANCH   8   9
HETATM    9  O1  UNL     1     178.238  28.603 524.959  1.00  0.00    -0.345 OA
ATOM     10  H1  UNL     1     177.584  29.097 525.440  1.00  0.00     0.219 HD
ENDBRANCH   8   9
BRANCH   8  11
HETATM   11  N3  UNL     1     179.597  30.199 525.839  1.00  0.00    -0.365 N 
ATOM     12  H3  UNL     1     179.411  31.117 525.434  1.00  0.00     0.162 HD
BRANCH  11  13
HETATM   13  C13 UNL     1     180.012  30.089 527.244  1.00  0.00     0.083 C 
HETATM   14  C14 UNL     1     179.104  29.227 528.058  1.00  0.00     0.025 C 
HETATM   15  C15 UNL     1     178.890  30.384 529.010  1.00  0.00     0.004 C 
HETATM   16  C16 UNL     1     179.494  31.299 527.993  1.00  0.00     0.025 C 
ENDBRANCH  11  13
ENDBRANCH   8  11
ENDBRANCH   1   7
BRANCH   4  17
HETATM   17  C6  UNL     1     184.402  25.902 525.981  1.00  0.00     0.117 C 
BRANCH  17  18
HETATM   18  O2  UNL     1     183.945  24.669 525.890  1.00  0.00    -0.349 OA
ATOM     19  H2  UNL     1     183.640  24.407 525.030  1.00  0.00     0.219 HD
ENDBRANCH  17  18
BRANCH  17  20
HETATM   20  N2  UNL     1     185.634  25.983 526.631  1.00  0.00    -0.364 N 
HETATM   21  C7  UNL     1     185.937  25.668 528.006  1.00  0.00     0.134 C 
HETATM   22  C8  UNL     1     186.146  26.952 528.798  1.00  0.00     0.093 C 
HETATM   23  S1  UNL     1     187.484  27.930 527.986  1.00  0.00    -0.166 SA
HETATM   24  C9  UNL     1     187.049  27.907 526.203  1.00  0.00     0.093 C 
HETATM   25  C10 UNL     1     186.799  26.460 525.833  1.00  0.00     0.134 C 
ENDBRANCH  17  20
ENDBRANCH   4  17
TORSDOF 7
ENDMDL
MODEL 5
REMARK VINA RESULT: -7.720841580      2.575      6.163
REMARK  7 active torsions:
REMARK  status: ('A' for Active; 'I' for Inactive)
REMARK    1  A    between atoms: O1_1  and  C1_3 
REMARK    2  A    between atoms: C1_3  and  N3_20 
REMARK    3  A    between atoms: C2_4  and  N1_5 
REMARK    4  A    between atoms: C5_8  and  C6_9 
REMARK    5  A    between atoms: C6_9  and  O2_10 
REMARK    6  A    between atoms: C6_9  and  N2_12 
REMARK    7  A    between atoms: N3_20  and  C13_22 
ROOT
HETATM    1  N1  UNL     1     184.504  24.843 525.729  1.00  0.00    -0.386 N 
HETATM    2  C3  UNL     1     183.102  25.042 525.887  1.00  0.00     0.123 C 
HETATM    3  C4  UNL     1     182.523  26.378 525.657  1.00  0.00     0.032 C 
HETATM    4  C5  UNL     1     183.633  27.385 525.448  1.00  0.00     0.063 C 
HETATM    5  C11 UNL     1     184.396  26.854 524.263  1.00  0.00     0.032 C 
HETATM    6  C12 UNL     1     185.167  25.654 524.782  1.00  0.00     0.123 C 
ENDROOT
BRANCH   1   7
HETATM    7  C2  UNL     1     185.183  24.545 526.933  1.00  0.00     0.141 C 
HETATM    8  C1  UNL     1     185.660  25.563 527.812  1.00  0.00     0.151 C 
BRANCH   8   9
HETATM    9  O1  UNL     1     186.224  25.129 528.903  1.00  0.00    -0.345 OA
ATOM     10  H1  UNL     1     186.239  24.184 528.999  1.00  0.00     0.219 HD
ENDBRANCH   8   9
BRANCH   8  11
HETATM   11  N3  UNL     1     185.616  26.947 527.680  1.00  0.00    -0.365 N 
ATOM     12  H3  UNL     1     184.724  27.415 527.517  1.00  0.00     0.162 HD
BRANCH  11  13
HETATM   13  C13 UNL     1     186.852  27.737 527.777  1.00  0.00     0.083 C 
HETATM   14  C14 UNL     1     186.618  29.132 528.256  1.00  0.00     0.025 C 
HETATM   15  C15 UNL     1     187.290  29.654 527.004  1.00  0.00     0.004 C 
HETATM   16  C16 UNL     1     187.175  28.289 526.404  1.00  0.00     0.025 C 
ENDBRANCH  11  13
ENDBRANCH   8  11
ENDBRANCH   1   7
BRANCH   4  17
HETATM   17  C6  UNL     1     183.240  28.781 525.399  1.00  0.00     0.117 C 
BRANCH  17  18
HETATM   18  O2  UNL     1     184.091  29.632 525.935  1.00  0.00    -0.349 OA
ATOM     19  H2  UNL     1     184.971  29.300 526.073  1.00  0.00     0.219 HD
ENDBRANCH  17  18
BRANCH  17  20
HETATM   20  N2  UNL     1     182.101  29.399 524.880  1.00  0.00    -0.364 N 
HETATM   21  C7  UNL     1     181.587  30.713 525.180  1.00  0.00     0.134 C 
HETATM   22  C8  UNL     1     180.351  30.597 526.063  1.00  0.00     0.093 C 
HETATM   23  S1  UNL     1     179.114  29.533 525.201  1.00  0.00    -0.166 SA
HETATM   24  C9  UNL     1     180.079  28.082 524.624  1.00  0.00     0.093 C 
HETATM   25  C10 UNL     1     181.291  28.626 523.897  1.00  0.00     0.134 C 
ENDBRANCH  17  20
ENDBRANCH   4  17
TORSDOF 7
ENDMDL
