MODEL 1
REMARK VINA RESULT: -7.599258488      0.000      0.000
REMARK  4 active torsions:
REMARK  status: ('A' for Active; 'I' for Inactive)
REMARK    1  A    between atoms: C2_2  and  S1_4 
REMARK    2  A    between atoms: S1_4  and  C4_5 
REMARK    3  A    between atoms: N3_14  and  S2_15 
REMARK    4  A    between atoms: S2_15  and  N4_18 
ROOT
HETATM    1  C4  UNL     1     185.523  25.893 524.966  1.00  0.00     0.145 A 
HETATM    2  N1  UNL     1     184.249  25.690 525.337  1.00  0.00    -0.338 N 
ATOM      3  H1  UNL     1     183.729  24.822 525.209  1.00  0.00     0.168 HD
HETATM    4  C5  UNL     1     183.763  26.811 525.902  1.00  0.00     0.038 A 
HETATM    5  C6  UNL     1     184.775  27.725 525.873  1.00  0.00     0.035 A 
HETATM    6  N2  UNL     1     185.837  27.156 525.303  1.00  0.00    -0.339 N 
ATOM      7  H2  UNL     1     186.739  27.606 525.149  1.00  0.00     0.168 HD
HETATM    8  C7  UNL     1     184.719  29.121 526.387  1.00  0.00     0.080 C 
HETATM    9  C8  UNL     1     183.663  29.932 525.675  1.00  0.00     0.147 C 
HETATM   10  N3  UNL     1     182.392  29.309 525.644  1.00  0.00    -0.277 N 
HETATM   11  C11 UNL     1     182.092  28.406 526.682  1.00  0.00     0.083 C 
HETATM   12  C12 UNL     1     182.383  26.974 526.439  1.00  0.00     0.104 C 
ENDROOT
BRANCH  10  13
HETATM   13  S2  UNL     1     181.118  30.285 525.109  1.00  0.00     0.303 S 
HETATM   14  O1  UNL     1     181.538  31.212 524.008  1.00  0.00    -0.188 OA
HETATM   15  O2  UNL     1     180.558  31.141 526.235  1.00  0.00    -0.188 OA
BRANCH  13  16
HETATM   16  N4  UNL     1     179.821  29.275 524.581  1.00  0.00    -0.201 NA
HETATM   17  C9  UNL     1     180.241  27.971 524.174  1.00  0.00     0.130 C 
HETATM   18  C10 UNL     1     178.745  29.208 525.534  1.00  0.00     0.130 C 
ENDBRANCH  13  16
ENDBRANCH  10  13
BRANCH   1  19
HETATM   19  S1  UNL     1     186.653  24.776 524.179  1.00  0.00    -0.090 SA
BRANCH  19  20
HETATM   20  C2  UNL     1     186.563  24.870 522.376  1.00  0.00     0.047 C 
HETATM   21  C1  UNL     1     185.585  23.814 521.904  1.00  0.00     0.021 C 
HETATM   22  C3  UNL     1     186.019  26.214 521.925  1.00  0.00     0.021 C 
ENDBRANCH  19  20
ENDBRANCH   1  19
TORSDOF 4
ENDMDL
MODEL 2
REMARK VINA RESULT: -7.572901543      2.365      3.808
REMARK  4 active torsions:
REMARK  status: ('A' for Active; 'I' for Inactive)
REMARK    1  A    between atoms: C2_2  and  S1_4 
REMARK    2  A    between atoms: S1_4  and  C4_5 
REMARK    3  A    between atoms: N3_14  and  S2_15 
REMARK    4  A    between atoms: S2_15  and  N4_18 
ROOT
HETATM    1  C4  UNL     1     185.509  27.165 525.752  1.00  0.00     0.145 A 
HETATM    2  N1  UNL     1     184.969  27.861 524.738  1.00  0.00    -0.338 N 
ATOM      3  H1  UNL     1     185.488  28.449 524.086  1.00  0.00     0.168 HD
HETATM    4  C5  UNL     1     183.638  27.665 524.719  1.00  0.00     0.038 A 
HETATM    5  C6  UNL     1     183.358  26.822 525.754  1.00  0.00     0.035 A 
HETATM    6  N2  UNL     1     184.501  26.526 526.373  1.00  0.00    -0.339 N 
ATOM      7  H2  UNL     1     184.596  25.916 527.185  1.00  0.00     0.168 HD
HETATM    8  C7  UNL     1     182.014  26.312 526.140  1.00  0.00     0.080 C 
HETATM    9  C8  UNL     1     181.078  27.437 526.506  1.00  0.00     0.147 C 
HETATM   10  N3  UNL     1     181.014  28.464 525.534  1.00  0.00    -0.277 N 
HETATM   11  C11 UNL     1     181.297  28.108 524.202  1.00  0.00     0.083 C 
HETATM   12  C12 UNL     1     182.695  28.272 523.739  1.00  0.00     0.104 C 
ENDROOT
BRANCH  10  13
HETATM   13  S2  UNL     1     179.784  29.603 525.760  1.00  0.00     0.303 S 
HETATM   14  O1  UNL     1     178.427  29.039 525.462  1.00  0.00    -0.188 OA
HETATM   15  O2  UNL     1     179.976  30.819 524.866  1.00  0.00    -0.188 OA
BRANCH  13  16
HETATM   16  N4  UNL     1     179.848  30.184 527.384  1.00  0.00    -0.201 NA
HETATM   17  C9  UNL     1     179.893  31.608 527.481  1.00  0.00     0.130 C 
HETATM   18  C10 UNL     1     178.807  29.634 528.212  1.00  0.00     0.130 C 
ENDBRANCH  13  16
ENDBRANCH  10  13
BRANCH   1  19
HETATM   19  S1  UNL     1     187.205  27.046 526.253  1.00  0.00    -0.090 SA
BRANCH  19  20
HETATM   20  C2  UNL     1     187.589  28.150 527.634  1.00  0.00     0.047 C 
HETATM   21  C1  UNL     1     187.052  29.525 527.292  1.00  0.00     0.021 C 
HETATM   22  C3  UNL     1     186.887  27.701 528.904  1.00  0.00     0.021 C 
ENDBRANCH  19  20
ENDBRANCH   1  19
TORSDOF 4
ENDMDL
MODEL 3
REMARK VINA RESULT: -7.520597711      3.611      7.223
REMARK  4 active torsions:
REMARK  status: ('A' for Active; 'I' for Inactive)
REMARK    1  A    between atoms: C2_2  and  S1_4 
REMARK    2  A    between atoms: S1_4  and  C4_5 
REMARK    3  A    between atoms: N3_14  and  S2_15 
REMARK    4  A    between atoms: S2_15  and  N4_18 
ROOT
HETATM    1  C4  UNL     1     180.207  29.244 527.151  1.00  0.00     0.145 A 
HETATM    2  N1  UNL     1     180.541  27.946 527.056  1.00  0.00    -0.338 N 
ATOM      3  H1  UNL     1     180.016  27.172 527.461  1.00  0.00     0.168 HD
HETATM    4  C5  UNL     1     181.677  27.828 526.344  1.00  0.00     0.038 A 
HETATM    5  C6  UNL     1     182.046  29.094 525.996  1.00  0.00     0.035 A 
HETATM    6  N2  UNL     1     181.146  29.943 526.491  1.00  0.00    -0.339 N 
ATOM      7  H2  UNL     1     181.167  30.958 526.387  1.00  0.00     0.168 HD
HETATM    8  C7  UNL     1     183.243  29.478 525.199  1.00  0.00     0.080 C 
HETATM    9  C8  UNL     1     184.521  29.049 525.878  1.00  0.00     0.147 C 
HETATM   10  N3  UNL     1     184.533  27.687 526.261  1.00  0.00    -0.277 N 
HETATM   11  C11 UNL     1     183.729  26.802 525.519  1.00  0.00     0.083 C 
HETATM   12  C12 UNL     1     182.360  26.544 526.025  1.00  0.00     0.104 C 
ENDROOT
BRANCH  10  13
HETATM   13  S2  UNL     1     186.032  27.089 526.771  1.00  0.00     0.303 S 
HETATM   14  O1  UNL     1     187.074  27.181 525.696  1.00  0.00    -0.188 OA
HETATM   15  O2  UNL     1     185.939  25.629 527.189  1.00  0.00    -0.188 OA
BRANCH  13  16
HETATM   16  N4  UNL     1     186.537  27.961 528.172  1.00  0.00    -0.201 NA
HETATM   17  C9  UNL     1     186.730  27.134 529.321  1.00  0.00     0.130 C 
HETATM   18  C10 UNL     1     187.685  28.793 527.924  1.00  0.00     0.130 C 
ENDBRANCH  13  16
ENDBRANCH  10  13
BRANCH   1  19
HETATM   19  S1  UNL     1     178.819  29.987 527.967  1.00  0.00    -0.090 SA
BRANCH  19  20
HETATM   20  C2  UNL     1     178.975  29.934 529.768  1.00  0.00     0.047 C 
HETATM   21  C1  UNL     1     180.051  30.922 530.169  1.00  0.00     0.021 C 
HETATM   22  C3  UNL     1     177.688  30.378 530.442  1.00  0.00     0.021 C 
ENDBRANCH  19  20
ENDBRANCH   1  19
TORSDOF 4
ENDMDL
MODEL 4
REMARK VINA RESULT: -7.280347812      3.403      7.121
REMARK  4 active torsions:
REMARK  status: ('A' for Active; 'I' for Inactive)
REMARK    1  A    between atoms: C2_2  and  S1_4 
REMARK    2  A    between atoms: S1_4  and  C4_5 
REMARK    3  A    between atoms: N3_14  and  S2_15 
REMARK    4  A    between atoms: S2_15  and  N4_18 
ROOT
HETATM    1  C4  UNL     1     180.172  29.311 527.157  1.00  0.00     0.145 A 
HETATM    2  N1  UNL     1     180.511  28.022 526.990  1.00  0.00    -0.338 N 
ATOM      3  H1  UNL     1     180.002  27.225 527.372  1.00  0.00     0.168 HD
HETATM    4  C5  UNL     1     181.627  27.946 526.241  1.00  0.00     0.038 A 
HETATM    5  C6  UNL     1     181.979  29.230 525.944  1.00  0.00     0.035 A 
HETATM    6  N2  UNL     1     181.089  30.048 526.505  1.00  0.00    -0.339 N 
ATOM      7  H2  UNL     1     181.101  31.067 526.448  1.00  0.00     0.168 HD
HETATM    8  C7  UNL     1     183.151  29.659 525.134  1.00  0.00     0.080 C 
HETATM    9  C8  UNL     1     184.450  29.208 525.756  1.00  0.00     0.147 C 
HETATM   10  N3  UNL     1     184.481  27.829 526.073  1.00  0.00    -0.277 N 
HETATM   11  C11 UNL     1     183.661  26.975 525.312  1.00  0.00     0.083 C 
HETATM   12  C12 UNL     1     182.309  26.683 525.843  1.00  0.00     0.104 C 
ENDROOT
BRANCH  10  13
HETATM   13  S2  UNL     1     185.996  27.218 526.511  1.00  0.00     0.303 S 
HETATM   14  O1  UNL     1     186.547  27.891 527.733  1.00  0.00    -0.188 OA
HETATM   15  O2  UNL     1     187.015  27.396 525.396  1.00  0.00    -0.188 OA
BRANCH  13  16
HETATM   16  N4  UNL     1     185.861  25.517 526.774  1.00  0.00    -0.201 NA
HETATM   17  C9  UNL     1     186.799  24.746 526.021  1.00  0.00     0.130 C 
HETATM   18  C10 UNL     1     185.892  25.167 528.170  1.00  0.00     0.130 C 
ENDBRANCH  13  16
ENDBRANCH  10  13
BRANCH   1  19
HETATM   19  S1  UNL     1     178.803  30.005 528.045  1.00  0.00    -0.090 SA
BRANCH  19  20
HETATM   20  C2  UNL     1     179.041  29.927 529.836  1.00  0.00     0.047 C 
HETATM   21  C1  UNL     1     180.093  30.950 530.210  1.00  0.00     0.021 C 
HETATM   22  C3  UNL     1     177.768  30.307 530.573  1.00  0.00     0.021 C 
ENDBRANCH  19  20
ENDBRANCH   1  19
TORSDOF 4
ENDMDL
MODEL 5
REMARK VINA RESULT: -7.154923975      2.355      3.395
REMARK  4 active torsions:
REMARK  status: ('A' for Active; 'I' for Inactive)
REMARK    1  A    between atoms: C2_2  and  S1_4 
REMARK    2  A    between atoms: S1_4  and  C4_5 
REMARK    3  A    between atoms: N3_14  and  S2_15 
REMARK    4  A    between atoms: S2_15  and  N4_18 
ROOT
HETATM    1  C4  UNL     1     185.365  27.264 525.495  1.00  0.00     0.145 A 
HETATM    2  N1  UNL     1     185.005  28.470 525.964  1.00  0.00    -0.338 N 
ATOM      3  H1  UNL     1     185.442  28.950 526.751  1.00  0.00     0.168 HD
HETATM    4  C5  UNL     1     183.979  28.946 525.234  1.00  0.00     0.038 A 
HETATM    5  C6  UNL     1     183.706  27.999 524.292  1.00  0.00     0.035 A 
HETATM    6  N2  UNL     1     184.552  26.984 524.461  1.00  0.00    -0.339 N 
ATOM      7  H2  UNL     1     184.580  26.134 523.897  1.00  0.00     0.168 HD
HETATM    8  C7  UNL     1     182.647  28.071 523.248  1.00  0.00     0.080 C 
HETATM    9  C8  UNL     1     181.272  28.185 523.859  1.00  0.00     0.147 C 
HETATM   10  N3  UNL     1     181.161  29.216 524.823  1.00  0.00    -0.277 N 
HETATM   11  C11 UNL     1     182.033  30.312 524.696  1.00  0.00     0.083 C 
HETATM   12  C12 UNL     1     183.307  30.257 525.452  1.00  0.00     0.104 C 
ENDROOT
BRANCH  10  13
HETATM   13  S2  UNL     1     179.586  29.566 525.333  1.00  0.00     0.303 S 
HETATM   14  O1  UNL     1     178.571  28.663 524.699  1.00  0.00    -0.188 OA
HETATM   15  O2  UNL     1     179.195  30.997 524.997  1.00  0.00    -0.188 OA
BRANCH  13  16
HETATM   16  N4  UNL     1     179.512  29.437 527.053  1.00  0.00    -0.201 NA
HETATM   17  C9  UNL     1     180.485  28.546 527.602  1.00  0.00     0.130 C 
HETATM   18  C10 UNL     1     179.542  30.717 527.709  1.00  0.00     0.130 C 
ENDBRANCH  13  16
ENDBRANCH  10  13
BRANCH   1  19
HETATM   19  S1  UNL     1     186.646  26.177 526.062  1.00  0.00    -0.090 SA
BRANCH  19  20
HETATM   20  C2  UNL     1     186.059  25.032 527.332  1.00  0.00     0.047 C 
HETATM   21  C1  UNL     1     186.021  25.778 528.649  1.00  0.00     0.021 C 
HETATM   22  C3  UNL     1     184.641  24.572 527.039  1.00  0.00     0.021 C 
ENDBRANCH  19  20
ENDBRANCH   1  19
TORSDOF 4
ENDMDL
