MODEL 1
REMARK VINA RESULT: -7.848173955      0.000      0.000
REMARK  6 active torsions:
REMARK  status: ('A' for Active; 'I' for Inactive)
REMARK    1  A    between atoms: C2_2  and  C3_3 
REMARK    2  A    between atoms: C3_3  and  S1_4 
REMARK    3  A    between atoms: S1_4  and  N1_7 
REMARK    4  A    between atoms: N2_15  and  N3_17 
REMARK    5  A    between atoms: N3_17  and  C11_19 
REMARK    6  A    between atoms: C11_19  and  N4_21 
ROOT
HETATM    1  C3  UNL     1     184.917  26.839 523.860  1.00  0.00     0.217 C 
ENDROOT
BRANCH   1   2
HETATM    2  C2  UNL     1     185.740  25.679 524.216  1.00  0.00     0.015 C 
HETATM    3  C1  UNL     1     185.618  24.414 523.449  1.00  0.00     0.066 C 
HETATM    4  N2  UNL     1     186.573  25.714 525.185  1.00  0.00    -0.306 N 
ATOM      5  H2  UNL     1     187.123  24.884 525.404  1.00  0.00     0.186 HD
BRANCH   4   6
HETATM    6  N3  UNL     1     186.741  26.859 525.942  1.00  0.00    -0.276 N 
ATOM      7  H3  UNL     1     186.967  27.735 525.471  1.00  0.00     0.189 HD
BRANCH   6   8
HETATM    8  C11 UNL     1     186.611  26.850 527.344  1.00  0.00     0.188 C 
HETATM    9  S2  UNL     1     185.966  25.463 527.986  1.00  0.00    -0.039 SA
BRANCH   8  10
HETATM   10  N4  UNL     1     186.969  27.882 528.211  1.00  0.00    -0.366 N 
HETATM   11  C12 UNL     1     187.251  27.694 529.606  1.00  0.00     0.151 C 
HETATM   12  C13 UNL     1     187.069  29.254 527.692  1.00  0.00     0.151 C 
ENDBRANCH   8  10
ENDBRANCH   6   8
ENDBRANCH   4   6
ENDBRANCH   1   2
BRANCH   1  13
HETATM   13  S1  UNL     1     183.555  26.910 525.035  1.00  0.00     0.237 S 
HETATM   14  O1  UNL     1     183.224  25.489 525.393  1.00  0.00    -0.205 OA
HETATM   15  O2  UNL     1     184.062  27.639 526.230  1.00  0.00    -0.205 OA
BRANCH  13  16
HETATM   16  N1  UNL     1     182.257  27.663 524.281  1.00  0.00    -0.290 N 
HETATM   17  C4  UNL     1     180.976  27.240 524.636  1.00  0.00     0.076 C 
HETATM   18  C5  UNL     1     179.881  28.238 524.573  1.00  0.00     0.045 C 
HETATM   19  C6  UNL     1     179.740  29.070 525.816  1.00  0.00     0.005 C 
HETATM   20  C7  UNL     1     179.902  30.539 525.574  1.00  0.00     0.000 C 
HETATM   21  C8  UNL     1     180.966  30.873 524.566  1.00  0.00     0.002 C 
HETATM   22  C9  UNL     1     182.195  30.049 524.849  1.00  0.00     0.021 C 
HETATM   23  C10 UNL     1     182.443  28.983 523.818  1.00  0.00     0.140 C 
ENDBRANCH  13  16
ENDBRANCH   1  13
TORSDOF 6
ENDMDL
MODEL 2
REMARK VINA RESULT: -7.600198344      1.083      1.309
REMARK  6 active torsions:
REMARK  status: ('A' for Active; 'I' for Inactive)
REMARK    1  A    between atoms: C2_2  and  C3_3 
REMARK    2  A    between atoms: C3_3  and  S1_4 
REMARK    3  A    between atoms: S1_4  and  N1_7 
REMARK    4  A    between atoms: N2_15  and  N3_17 
REMARK    5  A    between atoms: N3_17  and  C11_19 
REMARK    6  A    between atoms: C11_19  and  N4_21 
ROOT
HETATM    1  C3  UNL     1     184.870  26.762 524.006  1.00  0.00     0.217 C 
ENDROOT
BRANCH   1   2
HETATM    2  C2  UNL     1     185.873  25.869 524.596  1.00  0.00     0.015 C 
HETATM    3  C1  UNL     1     185.918  24.437 524.208  1.00  0.00     0.066 C 
HETATM    4  N2  UNL     1     186.724  26.284 525.455  1.00  0.00    -0.306 N 
ATOM      5  H2  UNL     1     187.401  25.629 525.846  1.00  0.00     0.186 HD
BRANCH   4   6
HETATM    6  N3  UNL     1     186.742  27.605 525.863  1.00  0.00    -0.276 N 
ATOM      7  H3  UNL     1     186.719  28.342 525.158  1.00  0.00     0.189 HD
BRANCH   6   8
HETATM    8  C11 UNL     1     186.791  27.963 527.223  1.00  0.00     0.188 C 
HETATM    9  S2  UNL     1     186.979  29.585 527.521  1.00  0.00    -0.039 SA
BRANCH   8  10
HETATM   10  N4  UNL     1     186.698  27.092 528.309  1.00  0.00    -0.366 N 
HETATM   11  C12 UNL     1     186.077  25.799 528.248  1.00  0.00     0.151 C 
HETATM   12  C13 UNL     1     187.261  27.499 529.605  1.00  0.00     0.151 C 
ENDBRANCH   8  10
ENDBRANCH   6   8
ENDBRANCH   4   6
ENDBRANCH   1   2
BRANCH   1  13
HETATM   13  S1  UNL     1     183.455  26.787 525.118  1.00  0.00     0.237 S 
HETATM   14  O1  UNL     1     183.091  25.354 525.380  1.00  0.00    -0.205 OA
HETATM   15  O2  UNL     1     183.914  27.442 526.374  1.00  0.00    -0.205 OA
BRANCH  13  16
HETATM   16  N1  UNL     1     182.204  27.599 524.347  1.00  0.00    -0.290 N 
HETATM   17  C4  UNL     1     180.900  27.265 524.713  1.00  0.00     0.076 C 
HETATM   18  C5  UNL     1     179.868  28.326 524.627  1.00  0.00     0.045 C 
HETATM   19  C6  UNL     1     179.781  29.195 525.850  1.00  0.00     0.005 C 
HETATM   20  C7  UNL     1     180.032  30.645 525.570  1.00  0.00     0.000 C 
HETATM   21  C8  UNL     1     181.112  30.888 524.553  1.00  0.00     0.002 C 
HETATM   22  C9  UNL     1     182.289  29.999 524.855  1.00  0.00     0.021 C 
HETATM   23  C10 UNL     1     182.468  28.894 523.850  1.00  0.00     0.140 C 
ENDBRANCH  13  16
ENDBRANCH   1  13
TORSDOF 6
ENDMDL
MODEL 3
REMARK VINA RESULT: -7.235983540      1.773      2.205
REMARK  6 active torsions:
REMARK  status: ('A' for Active; 'I' for Inactive)
REMARK    1  A    between atoms: C2_2  and  C3_3 
REMARK    2  A    between atoms: C3_3  and  S1_4 
REMARK    3  A    between atoms: S1_4  and  N1_7 
REMARK    4  A    between atoms: N2_15  and  N3_17 
REMARK    5  A    between atoms: N3_17  and  C11_19 
REMARK    6  A    between atoms: C11_19  and  N4_21 
ROOT
HETATM    1  C3  UNL     1     184.172  26.167 524.001  1.00  0.00     0.217 C 
ENDROOT
BRANCH   1   2
HETATM    2  C2  UNL     1     185.577  26.577 523.915  1.00  0.00     0.015 C 
HETATM    3  C1  UNL     1     186.278  26.568 522.606  1.00  0.00     0.066 C 
HETATM    4  N2  UNL     1     186.238  26.945 524.946  1.00  0.00    -0.306 N 
ATOM      5  H2  UNL     1     187.216  27.217 524.844  1.00  0.00     0.186 HD
BRANCH   4   6
HETATM    6  N3  UNL     1     185.651  26.979 526.197  1.00  0.00    -0.276 N 
ATOM      7  H3  UNL     1     184.712  26.596 526.314  1.00  0.00     0.189 HD
BRANCH   6   8
HETATM    8  C11 UNL     1     186.309  27.527 527.313  1.00  0.00     0.188 C 
HETATM    9  S2  UNL     1     186.911  29.059 527.098  1.00  0.00    -0.039 SA
BRANCH   8  10
HETATM   10  N4  UNL     1     186.491  26.907 528.549  1.00  0.00    -0.366 N 
HETATM   11  C12 UNL     1     185.960  25.616 528.885  1.00  0.00     0.151 C 
HETATM   12  C13 UNL     1     187.270  27.596 529.590  1.00  0.00     0.151 C 
ENDBRANCH   8  10
ENDBRANCH   6   8
ENDBRANCH   4   6
ENDBRANCH   1   2
BRANCH   1  13
HETATM   13  S1  UNL     1     183.178  27.667 524.023  1.00  0.00     0.237 S 
HETATM   14  O1  UNL     1     183.991  28.710 524.735  1.00  0.00    -0.205 OA
HETATM   15  O2  UNL     1     182.965  28.057 522.602  1.00  0.00    -0.205 OA
BRANCH  13  16
HETATM   16  N1  UNL     1     181.757  27.336 524.855  1.00  0.00    -0.290 N 
HETATM   17  C4  UNL     1     181.826  27.286 526.248  1.00  0.00     0.076 C 
HETATM   18  C5  UNL     1     180.617  27.682 527.010  1.00  0.00     0.045 C 
HETATM   19  C6  UNL     1     180.510  29.159 527.261  1.00  0.00     0.005 C 
HETATM   20  C7  UNL     1     179.270  29.775 526.687  1.00  0.00     0.000 C 
HETATM   21  C8  UNL     1     178.878  29.212 525.349  1.00  0.00     0.002 C 
HETATM   22  C9  UNL     1     180.101  29.107 524.477  1.00  0.00     0.021 C 
HETATM   23  C10 UNL     1     180.538  27.687 524.239  1.00  0.00     0.140 C 
ENDBRANCH  13  16
ENDBRANCH   1  13
TORSDOF 6
ENDMDL
MODEL 4
REMARK VINA RESULT: -7.224310421      1.052      1.941
REMARK  6 active torsions:
REMARK  status: ('A' for Active; 'I' for Inactive)
REMARK    1  A    between atoms: C2_2  and  C3_3 
REMARK    2  A    between atoms: C3_3  and  S1_4 
REMARK    3  A    between atoms: S1_4  and  N1_7 
REMARK    4  A    between atoms: N2_15  and  N3_17 
REMARK    5  A    between atoms: N3_17  and  C11_19 
REMARK    6  A    between atoms: C11_19  and  N4_21 
ROOT
HETATM    1  C3  UNL     1     184.446  26.902 523.891  1.00  0.00     0.217 C 
ENDROOT
BRANCH   1   2
HETATM    2  C2  UNL     1     185.413  25.845 524.206  1.00  0.00     0.015 C 
HETATM    3  C1  UNL     1     185.431  24.591 523.413  1.00  0.00     0.066 C 
HETATM    4  N2  UNL     1     186.254  25.963 525.161  1.00  0.00    -0.306 N 
ATOM      5  H2  UNL     1     186.906  25.202 525.351  1.00  0.00     0.186 HD
BRANCH   4   6
HETATM    6  N3  UNL     1     186.295  27.103 525.942  1.00  0.00    -0.276 N 
ATOM      7  H3  UNL     1     186.217  28.015 525.490  1.00  0.00     0.189 HD
BRANCH   6   8
HETATM    8  C11 UNL     1     186.443  27.043 527.340  1.00  0.00     0.188 C 
HETATM    9  S2  UNL     1     185.994  25.606 528.038  1.00  0.00    -0.039 SA
BRANCH   8  10
HETATM   10  N4  UNL     1     186.922  28.063 528.163  1.00  0.00    -0.366 N 
HETATM   11  C12 UNL     1     187.085  29.425 527.739  1.00  0.00     0.151 C 
HETATM   12  C13 UNL     1     187.290  27.751 529.552  1.00  0.00     0.151 C 
ENDBRANCH   8  10
ENDBRANCH   6   8
ENDBRANCH   4   6
ENDBRANCH   1   2
BRANCH   1  13
HETATM   13  S1  UNL     1     183.100  26.766 525.078  1.00  0.00     0.237 S 
HETATM   14  O1  UNL     1     181.868  26.422 524.291  1.00  0.00    -0.205 OA
HETATM   15  O2  UNL     1     183.454  25.650 525.997  1.00  0.00    -0.205 OA
BRANCH  13  16
HETATM   16  N1  UNL     1     182.933  28.250 525.846  1.00  0.00    -0.290 N 
HETATM   17  C4  UNL     1     183.342  29.385 525.145  1.00  0.00     0.076 C 
HETATM   18  C5  UNL     1     182.633  30.658 525.424  1.00  0.00     0.045 C 
HETATM   19  C6  UNL     1     181.379  30.848 524.618  1.00  0.00     0.005 C 
HETATM   20  C7  UNL     1     180.147  31.003 525.456  1.00  0.00     0.000 C 
HETATM   21  C8  UNL     1     180.129  30.121 526.674  1.00  0.00     0.002 C 
HETATM   22  C9  UNL     1     180.569  28.733 526.290  1.00  0.00     0.021 C 
HETATM   23  C10 UNL     1     181.926  28.373 526.827  1.00  0.00     0.140 C 
ENDBRANCH  13  16
ENDBRANCH   1  13
TORSDOF 6
ENDMDL
MODEL 5
REMARK VINA RESULT: -7.163789240      2.159      5.923
REMARK  6 active torsions:
REMARK  status: ('A' for Active; 'I' for Inactive)
REMARK    1  A    between atoms: C2_2  and  C3_3 
REMARK    2  A    between atoms: C3_3  and  S1_4 
REMARK    3  A    between atoms: S1_4  and  N1_7 
REMARK    4  A    between atoms: N2_15  and  N3_17 
REMARK    5  A    between atoms: N3_17  and  C11_19 
REMARK    6  A    between atoms: C11_19  and  N4_21 
ROOT
HETATM    1  C3  UNL     1     183.868  27.172 524.540  1.00  0.00     0.217 C 
ENDROOT
BRANCH   1   2
HETATM    2  C2  UNL     1     183.039  26.690 525.649  1.00  0.00     0.015 C 
HETATM    3  C1  UNL     1     182.863  25.232 525.870  1.00  0.00     0.066 C 
HETATM    4  N2  UNL     1     182.444  27.492 526.446  1.00  0.00    -0.306 N 
ATOM      5  H2  UNL     1     181.871  27.115 527.202  1.00  0.00     0.186 HD
BRANCH   4   6
HETATM    6  N3  UNL     1     182.562  28.862 526.302  1.00  0.00    -0.276 N 
ATOM      7  H3  UNL     1     183.443  29.312 526.554  1.00  0.00     0.189 HD
BRANCH   6   8
HETATM    8  C11 UNL     1     181.504  29.654 525.819  1.00  0.00     0.188 C 
HETATM    9  S2  UNL     1     181.951  30.892 524.809  1.00  0.00    -0.039 SA
BRANCH   8  10
HETATM   10  N4  UNL     1     180.150  29.489 526.112  1.00  0.00    -0.366 N 
HETATM   11  C12 UNL     1     179.581  29.697 527.414  1.00  0.00     0.151 C 
HETATM   12  C13 UNL     1     179.229  29.077 525.042  1.00  0.00     0.151 C 
ENDBRANCH   8  10
ENDBRANCH   6   8
ENDBRANCH   4   6
ENDBRANCH   1   2
BRANCH   1  13
HETATM   13  S1  UNL     1     185.211  25.994 524.325  1.00  0.00     0.237 S 
HETATM   14  O1  UNL     1     184.635  24.633 524.595  1.00  0.00    -0.205 OA
HETATM   15  O2  UNL     1     185.646  26.099 522.905  1.00  0.00    -0.205 OA
BRANCH  13  16
HETATM   16  N1  UNL     1     186.416  26.371 525.433  1.00  0.00    -0.290 N 
HETATM   17  C4  UNL     1     186.795  27.710 525.537  1.00  0.00     0.076 C 
HETATM   18  C5  UNL     1     187.276  28.188 526.856  1.00  0.00     0.045 C 
HETATM   19  C6  UNL     1     186.179  28.627 527.784  1.00  0.00     0.005 C 
HETATM   20  C7  UNL     1     186.137  27.855 529.067  1.00  0.00     0.000 C 
HETATM   21  C8  UNL     1     186.438  26.392 528.904  1.00  0.00     0.002 C 
HETATM   22  C9  UNL     1     185.682  25.857 527.717  1.00  0.00     0.021 C 
HETATM   23  C10 UNL     1     186.570  25.524 526.550  1.00  0.00     0.140 C 
ENDBRANCH  13  16
ENDBRANCH   1  13
TORSDOF 6
ENDMDL
