MODEL 1
REMARK VINA RESULT: -8.257562142      0.000      0.000
REMARK  8 active torsions:
REMARK  status: ('A' for Active; 'I' for Inactive)
REMARK    1  A    between atoms: C5_6  and  C6_7 
REMARK       I    between atoms: C6_7  and  N2_9 
REMARK    2  A    between atoms: N2_9  and  C7_11 
REMARK    3  A    between atoms: C7_11  and  C8_12 
REMARK    4  A    between atoms: C8_12  and  C9_13 
REMARK    5  A    between atoms: C9_13  and  C10_14 
REMARK    6  A    between atoms: C10_14  and  C11_15 
REMARK    7  A    between atoms: C11_15  and  C12_16 
REMARK       I    between atoms: C12_16  and  N3_18 
REMARK    8  A    between atoms: N3_18  and  C13_20 
ROOT
HETATM    1  N1  UNL     1      36.736  -0.292  21.258  1.00  0.00    -0.197 NA
HETATM    2  C1  UNL     1      37.633  -0.940  20.926  1.00  0.00     0.064 C 
HETATM    3  C2  UNL     1      38.768  -1.768  20.531  1.00  0.00     0.093 C 
HETATM    4  C3  UNL     1      39.221  -2.532  21.767  1.00  0.00     0.020 C 
HETATM    5  C4  UNL     1      40.255  -3.539  21.283  1.00  0.00     0.015 C 
HETATM    6  C5  UNL     1      39.540  -4.612  20.537  1.00  0.00     0.078 C 
HETATM    7  C23 UNL     1      38.249  -4.148  19.915  1.00  0.00     0.015 C 
HETATM    8  C24 UNL     1      38.448  -2.727  19.430  1.00  0.00     0.020 C 
ENDROOT
BRANCH   6   9
HETATM    9  C6  UNL     1      39.346  -5.788  21.424  1.00  0.00     0.221 C 
HETATM   10  O1  UNL     1      38.738  -6.770  20.935  1.00  0.00    -0.273 OA
HETATM   11  N2  UNL     1      39.837  -5.789  22.769  1.00  0.00    -0.361 N 
ATOM     12  H2  UNL     1      40.322  -4.963  23.119  1.00  0.00     0.162 HD
BRANCH  11  13
HETATM   13  C7  UNL     1      39.666  -6.916  23.638  1.00  0.00     0.122 C 
BRANCH  13  14
HETATM   14  C8  UNL     1      41.008  -7.506  23.966  1.00  0.00     0.020 C 
BRANCH  14  15
HETATM   15  C9  UNL     1      41.785  -7.910  22.724  1.00  0.00     0.002 C 
BRANCH  15  16
HETATM   16  C10 UNL     1      43.184  -7.359  22.735  1.00  0.00     0.009 C 
BRANCH  16  17
HETATM   17  C11 UNL     1      43.306  -6.263  21.673  1.00  0.00     0.103 C 
BRANCH  17  18
HETATM   18  C12 UNL     1      43.256  -6.825  20.313  1.00  0.00     0.217 C 
HETATM   19  O2  UNL     1      44.129  -7.654  19.983  1.00  0.00    -0.274 OA
HETATM   20  N3  UNL     1      42.269  -6.451  19.416  1.00  0.00    -0.356 N 
ATOM     21  H3  UNL     1      41.585  -5.769  19.747  1.00  0.00     0.162 HD
BRANCH  20  22
HETATM   22  C13 UNL     1      42.108  -6.923  18.067  1.00  0.00     0.092 C 
HETATM   23  C14 UNL     1      41.744  -8.357  17.951  1.00  0.00     0.009 C 
HETATM   24  C15 UNL     1      40.300  -8.647  18.273  1.00  0.00     0.011 C 
HETATM   25  C19 UNL     1      41.930  -8.756  16.479  1.00  0.00     0.011 C 
HETATM   26  C16 UNL     1      39.388  -7.829  17.394  1.00  0.00    -0.013 C 
HETATM   27  C17 UNL     1      39.607  -8.078  15.939  1.00  0.00     0.009 C 
HETATM   28  C22 UNL     1      39.700  -6.366  17.673  1.00  0.00     0.011 C 
HETATM   29  C18 UNL     1      41.078  -7.869  15.609  1.00  0.00    -0.013 C 
HETATM   30  C20 UNL     1      41.365  -6.402  15.808  1.00  0.00     0.011 C 
HETATM   31  C21 UNL     1      41.119  -6.084  17.273  1.00  0.00     0.009 C 
ENDBRANCH  20  22
ENDBRANCH  17  18
ENDBRANCH  16  17
ENDBRANCH  15  16
ENDBRANCH  14  15
ENDBRANCH  13  14
ENDBRANCH  11  13
ENDBRANCH   6   9
TORSDOF 8
ENDMDL
MODEL 2
REMARK VINA RESULT: -8.056050226      1.687      5.335
REMARK  8 active torsions:
REMARK  status: ('A' for Active; 'I' for Inactive)
REMARK    1  A    between atoms: C5_6  and  C6_7 
REMARK       I    between atoms: C6_7  and  N2_9 
REMARK    2  A    between atoms: N2_9  and  C7_11 
REMARK    3  A    between atoms: C7_11  and  C8_12 
REMARK    4  A    between atoms: C8_12  and  C9_13 
REMARK    5  A    between atoms: C9_13  and  C10_14 
REMARK    6  A    between atoms: C10_14  and  C11_15 
REMARK    7  A    between atoms: C11_15  and  C12_16 
REMARK       I    between atoms: C12_16  and  N3_18 
REMARK    8  A    between atoms: N3_18  and  C13_20 
ROOT
HETATM    1  N1  UNL     1      39.435  -1.902  23.430  1.00  0.00    -0.197 NA
HETATM    2  C1  UNL     1      39.587  -2.148  22.311  1.00  0.00     0.064 C 
HETATM    3  C2  UNL     1      39.789  -2.480  20.905  1.00  0.00     0.093 C 
HETATM    4  C3  UNL     1      40.449  -3.851  20.856  1.00  0.00     0.020 C 
HETATM    5  C4  UNL     1      40.450  -4.265  19.391  1.00  0.00     0.015 C 
HETATM    6  C5  UNL     1      39.054  -4.612  19.008  1.00  0.00     0.078 C 
HETATM    7  C23 UNL     1      38.014  -3.896  19.829  1.00  0.00     0.015 C 
HETATM    8  C24 UNL     1      38.522  -2.497  20.111  1.00  0.00     0.020 C 
ENDROOT
BRANCH   6   9
HETATM    9  C6  UNL     1      38.881  -6.087  19.045  1.00  0.00     0.221 C 
HETATM   10  O1  UNL     1      38.602  -6.595  20.157  1.00  0.00    -0.273 OA
HETATM   11  N2  UNL     1      39.029  -6.878  17.861  1.00  0.00    -0.361 N 
ATOM     12  H2  UNL     1      39.260  -6.416  16.983  1.00  0.00     0.162 HD
BRANCH  11  13
HETATM   13  C7  UNL     1      38.860  -8.302  17.874  1.00  0.00     0.122 C 
BRANCH  13  14
HETATM   14  C8  UNL     1      40.046  -8.955  17.224  1.00  0.00     0.020 C 
BRANCH  14  15
HETATM   15  C9  UNL     1      41.353  -8.261  17.567  1.00  0.00     0.002 C 
BRANCH  15  16
HETATM   16  C10 UNL     1      41.689  -8.386  19.027  1.00  0.00     0.009 C 
BRANCH  16  17
HETATM   17  C11 UNL     1      42.474  -7.150  19.474  1.00  0.00     0.103 C 
BRANCH  17  18
HETATM   18  C12 UNL     1      42.433  -6.989  20.937  1.00  0.00     0.217 C 
HETATM   19  O2  UNL     1      43.446  -6.542  21.513  1.00  0.00    -0.274 OA
HETATM   20  N3  UNL     1      41.302  -7.323  21.666  1.00  0.00    -0.356 N 
ATOM     21  H3  UNL     1      40.507  -7.683  21.137  1.00  0.00     0.162 HD
BRANCH  20  22
HETATM   22  C13 UNL     1      41.133  -7.213  23.090  1.00  0.00     0.092 C 
HETATM   23  C14 UNL     1      39.789  -6.755  23.521  1.00  0.00     0.009 C 
HETATM   24  C15 UNL     1      38.723  -7.817  23.430  1.00  0.00     0.011 C 
HETATM   25  C19 UNL     1      39.888  -6.392  25.010  1.00  0.00     0.011 C 
HETATM   26  C16 UNL     1      39.118  -9.031  24.235  1.00  0.00    -0.013 C 
HETATM   27  C17 UNL     1      39.354  -8.720  25.675  1.00  0.00     0.009 C 
HETATM   28  C22 UNL     1      40.422  -9.548  23.645  1.00  0.00     0.011 C 
HETATM   29  C18 UNL     1      40.368  -7.591  25.786  1.00  0.00    -0.013 C 
HETATM   30  C20 UNL     1      41.680  -8.132  25.276  1.00  0.00     0.011 C 
HETATM   31  C21 UNL     1      41.484  -8.502  23.817  1.00  0.00     0.009 C 
ENDBRANCH  20  22
ENDBRANCH  17  18
ENDBRANCH  16  17
ENDBRANCH  15  16
ENDBRANCH  14  15
ENDBRANCH  13  14
ENDBRANCH  11  13
ENDBRANCH   6   9
TORSDOF 8
ENDMDL
MODEL 3
REMARK VINA RESULT: -7.844461259      1.915      5.325
REMARK  8 active torsions:
REMARK  status: ('A' for Active; 'I' for Inactive)
REMARK    1  A    between atoms: C5_6  and  C6_7 
REMARK       I    between atoms: C6_7  and  N2_9 
REMARK    2  A    between atoms: N2_9  and  C7_11 
REMARK    3  A    between atoms: C7_11  and  C8_12 
REMARK    4  A    between atoms: C8_12  and  C9_13 
REMARK    5  A    between atoms: C9_13  and  C10_14 
REMARK    6  A    between atoms: C10_14  and  C11_15 
REMARK    7  A    between atoms: C11_15  and  C12_16 
REMARK       I    between atoms: C12_16  and  N3_18 
REMARK    8  A    between atoms: N3_18  and  C13_20 
ROOT
HETATM    1  N1  UNL     1      46.632  -6.907  23.154  1.00  0.00    -0.197 NA
HETATM    2  C1  UNL     1      45.701  -7.138  22.509  1.00  0.00     0.064 C 
HETATM    3  C2  UNL     1      44.511  -7.427  21.717  1.00  0.00     0.093 C 
HETATM    4  C3  UNL     1      43.318  -7.385  22.661  1.00  0.00     0.020 C 
HETATM    5  C4  UNL     1      42.080  -7.473  21.780  1.00  0.00     0.015 C 
HETATM    6  C5  UNL     1      41.923  -6.172  21.073  1.00  0.00     0.078 C 
HETATM    7  C23 UNL     1      43.225  -5.440  20.874  1.00  0.00     0.015 C 
HETATM    8  C24 UNL     1      44.301  -6.467  20.590  1.00  0.00     0.020 C 
ENDROOT
BRANCH   6   9
HETATM    9  C6  UNL     1      40.913  -5.342  21.778  1.00  0.00     0.221 C 
HETATM   10  O1  UNL     1      40.244  -5.908  22.675  1.00  0.00    -0.273 OA
HETATM   11  N2  UNL     1      40.722  -3.964  21.440  1.00  0.00    -0.361 N 
ATOM     12  H2  UNL     1      41.290  -3.554  20.699  1.00  0.00     0.162 HD
BRANCH  11  13
HETATM   13  C7  UNL     1      39.758  -3.145  22.113  1.00  0.00     0.122 C 
BRANCH  13  14
HETATM   14  C8  UNL     1      39.482  -1.917  21.294  1.00  0.00     0.020 C 
BRANCH  14  15
HETATM   15  C9  UNL     1      38.135  -1.974  20.594  1.00  0.00     0.002 C 
BRANCH  15  16
HETATM   16  C10 UNL     1      38.269  -2.377  19.151  1.00  0.00     0.009 C 
BRANCH  16  17
HETATM   17  C11 UNL     1      37.498  -3.679  18.915  1.00  0.00     0.103 C 
BRANCH  17  18
HETATM   18  C12 UNL     1      38.361  -4.856  19.108  1.00  0.00     0.217 C 
HETATM   19  O2  UNL     1      38.230  -5.522  20.154  1.00  0.00    -0.274 OA
HETATM   20  N3  UNL     1      39.299  -5.222  18.155  1.00  0.00    -0.356 N 
ATOM     21  H3  UNL     1      39.358  -4.637  17.322  1.00  0.00     0.162 HD
BRANCH  20  22
HETATM   22  C13 UNL     1      40.199  -6.343  18.221  1.00  0.00     0.092 C 
HETATM   23  C14 UNL     1      39.561  -7.664  17.991  1.00  0.00     0.009 C 
HETATM   24  C15 UNL     1      39.242  -7.945  16.545  1.00  0.00     0.011 C 
HETATM   25  C19 UNL     1      40.577  -8.737  18.410  1.00  0.00     0.011 C 
HETATM   26  C16 UNL     1      40.488  -7.839  15.700  1.00  0.00    -0.013 C 
HETATM   27  C17 UNL     1      41.566  -8.773  16.137  1.00  0.00     0.009 C 
HETATM   28  C22 UNL     1      41.007  -6.417  15.853  1.00  0.00     0.011 C 
HETATM   29  C18 UNL     1      41.846  -8.562  17.618  1.00  0.00    -0.013 C 
HETATM   30  C20 UNL     1      42.436  -7.181  17.756  1.00  0.00     0.011 C 
HETATM   31  C21 UNL     1      41.388  -6.187  17.286  1.00  0.00     0.009 C 
ENDBRANCH  20  22
ENDBRANCH  17  18
ENDBRANCH  16  17
ENDBRANCH  15  16
ENDBRANCH  14  15
ENDBRANCH  13  14
ENDBRANCH  11  13
ENDBRANCH   6   9
TORSDOF 8
ENDMDL
MODEL 4
REMARK VINA RESULT: -7.824330453      1.800      5.671
REMARK  8 active torsions:
REMARK  status: ('A' for Active; 'I' for Inactive)
REMARK    1  A    between atoms: C5_6  and  C6_7 
REMARK       I    between atoms: C6_7  and  N2_9 
REMARK    2  A    between atoms: N2_9  and  C7_11 
REMARK    3  A    between atoms: C7_11  and  C8_12 
REMARK    4  A    between atoms: C8_12  and  C9_13 
REMARK    5  A    between atoms: C9_13  and  C10_14 
REMARK    6  A    between atoms: C10_14  and  C11_15 
REMARK    7  A    between atoms: C11_15  and  C12_16 
REMARK       I    between atoms: C12_16  and  N3_18 
REMARK    8  A    between atoms: N3_18  and  C13_20 
ROOT
HETATM    1  N1  UNL     1      38.767  -0.111  20.839  1.00  0.00    -0.197 NA
HETATM    2  C1  UNL     1      38.675  -1.263  20.849  1.00  0.00     0.064 C 
HETATM    3  C2  UNL     1      38.560  -2.718  20.835  1.00  0.00     0.093 C 
HETATM    4  C3  UNL     1      38.690  -3.168  19.387  1.00  0.00     0.020 C 
HETATM    5  C4  UNL     1      38.785  -4.686  19.424  1.00  0.00     0.015 C 
HETATM    6  C5  UNL     1      40.128  -5.052  19.953  1.00  0.00     0.078 C 
HETATM    7  C23 UNL     1      40.719  -4.004  20.860  1.00  0.00     0.015 C 
HETATM    8  C24 UNL     1      39.592  -3.402  21.674  1.00  0.00     0.020 C 
ENDROOT
BRANCH   6   9
HETATM    9  C6  UNL     1      41.031  -5.390  18.822  1.00  0.00     0.221 C 
HETATM   10  O1  UNL     1      42.253  -5.490  19.086  1.00  0.00    -0.273 OA
HETATM   11  N2  UNL     1      40.518  -5.589  17.501  1.00  0.00    -0.361 N 
ATOM     12  H2  UNL     1      39.516  -5.491  17.339  1.00  0.00     0.162 HD
BRANCH  11  13
HETATM   13  C7  UNL     1      41.372  -5.922  16.398  1.00  0.00     0.122 C 
BRANCH  13  14
HETATM   14  C8  UNL     1      41.301  -7.399  16.135  1.00  0.00     0.020 C 
BRANCH  14  15
HETATM   15  C9  UNL     1      39.913  -7.968  16.380  1.00  0.00     0.002 C 
BRANCH  15  16
HETATM   16  C10 UNL     1      39.914  -8.994  17.479  1.00  0.00     0.009 C 
BRANCH  16  17
HETATM   17  C11 UNL     1      39.230  -8.410  18.718  1.00  0.00     0.103 C 
BRANCH  17  18
HETATM   18  C12 UNL     1      40.094  -8.513  19.906  1.00  0.00     0.217 C 
HETATM   19  O2  UNL     1      41.322  -8.648  19.735  1.00  0.00    -0.274 OA
HETATM   20  N3  UNL     1      39.566  -8.460  21.186  1.00  0.00    -0.356 N 
ATOM     21  H3  UNL     1      38.554  -8.348  21.259  1.00  0.00     0.162 HD
BRANCH  20  22
HETATM   22  C13 UNL     1      40.296  -8.547  22.423  1.00  0.00     0.092 C 
HETATM   23  C14 UNL     1      40.756  -7.243  22.963  1.00  0.00     0.009 C 
HETATM   24  C15 UNL     1      39.664  -6.432  23.612  1.00  0.00     0.011 C 
HETATM   25  C19 UNL     1      41.768  -7.546  24.079  1.00  0.00     0.011 C 
HETATM   26  C16 UNL     1      39.002  -7.222  24.713  1.00  0.00    -0.013 C 
HETATM   27  C17 UNL     1      39.959  -7.657  25.771  1.00  0.00     0.009 C 
HETATM   28  C22 UNL     1      38.412  -8.469  24.070  1.00  0.00     0.011 C 
HETATM   29  C18 UNL     1      41.114  -8.410  25.126  1.00  0.00    -0.013 C 
HETATM   30  C20 UNL     1      40.541  -9.685  24.560  1.00  0.00     0.011 C 
HETATM   31  C21 UNL     1      39.526  -9.297  23.499  1.00  0.00     0.009 C 
ENDBRANCH  20  22
ENDBRANCH  17  18
ENDBRANCH  16  17
ENDBRANCH  15  16
ENDBRANCH  14  15
ENDBRANCH  13  14
ENDBRANCH  11  13
ENDBRANCH   6   9
TORSDOF 8
ENDMDL
MODEL 5
REMARK VINA RESULT: -7.513006844      2.451      5.524
REMARK  8 active torsions:
REMARK  status: ('A' for Active; 'I' for Inactive)
REMARK    1  A    between atoms: C5_6  and  C6_7 
REMARK       I    between atoms: C6_7  and  N2_9 
REMARK    2  A    between atoms: N2_9  and  C7_11 
REMARK    3  A    between atoms: C7_11  and  C8_12 
REMARK    4  A    between atoms: C8_12  and  C9_13 
REMARK    5  A    between atoms: C9_13  and  C10_14 
REMARK    6  A    between atoms: C10_14  and  C11_15 
REMARK    7  A    between atoms: C11_15  and  C12_16 
REMARK       I    between atoms: C12_16  and  N3_18 
REMARK    8  A    between atoms: N3_18  and  C13_20 
ROOT
HETATM    1  N1  UNL     1      39.485  -1.913  23.429  1.00  0.00    -0.197 NA
HETATM    2  C1  UNL     1      39.610  -2.161  22.307  1.00  0.00     0.064 C 
HETATM    3  C2  UNL     1      39.780  -2.496  20.898  1.00  0.00     0.093 C 
HETATM    4  C3  UNL     1      40.470  -3.851  20.835  1.00  0.00     0.020 C 
HETATM    5  C4  UNL     1      40.439  -4.272  19.373  1.00  0.00     0.015 C 
HETATM    6  C5  UNL     1      39.040  -4.654  19.032  1.00  0.00     0.078 C 
HETATM    7  C23 UNL     1      38.008  -3.957  19.880  1.00  0.00     0.015 C 
HETATM    8  C24 UNL     1      38.492  -2.546  20.140  1.00  0.00     0.020 C 
ENDROOT
BRANCH   6   9
HETATM    9  C6  UNL     1      38.903  -6.132  19.081  1.00  0.00     0.221 C 
HETATM   10  O1  UNL     1      38.518  -6.628  20.166  1.00  0.00    -0.273 OA
HETATM   11  N2  UNL     1      39.199  -6.940  17.936  1.00  0.00    -0.361 N 
ATOM     12  H2  UNL     1      39.513  -6.487  17.079  1.00  0.00     0.162 HD
BRANCH  11  13
HETATM   13  C7  UNL     1      39.067  -8.367  17.960  1.00  0.00     0.122 C 
BRANCH  13  14
HETATM   14  C8  UNL     1      40.347  -8.999  17.493  1.00  0.00     0.020 C 
BRANCH  14  15
HETATM   15  C9  UNL     1      41.504  -8.015  17.463  1.00  0.00     0.002 C 
BRANCH  15  16
HETATM   16  C10 UNL     1      42.179  -7.901  18.802  1.00  0.00     0.009 C 
BRANCH  16  17
HETATM   17  C11 UNL     1      42.807  -6.511  18.936  1.00  0.00     0.103 C 
BRANCH  17  18
HETATM   18  C12 UNL     1      43.641  -6.413  20.146  1.00  0.00     0.217 C 
HETATM   19  O2  UNL     1      43.547  -5.388  20.849  1.00  0.00    -0.274 OA
HETATM   20  N3  UNL     1      44.511  -7.431  20.502  1.00  0.00    -0.356 N 
ATOM     21  H3  UNL     1      44.542  -8.244  19.886  1.00  0.00     0.162 HD
BRANCH  20  22
HETATM   22  C13 UNL     1      45.375  -7.461  21.652  1.00  0.00     0.092 C 
HETATM   23  C14 UNL     1      44.691  -7.765  22.934  1.00  0.00     0.009 C 
HETATM   24  C15 UNL     1      44.337  -9.220  23.106  1.00  0.00     0.011 C 
HETATM   25  C19 UNL     1      45.680  -7.441  24.064  1.00  0.00     0.011 C 
HETATM   26  C16 UNL     1      45.569 -10.082  22.981  1.00  0.00    -0.013 C 
HETATM   27  C17 UNL     1      46.624  -9.732  23.975  1.00  0.00     0.009 C 
HETATM   28  C22 UNL     1      46.136  -9.845  21.589  1.00  0.00     0.011 C 
HETATM   29  C18 UNL     1      46.939  -8.246  23.874  1.00  0.00    -0.013 C 
HETATM   30  C20 UNL     1      47.576  -8.028  22.524  1.00  0.00     0.011 C 
HETATM   31  C21 UNL     1      46.551  -8.408  21.469  1.00  0.00     0.009 C 
ENDBRANCH  20  22
ENDBRANCH  17  18
ENDBRANCH  16  17
ENDBRANCH  15  16
ENDBRANCH  14  15
ENDBRANCH  13  14
ENDBRANCH  11  13
ENDBRANCH   6   9
TORSDOF 8
ENDMDL
