MODEL 1
REMARK VINA RESULT: -8.858045942      0.000      0.000
REMARK  8 active torsions:
REMARK  status: ('A' for Active; 'I' for Inactive)
REMARK    1  A    between atoms: C2_2  and  C4_4 
REMARK    2  A    between atoms: C4_4  and  C5_5 
REMARK       I    between atoms: C5_5  and  N1_7 
REMARK    3  A    between atoms: N1_7  and  C6_9 
REMARK    4  A    between atoms: C6_9  and  C7_10 
REMARK    5  A    between atoms: C6_9  and  C13_16 
REMARK    6  A    between atoms: C7_10  and  C8_11 
REMARK       I    between atoms: C13_16  and  N2_18 
REMARK    7  A    between atoms: N2_18  and  C14_19 
REMARK    8  A    between atoms: N2_18  and  C20_25 
ROOT
HETATM    1  C13 UNL     1      42.740  -5.841  19.766  1.00  0.00     0.243 C 
HETATM    2  O2  UNL     1      43.616  -5.103  19.261  1.00  0.00    -0.271 OA
HETATM    3  N2  UNL     1      43.016  -6.462  21.004  1.00  0.00    -0.339 N 
ENDROOT
BRANCH   1   4
HETATM    4  C6  UNL     1      41.468  -5.992  18.995  1.00  0.00     0.177 C 
BRANCH   4   5
HETATM    5  N1  UNL     1      40.556  -4.897  19.154  1.00  0.00    -0.348 N 
HETATM    6  C5  UNL     1      39.190  -4.986  19.539  1.00  0.00     0.218 C 
HETATM    7  O1  UNL     1      38.568  -6.027  19.810  1.00  0.00    -0.274 OA
ATOM      8  H1  UNL     1      40.924  -3.963  18.974  1.00  0.00     0.163 HD
BRANCH   6   9
HETATM    9  C4  UNL     1      38.409  -3.710  19.629  1.00  0.00     0.106 C 
BRANCH   9  10
HETATM   10  C2  UNL     1      39.147  -2.649  20.382  1.00  0.00    -0.014 C 
HETATM   11  C1  UNL     1      38.227  -1.452  20.556  1.00  0.00     0.010 C 
HETATM   12  C3  UNL     1      39.463  -3.136  21.802  1.00  0.00     0.010 C 
ENDBRANCH   9  10
ENDBRANCH   6   9
ENDBRANCH   4   5
BRANCH   4  13
HETATM   13  C7  UNL     1      41.682  -6.474  17.610  1.00  0.00     0.039 C 
BRANCH  13  14
HETATM   14  C8  UNL     1      40.524  -7.041  16.867  1.00  0.00    -0.012 C 
HETATM   15  C9  UNL     1      39.976  -8.274  17.610  1.00  0.00     0.005 C 
HETATM   16  C10 UNL     1      40.244  -9.470  16.742  1.00  0.00     0.000 C 
HETATM   17  C11 UNL     1      41.283  -8.995  15.729  1.00  0.00     0.000 C 
HETATM   18  C12 UNL     1      40.759  -7.573  15.492  1.00  0.00     0.005 C 
ENDBRANCH  13  14
ENDBRANCH   4  13
ENDBRANCH   1   4
BRANCH   3  19
HETATM   19  C14 UNL     1      44.322  -6.278  21.603  1.00  0.00     0.087 C 
HETATM   20  C15 UNL     1      44.337  -6.751  23.053  1.00  0.00     0.025 C 
HETATM   21  C16 UNL     1      45.656  -6.217  23.633  1.00  0.00     0.002 C 
HETATM   22  C17 UNL     1      46.804  -6.957  23.009  1.00  0.00     0.000 C 
HETATM   23  C18 UNL     1      46.382  -7.705  21.767  1.00  0.00     0.002 C 
HETATM   24  C19 UNL     1      45.452  -6.920  20.873  1.00  0.00     0.025 C 
ENDBRANCH   3  19
BRANCH   3  25
HETATM   25  C20 UNL     1      42.047  -7.232  21.739  1.00  0.00     0.114 C 
HETATM   26  C21 UNL     1      41.309  -8.213  20.837  1.00  0.00     0.054 C 
HETATM   27  C22 UNL     1      40.159  -8.600  21.763  1.00  0.00     0.234 C 
HETATM   28  N3  UNL     1      39.740  -7.333  22.274  1.00  0.00    -0.073 N 
HETATM   29  C23 UNL     1      40.914  -6.456  22.317  1.00  0.00     0.257 C 
ATOM     30  H32 UNL     1      38.965  -6.931  21.747  1.00  0.00     0.277 HD
ATOM     31  H31 UNL     1      39.268  -7.407  23.175  1.00  0.00     0.277 HD
ENDBRANCH   3  25
TORSDOF 8
ENDMDL
MODEL 2
REMARK VINA RESULT: -8.359932958      1.905      6.234
REMARK  8 active torsions:
REMARK  status: ('A' for Active; 'I' for Inactive)
REMARK    1  A    between atoms: C2_2  and  C4_4 
REMARK    2  A    between atoms: C4_4  and  C5_5 
REMARK       I    between atoms: C5_5  and  N1_7 
REMARK    3  A    between atoms: N1_7  and  C6_9 
REMARK    4  A    between atoms: C6_9  and  C7_10 
REMARK    5  A    between atoms: C6_9  and  C13_16 
REMARK    6  A    between atoms: C7_10  and  C8_11 
REMARK       I    between atoms: C13_16  and  N2_18 
REMARK    7  A    between atoms: N2_18  and  C14_19 
REMARK    8  A    between atoms: N2_18  and  C20_25 
ROOT
HETATM    1  C13 UNL     1      39.989  -6.077  19.299  1.00  0.00     0.243 C 
HETATM    2  O2  UNL     1      39.128  -6.137  18.392  1.00  0.00    -0.271 OA
HETATM    3  N2  UNL     1      41.214  -6.751  19.109  1.00  0.00    -0.339 N 
ENDROOT
BRANCH   1   4
HETATM    4  C6  UNL     1      39.625  -5.285  20.514  1.00  0.00     0.177 C 
BRANCH   4   5
HETATM    5  N1  UNL     1      40.235  -5.757  21.723  1.00  0.00    -0.348 N 
HETATM    6  C5  UNL     1      39.671  -6.683  22.645  1.00  0.00     0.218 C 
HETATM    7  O1  UNL     1      38.565  -7.239  22.547  1.00  0.00    -0.274 OA
ATOM      8  H1  UNL     1      41.162  -5.396  21.942  1.00  0.00     0.163 HD
BRANCH   6   9
HETATM    9  C4  UNL     1      40.478  -7.030  23.860  1.00  0.00     0.106 C 
BRANCH   9  10
HETATM   10  C2  UNL     1      41.722  -7.783  23.515  1.00  0.00    -0.014 C 
HETATM   11  C1  UNL     1      42.595  -7.871  24.757  1.00  0.00     0.010 C 
HETATM   12  C3  UNL     1      41.375  -9.233  23.152  1.00  0.00     0.010 C 
ENDBRANCH   9  10
ENDBRANCH   6   9
ENDBRANCH   4   5
BRANCH   4  13
HETATM   13  C7  UNL     1      39.665  -3.821  20.286  1.00  0.00     0.039 C 
BRANCH  13  14
HETATM   14  C8  UNL     1      38.809  -2.945  21.131  1.00  0.00    -0.012 C 
HETATM   15  C9  UNL     1      38.008  -1.977  20.240  1.00  0.00     0.005 C 
HETATM   16  C10 UNL     1      38.518  -0.592  20.520  1.00  0.00     0.000 C 
HETATM   17  C11 UNL     1      39.851  -0.801  21.235  1.00  0.00     0.000 C 
HETATM   18  C12 UNL     1      39.478  -2.019  22.092  1.00  0.00     0.005 C 
ENDBRANCH  13  14
ENDBRANCH   4  13
ENDBRANCH   1   4
BRANCH   3  19
HETATM   19  C14 UNL     1      41.401  -7.539  17.907  1.00  0.00     0.087 C 
HETATM   20  C15 UNL     1      40.283  -8.562  17.738  1.00  0.00     0.025 C 
HETATM   21  C16 UNL     1      40.770  -9.505  16.628  1.00  0.00     0.002 C 
HETATM   22  C17 UNL     1      40.774  -8.767  15.320  1.00  0.00     0.000 C 
HETATM   23  C18 UNL     1      40.677  -7.274  15.518  1.00  0.00     0.002 C 
HETATM   24  C19 UNL     1      41.534  -6.755  16.648  1.00  0.00     0.025 C 
ENDBRANCH   3  19
BRANCH   3  25
HETATM   25  C20 UNL     1      42.322  -6.656  20.023  1.00  0.00     0.114 C 
HETATM   26  C21 UNL     1      43.340  -5.620  19.566  1.00  0.00     0.054 C 
HETATM   27  C22 UNL     1      44.508  -5.985  20.477  1.00  0.00     0.234 C 
HETATM   28  N3  UNL     1      44.542  -7.409  20.372  1.00  0.00    -0.073 N 
HETATM   29  C23 UNL     1      43.173  -7.874  20.131  1.00  0.00     0.257 C 
ATOM     30  H32 UNL     1      45.201  -7.739  19.667  1.00  0.00     0.277 HD
ATOM     31  H31 UNL     1      44.974  -7.855  21.181  1.00  0.00     0.277 HD
ENDBRANCH   3  25
TORSDOF 8
ENDMDL
MODEL 3
REMARK VINA RESULT: -8.323933070      1.043      1.505
REMARK  8 active torsions:
REMARK  status: ('A' for Active; 'I' for Inactive)
REMARK    1  A    between atoms: C2_2  and  C4_4 
REMARK    2  A    between atoms: C4_4  and  C5_5 
REMARK       I    between atoms: C5_5  and  N1_7 
REMARK    3  A    between atoms: N1_7  and  C6_9 
REMARK    4  A    between atoms: C6_9  and  C7_10 
REMARK    5  A    between atoms: C6_9  and  C13_16 
REMARK    6  A    between atoms: C7_10  and  C8_11 
REMARK       I    between atoms: C13_16  and  N2_18 
REMARK    7  A    between atoms: N2_18  and  C14_19 
REMARK    8  A    between atoms: N2_18  and  C20_25 
ROOT
HETATM    1  C13 UNL     1      42.304  -6.280  20.051  1.00  0.00     0.243 C 
HETATM    2  O2  UNL     1      43.439  -5.816  19.798  1.00  0.00    -0.271 OA
HETATM    3  N2  UNL     1      42.178  -7.207  21.109  1.00  0.00    -0.339 N 
ENDROOT
BRANCH   1   4
HETATM    4  C6  UNL     1      41.178  -5.798  19.194  1.00  0.00     0.177 C 
BRANCH   4   5
HETATM    5  N1  UNL     1      40.523  -4.626  19.698  1.00  0.00    -0.348 N 
HETATM    6  C5  UNL     1      39.134  -4.330  19.604  1.00  0.00     0.218 C 
HETATM    7  O1  UNL     1      38.263  -5.044  19.079  1.00  0.00    -0.274 OA
ATOM      8  H1  UNL     1      41.109  -3.938  20.170  1.00  0.00     0.163 HD
BRANCH   6   9
HETATM    9  C4  UNL     1      38.660  -3.034  20.188  1.00  0.00     0.106 C 
BRANCH   9  10
HETATM   10  C2  UNL     1      39.724  -2.350  20.984  1.00  0.00    -0.014 C 
HETATM   11  C1  UNL     1      39.487  -0.850  20.921  1.00  0.00     0.010 C 
HETATM   12  C3  UNL     1      39.594  -2.725  22.467  1.00  0.00     0.010 C 
ENDBRANCH   9  10
ENDBRANCH   6   9
ENDBRANCH   4   5
BRANCH   4  13
HETATM   13  C7  UNL     1      41.506  -5.797  17.749  1.00  0.00     0.039 C 
BRANCH  13  14
HETATM   14  C8  UNL     1      40.568  -6.462  16.805  1.00  0.00    -0.012 C 
HETATM   15  C9  UNL     1      39.862  -7.637  17.507  1.00  0.00     0.005 C 
HETATM   16  C10 UNL     1      40.340  -8.899  16.847  1.00  0.00     0.000 C 
HETATM   17  C11 UNL     1      41.592  -8.489  16.076  1.00  0.00     0.000 C 
HETATM   18  C12 UNL     1      41.133  -7.109  15.585  1.00  0.00     0.005 C 
ENDBRANCH  13  14
ENDBRANCH   4  13
ENDBRANCH   1   4
BRANCH   3  19
HETATM   19  C14 UNL     1      43.371  -7.635  21.810  1.00  0.00     0.087 C 
HETATM   20  C15 UNL     1      44.422  -8.166  20.841  1.00  0.00     0.025 C 
HETATM   21  C16 UNL     1      45.470  -8.855  21.728  1.00  0.00     0.002 C 
HETATM   22  C17 UNL     1      46.211  -7.813  22.516  1.00  0.00     0.000 C 
HETATM   23  C18 UNL     1      45.492  -6.486  22.508  1.00  0.00     0.002 C 
HETATM   24  C19 UNL     1      43.996  -6.606  22.687  1.00  0.00     0.025 C 
ENDBRANCH   3  19
BRANCH   3  25
HETATM   25  C20 UNL     1      40.913  -7.716  21.571  1.00  0.00     0.114 C 
HETATM   26  C21 UNL     1      40.275  -6.786  22.595  1.00  0.00     0.054 C 
HETATM   27  C22 UNL     1      39.194  -7.712  23.146  1.00  0.00     0.234 C 
HETATM   28  N3  UNL     1      39.909  -8.933  23.339  1.00  0.00    -0.073 N 
HETATM   29  C23 UNL     1      40.974  -8.994  22.334  1.00  0.00     0.257 C 
ATOM     30  H32 UNL     1      40.257  -9.041  24.291  1.00  0.00     0.277 HD
ATOM     31  H31 UNL     1      39.302  -9.753  23.322  1.00  0.00     0.277 HD
ENDBRANCH   3  25
TORSDOF 8
ENDMDL
MODEL 4
REMARK VINA RESULT: -8.311265854      1.203      1.762
REMARK  8 active torsions:
REMARK  status: ('A' for Active; 'I' for Inactive)
REMARK    1  A    between atoms: C2_2  and  C4_4 
REMARK    2  A    between atoms: C4_4  and  C5_5 
REMARK       I    between atoms: C5_5  and  N1_7 
REMARK    3  A    between atoms: N1_7  and  C6_9 
REMARK    4  A    between atoms: C6_9  and  C7_10 
REMARK    5  A    between atoms: C6_9  and  C13_16 
REMARK    6  A    between atoms: C7_10  and  C8_11 
REMARK       I    between atoms: C13_16  and  N2_18 
REMARK    7  A    between atoms: N2_18  and  C14_19 
REMARK    8  A    between atoms: N2_18  and  C20_25 
ROOT
HETATM    1  C13 UNL     1      42.800  -6.464  20.482  1.00  0.00     0.243 C 
HETATM    2  O2  UNL     1      43.938  -6.007  20.226  1.00  0.00    -0.271 OA
HETATM    3  N2  UNL     1      42.672  -7.402  21.529  1.00  0.00    -0.339 N 
ENDROOT
BRANCH   1   4
HETATM    4  C6  UNL     1      41.673  -5.960  19.638  1.00  0.00     0.177 C 
BRANCH   4   5
HETATM    5  N1  UNL     1      41.023  -4.797  20.168  1.00  0.00    -0.348 N 
HETATM    6  C5  UNL     1      39.715  -4.743  20.725  1.00  0.00     0.218 C 
HETATM    7  O1  UNL     1      38.929  -5.697  20.853  1.00  0.00    -0.274 OA
ATOM      8  H1  UNL     1      41.549  -3.924  20.143  1.00  0.00     0.163 HD
BRANCH   6   9
HETATM    9  C4  UNL     1      39.221  -3.413  21.209  1.00  0.00     0.106 C 
BRANCH   9  10
HETATM   10  C2  UNL     1      38.812  -2.519  20.083  1.00  0.00    -0.014 C 
HETATM   11  C1  UNL     1      37.855  -3.284  19.182  1.00  0.00     0.010 C 
HETATM   12  C3  UNL     1      38.006  -1.330  20.623  1.00  0.00     0.010 C 
ENDBRANCH   9  10
ENDBRANCH   6   9
ENDBRANCH   4   5
BRANCH   4  13
HETATM   13  C7  UNL     1      41.998  -5.931  18.192  1.00  0.00     0.039 C 
BRANCH  13  14
HETATM   14  C8  UNL     1      40.896  -6.128  17.211  1.00  0.00    -0.012 C 
HETATM   15  C9  UNL     1      39.895  -7.169  17.747  1.00  0.00     0.005 C 
HETATM   16  C10 UNL     1      39.987  -8.372  16.853  1.00  0.00     0.000 C 
HETATM   17  C11 UNL     1      41.293  -8.192  16.084  1.00  0.00     0.000 C 
HETATM   18  C12 UNL     1      41.239  -6.674  15.865  1.00  0.00     0.005 C 
ENDBRANCH  13  14
ENDBRANCH   4  13
ENDBRANCH   1   4
BRANCH   3  19
HETATM   19  C14 UNL     1      43.865  -7.850  22.217  1.00  0.00     0.087 C 
HETATM   20  C15 UNL     1      44.860  -8.479  21.247  1.00  0.00     0.025 C 
HETATM   21  C16 UNL     1      45.903  -9.171  22.139  1.00  0.00     0.002 C 
HETATM   22  C17 UNL     1      46.715  -8.126  22.849  1.00  0.00     0.000 C 
HETATM   23  C18 UNL     1      46.057  -6.769  22.792  1.00  0.00     0.002 C 
HETATM   24  C19 UNL     1      44.565  -6.808  23.020  1.00  0.00     0.025 C 
ENDBRANCH   3  19
BRANCH   3  25
HETATM   25  C20 UNL     1      41.405  -7.904  21.994  1.00  0.00     0.114 C 
HETATM   26  C21 UNL     1      40.921  -7.152  23.227  1.00  0.00     0.054 C 
HETATM   27  C22 UNL     1      39.809  -8.092  23.683  1.00  0.00     0.234 C 
HETATM   28  N3  UNL     1      40.431  -9.373  23.578  1.00  0.00    -0.073 N 
HETATM   29  C23 UNL     1      41.413  -9.308  22.491  1.00  0.00     0.257 C 
ATOM     30  H32 UNL     1      40.837  -9.689  24.459  1.00  0.00     0.277 HD
ATOM     31  H31 UNL     1      39.759 -10.131  23.458  1.00  0.00     0.277 HD
ENDBRANCH   3  25
TORSDOF 8
ENDMDL
MODEL 5
REMARK VINA RESULT: -8.303609099      1.050      1.373
REMARK  8 active torsions:
REMARK  status: ('A' for Active; 'I' for Inactive)
REMARK    1  A    between atoms: C2_2  and  C4_4 
REMARK    2  A    between atoms: C4_4  and  C5_5 
REMARK       I    between atoms: C5_5  and  N1_7 
REMARK    3  A    between atoms: N1_7  and  C6_9 
REMARK    4  A    between atoms: C6_9  and  C7_10 
REMARK    5  A    between atoms: C6_9  and  C13_16 
REMARK    6  A    between atoms: C7_10  and  C8_11 
REMARK       I    between atoms: C13_16  and  N2_18 
REMARK    7  A    between atoms: N2_18  and  C14_19 
REMARK    8  A    between atoms: N2_18  and  C20_25 
ROOT
HETATM    1  C13 UNL     1      43.113  -6.073  20.683  1.00  0.00     0.243 C 
HETATM    2  O2  UNL     1      44.104  -5.370  20.379  1.00  0.00    -0.271 OA
HETATM    3  N2  UNL     1      43.245  -7.002  21.737  1.00  0.00    -0.339 N 
ENDROOT
BRANCH   1   4
HETATM    4  C6  UNL     1      41.868  -5.853  19.884  1.00  0.00     0.177 C 
BRANCH   4   5
HETATM    5  N1  UNL     1      41.121  -4.693  20.277  1.00  0.00    -0.348 N 
HETATM    6  C5  UNL     1      39.765  -4.669  20.705  1.00  0.00     0.218 C 
HETATM    7  O1  UNL     1      39.011  -5.650  20.819  1.00  0.00    -0.274 OA
ATOM      8  H1  UNL     1      41.610  -3.799  20.246  1.00  0.00     0.163 HD
BRANCH   6   9
HETATM    9  C4  UNL     1      39.172  -3.337  21.056  1.00  0.00     0.106 C 
BRANCH   9  10
HETATM   10  C2  UNL     1      38.673  -2.607  19.851  1.00  0.00    -0.014 C 
HETATM   11  C1  UNL     1      37.798  -3.551  19.042  1.00  0.00     0.010 C 
HETATM   12  C3  UNL     1      37.751  -1.457  20.279  1.00  0.00     0.010 C 
ENDBRANCH   9  10
ENDBRANCH   6   9
ENDBRANCH   4   5
BRANCH   4  13
HETATM   13  C7  UNL     1      42.070  -6.043  18.429  1.00  0.00     0.039 C 
BRANCH  13  14
HETATM   14  C8  UNL     1      40.880  -6.012  17.535  1.00  0.00    -0.012 C 
HETATM   15  C9  UNL     1      39.957  -7.205  17.848  1.00  0.00     0.005 C 
HETATM   16  C10 UNL     1      39.982  -8.111  16.651  1.00  0.00     0.000 C 
HETATM   17  C11 UNL     1      41.202  -7.668  15.848  1.00  0.00     0.000 C 
HETATM   18  C12 UNL     1      41.098  -6.152  16.065  1.00  0.00     0.005 C 
ENDBRANCH  13  14
ENDBRANCH   4  13
ENDBRANCH   1   4
BRANCH   3  19
HETATM   19  C14 UNL     1      44.536  -7.155  22.377  1.00  0.00     0.087 C 
HETATM   20  C15 UNL     1      44.389  -7.320  23.886  1.00  0.00     0.025 C 
HETATM   21  C16 UNL     1      45.811  -7.158  24.445  1.00  0.00     0.002 C 
HETATM   22  C17 UNL     1      46.639  -8.343  24.039  1.00  0.00     0.000 C 
HETATM   23  C18 UNL     1      45.987  -9.129  22.927  1.00  0.00     0.002 C 
HETATM   24  C19 UNL     1      45.379  -8.263  21.848  1.00  0.00     0.025 C 
ENDBRANCH   3  19
BRANCH   3  25
HETATM   25  C20 UNL     1      42.148  -7.776  22.255  1.00  0.00     0.114 C 
HETATM   26  C21 UNL     1      41.277  -8.334  21.137  1.00  0.00     0.054 C 
HETATM   27  C22 UNL     1      40.060  -8.769  21.949  1.00  0.00     0.234 C 
HETATM   28  N3  UNL     1      39.845  -7.643  22.802  1.00  0.00    -0.073 N 
HETATM   29  C23 UNL     1      41.146  -7.017  23.055  1.00  0.00     0.257 C 
ATOM     30  H32 UNL     1      39.158  -6.989  22.427  1.00  0.00     0.277 HD
ATOM     31  H31 UNL     1      39.349  -7.886  23.659  1.00  0.00     0.277 HD
ENDBRANCH   3  25
TORSDOF 8
ENDMDL
