MODEL 1
REMARK VINA RESULT: -6.997635474      0.000      0.000
REMARK  9 active torsions:
REMARK  status: ('A' for Active; 'I' for Inactive)
REMARK    1  A    between atoms: C4_4  and  C5_5 
REMARK    2  A    between atoms: C5_5  and  C6_6 
REMARK       I    between atoms: C6_6  and  N1_8 
REMARK    3  A    between atoms: N1_8  and  C7_10 
REMARK    4  A    between atoms: C7_10  and  N2_12 
REMARK    5  A    between atoms: N2_12  and  C8_14 
REMARK    6  A    between atoms: C8_14  and  C9_15 
REMARK    7  A    between atoms: C9_15  and  C10_16 
REMARK    8  A    between atoms: C10_16  and  C11_17 
REMARK    9  A    between atoms: C11_17  and  N3_18 
ROOT
HETATM    1  C6  UNL     1      44.310  -6.631  20.663  1.00  0.00     0.224 C 
HETATM    2  O1  UNL     1      44.632  -7.776  20.342  1.00  0.00    -0.273 OA
HETATM    3  N1  UNL     1      44.481  -6.100  21.936  1.00  0.00    -0.304 N 
ATOM      4  H1  UNL     1      44.174  -5.135  22.060  1.00  0.00     0.171 HD
ENDROOT
BRANCH   1   5
HETATM    5  C5  UNL     1      43.698  -5.757  19.615  1.00  0.00     0.112 C 
BRANCH   5   6
HETATM    6  C4  UNL     1      42.229  -5.989  19.362  1.00  0.00    -0.029 C 
HETATM    7  C3  UNL     1      41.487  -4.973  20.192  1.00  0.00     0.041 C 
HETATM    8  C2  UNL     1      40.262  -5.459  20.882  1.00  0.00     0.118 C 
HETATM    9  C1  UNL     1      39.982  -4.433  22.003  1.00  0.00     0.039 C 
HETATM   10  O2  UNL     1      39.182  -5.403  20.062  1.00  0.00    -0.381 OA
HETATM   11  C19 UNL     1      39.008  -6.441  19.177  1.00  0.00     0.122 C 
HETATM   12  C18 UNL     1      39.480  -7.778  19.664  1.00  0.00     0.036 C 
HETATM   13  C20 UNL     1      39.491  -6.081  17.816  1.00  0.00     0.036 C 
HETATM   14  C17 UNL     1      40.863  -8.129  19.291  1.00  0.00    -0.011 C 
HETATM   15  C16 UNL     1      40.993  -8.091  17.783  1.00  0.00     0.009 C 
HETATM   16  C21 UNL     1      41.988  -7.406  19.885  1.00  0.00     0.014 C 
HETATM   17  C15 UNL     1      40.796  -6.674  17.391  1.00  0.00    -0.011 C 
HETATM   18  C14 UNL     1      41.951  -5.839  17.918  1.00  0.00     0.014 C 
ENDBRANCH   5   6
ENDBRANCH   1   5
BRANCH   3  19
HETATM   19  C7  UNL     1      45.030  -6.728  23.086  1.00  0.00     0.174 C 
HETATM   20  S1  UNL     1      46.098  -5.781  23.949  1.00  0.00    -0.041 SA
BRANCH  19  21
HETATM   21  N2  UNL     1      44.834  -8.041  23.438  1.00  0.00    -0.367 N 
ATOM     22  H2  UNL     1      45.646  -8.626  23.238  1.00  0.00     0.161 HD
BRANCH  21  23
HETATM   23  C8  UNL     1      43.769  -8.769  24.011  1.00  0.00     0.122 C 
BRANCH  23  24
HETATM   24  C9  UNL     1      42.487  -8.723  23.297  1.00  0.00     0.021 C 
BRANCH  24  25
HETATM   25  C10 UNL     1      41.516  -7.673  23.560  1.00  0.00     0.032 C 
BRANCH  25  26
HETATM   26  C11 UNL     1      40.093  -8.217  23.367  1.00  0.00     0.271 C 
BRANCH  26  27
HETATM   27  N3  UNL     1      39.126  -7.421  24.036  1.00  0.00     0.080 N 
HETATM   28  C12 UNL     1      37.921  -8.043  24.438  1.00  0.00     0.309 C 
HETATM   29  C13 UNL     1      39.714  -6.591  25.032  1.00  0.00     0.309 C 
ENDBRANCH  26  27
ENDBRANCH  25  26
ENDBRANCH  24  25
ENDBRANCH  23  24
ENDBRANCH  21  23
ENDBRANCH  19  21
ENDBRANCH   3  19
TORSDOF 9
ENDMDL
MODEL 2
REMARK VINA RESULT: -6.918533619      1.169      1.426
REMARK  9 active torsions:
REMARK  status: ('A' for Active; 'I' for Inactive)
REMARK    1  A    between atoms: C4_4  and  C5_5 
REMARK    2  A    between atoms: C5_5  and  C6_6 
REMARK       I    between atoms: C6_6  and  N1_8 
REMARK    3  A    between atoms: N1_8  and  C7_10 
REMARK    4  A    between atoms: C7_10  and  N2_12 
REMARK    5  A    between atoms: N2_12  and  C8_14 
REMARK    6  A    between atoms: C8_14  and  C9_15 
REMARK    7  A    between atoms: C9_15  and  C10_16 
REMARK    8  A    between atoms: C10_16  and  C11_17 
REMARK    9  A    between atoms: C11_17  and  N3_18 
ROOT
HETATM    1  C6  UNL     1      44.424  -6.618  20.758  1.00  0.00     0.224 C 
HETATM    2  O1  UNL     1      44.769  -7.767  20.480  1.00  0.00    -0.273 OA
HETATM    3  N1  UNL     1      44.546  -6.052  22.022  1.00  0.00    -0.304 N 
ATOM      4  H1  UNL     1      44.225  -5.088  22.110  1.00  0.00     0.171 HD
ENDROOT
BRANCH   1   5
HETATM    5  C5  UNL     1      43.841  -5.777  19.667  1.00  0.00     0.112 C 
BRANCH   5   6
HETATM    6  C4  UNL     1      42.395  -6.059  19.342  1.00  0.00    -0.029 C 
HETATM    7  C3  UNL     1      41.580  -5.419  20.437  1.00  0.00     0.041 C 
HETATM    8  C2  UNL     1      40.419  -6.205  20.935  1.00  0.00     0.118 C 
HETATM    9  C1  UNL     1      40.069  -5.600  22.313  1.00  0.00     0.039 C 
HETATM   10  O2  UNL     1      39.322  -6.003  20.162  1.00  0.00    -0.381 OA
HETATM   11  C19 UNL     1      39.227  -6.734  19.001  1.00  0.00     0.122 C 
HETATM   12  C18 UNL     1      39.830  -8.105  19.061  1.00  0.00     0.036 C 
HETATM   13  C20 UNL     1      39.646  -5.933  17.819  1.00  0.00     0.036 C 
HETATM   14  C17 UNL     1      41.231  -8.194  18.610  1.00  0.00    -0.011 C 
HETATM   15  C16 UNL     1      41.326  -7.686  17.187  1.00  0.00     0.009 C 
HETATM   16  C21 UNL     1      42.297  -7.584  19.406  1.00  0.00     0.014 C 
HETATM   17  C15 UNL     1      40.991  -6.242  17.244  1.00  0.00    -0.011 C 
HETATM   18  C14 UNL     1      42.075  -5.502  18.011  1.00  0.00     0.014 C 
ENDBRANCH   5   6
ENDBRANCH   1   5
BRANCH   3  19
HETATM   19  C7  UNL     1      45.060  -6.644  23.207  1.00  0.00     0.174 C 
HETATM   20  S1  UNL     1      46.109  -5.674  24.066  1.00  0.00    -0.041 SA
BRANCH  19  21
HETATM   21  N2  UNL     1      44.846  -7.944  23.597  1.00  0.00    -0.367 N 
ATOM     22  H2  UNL     1      45.694  -8.510  23.553  1.00  0.00     0.161 HD
BRANCH  21  23
HETATM   23  C8  UNL     1      43.727  -8.677  24.044  1.00  0.00     0.122 C 
BRANCH  23  24
HETATM   24  C9  UNL     1      42.432  -8.320  23.449  1.00  0.00     0.021 C 
BRANCH  24  25
HETATM   25  C10 UNL     1      41.702  -9.263  22.617  1.00  0.00     0.032 C 
BRANCH  25  26
HETATM   26  C11 UNL     1      40.232  -9.322  23.060  1.00  0.00     0.271 C 
BRANCH  26  27
HETATM   27  N3  UNL     1      39.961 -10.475  23.842  1.00  0.00     0.080 N 
HETATM   28  C12 UNL     1      40.848 -11.572  23.734  1.00  0.00     0.309 C 
HETATM   29  C13 UNL     1      39.608 -10.143  25.181  1.00  0.00     0.309 C 
ENDBRANCH  26  27
ENDBRANCH  25  26
ENDBRANCH  24  25
ENDBRANCH  23  24
ENDBRANCH  21  23
ENDBRANCH  19  21
ENDBRANCH   3  19
TORSDOF 9
ENDMDL
MODEL 3
REMARK VINA RESULT: -6.859248321      1.095      2.426
REMARK  9 active torsions:
REMARK  status: ('A' for Active; 'I' for Inactive)
REMARK    1  A    between atoms: C4_4  and  C5_5 
REMARK    2  A    between atoms: C5_5  and  C6_6 
REMARK       I    between atoms: C6_6  and  N1_8 
REMARK    3  A    between atoms: N1_8  and  C7_10 
REMARK    4  A    between atoms: C7_10  and  N2_12 
REMARK    5  A    between atoms: N2_12  and  C8_14 
REMARK    6  A    between atoms: C8_14  and  C9_15 
REMARK    7  A    between atoms: C9_15  and  C10_16 
REMARK    8  A    between atoms: C10_16  and  C11_17 
REMARK    9  A    between atoms: C11_17  and  N3_18 
ROOT
HETATM    1  C6  UNL     1      44.280  -6.576  20.778  1.00  0.00     0.224 C 
HETATM    2  O1  UNL     1      44.645  -7.669  20.342  1.00  0.00    -0.273 OA
HETATM    3  N1  UNL     1      44.548  -6.120  22.063  1.00  0.00    -0.304 N 
ATOM      4  H1  UNL     1      44.190  -5.192  22.289  1.00  0.00     0.171 HD
ENDROOT
BRANCH   1   5
HETATM    5  C5  UNL     1      43.501  -5.682  19.865  1.00  0.00     0.112 C 
BRANCH   5   6
HETATM    6  C4  UNL     1      42.092  -6.133  19.572  1.00  0.00    -0.029 C 
HETATM    7  C3  UNL     1      42.084  -6.599  18.139  1.00  0.00     0.041 C 
HETATM    8  C2  UNL     1      40.895  -6.213  17.331  1.00  0.00     0.118 C 
HETATM    9  C1  UNL     1      41.329  -6.363  15.855  1.00  0.00     0.039 C 
HETATM   10  O2  UNL     1      39.878  -7.096  17.501  1.00  0.00    -0.381 OA
HETATM   11  C19 UNL     1      39.085  -6.937  18.612  1.00  0.00     0.122 C 
HETATM   12  C18 UNL     1      38.897  -5.519  19.062  1.00  0.00     0.036 C 
HETATM   13  C20 UNL     1      39.477  -7.876  19.698  1.00  0.00     0.036 C 
HETATM   14  C17 UNL     1      39.851  -5.054  20.086  1.00  0.00    -0.011 C 
HETATM   15  C16 UNL     1      39.760  -5.961  21.295  1.00  0.00     0.009 C 
HETATM   16  C21 UNL     1      41.260  -4.861  19.740  1.00  0.00     0.014 C 
HETATM   17  C15 UNL     1      40.237  -7.292  20.845  1.00  0.00    -0.011 C 
HETATM   18  C14 UNL     1      41.717  -7.211  20.511  1.00  0.00     0.014 C 
ENDBRANCH   5   6
ENDBRANCH   1   5
BRANCH   3  19
HETATM   19  C7  UNL     1      45.258  -6.780  23.102  1.00  0.00     0.174 C 
HETATM   20  S1  UNL     1      46.212  -5.779  24.033  1.00  0.00    -0.041 SA
BRANCH  19  21
HETATM   21  N2  UNL     1      45.293  -8.140  23.293  1.00  0.00    -0.367 N 
ATOM     22  H2  UNL     1      46.150  -8.563  22.939  1.00  0.00     0.161 HD
BRANCH  21  23
HETATM   23  C8  UNL     1      44.418  -9.087  23.867  1.00  0.00     0.122 C 
BRANCH  23  24
HETATM   24  C9  UNL     1      43.189  -9.379  23.117  1.00  0.00     0.021 C 
BRANCH  24  25
HETATM   25  C10 UNL     1      41.878  -9.154  23.705  1.00  0.00     0.032 C 
BRANCH  25  26
HETATM   26  C11 UNL     1      41.793  -7.725  24.261  1.00  0.00     0.271 C 
BRANCH  26  27
HETATM   27  N3  UNL     1      40.460  -7.359  24.582  1.00  0.00     0.080 N 
HETATM   28  C12 UNL     1      39.445  -8.326  24.391  1.00  0.00     0.309 C 
HETATM   29  C13 UNL     1      40.379  -6.668  25.824  1.00  0.00     0.309 C 
ENDBRANCH  26  27
ENDBRANCH  25  26
ENDBRANCH  24  25
ENDBRANCH  23  24
ENDBRANCH  21  23
ENDBRANCH  19  21
ENDBRANCH   3  19
TORSDOF 9
ENDMDL
MODEL 4
REMARK VINA RESULT: -6.719675527      3.026      5.006
REMARK  9 active torsions:
REMARK  status: ('A' for Active; 'I' for Inactive)
REMARK    1  A    between atoms: C4_4  and  C5_5 
REMARK    2  A    between atoms: C5_5  and  C6_6 
REMARK       I    between atoms: C6_6  and  N1_8 
REMARK    3  A    between atoms: N1_8  and  C7_10 
REMARK    4  A    between atoms: C7_10  and  N2_12 
REMARK    5  A    between atoms: N2_12  and  C8_14 
REMARK    6  A    between atoms: C8_14  and  C9_15 
REMARK    7  A    between atoms: C9_15  and  C10_16 
REMARK    8  A    between atoms: C10_16  and  C11_17 
REMARK    9  A    between atoms: C11_17  and  N3_18 
ROOT
HETATM    1  C6  UNL     1      44.318  -6.714  20.724  1.00  0.00     0.224 C 
HETATM    2  O1  UNL     1      44.490  -7.887  20.389  1.00  0.00    -0.273 OA
HETATM    3  N1  UNL     1      44.861  -6.143  21.869  1.00  0.00    -0.304 N 
ATOM      4  H1  UNL     1      44.640  -5.158  22.022  1.00  0.00     0.171 HD
ENDROOT
BRANCH   1   5
HETATM    5  C5  UNL     1      43.474  -5.850  19.842  1.00  0.00     0.112 C 
BRANCH   5   6
HETATM    6  C4  UNL     1      42.095  -6.384  19.549  1.00  0.00    -0.029 C 
HETATM    7  C3  UNL     1      41.569  -6.941  20.847  1.00  0.00     0.041 C 
HETATM    8  C2  UNL     1      40.826  -8.228  20.755  1.00  0.00     0.118 C 
HETATM    9  C1  UNL     1      40.829  -8.811  22.187  1.00  0.00     0.039 C 
HETATM   10  O2  UNL     1      39.520  -8.021  20.452  1.00  0.00    -0.381 OA
HETATM   11  C19 UNL     1      39.205  -7.828  19.127  1.00  0.00     0.122 C 
HETATM   12  C18 UNL     1      40.067  -8.572  18.153  1.00  0.00     0.036 C 
HETATM   13  C20 UNL     1      39.036  -6.382  18.814  1.00  0.00     0.036 C 
HETATM   14  C17 UNL     1      41.229  -7.821  17.641  1.00  0.00    -0.011 C 
HETATM   15  C16 UNL     1      40.744  -6.547  16.982  1.00  0.00     0.009 C 
HETATM   16  C21 UNL     1      42.344  -7.502  18.534  1.00  0.00     0.014 C 
HETATM   17  C15 UNL     1      40.151  -5.725  18.066  1.00  0.00    -0.011 C 
HETATM   18  C14 UNL     1      41.247  -5.292  19.027  1.00  0.00     0.014 C 
ENDBRANCH   5   6
ENDBRANCH   1   5
BRANCH   3  19
HETATM   19  C7  UNL     1      45.683  -6.753  22.854  1.00  0.00     0.174 C 
HETATM   20  S1  UNL     1      46.038  -5.780  24.160  1.00  0.00    -0.041 SA
BRANCH  19  21
HETATM   21  N2  UNL     1      46.268  -7.991  22.737  1.00  0.00    -0.367 N 
ATOM     22  H2  UNL     1      45.630  -8.750  22.977  1.00  0.00     0.161 HD
BRANCH  21  23
HETATM   23  C8  UNL     1      47.547  -8.455  22.363  1.00  0.00     0.122 C 
BRANCH  23  24
HETATM   24  C9  UNL     1      47.651  -9.083  21.038  1.00  0.00     0.021 C 
BRANCH  24  25
HETATM   25  C10 UNL     1      47.117 -10.413  20.793  1.00  0.00     0.032 C 
BRANCH  25  26
HETATM   26  C11 UNL     1      48.155 -11.264  20.046  1.00  0.00     0.271 C 
BRANCH  26  27
HETATM   27  N3  UNL     1      47.889 -11.323  18.653  1.00  0.00     0.080 N 
HETATM   28  C12 UNL     1      48.669 -10.513  17.795  1.00  0.00     0.309 C 
HETATM   29  C13 UNL     1      47.722 -12.662  18.198  1.00  0.00     0.309 C 
ENDBRANCH  26  27
ENDBRANCH  25  26
ENDBRANCH  24  25
ENDBRANCH  23  24
ENDBRANCH  21  23
ENDBRANCH  19  21
ENDBRANCH   3  19
TORSDOF 9
ENDMDL
MODEL 5
REMARK VINA RESULT: -6.694591010      1.611      2.671
REMARK  9 active torsions:
REMARK  status: ('A' for Active; 'I' for Inactive)
REMARK    1  A    between atoms: C4_4  and  C5_5 
REMARK    2  A    between atoms: C5_5  and  C6_6 
REMARK       I    between atoms: C6_6  and  N1_8 
REMARK    3  A    between atoms: N1_8  and  C7_10 
REMARK    4  A    between atoms: C7_10  and  N2_12 
REMARK    5  A    between atoms: N2_12  and  C8_14 
REMARK    6  A    between atoms: C8_14  and  C9_15 
REMARK    7  A    between atoms: C9_15  and  C10_16 
REMARK    8  A    between atoms: C10_16  and  C11_17 
REMARK    9  A    between atoms: C11_17  and  N3_18 
ROOT
HETATM    1  C6  UNL     1      44.334  -6.518  20.989  1.00  0.00     0.224 C 
HETATM    2  O1  UNL     1      44.312  -5.870  22.037  1.00  0.00    -0.273 OA
HETATM    3  N1  UNL     1      44.882  -7.789  20.868  1.00  0.00    -0.304 N 
ATOM      4  H1  UNL     1      44.827  -8.211  19.941  1.00  0.00     0.171 HD
ENDROOT
BRANCH   1   5
HETATM    5  C5  UNL     1      43.731  -5.896  19.769  1.00  0.00     0.112 C 
BRANCH   5   6
HETATM    6  C4  UNL     1      42.297  -6.277  19.496  1.00  0.00    -0.029 C 
HETATM    7  C3  UNL     1      42.223  -6.636  18.034  1.00  0.00     0.041 C 
HETATM    8  C2  UNL     1      41.023  -6.153  17.300  1.00  0.00     0.118 C 
HETATM    9  C1  UNL     1      41.402  -6.208  15.802  1.00  0.00     0.039 C 
HETATM   10  O2  UNL     1      39.982  -7.011  17.442  1.00  0.00    -0.381 OA
HETATM   11  C19 UNL     1      39.232  -6.907  18.590  1.00  0.00     0.122 C 
HETATM   12  C18 UNL     1      39.110  -5.521  19.148  1.00  0.00     0.036 C 
HETATM   13  C20 UNL     1      39.626  -7.936  19.591  1.00  0.00     0.036 C 
HETATM   14  C17 UNL     1      40.115  -5.165  20.167  1.00  0.00    -0.011 C 
HETATM   15  C16 UNL     1      40.032  -6.154  21.310  1.00  0.00     0.009 C 
HETATM   16  C21 UNL     1      41.517  -4.993  19.785  1.00  0.00     0.014 C 
HETATM   17  C15 UNL     1      40.445  -7.464  20.749  1.00  0.00    -0.011 C 
HETATM   18  C14 UNL     1      41.916  -7.408  20.368  1.00  0.00     0.014 C 
ENDBRANCH   5   6
ENDBRANCH   1   5
BRANCH   3  19
HETATM   19  C7  UNL     1      45.509  -8.577  21.871  1.00  0.00     0.174 C 
HETATM   20  S1  UNL     1      46.512  -9.773  21.285  1.00  0.00    -0.041 SA
BRANCH  19  21
HETATM   21  N2  UNL     1      45.253  -8.490  23.218  1.00  0.00    -0.367 N 
ATOM     22  H2  UNL     1      45.939  -7.917  23.710  1.00  0.00     0.161 HD
BRANCH  21  23
HETATM   23  C8  UNL     1      44.262  -9.008  24.078  1.00  0.00     0.122 C 
BRANCH  23  24
HETATM   24  C9  UNL     1      42.867  -8.803  23.666  1.00  0.00     0.021 C 
BRANCH  24  25
HETATM   25  C10 UNL     1      42.115  -7.641  24.112  1.00  0.00     0.032 C 
BRANCH  25  26
HETATM   26  C11 UNL     1      40.941  -8.087  24.997  1.00  0.00     0.271 C 
BRANCH  26  27
HETATM   27  N3  UNL     1      39.721  -8.138  24.274  1.00  0.00     0.080 N 
HETATM   28  C12 UNL     1      39.219  -9.410  23.910  1.00  0.00     0.309 C 
HETATM   29  C13 UNL     1      38.741  -7.259  24.816  1.00  0.00     0.309 C 
ENDBRANCH  26  27
ENDBRANCH  25  26
ENDBRANCH  24  25
ENDBRANCH  23  24
ENDBRANCH  21  23
ENDBRANCH  19  21
ENDBRANCH   3  19
TORSDOF 9
ENDMDL
