MODEL 1
REMARK VINA RESULT: -7.152971865      0.000      0.000
REMARK  9 active torsions:
REMARK  status: ('A' for Active; 'I' for Inactive)
REMARK    1  A    between atoms: C4_4  and  C5_5 
REMARK    2  A    between atoms: C5_5  and  C6_6 
REMARK    3  A    between atoms: C6_6  and  C7_7 
REMARK    4  A    between atoms: C7_7  and  O1_8 
REMARK    5  A    between atoms: O1_8  and  C8_9 
REMARK    6  A    between atoms: C8_9  and  C9_10 
REMARK    7  A    between atoms: C9_10  and  N1_11 
REMARK    8  A    between atoms: C10_15  and  N2_16 
REMARK    9  A    between atoms: N2_16  and  N3_18 
ROOT
HETATM    1  C1  UNL     1      42.024  -5.157  16.848  1.00  0.00     0.036 C 
HETATM    2  C2  UNL     1      42.360  -5.306  18.279  1.00  0.00    -0.027 C 
HETATM    3  C3  UNL     1      41.611  -5.504  19.307  1.00  0.00    -0.073 C 
HETATM    4  C4  UNL     1      40.141  -5.650  19.369  1.00  0.00     0.039 C 
HETATM    5  C10 UNL     1      39.958  -7.185  19.604  1.00  0.00     0.119 C 
HETATM    6  C14 UNL     1      40.362  -7.332  21.050  1.00  0.00     0.015 C 
HETATM    7  C15 UNL     1      40.180  -8.713  21.629  1.00  0.00     0.007 C 
HETATM    8  C16 UNL     1      40.659  -8.566  23.097  1.00  0.00     0.005 C 
HETATM    9  C17 UNL     1      42.173  -8.600  22.989  1.00  0.00    -0.014 C 
HETATM   10  C18 UNL     1      42.714  -8.497  24.399  1.00  0.00     0.010 C 
HETATM   11  C19 UNL     1      42.689  -7.526  22.066  1.00  0.00    -0.006 C 
HETATM   12  C20 UNL     1      43.653  -7.972  21.033  1.00  0.00     0.005 C 
HETATM   13  C21 UNL     1      44.418  -6.729  20.562  1.00  0.00     0.001 C 
HETATM   14  C22 UNL     1      43.653  -5.483  20.803  1.00  0.00     0.009 C 
HETATM   15  C23 UNL     1      42.182  -5.575  20.718  1.00  0.00     0.019 C 
HETATM   16  C24 UNL     1      41.555  -6.637  21.549  1.00  0.00     0.004 C 
ENDROOT
BRANCH   4  17
HETATM   17  C5  UNL     1      39.336  -5.128  18.275  1.00  0.00     0.013 C 
BRANCH  17  18
HETATM   18  C6  UNL     1      38.134  -4.304  18.726  1.00  0.00     0.027 C 
BRANCH  18  19
HETATM   19  C7  UNL     1      38.463  -3.356  19.845  1.00  0.00     0.167 C 
BRANCH  19  20
HETATM   20  O1  UNL     1      37.693  -2.214  19.882  1.00  0.00    -0.389 OA
BRANCH  20  21
HETATM   21  C8  UNL     1      38.105  -1.237  20.769  1.00  0.00     0.194 C 
BRANCH  21  22
HETATM   22  C9  UNL     1      39.208  -1.724  21.684  1.00  0.00     0.255 C 
BRANCH  22  23
HETATM   23  N1  UNL     1      40.345  -0.830  21.654  1.00  0.00    -0.077 N 
ATOM     24  H13 UNL     1      40.318  -0.216  20.840  1.00  0.00     0.274 HD
ATOM     25  H12 UNL     1      40.286  -0.122  22.386  1.00  0.00     0.274 HD
ATOM     26  H11 UNL     1      41.223  -1.348  21.703  1.00  0.00     0.274 HD
ENDBRANCH  22  23
ENDBRANCH  21  22
ENDBRANCH  20  21
ENDBRANCH  19  20
ENDBRANCH  18  19
ENDBRANCH  17  18
ENDBRANCH   4  17
BRANCH   5  27
HETATM   27  N2  UNL     1      40.576  -7.932  18.627  1.00  0.00    -0.248 N 
ATOM     28  H2  UNL     1      41.556  -8.158  18.796  1.00  0.00     0.187 HD
BRANCH  27  29
HETATM   29  N3  UNL     1      40.061  -8.402  17.482  1.00  0.00    -0.003 N 
HETATM   30  C11 UNL     1      38.628  -8.736  17.630  1.00  0.00     0.300 C 
HETATM   31  C12 UNL     1      40.638  -9.765  17.219  1.00  0.00     0.300 C 
HETATM   32  C13 UNL     1      40.197  -7.708  16.261  1.00  0.00     0.300 C 
ENDBRANCH  27  29
ENDBRANCH   5  27
TORSDOF 9
ENDMDL
MODEL 2
REMARK VINA RESULT: -7.066470885      0.869      1.148
REMARK  9 active torsions:
REMARK  status: ('A' for Active; 'I' for Inactive)
REMARK    1  A    between atoms: C4_4  and  C5_5 
REMARK    2  A    between atoms: C5_5  and  C6_6 
REMARK    3  A    between atoms: C6_6  and  C7_7 
REMARK    4  A    between atoms: C7_7  and  O1_8 
REMARK    5  A    between atoms: O1_8  and  C8_9 
REMARK    6  A    between atoms: C8_9  and  C9_10 
REMARK    7  A    between atoms: C9_10  and  N1_11 
REMARK    8  A    between atoms: C10_15  and  N2_16 
REMARK    9  A    between atoms: N2_16  and  N3_18 
ROOT
HETATM    1  C1  UNL     1      42.576  -4.965  17.350  1.00  0.00     0.036 C 
HETATM    2  C2  UNL     1      42.866  -5.271  18.766  1.00  0.00    -0.027 C 
HETATM    3  C3  UNL     1      42.081  -5.528  19.753  1.00  0.00    -0.073 C 
HETATM    4  C4  UNL     1      40.604  -5.601  19.768  1.00  0.00     0.039 C 
HETATM    5  C10 UNL     1      40.336  -7.140  19.846  1.00  0.00     0.119 C 
HETATM    6  C14 UNL     1      40.693  -7.449  21.278  1.00  0.00     0.015 C 
HETATM    7  C15 UNL     1      40.425  -8.869  21.714  1.00  0.00     0.007 C 
HETATM    8  C16 UNL     1      40.872  -8.892  23.199  1.00  0.00     0.005 C 
HETATM    9  C17 UNL     1      42.384  -8.995  23.121  1.00  0.00    -0.014 C 
HETATM   10  C18 UNL     1      42.892  -9.060  24.546  1.00  0.00     0.010 C 
HETATM   11  C19 UNL     1      42.979  -7.866  22.321  1.00  0.00    -0.006 C 
HETATM   12  C20 UNL     1      43.947  -8.259  21.270  1.00  0.00     0.005 C 
HETATM   13  C21 UNL     1      44.786  -7.018  20.942  1.00  0.00     0.001 C 
HETATM   14  C22 UNL     1      44.080  -5.763  21.287  1.00  0.00     0.009 C 
HETATM   15  C23 UNL     1      42.608  -5.768  21.162  1.00  0.00     0.019 C 
HETATM   16  C24 UNL     1      41.907  -6.871  21.870  1.00  0.00     0.004 C 
ENDROOT
BRANCH   4  17
HETATM   17  C5  UNL     1      39.856  -4.933  18.714  1.00  0.00     0.013 C 
BRANCH  17  18
HETATM   18  C6  UNL     1      38.405  -4.632  19.076  1.00  0.00     0.027 C 
BRANCH  18  19
HETATM   19  C7  UNL     1      38.134  -3.160  19.220  1.00  0.00     0.167 C 
BRANCH  19  20
HETATM   20  O1  UNL     1      38.133  -2.695  20.517  1.00  0.00    -0.389 OA
BRANCH  20  21
HETATM   21  C8  UNL     1      39.275  -2.028  20.919  1.00  0.00     0.194 C 
BRANCH  21  22
HETATM   22  C9  UNL     1      39.673  -2.380  22.337  1.00  0.00     0.255 C 
BRANCH  22  23
HETATM   23  N1  UNL     1      39.598  -3.807  22.561  1.00  0.00    -0.077 N 
ATOM     24  H13 UNL     1      39.764  -4.331  21.702  1.00  0.00     0.274 HD
ATOM     25  H12 UNL     1      40.394  -4.144  23.105  1.00  0.00     0.274 HD
ATOM     26  H11 UNL     1      38.711  -4.067  22.994  1.00  0.00     0.274 HD
ENDBRANCH  22  23
ENDBRANCH  21  22
ENDBRANCH  20  21
ENDBRANCH  19  20
ENDBRANCH  18  19
ENDBRANCH  17  18
ENDBRANCH   4  17
BRANCH   5  27
HETATM   27  N2  UNL     1      40.941  -7.820  18.813  1.00  0.00    -0.248 N 
ATOM     28  H2  UNL     1      41.952  -7.935  18.892  1.00  0.00     0.187 HD
BRANCH  27  29
HETATM   29  N3  UNL     1      40.381  -8.350  17.718  1.00  0.00    -0.003 N 
HETATM   30  C11 UNL     1      40.378  -7.390  16.593  1.00  0.00     0.300 C 
HETATM   31  C12 UNL     1      38.904  -8.501  17.957  1.00  0.00     0.300 C 
HETATM   32  C13 UNL     1      40.793  -9.594  17.194  1.00  0.00     0.300 C 
ENDBRANCH  27  29
ENDBRANCH   5  27
TORSDOF 9
ENDMDL
MODEL 3
REMARK VINA RESULT: -6.857862458      2.504      5.258
REMARK  9 active torsions:
REMARK  status: ('A' for Active; 'I' for Inactive)
REMARK    1  A    between atoms: C4_4  and  C5_5 
REMARK    2  A    between atoms: C5_5  and  C6_6 
REMARK    3  A    between atoms: C6_6  and  C7_7 
REMARK    4  A    between atoms: C7_7  and  O1_8 
REMARK    5  A    between atoms: O1_8  and  C8_9 
REMARK    6  A    between atoms: C8_9  and  C9_10 
REMARK    7  A    between atoms: C9_10  and  N1_11 
REMARK    8  A    between atoms: C10_15  and  N2_16 
REMARK    9  A    between atoms: N2_16  and  N3_18 
ROOT
HETATM    1  C1  UNL     1      39.851  -4.068  21.701  1.00  0.00     0.036 C 
HETATM    2  C2  UNL     1      39.580  -5.155  22.665  1.00  0.00    -0.027 C 
HETATM    3  C3  UNL     1      39.465  -6.425  22.495  1.00  0.00    -0.073 C 
HETATM    4  C4  UNL     1      39.575  -7.208  21.246  1.00  0.00     0.039 C 
HETATM    5  C10 UNL     1      40.974  -7.892  21.390  1.00  0.00     0.119 C 
HETATM    6  C14 UNL     1      40.697  -8.959  22.420  1.00  0.00     0.015 C 
HETATM    7  C15 UNL     1      41.849  -9.892  22.702  1.00  0.00     0.007 C 
HETATM    8  C16 UNL     1      41.285 -10.865  23.770  1.00  0.00     0.005 C 
HETATM    9  C17 UNL     1      41.361 -10.070  25.061  1.00  0.00    -0.014 C 
HETATM   10  C18 UNL     1      40.857 -10.976  26.163  1.00  0.00     0.010 C 
HETATM   11  C19 UNL     1      40.606  -8.769  24.959  1.00  0.00    -0.006 C 
HETATM   12  C20 UNL     1      41.341  -7.560  25.399  1.00  0.00     0.005 C 
HETATM   13  C21 UNL     1      40.293  -6.480  25.699  1.00  0.00     0.001 C 
HETATM   14  C22 UNL     1      39.026  -6.719  24.971  1.00  0.00     0.009 C 
HETATM   15  C23 UNL     1      39.127  -7.365  23.646  1.00  0.00     0.019 C 
HETATM   16  C24 UNL     1      39.897  -8.636  23.609  1.00  0.00     0.004 C 
ENDROOT
BRANCH   4  17
HETATM   17  C5  UNL     1      39.388  -6.530  19.973  1.00  0.00     0.013 C 
BRANCH  17  18
HETATM   18  C6  UNL     1      39.676  -7.403  18.754  1.00  0.00     0.027 C 
BRANCH  18  19
HETATM   19  C7  UNL     1      40.235  -6.622  17.597  1.00  0.00     0.167 C 
BRANCH  19  20
HETATM   20  O1  UNL     1      41.145  -7.305  16.822  1.00  0.00    -0.389 OA
BRANCH  20  21
HETATM   21  C8  UNL     1      40.633  -7.938  15.705  1.00  0.00     0.194 C 
BRANCH  21  22
HETATM   22  C9  UNL     1      41.018  -9.400  15.648  1.00  0.00     0.255 C 
BRANCH  22  23
HETATM   23  N1  UNL     1      40.286 -10.172  16.630  1.00  0.00    -0.077 N 
ATOM     24  H13 UNL     1      39.706  -9.574  17.219  1.00  0.00     0.274 HD
ATOM     25  H12 UNL     1      39.549 -10.728  16.197  1.00  0.00     0.274 HD
ATOM     26  H11 UNL     1      40.915 -10.751  17.187  1.00  0.00     0.274 HD
ENDBRANCH  22  23
ENDBRANCH  21  22
ENDBRANCH  20  21
ENDBRANCH  19  20
ENDBRANCH  18  19
ENDBRANCH  17  18
ENDBRANCH   4  17
BRANCH   5  27
HETATM   27  N2  UNL     1      41.978  -6.971  21.591  1.00  0.00    -0.248 N 
ATOM     28  H2  UNL     1      41.992  -6.525  22.508  1.00  0.00     0.187 HD
BRANCH  27  29
HETATM   29  N3  UNL     1      42.939  -6.583  20.741  1.00  0.00    -0.003 N 
HETATM   30  C11 UNL     1      43.251  -7.642  19.757  1.00  0.00     0.300 C 
HETATM   31  C12 UNL     1      44.241  -6.508  21.489  1.00  0.00     0.300 C 
HETATM   32  C13 UNL     1      42.860  -5.368  20.027  1.00  0.00     0.300 C 
ENDBRANCH  27  29
ENDBRANCH   5  27
TORSDOF 9
ENDMDL
MODEL 4
REMARK VINA RESULT: -6.838625344      2.724      5.608
REMARK  9 active torsions:
REMARK  status: ('A' for Active; 'I' for Inactive)
REMARK    1  A    between atoms: C4_4  and  C5_5 
REMARK    2  A    between atoms: C5_5  and  C6_6 
REMARK    3  A    between atoms: C6_6  and  C7_7 
REMARK    4  A    between atoms: C7_7  and  O1_8 
REMARK    5  A    between atoms: O1_8  and  C8_9 
REMARK    6  A    between atoms: C8_9  and  C9_10 
REMARK    7  A    between atoms: C9_10  and  N1_11 
REMARK    8  A    between atoms: C10_15  and  N2_16 
REMARK    9  A    between atoms: N2_16  and  N3_18 
ROOT
HETATM    1  C1  UNL     1      40.594  -4.567  21.257  1.00  0.00     0.036 C 
HETATM    2  C2  UNL     1      39.916  -5.650  22.000  1.00  0.00    -0.027 C 
HETATM    3  C3  UNL     1      39.927  -6.925  21.830  1.00  0.00    -0.073 C 
HETATM    4  C4  UNL     1      40.645  -7.720  20.811  1.00  0.00     0.039 C 
HETATM    5  C10 UNL     1      41.816  -8.354  21.631  1.00  0.00     0.119 C 
HETATM    6  C14 UNL     1      41.101  -9.417  22.428  1.00  0.00     0.015 C 
HETATM    7  C15 UNL     1      41.994 -10.307  23.256  1.00  0.00     0.007 C 
HETATM    8  C16 UNL     1      41.007 -11.285  23.945  1.00  0.00     0.005 C 
HETATM    9  C17 UNL     1      40.432 -10.471  25.090  1.00  0.00    -0.014 C 
HETATM   10  C18 UNL     1      39.479 -11.380  25.837  1.00  0.00     0.010 C 
HETATM   11  C19 UNL     1      39.790  -9.198  24.601  1.00  0.00    -0.006 C 
HETATM   12  C20 UNL     1      40.192  -7.960  25.309  1.00  0.00     0.005 C 
HETATM   13  C21 UNL     1      39.106  -6.912  25.036  1.00  0.00     0.001 C 
HETATM   14  C22 UNL     1      38.354  -7.202  23.794  1.00  0.00     0.009 C 
HETATM   15  C23 UNL     1      39.097  -7.860  22.701  1.00  0.00     0.019 C 
HETATM   16  C24 UNL     1      39.818  -9.106  23.074  1.00  0.00     0.004 C 
ENDROOT
BRANCH   4  17
HETATM   17  C5  UNL     1      41.080  -7.064  19.588  1.00  0.00     0.013 C 
BRANCH  17  18
HETATM   18  C6  UNL     1      40.005  -6.983  18.508  1.00  0.00     0.027 C 
BRANCH  18  19
HETATM   19  C7  UNL     1      40.511  -6.384  17.225  1.00  0.00     0.167 C 
BRANCH  19  20
HETATM   20  O1  UNL     1      41.300  -7.220  16.466  1.00  0.00    -0.389 OA
BRANCH  20  21
HETATM   21  C8  UNL     1      40.638  -7.988  15.527  1.00  0.00     0.194 C 
BRANCH  21  22
HETATM   22  C9  UNL     1      41.026  -9.449  15.607  1.00  0.00     0.255 C 
BRANCH  22  23
HETATM   23  N1  UNL     1      40.303 -10.125  16.662  1.00  0.00    -0.077 N 
ATOM     24  H13 UNL     1      39.478  -9.598  16.948  1.00  0.00     0.274 HD
ATOM     25  H12 UNL     1      39.840 -10.967  16.320  1.00  0.00     0.274 HD
ATOM     26  H11 UNL     1      40.913 -10.327  17.455  1.00  0.00     0.274 HD
ENDBRANCH  22  23
ENDBRANCH  21  22
ENDBRANCH  20  21
ENDBRANCH  19  20
ENDBRANCH  18  19
ENDBRANCH  17  18
ENDBRANCH   4  17
BRANCH   5  27
HETATM   27  N2  UNL     1      42.576  -7.398  22.265  1.00  0.00    -0.248 N 
ATOM     28  H2  UNL     1      42.076  -6.801  22.924  1.00  0.00     0.187 HD
BRANCH  27  29
HETATM   29  N3  UNL     1      43.886  -7.147  22.133  1.00  0.00    -0.003 N 
HETATM   30  C11 UNL     1      44.123  -5.919  21.342  1.00  0.00     0.300 C 
HETATM   31  C12 UNL     1      44.486  -8.183  21.224  1.00  0.00     0.300 C 
HETATM   32  C13 UNL     1      44.753  -7.093  23.245  1.00  0.00     0.300 C 
ENDBRANCH  27  29
ENDBRANCH   5  27
TORSDOF 9
ENDMDL
MODEL 5
REMARK VINA RESULT: -6.760490539      1.422      1.894
REMARK  9 active torsions:
REMARK  status: ('A' for Active; 'I' for Inactive)
REMARK    1  A    between atoms: C4_4  and  C5_5 
REMARK    2  A    between atoms: C5_5  and  C6_6 
REMARK    3  A    between atoms: C6_6  and  C7_7 
REMARK    4  A    between atoms: C7_7  and  O1_8 
REMARK    5  A    between atoms: O1_8  and  C8_9 
REMARK    6  A    between atoms: C8_9  and  C9_10 
REMARK    7  A    between atoms: C9_10  and  N1_11 
REMARK    8  A    between atoms: C10_15  and  N2_16 
REMARK    9  A    between atoms: N2_16  and  N3_18 
ROOT
HETATM    1  C1  UNL     1      43.379  -4.972  18.540  1.00  0.00     0.036 C 
HETATM    2  C2  UNL     1      43.746  -5.600  19.826  1.00  0.00    -0.027 C 
HETATM    3  C3  UNL     1      43.040  -5.864  20.868  1.00  0.00    -0.073 C 
HETATM    4  C4  UNL     1      41.602  -5.615  21.103  1.00  0.00     0.039 C 
HETATM    5  C10 UNL     1      40.979  -7.044  20.973  1.00  0.00     0.119 C 
HETATM    6  C14 UNL     1      41.412  -7.693  22.265  1.00  0.00     0.015 C 
HETATM    7  C15 UNL     1      40.860  -9.076  22.503  1.00  0.00     0.007 C 
HETATM    8  C16 UNL     1      41.454  -9.481  23.877  1.00  0.00     0.005 C 
HETATM    9  C17 UNL     1      42.877  -9.895  23.549  1.00  0.00    -0.014 C 
HETATM   10  C18 UNL     1      43.514 -10.342  24.847  1.00  0.00     0.010 C 
HETATM   11  C19 UNL     1      43.633  -8.790  22.856  1.00  0.00    -0.006 C 
HETATM   12  C20 UNL     1      44.349  -9.176  21.618  1.00  0.00     0.005 C 
HETATM   13  C21 UNL     1      45.421  -8.108  21.366  1.00  0.00     0.001 C 
HETATM   14  C22 UNL     1      45.085  -6.820  22.014  1.00  0.00     0.009 C 
HETATM   15  C23 UNL     1      43.652  -6.479  22.121  1.00  0.00     0.019 C 
HETATM   16  C24 UNL     1      42.789  -7.518  22.744  1.00  0.00     0.004 C 
ENDROOT
BRANCH   4  17
HETATM   17  C5  UNL     1      40.923  -4.610  20.299  1.00  0.00     0.013 C 
BRANCH  17  18
HETATM   18  C6  UNL     1      39.421  -4.518  20.557  1.00  0.00     0.027 C 
BRANCH  18  19
HETATM   19  C7  UNL     1      38.649  -4.071  19.347  1.00  0.00     0.167 C 
BRANCH  19  20
HETATM   20  O1  UNL     1      37.986  -2.873  19.492  1.00  0.00    -0.389 OA
BRANCH  20  21
HETATM   21  C8  UNL     1      38.346  -2.113  20.590  1.00  0.00     0.194 C 
BRANCH  21  22
HETATM   22  C9  UNL     1      37.834  -0.692  20.494  1.00  0.00     0.255 C 
BRANCH  22  23
HETATM   23  N1  UNL     1      36.717  -0.478  21.389  1.00  0.00    -0.077 N 
ATOM     24  H13 UNL     1      35.866  -0.915  21.038  1.00  0.00     0.274 HD
ATOM     25  H12 UNL     1      36.821  -1.011  22.253  1.00  0.00     0.274 HD
ATOM     26  H11 UNL     1      36.579   0.516  21.576  1.00  0.00     0.274 HD
ENDBRANCH  22  23
ENDBRANCH  21  22
ENDBRANCH  20  21
ENDBRANCH  19  20
ENDBRANCH  18  19
ENDBRANCH  17  18
ENDBRANCH   4  17
BRANCH   5  27
HETATM   27  N2  UNL     1      41.279  -7.627  19.764  1.00  0.00    -0.248 N 
ATOM     28  H2  UNL     1      42.217  -8.020  19.682  1.00  0.00     0.187 HD
BRANCH  27  29
HETATM   29  N3  UNL     1      40.503  -7.749  18.678  1.00  0.00    -0.003 N 
HETATM   30  C11 UNL     1      39.110  -8.087  19.043  1.00  0.00     0.300 C 
HETATM   31  C12 UNL     1      40.905  -8.994  17.936  1.00  0.00     0.300 C 
HETATM   32  C13 UNL     1      40.436  -6.743  17.690  1.00  0.00     0.300 C 
ENDBRANCH  27  29
ENDBRANCH   5  27
TORSDOF 9
ENDMDL
