MODEL 1
REMARK VINA RESULT: -5.894407692      0.000      0.000
REMARK  14 active torsions:
REMARK  status: ('A' for Active; 'I' for Inactive)
REMARK    1  A    between atoms: C3_3  and  C4_4 
REMARK    2  A    between atoms: C4_4  and  O1_5 
REMARK    3  A    between atoms: O1_5  and  C5_6 
REMARK       I    between atoms: C5_6  and  N1_8 
REMARK    4  A    between atoms: N1_8  and  C6_10 
REMARK    5  A    between atoms: C6_10  and  C7_11 
REMARK    6  A    between atoms: C9_14  and  C10_15 
REMARK    7  A    between atoms: C10_15  and  O4_16 
REMARK    8  A    between atoms: C11_18  and  O5_19 
REMARK    9  A    between atoms: C12_21  and  O6_22 
REMARK   10  A    between atoms: C13_24  and  O7_25 
REMARK   11  A    between atoms: O7_25  and  C14_26 
REMARK   12  A    between atoms: C15_27  and  N2_28 
REMARK   13  A    between atoms: C17_33  and  N3_34 
REMARK   14  A    between atoms: C18_38  and  O8_39 
ROOT
HETATM    1  C1  UNL     1       4.462  27.164  11.772  1.00  0.00     0.097 C 
HETATM    2  C2  UNL     1       4.485  25.939  11.769  1.00  0.00    -0.182 C 
HETATM    3  C3  UNL     1       4.579  24.542  11.790  1.00  0.00     0.151 C 
ENDROOT
BRANCH   3   4
HETATM    4  C4  UNL     1       3.360  23.717  11.962  1.00  0.00     0.213 C 
HETATM    5  O3  UNL     1       3.662  22.348  11.936  1.00  0.00    -0.341 OA
HETATM    6  C9  UNL     1       3.972  21.734  10.802  1.00  0.00     0.180 C 
HETATM    7  C11 UNL     1       3.201  22.129   9.572  1.00  0.00     0.180 C 
HETATM    8  C12 UNL     1       1.982  22.913   9.994  1.00  0.00     0.183 C 
HETATM    9  C13 UNL     1       2.319  24.056  10.887  1.00  0.00     0.217 C 
BRANCH   4  10
HETATM   10  O1  UNL     1       2.719  23.905  13.146  1.00  0.00    -0.262 OA
BRANCH  10  11
HETATM   11  C5  UNL     1       2.831  23.565  14.419  1.00  0.00     0.363 C 
HETATM   12  O2  UNL     1       1.840  23.608  15.164  1.00  0.00    -0.238 OA
HETATM   13  N1  UNL     1       4.059  23.143  14.992  1.00  0.00    -0.337 N 
ATOM     14  H1  UNL     1       4.876  23.113  14.381  1.00  0.00     0.164 HD
BRANCH  13  15
HETATM   15  C6  UNL     1       4.241  22.760  16.351  1.00  0.00     0.124 C 
BRANCH  15  16
HETATM   16  C7  UNL     1       4.311  23.913  17.285  1.00  0.00     0.015 C 
HETATM   17  C8  UNL     1       3.281  23.814  18.395  1.00  0.00     0.006 C 
ENDBRANCH  15  16
ENDBRANCH  13  15
ENDBRANCH  10  11
ENDBRANCH   4  10
BRANCH   6  18
HETATM   18  C10 UNL     1       5.434  21.645  10.425  1.00  0.00     0.198 C 
BRANCH  18  19
HETATM   19  O4  UNL     1       5.692  20.460   9.715  1.00  0.00    -0.398 OA
ATOM     20  H4  UNL     1       6.144  20.647   8.901  1.00  0.00     0.209 HD
ENDBRANCH  18  19
ENDBRANCH   6  18
BRANCH   7  21
HETATM   21  O5  UNL     1       3.956  22.828   8.633  1.00  0.00    -0.390 OA
ATOM     22  H5  UNL     1       3.712  22.649   7.732  1.00  0.00     0.210 HD
ENDBRANCH   7  21
BRANCH   8  23
HETATM   23  O6  UNL     1       1.097  22.013  10.614  1.00  0.00    -0.390 OA
ATOM     24  H6  UNL     1       0.586  21.600   9.928  1.00  0.00     0.210 HD
ENDBRANCH   8  23
BRANCH   9  25
HETATM   25  O7  UNL     1       1.126  24.513  11.421  1.00  0.00    -0.370 OA
BRANCH  25  26
HETATM   26  C14 UNL     1       0.383  25.327  10.598  1.00  0.00     0.159 C 
HETATM   27  C15 UNL     1       0.265  26.680  11.245  1.00  0.00     0.214 C 
HETATM   28  C16 UNL     1      -1.118  27.271  11.208  1.00  0.00     0.070 C 
HETATM   29  C17 UNL     1      -1.855  27.055   9.929  1.00  0.00     0.214 C 
HETATM   30  C18 UNL     1      -1.806  25.636   9.471  1.00  0.00     0.157 C 
HETATM   31  C20 UNL     1      -0.993  24.742  10.344  1.00  0.00     0.044 C 
HETATM   32  C21 UNL     1      -1.748  24.412  11.589  1.00  0.00     0.015 C 
BRANCH  27  33
HETATM   33  N2  UNL     1       1.226  27.605  10.645  1.00  0.00    -0.072 N 
ATOM     34  H23 UNL     1       2.033  27.764  11.249  1.00  0.00     0.274 HD
ATOM     35  H22 UNL     1       1.714  27.190   9.853  1.00  0.00     0.274 HD
ATOM     36  H21 UNL     1       0.760  28.477  10.393  1.00  0.00     0.274 HD
ENDBRANCH  27  33
BRANCH  29  37
HETATM   37  N3  UNL     1      -3.237  27.486  10.148  1.00  0.00    -0.072 N 
ATOM     38  H33 UNL     1      -3.350  28.051  10.990  1.00  0.00     0.274 HD
ATOM     39  H32 UNL     1      -3.548  28.187   9.476  1.00  0.00     0.274 HD
ATOM     40  H31 UNL     1      -3.817  26.646  10.149  1.00  0.00     0.274 HD
ENDBRANCH  29  37
BRANCH  30  41
HETATM   41  O8  UNL     1      -3.116  25.150   9.380  1.00  0.00    -0.388 OA
HETATM   42  C19 UNL     1      -3.297  24.431   8.195  1.00  0.00     0.202 C 
ENDBRANCH  30  41
ENDBRANCH  25  26
ENDBRANCH   9  25
ENDBRANCH   3   4
TORSDOF 14
ENDMDL
MODEL 2
REMARK VINA RESULT: -5.844303892      3.104      4.354
REMARK  14 active torsions:
REMARK  status: ('A' for Active; 'I' for Inactive)
REMARK    1  A    between atoms: C3_3  and  C4_4 
REMARK    2  A    between atoms: C4_4  and  O1_5 
REMARK    3  A    between atoms: O1_5  and  C5_6 
REMARK       I    between atoms: C5_6  and  N1_8 
REMARK    4  A    between atoms: N1_8  and  C6_10 
REMARK    5  A    between atoms: C6_10  and  C7_11 
REMARK    6  A    between atoms: C9_14  and  C10_15 
REMARK    7  A    between atoms: C10_15  and  O4_16 
REMARK    8  A    between atoms: C11_18  and  O5_19 
REMARK    9  A    between atoms: C12_21  and  O6_22 
REMARK   10  A    between atoms: C13_24  and  O7_25 
REMARK   11  A    between atoms: O7_25  and  C14_26 
REMARK   12  A    between atoms: C15_27  and  N2_28 
REMARK   13  A    between atoms: C17_33  and  N3_34 
REMARK   14  A    between atoms: C18_38  and  O8_39 
ROOT
HETATM    1  C1  UNL     1      -1.143  28.144  14.079  1.00  0.00     0.097 C 
HETATM    2  C2  UNL     1      -0.088  27.526  14.007  1.00  0.00    -0.182 C 
HETATM    3  C3  UNL     1       1.145  26.864  13.973  1.00  0.00     0.151 C 
ENDROOT
BRANCH   3   4
HETATM    4  C4  UNL     1       1.211  25.433  13.586  1.00  0.00     0.213 C 
HETATM    5  O3  UNL     1       2.441  25.122  12.990  1.00  0.00    -0.341 OA
HETATM    6  C9  UNL     1       2.726  25.516  11.756  1.00  0.00     0.180 C 
HETATM    7  C11 UNL     1       1.617  25.457  10.741  1.00  0.00     0.180 C 
HETATM    8  C12 UNL     1       0.493  24.617  11.298  1.00  0.00     0.183 C 
HETATM    9  C13 UNL     1       0.054  25.072  12.646  1.00  0.00     0.217 C 
BRANCH   4  10
HETATM   10  O1  UNL     1       1.104  24.566  14.627  1.00  0.00    -0.262 OA
BRANCH  10  11
HETATM   11  C5  UNL     1       1.861  24.008  15.557  1.00  0.00     0.363 C 
HETATM   12  O2  UNL     1       1.430  23.874  16.713  1.00  0.00    -0.238 OA
HETATM   13  N1  UNL     1       3.176  23.542  15.294  1.00  0.00    -0.337 N 
ATOM     14  H1  UNL     1       3.533  23.657  14.345  1.00  0.00     0.164 HD
BRANCH  13  15
HETATM   15  C6  UNL     1       4.035  22.928  16.249  1.00  0.00     0.124 C 
BRANCH  15  16
HETATM   16  C7  UNL     1       5.052  22.033  15.639  1.00  0.00     0.015 C 
HETATM   17  C8  UNL     1       5.128  22.195  14.132  1.00  0.00     0.006 C 
ENDBRANCH  15  16
ENDBRANCH  13  15
ENDBRANCH  10  11
ENDBRANCH   4  10
BRANCH   6  18
HETATM   18  C10 UNL     1       3.444  26.836  11.584  1.00  0.00     0.198 C 
BRANCH  18  19
HETATM   19  O4  UNL     1       4.835  26.641  11.526  1.00  0.00    -0.398 OA
ATOM     20  H4  UNL     1       5.296  27.427  11.794  1.00  0.00     0.209 HD
ENDBRANCH  18  19
ENDBRANCH   6  18
BRANCH   7  21
HETATM   21  O5  UNL     1       1.162  26.709  10.330  1.00  0.00    -0.390 OA
ATOM     22  H5  UNL     1       0.337  26.966  10.722  1.00  0.00     0.210 HD
ENDBRANCH   7  21
BRANCH   8  23
HETATM   23  O6  UNL     1       0.937  23.283  11.319  1.00  0.00    -0.390 OA
ATOM     24  H6  UNL     1       1.885  23.299  11.264  1.00  0.00     0.210 HD
ENDBRANCH   8  23
BRANCH   9  25
HETATM   25  O7  UNL     1      -0.762  24.078  13.159  1.00  0.00    -0.370 OA
BRANCH  25  26
HETATM   26  C14 UNL     1      -1.939  24.512  13.724  1.00  0.00     0.159 C 
HETATM   27  C15 UNL     1      -2.038  23.948  15.115  1.00  0.00     0.214 C 
HETATM   28  C16 UNL     1      -3.387  23.382  15.465  1.00  0.00     0.070 C 
HETATM   29  C17 UNL     1      -4.546  24.175  14.963  1.00  0.00     0.214 C 
HETATM   30  C18 UNL     1      -4.412  24.536  13.521  1.00  0.00     0.157 C 
HETATM   31  C20 UNL     1      -3.136  24.085  12.896  1.00  0.00     0.044 C 
HETATM   32  C21 UNL     1      -3.187  22.619  12.620  1.00  0.00     0.015 C 
BRANCH  27  33
HETATM   33  N2  UNL     1      -1.646  24.963  16.093  1.00  0.00    -0.072 N 
ATOM     34  H23 UNL     1      -0.749  25.391  15.863  1.00  0.00     0.274 HD
ATOM     35  H22 UNL     1      -2.228  25.798  16.032  1.00  0.00     0.274 HD
ATOM     36  H21 UNL     1      -1.649  24.562  17.031  1.00  0.00     0.274 HD
ENDBRANCH  27  33
BRANCH  29  37
HETATM   37  N3  UNL     1      -5.749  23.373  15.191  1.00  0.00    -0.072 N 
ATOM     38  H33 UNL     1      -6.010  22.806  14.384  1.00  0.00     0.274 HD
ATOM     39  H32 UNL     1      -5.599  22.606  15.847  1.00  0.00     0.274 HD
ATOM     40  H31 UNL     1      -6.486  24.013  15.486  1.00  0.00     0.274 HD
ENDBRANCH  29  37
BRANCH  30  41
HETATM   41  O8  UNL     1      -5.501  23.999  12.823  1.00  0.00    -0.388 OA
HETATM   42  C19 UNL     1      -5.999  24.919  11.897  1.00  0.00     0.202 C 
ENDBRANCH  30  41
ENDBRANCH  25  26
ENDBRANCH   9  25
ENDBRANCH   3   4
TORSDOF 14
ENDMDL
MODEL 3
REMARK VINA RESULT: -5.803556115      3.871      6.488
REMARK  14 active torsions:
REMARK  status: ('A' for Active; 'I' for Inactive)
REMARK    1  A    between atoms: C3_3  and  C4_4 
REMARK    2  A    between atoms: C4_4  and  O1_5 
REMARK    3  A    between atoms: O1_5  and  C5_6 
REMARK       I    between atoms: C5_6  and  N1_8 
REMARK    4  A    between atoms: N1_8  and  C6_10 
REMARK    5  A    between atoms: C6_10  and  C7_11 
REMARK    6  A    between atoms: C9_14  and  C10_15 
REMARK    7  A    between atoms: C10_15  and  O4_16 
REMARK    8  A    between atoms: C11_18  and  O5_19 
REMARK    9  A    between atoms: C12_21  and  O6_22 
REMARK   10  A    between atoms: C13_24  and  O7_25 
REMARK   11  A    between atoms: O7_25  and  C14_26 
REMARK   12  A    between atoms: C15_27  and  N2_28 
REMARK   13  A    between atoms: C17_33  and  N3_34 
REMARK   14  A    between atoms: C18_38  and  O8_39 
ROOT
HETATM    1  C1  UNL     1       0.114  28.114  15.696  1.00  0.00     0.097 C 
HETATM    2  C2  UNL     1       0.532  27.374  14.814  1.00  0.00    -0.182 C 
HETATM    3  C3  UNL     1       1.072  26.561  13.810  1.00  0.00     0.151 C 
ENDROOT
BRANCH   3   4
HETATM    4  C4  UNL     1       0.520  25.206  13.573  1.00  0.00     0.213 C 
HETATM    5  O3  UNL     1       0.519  24.886  12.208  1.00  0.00    -0.341 OA
HETATM    6  C9  UNL     1      -0.353  25.437  11.374  1.00  0.00     0.180 C 
HETATM    7  C11 UNL     1      -1.759  25.625  11.873  1.00  0.00     0.180 C 
HETATM    8  C12 UNL     1      -1.943  24.808  13.130  1.00  0.00     0.183 C 
HETATM    9  C13 UNL     1      -0.897  25.088  14.151  1.00  0.00     0.217 C 
BRANCH   4  10
HETATM   10  O1  UNL     1       1.225  24.203  14.160  1.00  0.00    -0.262 OA
BRANCH  10  11
HETATM   11  C5  UNL     1       2.469  23.763  14.252  1.00  0.00     0.363 C 
HETATM   12  O2  UNL     1       2.950  23.484  15.360  1.00  0.00    -0.238 OA
HETATM   13  N1  UNL     1       3.303  23.590  13.116  1.00  0.00    -0.337 N 
ATOM     14  H1  UNL     1       2.910  23.825  12.205  1.00  0.00     0.164 HD
BRANCH  13  15
HETATM   15  C6  UNL     1       4.645  23.116  13.150  1.00  0.00     0.124 C 
BRANCH  15  16
HETATM   16  C7  UNL     1       4.826  21.810  12.465  1.00  0.00     0.015 C 
HETATM   17  C8  UNL     1       4.022  21.720  11.181  1.00  0.00     0.006 C 
ENDBRANCH  15  16
ENDBRANCH  13  15
ENDBRANCH  10  11
ENDBRANCH   4  10
BRANCH   6  18
HETATM   18  C10 UNL     1       0.060  26.703  10.657  1.00  0.00     0.198 C 
BRANCH  18  19
HETATM   19  O4  UNL     1       1.449  26.724  10.446  1.00  0.00    -0.398 OA
ATOM     20  H4  UNL     1       1.908  26.363  11.196  1.00  0.00     0.209 HD
ENDBRANCH  18  19
ENDBRANCH   6  18
BRANCH   7  21
HETATM   21  O5  UNL     1      -2.111  26.958  12.078  1.00  0.00    -0.390 OA
ATOM     22  H5  UNL     1      -3.045  27.098  12.182  1.00  0.00     0.210 HD
ENDBRANCH   7  21
BRANCH   8  23
HETATM   23  O6  UNL     1      -1.949  23.453  12.751  1.00  0.00    -0.390 OA
ATOM     24  H6  UNL     1      -2.856  23.192  12.649  1.00  0.00     0.210 HD
ENDBRANCH   8  23
BRANCH   9  25
HETATM   25  O7  UNL     1      -1.002  24.100  15.115  1.00  0.00    -0.370 OA
BRANCH  25  26
HETATM   26  C14 UNL     1      -1.128  24.548  16.410  1.00  0.00     0.159 C 
HETATM   27  C15 UNL     1      -0.030  23.935  17.236  1.00  0.00     0.214 C 
HETATM   28  C16 UNL     1      -0.477  23.398  18.568  1.00  0.00     0.070 C 
HETATM   29  C17 UNL     1      -1.479  24.243  19.278  1.00  0.00     0.214 C 
HETATM   30  C18 UNL     1      -2.611  24.653  18.396  1.00  0.00     0.157 C 
HETATM   31  C20 UNL     1      -2.484  24.188  16.985  1.00  0.00     0.044 C 
HETATM   32  C21 UNL     1      -2.815  22.736  16.891  1.00  0.00     0.015 C 
BRANCH  27  33
HETATM   33  N2  UNL     1       1.054  24.901  17.419  1.00  0.00    -0.072 N 
ATOM     34  H23 UNL     1       0.784  25.840  17.128  1.00  0.00     0.274 HD
ATOM     35  H22 UNL     1       1.231  25.096  18.403  1.00  0.00     0.274 HD
ATOM     36  H21 UNL     1       1.893  24.577  16.936  1.00  0.00     0.274 HD
ENDBRANCH  27  33
BRANCH  29  37
HETATM   37  N3  UNL     1      -1.963  23.469  20.423  1.00  0.00    -0.072 N 
ATOM     38  H33 UNL     1      -2.980  23.478  20.509  1.00  0.00     0.274 HD
ATOM     39  H32 UNL     1      -1.850  22.463  20.301  1.00  0.00     0.274 HD
ATOM     40  H31 UNL     1      -1.488  23.828  21.251  1.00  0.00     0.274 HD
ENDBRANCH  29  37
BRANCH  30  41
HETATM   41  O8  UNL     1      -3.805  24.176  18.950  1.00  0.00    -0.388 OA
HETATM   42  C19 UNL     1      -4.794  25.163  18.922  1.00  0.00     0.202 C 
ENDBRANCH  30  41
ENDBRANCH  25  26
ENDBRANCH   9  25
ENDBRANCH   3   4
TORSDOF 14
ENDMDL
MODEL 4
REMARK VINA RESULT: -5.802507103      2.677      7.021
REMARK  14 active torsions:
REMARK  status: ('A' for Active; 'I' for Inactive)
REMARK    1  A    between atoms: C3_3  and  C4_4 
REMARK    2  A    between atoms: C4_4  and  O1_5 
REMARK    3  A    between atoms: O1_5  and  C5_6 
REMARK       I    between atoms: C5_6  and  N1_8 
REMARK    4  A    between atoms: N1_8  and  C6_10 
REMARK    5  A    between atoms: C6_10  and  C7_11 
REMARK    6  A    between atoms: C9_14  and  C10_15 
REMARK    7  A    between atoms: C10_15  and  O4_16 
REMARK    8  A    between atoms: C11_18  and  O5_19 
REMARK    9  A    between atoms: C12_21  and  O6_22 
REMARK   10  A    between atoms: C13_24  and  O7_25 
REMARK   11  A    between atoms: O7_25  and  C14_26 
REMARK   12  A    between atoms: C15_27  and  N2_28 
REMARK   13  A    between atoms: C17_33  and  N3_34 
REMARK   14  A    between atoms: C18_38  and  O8_39 
ROOT
HETATM    1  C1  UNL     1      -3.220  24.612  14.867  1.00  0.00     0.097 C 
HETATM    2  C2  UNL     1      -2.222  24.441  14.177  1.00  0.00    -0.182 C 
HETATM    3  C3  UNL     1      -1.116  24.191  13.356  1.00  0.00     0.151 C 
ENDROOT
BRANCH   3   4
HETATM    4  C4  UNL     1      -0.160  25.282  13.044  1.00  0.00     0.213 C 
HETATM    5  O3  UNL     1      -0.801  26.357  12.414  1.00  0.00    -0.341 OA
HETATM    6  C9  UNL     1      -1.193  26.278  11.149  1.00  0.00     0.180 C 
HETATM    7  C11 UNL     1      -0.279  25.571  10.188  1.00  0.00     0.180 C 
HETATM    8  C12 UNL     1       1.075  25.406  10.836  1.00  0.00     0.183 C 
HETATM    9  C13 UNL     1       0.992  24.761  12.175  1.00  0.00     0.217 C 
BRANCH   4  10
HETATM   10  O1  UNL     1       0.439  25.830  14.134  1.00  0.00    -0.262 OA
BRANCH  10  11
HETATM   11  C5  UNL     1       0.130  26.544  15.203  1.00  0.00     0.363 C 
HETATM   12  O2  UNL     1       0.630  26.264  16.304  1.00  0.00    -0.238 OA
HETATM   13  N1  UNL     1      -0.768  27.642  15.155  1.00  0.00    -0.337 N 
ATOM     14  H1  UNL     1      -1.184  27.869  14.252  1.00  0.00     0.164 HD
BRANCH  13  15
HETATM   15  C6  UNL     1      -1.134  28.451  16.268  1.00  0.00     0.124 C 
BRANCH  15  16
HETATM   16  C7  UNL     1      -2.459  29.105  16.111  1.00  0.00     0.015 C 
HETATM   17  C8  UNL     1      -3.051  28.877  14.733  1.00  0.00     0.006 C 
ENDBRANCH  15  16
ENDBRANCH  13  15
ENDBRANCH  10  11
ENDBRANCH   4  10
BRANCH   6  18
HETATM   18  C10 UNL     1      -2.606  25.811  10.876  1.00  0.00     0.198 C 
BRANCH  18  19
HETATM   19  O4  UNL     1      -3.526  26.528  11.660  1.00  0.00    -0.398 OA
ATOM     20  H4  UNL     1      -3.810  27.315  11.209  1.00  0.00     0.209 HD
ENDBRANCH  18  19
ENDBRANCH   6  18
BRANCH   7  21
HETATM   21  O5  UNL     1      -0.775  24.352   9.729  1.00  0.00    -0.390 OA
ATOM     22  H5  UNL     1      -1.093  24.378   8.835  1.00  0.00     0.210 HD
ENDBRANCH   7  21
BRANCH   8  23
HETATM   23  O6  UNL     1       1.663  26.682  10.910  1.00  0.00    -0.390 OA
ATOM     24  H6  UNL     1       0.969  27.303  11.100  1.00  0.00     0.210 HD
ENDBRANCH   8  23
BRANCH   9  25
HETATM   25  O7  UNL     1       2.230  24.920  12.775  1.00  0.00    -0.370 OA
BRANCH  25  26
HETATM   26  C14 UNL     1       2.789  23.773  13.290  1.00  0.00     0.159 C 
HETATM   27  C15 UNL     1       3.153  24.025  14.728  1.00  0.00     0.214 C 
HETATM   28  C16 UNL     1       4.515  23.524  15.124  1.00  0.00     0.070 C 
HETATM   29  C17 UNL     1       4.887  22.201  14.543  1.00  0.00     0.214 C 
HETATM   30  C18 UNL     1       4.633  22.129  13.074  1.00  0.00     0.157 C 
HETATM   31  C20 UNL     1       4.015  23.358  12.501  1.00  0.00     0.044 C 
HETATM   32  C21 UNL     1       5.039  24.434  12.364  1.00  0.00     0.015 C 
BRANCH  27  33
HETATM   33  N2  UNL     1       2.131  23.458  15.608  1.00  0.00    -0.072 N 
ATOM     34  H23 UNL     1       1.878  22.508  15.339  1.00  0.00     0.274 HD
ATOM     35  H22 UNL     1       2.496  23.255  16.538  1.00  0.00     0.274 HD
ATOM     36  H21 UNL     1       1.320  24.075  15.641  1.00  0.00     0.274 HD
ENDBRANCH  27  33
BRANCH  29  37
HETATM   37  N3  UNL     1       6.304  21.982  14.839  1.00  0.00    -0.072 N 
ATOM     38  H33 UNL     1       6.677  21.138  14.404  1.00  0.00     0.274 HD
ATOM     39  H32 UNL     1       6.917  22.652  14.375  1.00  0.00     0.274 HD
ATOM     40  H31 UNL     1       6.402  21.986  15.855  1.00  0.00     0.274 HD
ENDBRANCH  29  37
BRANCH  30  41
HETATM   41  O8  UNL     1       5.844  21.856  12.424  1.00  0.00    -0.388 OA
HETATM   42  C19 UNL     1       5.620  21.190  11.216  1.00  0.00     0.202 C 
ENDBRANCH  30  41
ENDBRANCH  25  26
ENDBRANCH   9  25
ENDBRANCH   3   4
TORSDOF 14
ENDMDL
MODEL 5
REMARK VINA RESULT: -5.801882271      3.520      7.557
REMARK  14 active torsions:
REMARK  status: ('A' for Active; 'I' for Inactive)
REMARK    1  A    between atoms: C3_3  and  C4_4 
REMARK    2  A    between atoms: C4_4  and  O1_5 
REMARK    3  A    between atoms: O1_5  and  C5_6 
REMARK       I    between atoms: C5_6  and  N1_8 
REMARK    4  A    between atoms: N1_8  and  C6_10 
REMARK    5  A    between atoms: C6_10  and  C7_11 
REMARK    6  A    between atoms: C9_14  and  C10_15 
REMARK    7  A    between atoms: C10_15  and  O4_16 
REMARK    8  A    between atoms: C11_18  and  O5_19 
REMARK    9  A    between atoms: C12_21  and  O6_22 
REMARK   10  A    between atoms: C13_24  and  O7_25 
REMARK   11  A    between atoms: O7_25  and  C14_26 
REMARK   12  A    between atoms: C15_27  and  N2_28 
REMARK   13  A    between atoms: C17_33  and  N3_34 
REMARK   14  A    between atoms: C18_38  and  O8_39 
ROOT
HETATM    1  C1  UNL     1       0.430  28.146  15.981  1.00  0.00     0.097 C 
HETATM    2  C2  UNL     1       0.559  27.332  15.075  1.00  0.00    -0.182 C 
HETATM    3  C3  UNL     1       0.769  26.432  14.023  1.00  0.00     0.151 C 
ENDROOT
BRANCH   3   4
HETATM    4  C4  UNL     1       0.165  25.078  14.070  1.00  0.00     0.213 C 
HETATM    5  O3  UNL     1      -0.445  24.749  12.851  1.00  0.00    -0.341 OA
HETATM    6  C9  UNL     1      -1.596  25.299  12.487  1.00  0.00     0.180 C 
HETATM    7  C11 UNL     1      -2.631  25.501  13.559  1.00  0.00     0.180 C 
HETATM    8  C12 UNL     1      -2.239  24.695  14.773  1.00  0.00     0.183 C 
HETATM    9  C13 UNL     1      -0.846  24.975  15.220  1.00  0.00     0.217 C 
BRANCH   4  10
HETATM   10  O1  UNL     1       1.055  24.075  14.292  1.00  0.00    -0.262 OA
BRANCH  10  11
HETATM   11  C5  UNL     1       2.223  23.646  13.845  1.00  0.00     0.363 C 
HETATM   12  O2  UNL     1       3.142  23.400  14.642  1.00  0.00    -0.238 OA
HETATM   13  N1  UNL     1       2.488  23.448  12.465  1.00  0.00    -0.337 N 
ATOM     14  H1  UNL     1       1.735  23.655  11.808  1.00  0.00     0.164 HD
BRANCH  13  15
HETATM   15  C6  UNL     1       3.720  22.983  11.925  1.00  0.00     0.124 C 
BRANCH  15  16
HETATM   16  C7  UNL     1       3.560  21.847  10.981  1.00  0.00     0.015 C 
HETATM   17  C8  UNL     1       4.684  20.836  11.104  1.00  0.00     0.006 C 
ENDBRANCH  15  16
ENDBRANCH  13  15
ENDBRANCH  10  11
ENDBRANCH   4  10
BRANCH   6  18
HETATM   18  C10 UNL     1      -1.542  26.557  11.649  1.00  0.00     0.198 C 
BRANCH  18  19
HETATM   19  O4  UNL     1      -2.746  26.738  10.948  1.00  0.00    -0.398 OA
ATOM     20  H4  UNL     1      -3.252  27.447  11.326  1.00  0.00     0.209 HD
ENDBRANCH  18  19
ENDBRANCH   6  18
BRANCH   7  21
HETATM   21  O5  UNL     1      -2.852  26.838  13.886  1.00  0.00    -0.390 OA
ATOM     22  H5  UNL     1      -2.099  27.269  14.272  1.00  0.00     0.210 HD
ENDBRANCH   7  21
BRANCH   8  23
HETATM   23  O6  UNL     1      -2.417  23.337  14.450  1.00  0.00    -0.390 OA
ATOM     24  H6  UNL     1      -2.789  22.911  15.213  1.00  0.00     0.210 HD
ENDBRANCH   8  23
BRANCH   9  25
HETATM   25  O7  UNL     1      -0.514  23.995  16.139  1.00  0.00    -0.370 OA
BRANCH  25  26
HETATM   26  C14 UNL     1      -0.054  24.454  17.352  1.00  0.00     0.159 C 
HETATM   27  C15 UNL     1       1.286  23.825  17.623  1.00  0.00     0.214 C 
HETATM   28  C16 UNL     1       1.459  23.305  19.024  1.00  0.00     0.070 C 
HETATM   29  C17 UNL     1       0.880  24.174  20.089  1.00  0.00     0.214 C 
HETATM   30  C18 UNL     1      -0.517  24.600  19.785  1.00  0.00     0.157 C 
HETATM   31  C20 UNL     1      -1.026  24.124  18.468  1.00  0.00     0.044 C 
HETATM   32  C21 UNL     1      -1.387  22.677  18.548  1.00  0.00     0.015 C 
BRANCH  27  33
HETATM   33  N2  UNL     1       2.354  24.771  17.299  1.00  0.00    -0.072 N 
ATOM     34  H23 UNL     1       2.068  25.445  16.590  1.00  0.00     0.274 HD
ATOM     35  H22 UNL     1       2.530  25.425  18.061  1.00  0.00     0.274 HD
ATOM     36  H21 UNL     1       3.197  24.264  17.028  1.00  0.00     0.274 HD
ENDBRANCH  27  33
BRANCH  29  37
HETATM   37  N3  UNL     1       0.935  23.417  21.341  1.00  0.00    -0.072 N 
ATOM     38  H33 UNL     1       1.842  23.475  21.803  1.00  0.00     0.274 HD
ATOM     39  H32 UNL     1       0.380  23.838  22.086  1.00  0.00     0.274 HD
ATOM     40  H31 UNL     1       0.655  22.460  21.126  1.00  0.00     0.274 HD
ENDBRANCH  29  37
BRANCH  30  41
HETATM   41  O8  UNL     1      -1.355  24.149  20.812  1.00  0.00    -0.388 OA
HETATM   42  C19 UNL     1      -2.214  25.168  21.235  1.00  0.00     0.202 C 
ENDBRANCH  30  41
ENDBRANCH  25  26
ENDBRANCH   9  25
ENDBRANCH   3   4
TORSDOF 14
ENDMDL
