MODEL 1
REMARK VINA RESULT: -7.310331970      0.000      0.000
REMARK  12 active torsions:
REMARK  status: ('A' for Active; 'I' for Inactive)
REMARK    1  A    between atoms: O1_2  and  C2_3 
REMARK    2  A    between atoms: C3_5  and  S1_6 
REMARK    3  A    between atoms: S1_6  and  C4_7 
REMARK    4  A    between atoms: C4_7  and  C5_8 
REMARK    5  A    between atoms: C5_8  and  C6_9 
REMARK    6  A    between atoms: C6_9  and  N1_10 
REMARK    7  A    between atoms: C8_15  and  C9_16 
REMARK    8  A    between atoms: C11_19  and  O4_20 
REMARK    9  A    between atoms: O4_20  and  C12_21 
REMARK       I    between atoms: C12_21  and  N4_23 
REMARK   10  A    between atoms: C15_26  and  O6_27 
REMARK   11  A    between atoms: C16_29  and  O7_30 
REMARK   12  A    between atoms: C17_32  and  O8_33 
ROOT
HETATM    1  C2  UNL     1       4.982  21.777   8.464  1.00  0.00     0.291 C 
HETATM    2  O2  UNL     1       3.634  21.574   8.165  1.00  0.00    -0.343 OA
HETATM    3  C3  UNL     1       2.921  22.350   9.076  1.00  0.00     0.195 C 
HETATM    4  C8  UNL     1       3.130  21.963  10.509  1.00  0.00     0.088 C 
HETATM    5  C16 UNL     1       4.348  21.189  10.814  1.00  0.00     0.161 C 
HETATM    6  C17 UNL     1       5.271  20.926   9.680  1.00  0.00     0.202 C 
ENDROOT
BRANCH   4   7
HETATM    7  C9  UNL     1       3.010  23.251  11.318  1.00  0.00     0.162 C 
HETATM    8  O3  UNL     1       1.680  23.235  11.801  1.00  0.00    -0.380 OA
HETATM    9  C10 UNL     1       1.647  24.195  12.808  1.00  0.00     0.203 C 
HETATM   10  C11 UNL     1       2.963  24.030  13.537  1.00  0.00     0.188 C 
HETATM   11  C15 UNL     1       3.809  23.234  12.569  1.00  0.00     0.179 C 
BRANCH  10  12
HETATM   12  O4  UNL     1       2.788  23.349  14.764  1.00  0.00    -0.294 OA
BRANCH  12  13
HETATM   13  C12 UNL     1       3.617  23.502  15.862  1.00  0.00     0.362 C 
HETATM   14  O5  UNL     1       4.858  23.305  15.653  1.00  0.00    -0.238 OA
HETATM   15  N4  UNL     1       3.147  23.855  17.149  1.00  0.00    -0.337 N 
HETATM   16  C13 UNL     1       1.735  24.068  17.348  1.00  0.00     0.154 C 
HETATM   17  C14 UNL     1       4.076  23.995  18.236  1.00  0.00     0.154 C 
ENDBRANCH  12  13
ENDBRANCH  10  12
BRANCH  11  18
HETATM   18  O6  UNL     1       5.035  23.888  12.454  1.00  0.00    -0.390 OA
ATOM     19  H6  UNL     1       5.471  23.731  11.625  1.00  0.00     0.210 HD
ENDBRANCH  11  18
ENDBRANCH   4   7
BRANCH   3  20
HETATM   20  S1  UNL     1       1.155  22.421   8.691  1.00  0.00    -0.137 SA
BRANCH  20  21
HETATM   21  C4  UNL     1       0.929  22.185   6.912  1.00  0.00     0.078 C 
BRANCH  21  22
HETATM   22  C5  UNL     1      -0.458  22.616   6.482  1.00  0.00     0.030 C 
BRANCH  22  23
HETATM   23  C6  UNL     1      -0.514  22.765   4.967  1.00  0.00     0.122 C 
BRANCH  23  24
HETATM   24  N1  UNL     1       0.826  22.595   4.414  1.00  0.00    -0.367 N 
HETATM   25  C7  UNL     1       1.215  23.281   3.389  1.00  0.00     0.196 C 
HETATM   26  N2  UNL     1       2.517  23.100   2.870  1.00  0.00    -0.067 NA
HETATM   27  N3  UNL     1       0.345  24.220   2.775  1.00  0.00    -0.067 NA
ATOM     28  H1  UNL     1       1.466  21.926   4.843  1.00  0.00     0.161 HD
ENDBRANCH  23  24
ENDBRANCH  22  23
ENDBRANCH  21  22
ENDBRANCH  20  21
ENDBRANCH   3  20
BRANCH   5  29
HETATM   29  O7  UNL     1       3.997  19.938  11.371  1.00  0.00    -0.392 OA
ATOM     30  H7  UNL     1       3.414  19.472  10.783  1.00  0.00     0.210 HD
ENDBRANCH   5  29
BRANCH   6  31
HETATM   31  O8  UNL     1       6.618  21.107  10.003  1.00  0.00    -0.388 OA
ATOM     32  H8  UNL     1       6.793  20.594  10.783  1.00  0.00     0.210 HD
ENDBRANCH   6  31
BRANCH   1  33
HETATM   33  O1  UNL     1       5.830  21.499   7.431  1.00  0.00    -0.363 OA
HETATM   34  C1  UNL     1       5.207  21.116   6.264  1.00  0.00     0.204 C 
ENDBRANCH   1  33
TORSDOF 12
ENDMDL
MODEL 2
REMARK VINA RESULT: -7.290368317      2.579      9.177
REMARK  12 active torsions:
REMARK  status: ('A' for Active; 'I' for Inactive)
REMARK    1  A    between atoms: O1_2  and  C2_3 
REMARK    2  A    between atoms: C3_5  and  S1_6 
REMARK    3  A    between atoms: S1_6  and  C4_7 
REMARK    4  A    between atoms: C4_7  and  C5_8 
REMARK    5  A    between atoms: C5_8  and  C6_9 
REMARK    6  A    between atoms: C6_9  and  N1_10 
REMARK    7  A    between atoms: C8_15  and  C9_16 
REMARK    8  A    between atoms: C11_19  and  O4_20 
REMARK    9  A    between atoms: O4_20  and  C12_21 
REMARK       I    between atoms: C12_21  and  N4_23 
REMARK   10  A    between atoms: C15_26  and  O6_27 
REMARK   11  A    between atoms: C16_29  and  O7_30 
REMARK   12  A    between atoms: C17_32  and  O8_33 
ROOT
HETATM    1  C2  UNL     1       4.041  22.908  15.037  1.00  0.00     0.291 C 
HETATM    2  O2  UNL     1       3.107  23.944  15.011  1.00  0.00    -0.343 OA
HETATM    3  C3  UNL     1       2.366  23.759  13.846  1.00  0.00     0.195 C 
HETATM    4  C8  UNL     1       3.172  23.844  12.585  1.00  0.00     0.088 C 
HETATM    5  C16 UNL     1       4.627  23.638  12.715  1.00  0.00     0.161 C 
HETATM    6  C17 UNL     1       5.134  23.308  14.072  1.00  0.00     0.202 C 
ENDROOT
BRANCH   4   7
HETATM    7  C9  UNL     1       2.510  22.893  11.593  1.00  0.00     0.162 C 
HETATM    8  O3  UNL     1       1.837  23.747  10.688  1.00  0.00    -0.380 OA
HETATM    9  C10 UNL     1       1.523  22.946   9.595  1.00  0.00     0.203 C 
HETATM   10  C11 UNL     1       2.742  22.068   9.403  1.00  0.00     0.188 C 
HETATM   11  C15 UNL     1       3.481  22.192  10.716  1.00  0.00     0.179 C 
BRANCH  10  12
HETATM   12  O4  UNL     1       3.527  22.512   8.313  1.00  0.00    -0.294 OA
BRANCH  12  13
HETATM   13  C12 UNL     1       4.521  21.758   7.715  1.00  0.00     0.362 C 
HETATM   14  O5  UNL     1       5.296  21.130   8.507  1.00  0.00    -0.238 OA
HETATM   15  N4  UNL     1       4.693  21.670   6.313  1.00  0.00    -0.337 N 
HETATM   16  C13 UNL     1       3.798  22.397   5.448  1.00  0.00     0.154 C 
HETATM   17  C14 UNL     1       5.751  20.861   5.772  1.00  0.00     0.154 C 
ENDBRANCH  12  13
ENDBRANCH  10  12
BRANCH  11  18
HETATM   18  O6  UNL     1       3.785  20.900  11.144  1.00  0.00    -0.390 OA
ATOM     19  H6  UNL     1       3.632  20.237  10.483  1.00  0.00     0.210 HD
ENDBRANCH  11  18
ENDBRANCH   4   7
BRANCH   3  20
HETATM   20  S1  UNL     1       0.933  24.859  13.756  1.00  0.00    -0.137 SA
BRANCH  20  21
HETATM   21  C4  UNL     1       0.537  25.449  15.420  1.00  0.00     0.078 C 
BRANCH  21  22
HETATM   22  C5  UNL     1      -0.090  24.347  16.248  1.00  0.00     0.030 C 
BRANCH  22  23
HETATM   23  C6  UNL     1       0.409  24.425  17.686  1.00  0.00     0.122 C 
BRANCH  23  24
HETATM   24  N1  UNL     1       0.102  23.173  18.373  1.00  0.00    -0.367 N 
HETATM   25  C7  UNL     1       0.624  22.902  19.524  1.00  0.00     0.196 C 
HETATM   26  N2  UNL     1       0.314  21.685  20.171  1.00  0.00    -0.067 NA
HETATM   27  N3  UNL     1       1.509  23.817  20.152  1.00  0.00    -0.067 NA
ATOM     28  H1  UNL     1      -0.533  22.504  17.939  1.00  0.00     0.161 HD
ENDBRANCH  23  24
ENDBRANCH  22  23
ENDBRANCH  21  22
ENDBRANCH  20  21
ENDBRANCH   3  20
BRANCH   5  29
HETATM   29  O7  UNL     1       5.318  24.791  12.276  1.00  0.00    -0.392 OA
ATOM     30  H7  UNL     1       6.205  24.786  12.616  1.00  0.00     0.210 HD
ENDBRANCH   5  29
BRANCH   6  31
HETATM   31  O8  UNL     1       6.088  22.287  14.078  1.00  0.00    -0.388 OA
ATOM     32  H8  UNL     1       6.705  22.473  13.380  1.00  0.00     0.210 HD
ENDBRANCH   6  31
BRANCH   1  33
HETATM   33  O1  UNL     1       4.533  22.631  16.280  1.00  0.00    -0.363 OA
HETATM   34  C1  UNL     1       4.016  23.414  17.289  1.00  0.00     0.204 C 
ENDBRANCH   1  33
TORSDOF 12
ENDMDL
MODEL 3
REMARK VINA RESULT: -7.287336938      3.147      8.086
REMARK  12 active torsions:
REMARK  status: ('A' for Active; 'I' for Inactive)
REMARK    1  A    between atoms: O1_2  and  C2_3 
REMARK    2  A    between atoms: C3_5  and  S1_6 
REMARK    3  A    between atoms: S1_6  and  C4_7 
REMARK    4  A    between atoms: C4_7  and  C5_8 
REMARK    5  A    between atoms: C5_8  and  C6_9 
REMARK    6  A    between atoms: C6_9  and  N1_10 
REMARK    7  A    between atoms: C8_15  and  C9_16 
REMARK    8  A    between atoms: C11_19  and  O4_20 
REMARK    9  A    between atoms: O4_20  and  C12_21 
REMARK       I    between atoms: C12_21  and  N4_23 
REMARK   10  A    between atoms: C15_26  and  O6_27 
REMARK   11  A    between atoms: C16_29  and  O7_30 
REMARK   12  A    between atoms: C17_32  and  O8_33 
ROOT
HETATM    1  C2  UNL     1       3.242  23.271  14.164  1.00  0.00     0.291 C 
HETATM    2  O2  UNL     1       2.322  24.142  13.579  1.00  0.00    -0.343 OA
HETATM    3  C3  UNL     1       2.143  23.687  12.275  1.00  0.00     0.195 C 
HETATM    4  C8  UNL     1       3.387  23.714  11.438  1.00  0.00     0.088 C 
HETATM    5  C16 UNL     1       4.671  23.749  12.164  1.00  0.00     0.161 C 
HETATM    6  C17 UNL     1       4.599  23.691  13.647  1.00  0.00     0.202 C 
ENDROOT
BRANCH   4   7
HETATM    7  C9  UNL     1       3.270  22.546  10.465  1.00  0.00     0.162 C 
HETATM    8  O3  UNL     1       3.246  23.156   9.189  1.00  0.00    -0.380 OA
HETATM    9  C10 UNL     1       3.490  22.125   8.287  1.00  0.00     0.203 C 
HETATM   10  C11 UNL     1       4.549  21.275   8.956  1.00  0.00     0.188 C 
HETATM   11  C15 UNL     1       4.495  21.710  10.403  1.00  0.00     0.179 C 
BRANCH  10  12
HETATM   12  O4  UNL     1       5.824  21.504   8.386  1.00  0.00    -0.294 OA
BRANCH  12  13
HETATM   13  C12 UNL     1       6.037  21.781   7.046  1.00  0.00     0.362 C 
HETATM   14  O5  UNL     1       5.230  21.230   6.229  1.00  0.00    -0.238 OA
HETATM   15  N4  UNL     1       7.077  22.620   6.582  1.00  0.00    -0.337 N 
HETATM   16  C13 UNL     1       7.972  23.225   7.536  1.00  0.00     0.154 C 
HETATM   17  C14 UNL     1       7.228  22.858   5.172  1.00  0.00     0.154 C 
ENDBRANCH  12  13
ENDBRANCH  10  12
BRANCH  11  18
HETATM   18  O6  UNL     1       4.420  20.555  11.180  1.00  0.00    -0.390 OA
ATOM     19  H6  UNL     1       3.544  20.194  11.238  1.00  0.00     0.210 HD
ENDBRANCH  11  18
ENDBRANCH   4   7
BRANCH   3  20
HETATM   20  S1  UNL     1       0.791  24.537  11.425  1.00  0.00    -0.137 SA
BRANCH  20  21
HETATM   21  C4  UNL     1       1.387  26.133  10.818  1.00  0.00     0.078 C 
BRANCH  21  22
HETATM   22  C5  UNL     1       1.614  27.096  11.966  1.00  0.00     0.030 C 
BRANCH  22  23
HETATM   23  C6  UNL     1       0.377  27.154  12.853  1.00  0.00     0.122 C 
BRANCH  23  24
HETATM   24  N1  UNL     1       0.773  26.978  14.248  1.00  0.00    -0.367 N 
HETATM   25  C7  UNL     1       0.060  27.469  15.208  1.00  0.00     0.196 C 
HETATM   26  N2  UNL     1       0.462  27.287  16.550  1.00  0.00    -0.067 NA
HETATM   27  N3  UNL     1      -1.130  28.191  14.930  1.00  0.00    -0.067 NA
ATOM     28  H1  UNL     1       1.624  26.461  14.467  1.00  0.00     0.161 HD
ENDBRANCH  23  24
ENDBRANCH  22  23
ENDBRANCH  21  22
ENDBRANCH  20  21
ENDBRANCH   3  20
BRANCH   5  29
HETATM   29  O7  UNL     1       5.387  24.919  11.822  1.00  0.00    -0.392 OA
ATOM     30  H7  UNL     1       5.955  25.173  12.539  1.00  0.00     0.210 HD
ENDBRANCH   5  29
BRANCH   6  31
HETATM   31  O8  UNL     1       5.545  22.835  14.218  1.00  0.00    -0.388 OA
ATOM     32  H8  UNL     1       6.126  23.369  14.747  1.00  0.00     0.210 HD
ENDBRANCH   6  31
BRANCH   1  33
HETATM   33  O1  UNL     1       3.199  23.248  15.528  1.00  0.00    -0.363 OA
HETATM   34  C1  UNL     1       2.189  24.002  16.084  1.00  0.00     0.204 C 
ENDBRANCH   1  33
TORSDOF 12
ENDMDL
MODEL 4
REMARK VINA RESULT: -7.231363859      3.043      7.124
REMARK  12 active torsions:
REMARK  status: ('A' for Active; 'I' for Inactive)
REMARK    1  A    between atoms: O1_2  and  C2_3 
REMARK    2  A    between atoms: C3_5  and  S1_6 
REMARK    3  A    between atoms: S1_6  and  C4_7 
REMARK    4  A    between atoms: C4_7  and  C5_8 
REMARK    5  A    between atoms: C5_8  and  C6_9 
REMARK    6  A    between atoms: C6_9  and  N1_10 
REMARK    7  A    between atoms: C8_15  and  C9_16 
REMARK    8  A    between atoms: C11_19  and  O4_20 
REMARK    9  A    between atoms: O4_20  and  C12_21 
REMARK       I    between atoms: C12_21  and  N4_23 
REMARK   10  A    between atoms: C15_26  and  O6_27 
REMARK   11  A    between atoms: C16_29  and  O7_30 
REMARK   12  A    between atoms: C17_32  and  O8_33 
ROOT
HETATM    1  C2  UNL     1       3.951  22.941  15.039  1.00  0.00     0.291 C 
HETATM    2  O2  UNL     1       3.033  23.989  14.974  1.00  0.00    -0.343 OA
HETATM    3  C3  UNL     1       2.316  23.796  13.795  1.00  0.00     0.195 C 
HETATM    4  C8  UNL     1       3.152  23.849  12.552  1.00  0.00     0.088 C 
HETATM    5  C16 UNL     1       4.600  23.625  12.720  1.00  0.00     0.161 C 
HETATM    6  C17 UNL     1       5.071  23.310  14.093  1.00  0.00     0.202 C 
ENDROOT
BRANCH   4   7
HETATM    7  C9  UNL     1       2.499  22.892  11.560  1.00  0.00     0.162 C 
HETATM    8  O3  UNL     1       1.821  23.739  10.654  1.00  0.00    -0.380 OA
HETATM    9  C10 UNL     1       1.516  22.934   9.561  1.00  0.00     0.203 C 
HETATM   10  C11 UNL     1       2.741  22.065   9.372  1.00  0.00     0.188 C 
HETATM   11  C15 UNL     1       3.477  22.197  10.686  1.00  0.00     0.179 C 
BRANCH  10  12
HETATM   12  O4  UNL     1       3.525  22.515   8.283  1.00  0.00    -0.294 OA
BRANCH  12  13
HETATM   13  C12 UNL     1       4.535  21.772   7.696  1.00  0.00     0.362 C 
HETATM   14  O5  UNL     1       5.307  21.152   8.497  1.00  0.00    -0.238 OA
HETATM   15  N4  UNL     1       4.724  21.688   6.296  1.00  0.00    -0.337 N 
HETATM   16  C13 UNL     1       3.831  22.405   5.421  1.00  0.00     0.154 C 
HETATM   17  C14 UNL     1       5.798  20.892   5.766  1.00  0.00     0.154 C 
ENDBRANCH  12  13
ENDBRANCH  10  12
BRANCH  11  18
HETATM   18  O6  UNL     1       3.791  20.909  11.117  1.00  0.00    -0.390 OA
ATOM     19  H6  UNL     1       3.218  20.589  11.803  1.00  0.00     0.210 HD
ENDBRANCH  11  18
ENDBRANCH   4   7
BRANCH   3  20
HETATM   20  S1  UNL     1       0.901  24.914  13.655  1.00  0.00    -0.137 SA
BRANCH  20  21
HETATM   21  C4  UNL     1       1.445  26.458  12.883  1.00  0.00     0.078 C 
BRANCH  21  22
HETATM   22  C5  UNL     1       0.256  27.311  12.488  1.00  0.00     0.030 C 
BRANCH  22  23
HETATM   23  C6  UNL     1       0.215  27.481  10.974  1.00  0.00     0.122 C 
BRANCH  23  24
HETATM   24  N1  UNL     1      -0.128  26.204  10.353  1.00  0.00    -0.367 N 
HETATM   25  C7  UNL     1      -1.331  25.964   9.946  1.00  0.00     0.196 C 
HETATM   26  N2  UNL     1      -1.640  24.722   9.348  1.00  0.00    -0.067 NA
HETATM   27  N3  UNL     1      -2.352  26.940  10.092  1.00  0.00    -0.067 NA
ATOM     28  H1  UNL     1       0.593  25.492  10.239  1.00  0.00     0.161 HD
ENDBRANCH  23  24
ENDBRANCH  22  23
ENDBRANCH  21  22
ENDBRANCH  20  21
ENDBRANCH   3  20
BRANCH   5  29
HETATM   29  O7  UNL     1       5.319  24.760  12.279  1.00  0.00    -0.392 OA
ATOM     30  H7  UNL     1       5.893  25.070  12.969  1.00  0.00     0.210 HD
ENDBRANCH   5  29
BRANCH   6  31
HETATM   31  O8  UNL     1       6.010  22.276  14.138  1.00  0.00    -0.388 OA
ATOM     32  H8  UNL     1       6.475  22.280  13.309  1.00  0.00     0.210 HD
ENDBRANCH   6  31
BRANCH   1  33
HETATM   33  O1  UNL     1       4.409  22.678  16.298  1.00  0.00    -0.363 OA
HETATM   34  C1  UNL     1       4.252  23.712  17.194  1.00  0.00     0.204 C 
ENDBRANCH   1  33
TORSDOF 12
ENDMDL
MODEL 5
REMARK VINA RESULT: -7.176073019      2.588      8.646
REMARK  12 active torsions:
REMARK  status: ('A' for Active; 'I' for Inactive)
REMARK    1  A    between atoms: O1_2  and  C2_3 
REMARK    2  A    between atoms: C3_5  and  S1_6 
REMARK    3  A    between atoms: S1_6  and  C4_7 
REMARK    4  A    between atoms: C4_7  and  C5_8 
REMARK    5  A    between atoms: C5_8  and  C6_9 
REMARK    6  A    between atoms: C6_9  and  N1_10 
REMARK    7  A    between atoms: C8_15  and  C9_16 
REMARK    8  A    between atoms: C11_19  and  O4_20 
REMARK    9  A    between atoms: O4_20  and  C12_21 
REMARK       I    between atoms: C12_21  and  N4_23 
REMARK   10  A    between atoms: C15_26  and  O6_27 
REMARK   11  A    between atoms: C16_29  and  O7_30 
REMARK   12  A    between atoms: C17_32  and  O8_33 
ROOT
HETATM    1  C2  UNL     1       3.934  22.924  15.000  1.00  0.00     0.291 C 
HETATM    2  O2  UNL     1       2.964  23.925  14.929  1.00  0.00    -0.343 OA
HETATM    3  C3  UNL     1       2.270  23.699  13.741  1.00  0.00     0.195 C 
HETATM    4  C8  UNL     1       3.116  23.798  12.508  1.00  0.00     0.088 C 
HETATM    5  C16 UNL     1       4.572  23.649  12.690  1.00  0.00     0.161 C 
HETATM    6  C17 UNL     1       5.044  23.353  14.068  1.00  0.00     0.202 C 
ENDROOT
BRANCH   4   7
HETATM    7  C9  UNL     1       2.524  22.812  11.506  1.00  0.00     0.162 C 
HETATM    8  O3  UNL     1       1.824  23.628  10.587  1.00  0.00    -0.380 OA
HETATM    9  C10 UNL     1       1.573  22.808   9.490  1.00  0.00     0.203 C 
HETATM   10  C11 UNL     1       2.840  21.996   9.323  1.00  0.00     0.188 C 
HETATM   11  C15 UNL     1       3.547  22.161  10.649  1.00  0.00     0.179 C 
BRANCH  10  12
HETATM   12  O4  UNL     1       3.621  22.480   8.247  1.00  0.00    -0.294 OA
BRANCH  12  13
HETATM   13  C12 UNL     1       4.655  21.771   7.660  1.00  0.00     0.362 C 
HETATM   14  O5  UNL     1       5.449  21.179   8.461  1.00  0.00    -0.238 OA
HETATM   15  N4  UNL     1       4.846  21.692   6.260  1.00  0.00    -0.337 N 
HETATM   16  C13 UNL     1       3.928  22.378   5.385  1.00  0.00     0.154 C 
HETATM   17  C14 UNL     1       5.946  20.933   5.730  1.00  0.00     0.154 C 
ENDBRANCH  12  13
ENDBRANCH  10  12
BRANCH  11  18
HETATM   18  O6  UNL     1       3.911  20.889  11.087  1.00  0.00    -0.390 OA
ATOM     19  H6  UNL     1       3.919  20.239  10.395  1.00  0.00     0.210 HD
ENDBRANCH  11  18
ENDBRANCH   4   7
BRANCH   3  20
HETATM   20  S1  UNL     1       0.802  24.743  13.588  1.00  0.00    -0.137 SA
BRANCH  20  21
HETATM   21  C4  UNL     1       1.321  26.464  13.383  1.00  0.00     0.078 C 
BRANCH  21  22
HETATM   22  C5  UNL     1       0.598  27.366  14.363  1.00  0.00     0.030 C 
BRANCH  22  23
HETATM   23  C6  UNL     1      -0.528  26.600  15.046  1.00  0.00     0.122 C 
BRANCH  23  24
HETATM   24  N1  UNL     1      -0.717  27.120  16.397  1.00  0.00    -0.367 N 
HETATM   25  C7  UNL     1      -0.247  26.490  17.423  1.00  0.00     0.196 C 
HETATM   26  N2  UNL     1      -0.441  27.011  18.722  1.00  0.00    -0.067 NA
HETATM   27  N3  UNL     1       0.468  25.274  17.261  1.00  0.00    -0.067 NA
ATOM     28  H1  UNL     1      -1.227  27.993  16.533  1.00  0.00     0.161 HD
ENDBRANCH  23  24
ENDBRANCH  22  23
ENDBRANCH  21  22
ENDBRANCH  20  21
ENDBRANCH   3  20
BRANCH   5  29
HETATM   29  O7  UNL     1       5.235  24.820  12.260  1.00  0.00    -0.392 OA
ATOM     30  H7  UNL     1       6.166  24.652  12.167  1.00  0.00     0.210 HD
ENDBRANCH   5  29
BRANCH   6  31
HETATM   31  O8  UNL     1       6.034  22.368  14.120  1.00  0.00    -0.388 OA
ATOM     32  H8  UNL     1       5.606  21.531  13.988  1.00  0.00     0.210 HD
ENDBRANCH   6  31
BRANCH   1  33
HETATM   33  O1  UNL     1       4.392  22.681  16.263  1.00  0.00    -0.363 OA
HETATM   34  C1  UNL     1       4.116  23.676  17.175  1.00  0.00     0.204 C 
ENDBRANCH   1  33
TORSDOF 12
ENDMDL
