MODEL 1
REMARK VINA RESULT: -6.835435016      0.000      0.000
REMARK  6 active torsions:
REMARK  status: ('A' for Active; 'I' for Inactive)
REMARK    1  A    between atoms: C2_2  and  C3_3 
REMARK    2  A    between atoms: C3_3  and  C4_4 
REMARK    3  A    between atoms: C4_4  and  C5_5 
REMARK       I    between atoms: C5_5  and  N1_7 
REMARK    4  A    between atoms: N1_7  and  C6_9 
REMARK    5  A    between atoms: C9_14  and  C10_15 
REMARK    6  A    between atoms: C10_15  and  O3_17 
ROOT
HETATM    1  C6  UNL     1      20.761 -20.750 -24.571  1.00  0.00     0.094 A 
HETATM    2  S1  UNL     1      20.819 -21.260 -26.232  1.00  0.00    -0.082 SA
HETATM    3  C7  UNL     1      22.477 -21.554 -26.361  1.00  0.00     0.072 A 
HETATM    4  C8  UNL     1      22.962 -21.256 -25.126  1.00  0.00     0.036 A 
HETATM    5 BR1  UNL     1      24.881 -21.455 -24.806  1.00  0.00    -0.049 Br
HETATM    6  C9  UNL     1      22.072 -20.836 -24.189  1.00  0.00     0.091 A 
ENDROOT
BRANCH   1   7
HETATM    7  N1  UNL     1      19.577 -20.356 -23.870  1.00  0.00    -0.320 N 
HETATM    8  C5  UNL     1      18.697 -21.370 -23.392  1.00  0.00     0.222 C 
HETATM    9  O1  UNL     1      18.970 -22.580 -23.591  1.00  0.00    -0.273 OA
ATOM     10  H1  UNL     1      19.367 -19.370 -23.716  1.00  0.00     0.169 HD
BRANCH   8  11
HETATM   11  C4  UNL     1      17.458 -21.039 -22.661  1.00  0.00     0.103 C 
BRANCH  11  12
HETATM   12  C3  UNL     1      16.276 -21.582 -23.401  1.00  0.00     0.009 C 
BRANCH  12  13
HETATM   13  C2  UNL     1      15.341 -22.353 -22.503  1.00  0.00    -0.004 C 
HETATM   14  C1  UNL     1      15.986 -23.565 -21.916  1.00  0.00     0.005 C 
ENDBRANCH  12  13
ENDBRANCH  11  12
ENDBRANCH   8  11
ENDBRANCH   1   7
BRANCH   6  15
HETATM   15  C10 UNL     1      22.500 -20.483 -22.800  1.00  0.00     0.297 C 
HETATM   16  O2  UNL     1      23.308 -19.548 -22.610  1.00  0.00    -0.259 OA
BRANCH  15  17
HETATM   17  O3  UNL     1      22.048 -21.143 -21.689  1.00  0.00    -0.322 OA
HETATM   18  C11 UNL     1      21.972 -22.533 -21.562  1.00  0.00     0.213 C 
ENDBRANCH  15  17
ENDBRANCH   6  15
TORSDOF 6
ENDMDL
MODEL 2
REMARK VINA RESULT: -6.668720931      3.208      4.713
REMARK  6 active torsions:
REMARK  status: ('A' for Active; 'I' for Inactive)
REMARK    1  A    between atoms: C2_2  and  C3_3 
REMARK    2  A    between atoms: C3_3  and  C4_4 
REMARK    3  A    between atoms: C4_4  and  C5_5 
REMARK       I    between atoms: C5_5  and  N1_7 
REMARK    4  A    between atoms: N1_7  and  C6_9 
REMARK    5  A    between atoms: C9_14  and  C10_15 
REMARK    6  A    between atoms: C10_15  and  O3_17 
ROOT
HETATM    1  C6  UNL     1      23.910 -20.185 -25.406  1.00  0.00     0.094 A 
HETATM    2  S1  UNL     1      25.024 -21.479 -25.080  1.00  0.00    -0.082 SA
HETATM    3  C7  UNL     1      26.395 -20.844 -25.834  1.00  0.00     0.072 A 
HETATM    4  C8  UNL     1      25.976 -19.646 -26.326  1.00  0.00     0.036 A 
HETATM    5 BR1  UNL     1      27.261 -18.538 -27.299  1.00  0.00    -0.049 Br
HETATM    6  C9  UNL     1      24.681 -19.298 -26.106  1.00  0.00     0.091 A 
ENDROOT
BRANCH   1   7
HETATM    7  N1  UNL     1      22.538 -20.155 -24.997  1.00  0.00    -0.320 N 
HETATM    8  C5  UNL     1      22.221 -19.631 -23.710  1.00  0.00     0.222 C 
HETATM    9  O1  UNL     1      23.139 -19.209 -22.962  1.00  0.00    -0.273 OA
ATOM     10  H1  UNL     1      21.804 -20.501 -25.613  1.00  0.00     0.169 HD
BRANCH   8  11
HETATM   11  C4  UNL     1      20.830 -19.568 -23.220  1.00  0.00     0.103 C 
BRANCH  11  12
HETATM   12  C3  UNL     1      20.486 -20.841 -22.514  1.00  0.00     0.009 C 
BRANCH  12  13
HETATM   13  C2  UNL     1      19.008 -21.137 -22.551  1.00  0.00    -0.004 C 
HETATM   14  C1  UNL     1      18.491 -21.284 -23.944  1.00  0.00     0.005 C 
ENDBRANCH  12  13
ENDBRANCH  11  12
ENDBRANCH   8  11
ENDBRANCH   1   7
BRANCH   6  15
HETATM   15  C10 UNL     1      24.120 -18.004 -26.603  1.00  0.00     0.297 C 
HETATM   16  O2  UNL     1      23.692 -17.153 -25.794  1.00  0.00    -0.259 OA
BRANCH  15  17
HETATM   17  O3  UNL     1      24.042 -17.686 -27.933  1.00  0.00    -0.322 OA
HETATM   18  C11 UNL     1      23.573 -18.544 -28.933  1.00  0.00     0.213 C 
ENDBRANCH  15  17
ENDBRANCH   6  15
TORSDOF 6
ENDMDL
MODEL 3
REMARK VINA RESULT: -6.630808228      3.270      6.256
REMARK  6 active torsions:
REMARK  status: ('A' for Active; 'I' for Inactive)
REMARK    1  A    between atoms: C2_2  and  C3_3 
REMARK    2  A    between atoms: C3_3  and  C4_4 
REMARK    3  A    between atoms: C4_4  and  C5_5 
REMARK       I    between atoms: C5_5  and  N1_7 
REMARK    4  A    between atoms: N1_7  and  C6_9 
REMARK    5  A    between atoms: C9_14  and  C10_15 
REMARK    6  A    between atoms: C10_15  and  O3_17 
ROOT
HETATM    1  C6  UNL     1      22.106 -21.176 -25.103  1.00  0.00     0.094 A 
HETATM    2  S1  UNL     1      20.951 -21.685 -26.298  1.00  0.00    -0.082 SA
HETATM    3  C7  UNL     1      19.549 -21.617 -25.359  1.00  0.00     0.072 A 
HETATM    4  C8  UNL     1      19.989 -21.205 -24.140  1.00  0.00     0.036 A 
HETATM    5 BR1  UNL     1      18.680 -20.982 -22.703  1.00  0.00    -0.049 Br
HETATM    6  C9  UNL     1      21.321 -20.974 -24.000  1.00  0.00     0.091 A 
ENDROOT
BRANCH   1   7
HETATM    7  N1  UNL     1      23.514 -21.037 -25.322  1.00  0.00    -0.320 N 
HETATM    8  C5  UNL     1      24.344 -22.184 -25.175  1.00  0.00     0.222 C 
HETATM    9  O1  UNL     1      23.836 -23.290 -24.858  1.00  0.00    -0.273 OA
ATOM     10  H1  UNL     1      23.913 -20.134 -25.579  1.00  0.00     0.169 HD
BRANCH   8  11
HETATM   11  C4  UNL     1      25.804 -22.117 -25.385  1.00  0.00     0.103 C 
BRANCH  11  12
HETATM   12  C3  UNL     1      26.301 -23.432 -25.896  1.00  0.00     0.009 C 
BRANCH  12  13
HETATM   13  C2  UNL     1      27.382 -24.018 -25.022  1.00  0.00    -0.004 C 
HETATM   14  C1  UNL     1      28.728 -23.959 -25.667  1.00  0.00     0.005 C 
ENDBRANCH  12  13
ENDBRANCH  11  12
ENDBRANCH   8  11
ENDBRANCH   1   7
BRANCH   6  15
HETATM   15  C10 UNL     1      21.909 -20.518 -22.702  1.00  0.00     0.297 C 
HETATM   16  O2  UNL     1      22.484 -19.411 -22.628  1.00  0.00    -0.259 OA
BRANCH  15  17
HETATM   17  O3  UNL     1      21.854 -21.264 -21.555  1.00  0.00    -0.322 OA
HETATM   18  C11 UNL     1      22.122 -22.634 -21.480  1.00  0.00     0.213 C 
ENDBRANCH  15  17
ENDBRANCH   6  15
TORSDOF 6
ENDMDL
MODEL 4
REMARK VINA RESULT: -6.619369102      1.405      1.577
REMARK  6 active torsions:
REMARK  status: ('A' for Active; 'I' for Inactive)
REMARK    1  A    between atoms: C2_2  and  C3_3 
REMARK    2  A    between atoms: C3_3  and  C4_4 
REMARK    3  A    between atoms: C4_4  and  C5_5 
REMARK       I    between atoms: C5_5  and  N1_7 
REMARK    4  A    between atoms: N1_7  and  C6_9 
REMARK    5  A    between atoms: C9_14  and  C10_15 
REMARK    6  A    between atoms: C10_15  and  O3_17 
ROOT
HETATM    1  C6  UNL     1      20.936 -19.843 -23.496  1.00  0.00     0.094 A 
HETATM    2  S1  UNL     1      21.265 -18.737 -24.796  1.00  0.00    -0.082 SA
HETATM    3  C7  UNL     1      22.842 -19.217 -25.160  1.00  0.00     0.072 A 
HETATM    4  C8  UNL     1      23.093 -20.220 -24.277  1.00  0.00     0.036 A 
HETATM    5 BR1  UNL     1      24.843 -21.094 -24.333  1.00  0.00    -0.049 Br
HETATM    6  C9  UNL     1      22.104 -20.551 -23.407  1.00  0.00     0.091 A 
ENDROOT
BRANCH   1   7
HETATM    7  N1  UNL     1      19.708 -19.914 -22.763  1.00  0.00    -0.320 N 
HETATM    8  C5  UNL     1      18.716 -20.847 -23.181  1.00  0.00     0.222 C 
HETATM    9  O1  UNL     1      18.931 -21.586 -24.175  1.00  0.00    -0.273 OA
ATOM     10  H1  UNL     1      19.548 -19.308 -21.958  1.00  0.00     0.169 HD
BRANCH   8  11
HETATM   11  C4  UNL     1      17.427 -20.976 -22.473  1.00  0.00     0.103 C 
BRANCH  11  12
HETATM   12  C3  UNL     1      16.387 -21.498 -23.414  1.00  0.00     0.009 C 
BRANCH  12  13
HETATM   13  C2  UNL     1      15.378 -22.381 -22.723  1.00  0.00    -0.004 C 
HETATM   14  C1  UNL     1      16.021 -23.501 -21.973  1.00  0.00     0.005 C 
ENDBRANCH  12  13
ENDBRANCH  11  12
ENDBRANCH   8  11
ENDBRANCH   1   7
BRANCH   6  15
HETATM   15  C10 UNL     1      22.276 -21.639 -22.396  1.00  0.00     0.297 C 
HETATM   16  O2  UNL     1      22.553 -21.357 -21.210  1.00  0.00    -0.259 OA
BRANCH  15  17
HETATM   17  O3  UNL     1      22.146 -22.968 -22.700  1.00  0.00    -0.322 OA
HETATM   18  C11 UNL     1      22.012 -23.482 -23.994  1.00  0.00     0.213 C 
ENDBRANCH  15  17
ENDBRANCH   6  15
TORSDOF 6
ENDMDL
MODEL 5
REMARK VINA RESULT: -6.604727911      1.662      1.827
REMARK  6 active torsions:
REMARK  status: ('A' for Active; 'I' for Inactive)
REMARK    1  A    between atoms: C2_2  and  C3_3 
REMARK    2  A    between atoms: C3_3  and  C4_4 
REMARK    3  A    between atoms: C4_4  and  C5_5 
REMARK       I    between atoms: C5_5  and  N1_7 
REMARK    4  A    between atoms: N1_7  and  C6_9 
REMARK    5  A    between atoms: C9_14  and  C10_15 
REMARK    6  A    between atoms: C10_15  and  O3_17 
ROOT
HETATM    1  C6  UNL     1      20.550 -21.703 -24.858  1.00  0.00     0.094 A 
HETATM    2  S1  UNL     1      21.208 -21.318 -26.420  1.00  0.00    -0.082 SA
HETATM    3  C7  UNL     1      22.264 -20.081 -25.966  1.00  0.00     0.072 A 
HETATM    4  C8  UNL     1      22.095 -19.982 -24.619  1.00  0.00     0.036 A 
HETATM    5 BR1  UNL     1      23.141 -18.646 -23.645  1.00  0.00    -0.049 Br
HETATM    6  C9  UNL     1      21.202 -20.825 -24.036  1.00  0.00     0.091 A 
ENDROOT
BRANCH   1   7
HETATM    7  N1  UNL     1      19.567 -22.713 -24.603  1.00  0.00    -0.320 N 
HETATM    8  C5  UNL     1      18.207 -22.318 -24.452  1.00  0.00     0.222 C 
HETATM    9  O1  UNL     1      17.892 -21.104 -24.545  1.00  0.00    -0.273 OA
ATOM     10  H1  UNL     1      19.836 -23.693 -24.529  1.00  0.00     0.169 HD
BRANCH   8  11
HETATM   11  C4  UNL     1      17.138 -23.302 -24.188  1.00  0.00     0.103 C 
BRANCH  11  12
HETATM   12  C3  UNL     1      15.827 -22.597 -24.049  1.00  0.00     0.009 C 
BRANCH  12  13
HETATM   13  C2  UNL     1      15.378 -22.493 -22.613  1.00  0.00    -0.004 C 
HETATM   14  C1  UNL     1      15.861 -23.637 -21.782  1.00  0.00     0.005 C 
ENDBRANCH  12  13
ENDBRANCH  11  12
ENDBRANCH   8  11
ENDBRANCH   1   7
BRANCH   6  15
HETATM   15  C10 UNL     1      20.942 -20.799 -22.564  1.00  0.00     0.297 C 
HETATM   16  O2  UNL     1      19.851 -20.373 -22.127  1.00  0.00    -0.259 OA
BRANCH  15  17
HETATM   17  O3  UNL     1      21.855 -21.225 -21.637  1.00  0.00    -0.322 OA
HETATM   18  C11 UNL     1      22.176 -22.563 -21.390  1.00  0.00     0.213 C 
ENDBRANCH  15  17
ENDBRANCH   6  15
TORSDOF 6
ENDMDL
