MODEL 1
REMARK VINA RESULT: -8.867083785      0.000      0.000
REMARK  5 active torsions:
REMARK  status: ('A' for Active; 'I' for Inactive)
REMARK    1  A    between atoms: O1_2  and  C2_3 
REMARK    2  A    between atoms: C6_7  and  C7_8 
REMARK       I    between atoms: C7_8  and  N1_10 
REMARK    3  A    between atoms: N1_10  and  C8_12 
REMARK    4  A    between atoms: C10_14  and  O3_15 
REMARK    5  A    between atoms: C12_17  and  O4_18 
ROOT
HETATM    1  C7  UNL     1      23.463 -19.240 -27.613  1.00  0.00     0.259 C 
HETATM    2  O2  UNL     1      24.108 -20.351 -27.439  1.00  0.00    -0.267 OA
HETATM    3  N1  UNL     1      22.513 -18.929 -26.642  1.00  0.00    -0.322 N 
ATOM      4  H1  UNL     1      22.000 -18.062 -26.798  1.00  0.00     0.169 HD
ENDROOT
BRANCH   3   5
HETATM    5  C8  UNL     1      22.159 -19.636 -25.482  1.00  0.00     0.043 A 
HETATM    6  C9  UNL     1      21.445 -20.808 -25.420  1.00  0.00     0.069 A 
HETATM    7  C10 UNL     1      21.149 -21.425 -24.193  1.00  0.00     0.103 A 
HETATM    8  C12 UNL     1      21.559 -20.887 -23.004  1.00  0.00     0.102 A 
HETATM    9  C14 UNL     1      22.274 -19.716 -23.040  1.00  0.00     0.048 A 
HETATM   10  C15 UNL     1      22.566 -19.109 -24.242  1.00  0.00    -0.032 A 
HETATM   11  C16 UNL     1      23.333 -17.860 -24.247  1.00  0.00     0.050 C 
BRANCH   7  12
HETATM   12  O3  UNL     1      20.426 -22.605 -24.175  1.00  0.00    -0.353 OA
HETATM   13  C11 UNL     1      19.057 -22.552 -24.519  1.00  0.00     0.210 C 
ENDBRANCH   7  12
BRANCH   8  14
HETATM   14  O4  UNL     1      21.230 -21.550 -21.844  1.00  0.00    -0.353 OA
HETATM   15  C13 UNL     1      21.992 -22.604 -21.293  1.00  0.00     0.210 C 
ENDBRANCH   8  14
ENDBRANCH   3   5
BRANCH   1  16
HETATM   16  C6  UNL     1      23.825 -18.502 -28.790  1.00  0.00     0.076 A 
HETATM   17  C4  UNL     1      24.868 -17.662 -28.942  1.00  0.00    -0.041 A 
HETATM   18  C3  UNL     1      25.067 -16.931 -30.136  1.00  0.00     0.044 A 
HETATM   19  C5  UNL     1      25.881 -17.531 -27.859  1.00  0.00     0.049 C 
HETATM   20  C2  UNL     1      24.205 -17.054 -31.178  1.00  0.00     0.071 A 
HETATM   21  C18 UNL     1      23.129 -17.906 -31.058  1.00  0.00     0.080 A 
HETATM   22  C17 UNL     1      22.948 -18.611 -29.891  1.00  0.00     0.135 A 
HETATM   23  F1  UNL     1      21.872 -19.449 -29.795  1.00  0.00    -0.205 F 
BRANCH  20  24
HETATM   24  O1  UNL     1      24.439 -16.320 -32.326  1.00  0.00    -0.356 OA
HETATM   25  C1  UNL     1      25.445 -16.631 -33.256  1.00  0.00     0.210 C 
ENDBRANCH  20  24
ENDBRANCH   1  16
TORSDOF 5
ENDMDL
MODEL 2
REMARK VINA RESULT: -8.832097914      1.029      1.656
REMARK  5 active torsions:
REMARK  status: ('A' for Active; 'I' for Inactive)
REMARK    1  A    between atoms: O1_2  and  C2_3 
REMARK    2  A    between atoms: C6_7  and  C7_8 
REMARK       I    between atoms: C7_8  and  N1_10 
REMARK    3  A    between atoms: N1_10  and  C8_12 
REMARK    4  A    between atoms: C10_14  and  O3_15 
REMARK    5  A    between atoms: C12_17  and  O4_18 
ROOT
HETATM    1  C7  UNL     1      23.343 -19.235 -27.570  1.00  0.00     0.259 C 
HETATM    2  O2  UNL     1      24.184 -20.178 -27.284  1.00  0.00    -0.267 OA
HETATM    3  N1  UNL     1      22.298 -19.055 -26.666  1.00  0.00    -0.322 N 
ATOM      4  H1  UNL     1      21.633 -18.321 -26.910  1.00  0.00     0.169 HD
ENDROOT
BRANCH   3   5
HETATM    5  C8  UNL     1      22.027 -19.736 -25.469  1.00  0.00     0.043 A 
HETATM    6  C9  UNL     1      21.349 -20.924 -25.335  1.00  0.00     0.069 A 
HETATM    7  C10 UNL     1      21.138 -21.512 -24.078  1.00  0.00     0.103 A 
HETATM    8  C12 UNL     1      21.597 -20.930 -22.928  1.00  0.00     0.102 A 
HETATM    9  C14 UNL     1      22.276 -19.742 -23.036  1.00  0.00     0.048 A 
HETATM   10  C15 UNL     1      22.486 -19.163 -24.269  1.00  0.00    -0.032 A 
HETATM   11  C16 UNL     1      23.217 -17.895 -24.350  1.00  0.00     0.050 C 
BRANCH   7  12
HETATM   12  O3  UNL     1      20.449 -22.710 -23.987  1.00  0.00    -0.353 OA
HETATM   13  C11 UNL     1      19.090 -22.727 -24.369  1.00  0.00     0.210 C 
ENDBRANCH   7  12
BRANCH   8  14
HETATM   14  O4  UNL     1      21.350 -21.567 -21.734  1.00  0.00    -0.353 OA
HETATM   15  C13 UNL     1      22.095 -22.668 -21.257  1.00  0.00     0.210 C 
ENDBRANCH   8  14
ENDBRANCH   3   5
BRANCH   1  16
HETATM   16  C6  UNL     1      23.616 -18.522 -28.787  1.00  0.00     0.076 A 
HETATM   17  C4  UNL     1      23.309 -18.898 -30.043  1.00  0.00    -0.041 A 
HETATM   18  C3  UNL     1      23.709 -18.138 -31.167  1.00  0.00     0.044 A 
HETATM   19  C5  UNL     1      22.476 -20.110 -30.274  1.00  0.00     0.049 C 
HETATM   20  C2  UNL     1      24.423 -16.992 -31.012  1.00  0.00     0.071 A 
HETATM   21  C18 UNL     1      24.752 -16.577 -29.740  1.00  0.00     0.080 A 
HETATM   22  C17 UNL     1      24.356 -17.327 -28.657  1.00  0.00     0.135 A 
HETATM   23  F1  UNL     1      24.697 -16.894 -27.406  1.00  0.00    -0.205 F 
BRANCH  20  24
HETATM   24  O1  UNL     1      24.793 -16.282 -32.138  1.00  0.00    -0.356 OA
HETATM   25  C1  UNL     1      25.480 -16.851 -33.226  1.00  0.00     0.210 C 
ENDBRANCH  20  24
ENDBRANCH   1  16
TORSDOF 5
ENDMDL
MODEL 3
REMARK VINA RESULT: -8.798333454      2.193      7.840
REMARK  5 active torsions:
REMARK  status: ('A' for Active; 'I' for Inactive)
REMARK    1  A    between atoms: O1_2  and  C2_3 
REMARK    2  A    between atoms: C6_7  and  C7_8 
REMARK       I    between atoms: C7_8  and  N1_10 
REMARK    3  A    between atoms: N1_10  and  C8_12 
REMARK    4  A    between atoms: C10_14  and  O3_15 
REMARK    5  A    between atoms: C12_17  and  O4_18 
ROOT
HETATM    1  C7  UNL     1      21.382 -20.530 -25.426  1.00  0.00     0.259 C 
HETATM    2  O2  UNL     1      22.357 -21.381 -25.503  1.00  0.00    -0.267 OA
HETATM    3  N1  UNL     1      21.561 -19.334 -26.119  1.00  0.00    -0.322 N 
ATOM      4  H1  UNL     1      20.795 -18.666 -26.038  1.00  0.00     0.169 HD
ENDROOT
BRANCH   3   5
HETATM    5  C8  UNL     1      22.641 -18.916 -26.911  1.00  0.00     0.043 A 
HETATM    6  C9  UNL     1      22.827 -19.171 -28.249  1.00  0.00     0.069 A 
HETATM    7  C10 UNL     1      23.955 -18.699 -28.938  1.00  0.00     0.103 A 
HETATM    8  C12 UNL     1      24.922 -17.961 -28.310  1.00  0.00     0.102 A 
HETATM    9  C14 UNL     1      24.759 -17.693 -26.974  1.00  0.00     0.048 A 
HETATM   10  C15 UNL     1      23.653 -18.156 -26.294  1.00  0.00    -0.032 A 
HETATM   11  C16 UNL     1      23.508 -17.851 -24.868  1.00  0.00     0.050 C 
BRANCH   7  12
HETATM   12  O3  UNL     1      24.104 -18.979 -30.285  1.00  0.00    -0.353 OA
HETATM   13  C11 UNL     1      23.184 -18.406 -31.191  1.00  0.00     0.210 C 
ENDBRANCH   7  12
BRANCH   8  14
HETATM   14  O4  UNL     1      25.998 -17.534 -29.053  1.00  0.00    -0.353 OA
HETATM   15  C13 UNL     1      27.172 -16.979 -28.496  1.00  0.00     0.210 C 
ENDBRANCH   8  14
ENDBRANCH   3   5
BRANCH   1  16
HETATM   16  C6  UNL     1      20.265 -20.952 -24.628  1.00  0.00     0.076 A 
HETATM   17  C4  UNL     1      19.963 -20.565 -23.373  1.00  0.00    -0.041 A 
HETATM   18  C3  UNL     1      18.872 -21.122 -22.666  1.00  0.00     0.044 A 
HETATM   19  C5  UNL     1      20.748 -19.484 -22.719  1.00  0.00     0.049 C 
HETATM   20  C2  UNL     1      18.087 -22.073 -23.235  1.00  0.00     0.071 A 
HETATM   21  C18 UNL     1      18.367 -22.490 -24.518  1.00  0.00     0.080 A 
HETATM   22  C17 UNL     1      19.431 -21.940 -25.194  1.00  0.00     0.135 A 
HETATM   23  F1  UNL     1      19.689 -22.372 -26.465  1.00  0.00    -0.205 F 
BRANCH  20  24
HETATM   24  O1  UNL     1      17.032 -22.589 -22.506  1.00  0.00    -0.356 OA
HETATM   25  C1  UNL     1      15.681 -22.365 -22.828  1.00  0.00     0.210 C 
ENDBRANCH  20  24
ENDBRANCH   1  16
TORSDOF 5
ENDMDL
MODEL 4
REMARK VINA RESULT: -8.667103474      3.398      7.860
REMARK  5 active torsions:
REMARK  status: ('A' for Active; 'I' for Inactive)
REMARK    1  A    between atoms: O1_2  and  C2_3 
REMARK    2  A    between atoms: C6_7  and  C7_8 
REMARK       I    between atoms: C7_8  and  N1_10 
REMARK    3  A    between atoms: N1_10  and  C8_12 
REMARK    4  A    between atoms: C10_14  and  O3_15 
REMARK    5  A    between atoms: C12_17  and  O4_18 
ROOT
HETATM    1  C7  UNL     1      21.957 -21.532 -24.595  1.00  0.00     0.259 C 
HETATM    2  O2  UNL     1      22.322 -22.611 -25.213  1.00  0.00    -0.267 OA
HETATM    3  N1  UNL     1      22.866 -20.477 -24.622  1.00  0.00    -0.322 N 
ATOM      4  H1  UNL     1      22.576 -19.639 -24.119  1.00  0.00     0.169 HD
ENDROOT
BRANCH   3   5
HETATM    5  C8  UNL     1      24.124 -20.400 -25.241  1.00  0.00     0.043 A 
HETATM    6  C9  UNL     1      25.139 -21.323 -25.158  1.00  0.00     0.069 A 
HETATM    7  C10 UNL     1      26.360 -21.135 -25.824  1.00  0.00     0.103 A 
HETATM    8  C12 UNL     1      26.597 -20.024 -26.588  1.00  0.00     0.102 A 
HETATM    9  C14 UNL     1      25.598 -19.087 -26.686  1.00  0.00     0.048 A 
HETATM   10  C15 UNL     1      24.398 -19.269 -26.033  1.00  0.00    -0.032 A 
HETATM   11  C16 UNL     1      23.352 -18.251 -26.159  1.00  0.00     0.050 C 
BRANCH   7  12
HETATM   12  O3  UNL     1      27.356 -22.089 -25.713  1.00  0.00    -0.353 OA
HETATM   13  C11 UNL     1      27.026 -23.334 -25.133  1.00  0.00     0.210 C 
ENDBRANCH   7  12
BRANCH   8  14
HETATM   14  O4  UNL     1      27.819 -19.911 -27.209  1.00  0.00    -0.353 OA
HETATM   15  C13 UNL     1      28.149 -18.883 -28.120  1.00  0.00     0.210 C 
ENDBRANCH   8  14
ENDBRANCH   3   5
BRANCH   1  16
HETATM   16  C6  UNL     1      20.666 -21.594 -23.968  1.00  0.00     0.076 A 
HETATM   17  C4  UNL     1      20.399 -21.738 -22.655  1.00  0.00    -0.041 A 
HETATM   18  C3  UNL     1      19.075 -21.868 -22.175  1.00  0.00     0.044 A 
HETATM   19  C5  UNL     1      21.508 -21.704 -21.663  1.00  0.00     0.049 C 
HETATM   20  C2  UNL     1      18.021 -21.849 -23.031  1.00  0.00     0.071 A 
HETATM   21  C18 UNL     1      18.258 -21.701 -24.379  1.00  0.00     0.080 A 
HETATM   22  C17 UNL     1      19.550 -21.576 -24.833  1.00  0.00     0.135 A 
HETATM   23  F1  UNL     1      19.759 -21.432 -26.175  1.00  0.00    -0.205 F 
BRANCH  20  24
HETATM   24  O1  UNL     1      16.744 -21.979 -22.516  1.00  0.00    -0.356 OA
HETATM   25  C1  UNL     1      16.173 -23.212 -22.156  1.00  0.00     0.210 C 
ENDBRANCH  20  24
ENDBRANCH   1  16
TORSDOF 5
ENDMDL
MODEL 5
REMARK VINA RESULT: -8.647209822      3.750      8.080
REMARK  5 active torsions:
REMARK  status: ('A' for Active; 'I' for Inactive)
REMARK    1  A    between atoms: O1_2  and  C2_3 
REMARK    2  A    between atoms: C6_7  and  C7_8 
REMARK       I    between atoms: C7_8  and  N1_10 
REMARK    3  A    between atoms: N1_10  and  C8_12 
REMARK    4  A    between atoms: C10_14  and  O3_15 
REMARK    5  A    between atoms: C12_17  and  O4_18 
ROOT
HETATM    1  C7  UNL     1      20.884 -21.583 -24.743  1.00  0.00     0.259 C 
HETATM    2  O2  UNL     1      20.861 -21.349 -26.018  1.00  0.00    -0.267 OA
HETATM    3  N1  UNL     1      22.131 -21.888 -24.202  1.00  0.00    -0.322 N 
ATOM      4  H1  UNL     1      22.135 -22.086 -23.202  1.00  0.00     0.169 HD
ENDROOT
BRANCH   3   5
HETATM    5  C8  UNL     1      23.383 -21.963 -24.833  1.00  0.00     0.043 A 
HETATM    6  C9  UNL     1      24.111 -20.914 -25.342  1.00  0.00     0.069 A 
HETATM    7  C10 UNL     1      25.357 -21.114 -25.956  1.00  0.00     0.103 A 
HETATM    8  C12 UNL     1      25.906 -22.362 -26.076  1.00  0.00     0.102 A 
HETATM    9  C14 UNL     1      25.198 -23.426 -25.575  1.00  0.00     0.048 A 
HETATM   10  C15 UNL     1      23.973 -23.233 -24.972  1.00  0.00    -0.032 A 
HETATM   11  C16 UNL     1      23.243 -24.390 -24.446  1.00  0.00     0.050 C 
BRANCH   7  12
HETATM   12  O3  UNL     1      26.058 -20.030 -26.456  1.00  0.00    -0.353 OA
HETATM   13  C11 UNL     1      25.356 -18.822 -26.664  1.00  0.00     0.210 C 
ENDBRANCH   7  12
BRANCH   8  14
HETATM   14  O4  UNL     1      27.131 -22.477 -26.690  1.00  0.00    -0.353 OA
HETATM   15  C13 UNL     1      28.206 -23.234 -26.173  1.00  0.00     0.210 C 
ENDBRANCH   8  14
ENDBRANCH   3   5
BRANCH   1  16
HETATM   16  C6  UNL     1      19.611 -21.496 -24.084  1.00  0.00     0.076 A 
HETATM   17  C4  UNL     1      19.227 -20.596 -23.159  1.00  0.00    -0.041 A 
HETATM   18  C3  UNL     1      17.965 -20.672 -22.525  1.00  0.00     0.044 A 
HETATM   19  C5  UNL     1      20.116 -19.450 -22.823  1.00  0.00     0.049 C 
HETATM   20  C2  UNL     1      17.091 -21.665 -22.834  1.00  0.00     0.071 A 
HETATM   21  C18 UNL     1      17.451 -22.601 -23.777  1.00  0.00     0.080 A 
HETATM   22  C17 UNL     1      18.681 -22.515 -24.386  1.00  0.00     0.135 A 
HETATM   23  F1  UNL     1      19.015 -23.457 -25.318  1.00  0.00    -0.205 F 
BRANCH  20  24
HETATM   24  O1  UNL     1      15.869 -21.699 -22.188  1.00  0.00    -0.356 OA
HETATM   25  C1  UNL     1      14.980 -22.786 -22.265  1.00  0.00     0.210 C 
ENDBRANCH  20  24
ENDBRANCH   1  16
TORSDOF 5
ENDMDL
