MODEL 1
REMARK VINA RESULT: -9.420858188      0.000      0.000
REMARK  2 active torsions:
REMARK  status: ('A' for Active; 'I' for Inactive)
REMARK    1  A    between atoms: C1_2  and  C2_4 
REMARK    2  A    between atoms: C13_16  and  C14_17 
ROOT
HETATM    1  C2  UNL     1     -15.142  16.094 -19.448  1.00  0.00     0.245 C 
HETATM    2  O3  UNL     1     -15.056  14.869 -18.795  1.00  0.00    -0.332 OA
HETATM    3  C3  UNL     1     -15.932  13.811 -18.956  1.00  0.00     0.088 A 
HETATM    4  C4  UNL     1     -17.184  14.081 -19.479  1.00  0.00    -0.014 A 
HETATM    5  C5  UNL     1     -18.098  13.083 -19.665  1.00  0.00     0.011 A 
HETATM    6  C6  UNL     1     -17.744  11.791 -19.316  1.00  0.00     0.013 A 
HETATM    7  C7  UNL     1     -16.505  11.522 -18.798  1.00  0.00    -0.023 A 
HETATM    8  C8  UNL     1     -16.162  10.208 -18.450  1.00  0.00     0.012 A 
HETATM    9  C9  UNL     1     -14.942   9.904 -17.934  1.00  0.00     0.001 A 
HETATM   10  C10 UNL     1     -14.015  10.913 -17.745  1.00  0.00     0.001 A 
HETATM   11  C11 UNL     1     -14.343  12.213 -18.085  1.00  0.00     0.015 A 
HETATM   12  C12 UNL     1     -15.575  12.519 -18.606  1.00  0.00     0.008 A 
HETATM   13  C13 UNL     1     -17.473  15.488 -19.826  1.00  0.00     0.072 C 
HETATM   14  C20 UNL     1     -16.274  16.163 -20.459  1.00  0.00     0.111 C 
HETATM   15  S1  UNL     1     -15.690  15.379 -21.956  1.00  0.00    -0.088 SA
ENDROOT
BRANCH  13  16
HETATM   16  C14 UNL     1     -18.755  15.737 -20.465  1.00  0.00    -0.048 A 
HETATM   17  C15 UNL     1     -19.512  16.872 -20.162  1.00  0.00     0.008 A 
HETATM   18  C16 UNL     1     -20.725  17.177 -20.710  1.00  0.00     0.001 A 
HETATM   19  C17 UNL     1     -21.264  16.311 -21.638  1.00  0.00     0.000 A 
HETATM   20  C18 UNL     1     -20.569  15.171 -21.984  1.00  0.00     0.001 A 
HETATM   21  C19 UNL     1     -19.335  14.904 -21.397  1.00  0.00     0.008 A 
ENDBRANCH  13  16
BRANCH   1  22
HETATM   22  C1  UNL     1     -15.322  17.191 -18.450  1.00  0.00     0.204 C 
HETATM   23  O1  UNL     1     -14.594  17.201 -17.422  1.00  0.00    -0.646 OA
HETATM   24  O2  UNL     1     -16.246  18.200 -18.589  1.00  0.00    -0.646 OA
ENDBRANCH   1  22
TORSDOF 2
ENDMDL
MODEL 2
REMARK VINA RESULT: -9.342814002      2.625      6.045
REMARK  2 active torsions:
REMARK  status: ('A' for Active; 'I' for Inactive)
REMARK    1  A    between atoms: C1_2  and  C2_4 
REMARK    2  A    between atoms: C13_16  and  C14_17 
ROOT
HETATM    1  C2  UNL     1     -16.045  16.779 -19.605  1.00  0.00     0.245 C 
HETATM    2  O3  UNL     1     -14.992  17.428 -18.971  1.00  0.00    -0.332 OA
HETATM    3  C3  UNL     1     -13.889  16.810 -18.411  1.00  0.00     0.088 A 
HETATM    4  C4  UNL     1     -13.990  15.466 -18.098  1.00  0.00    -0.014 A 
HETATM    5  C5  UNL     1     -12.939  14.793 -17.542  1.00  0.00     0.011 A 
HETATM    6  C6  UNL     1     -11.766  15.486 -17.299  1.00  0.00     0.013 A 
HETATM    7  C7  UNL     1     -11.664  16.817 -17.609  1.00  0.00    -0.023 A 
HETATM    8  C8  UNL     1     -10.470  17.504 -17.356  1.00  0.00     0.012 A 
HETATM    9  C9  UNL     1     -10.331  18.824 -17.651  1.00  0.00     0.001 A 
HETATM   10  C10 UNL     1     -11.395  19.508 -18.213  1.00  0.00     0.001 A 
HETATM   11  C11 UNL     1     -12.579  18.839 -18.467  1.00  0.00     0.015 A 
HETATM   12  C12 UNL     1     -12.716  17.506 -18.169  1.00  0.00     0.008 A 
HETATM   13  C13 UNL     1     -15.278  14.806 -18.395  1.00  0.00     0.072 C 
HETATM   14  C20 UNL     1     -15.852  15.276 -19.716  1.00  0.00     0.111 C 
HETATM   15  S1  UNL     1     -14.793  14.986 -21.127  1.00  0.00    -0.088 SA
ENDROOT
BRANCH  13  16
HETATM   16  C14 UNL     1     -15.333  13.374 -18.151  1.00  0.00    -0.048 A 
HETATM   17  C15 UNL     1     -14.353  12.512 -18.649  1.00  0.00     0.008 A 
HETATM   18  C16 UNL     1     -14.333  11.157 -18.470  1.00  0.00     0.001 A 
HETATM   19  C17 UNL     1     -15.351  10.575 -17.745  1.00  0.00     0.000 A 
HETATM   20  C18 UNL     1     -16.352  11.368 -17.224  1.00  0.00     0.001 A 
HETATM   21  C19 UNL     1     -16.327  12.745 -17.433  1.00  0.00     0.008 A 
ENDBRANCH  13  16
BRANCH   1  22
HETATM   22  C1  UNL     1     -17.322  17.046 -18.875  1.00  0.00     0.204 C 
HETATM   23  O1  UNL     1     -17.371  18.019 -18.077  1.00  0.00    -0.646 OA
HETATM   24  O2  UNL     1     -18.456  16.283 -19.024  1.00  0.00    -0.646 OA
ENDBRANCH   1  22
TORSDOF 2
ENDMDL
MODEL 3
REMARK VINA RESULT: -9.229403396      1.252      1.452
REMARK  2 active torsions:
REMARK  status: ('A' for Active; 'I' for Inactive)
REMARK    1  A    between atoms: C1_2  and  C2_4 
REMARK    2  A    between atoms: C13_16  and  C14_17 
ROOT
HETATM    1  C2  UNL     1     -14.071  15.389 -19.021  1.00  0.00     0.245 C 
HETATM    2  O3  UNL     1     -14.378  14.130 -18.517  1.00  0.00    -0.332 OA
HETATM    3  C3  UNL     1     -15.573  13.459 -18.707  1.00  0.00     0.088 A 
HETATM    4  C4  UNL     1     -16.681  14.201 -19.075  1.00  0.00    -0.014 A 
HETATM    5  C5  UNL     1     -17.891  13.602 -19.279  1.00  0.00     0.011 A 
HETATM    6  C6  UNL     1     -17.987  12.232 -19.110  1.00  0.00     0.013 A 
HETATM    7  C7  UNL     1     -16.890  11.495 -18.746  1.00  0.00    -0.023 A 
HETATM    8  C8  UNL     1     -17.004  10.109 -18.579  1.00  0.00     0.012 A 
HETATM    9  C9  UNL     1     -15.938   9.345 -18.219  1.00  0.00     0.001 A 
HETATM   10  C10 UNL     1     -14.711   9.950 -18.012  1.00  0.00     0.001 A 
HETATM   11  C11 UNL     1     -14.588  11.318 -18.174  1.00  0.00     0.015 A 
HETATM   12  C12 UNL     1     -15.665  12.087 -18.537  1.00  0.00     0.008 A 
HETATM   13  C13 UNL     1     -16.486  15.657 -19.236  1.00  0.00     0.072 C 
HETATM   14  C20 UNL     1     -15.163  15.970 -19.904  1.00  0.00     0.111 C 
HETATM   15  S1  UNL     1     -14.965  15.247 -21.527  1.00  0.00    -0.088 SA
ENDROOT
BRANCH  13  16
HETATM   16  C14 UNL     1     -17.635  16.406 -19.717  1.00  0.00    -0.048 A 
HETATM   17  C15 UNL     1     -18.448  17.132 -18.843  1.00  0.00     0.008 A 
HETATM   18  C16 UNL     1     -19.547  17.856 -19.211  1.00  0.00     0.001 A 
HETATM   19  C17 UNL     1     -19.900  17.885 -20.544  1.00  0.00     0.000 A 
HETATM   20  C18 UNL     1     -19.140  17.189 -21.461  1.00  0.00     0.001 A 
HETATM   21  C19 UNL     1     -18.028  16.466 -21.036  1.00  0.00     0.008 A 
ENDBRANCH  13  16
BRANCH   1  22
HETATM   22  C1  UNL     1     -13.809  16.337 -17.896  1.00  0.00     0.204 C 
HETATM   23  O1  UNL     1     -13.226  15.908 -16.865  1.00  0.00    -0.646 OA
HETATM   24  O2  UNL     1     -14.170  17.663 -17.921  1.00  0.00    -0.646 OA
ENDBRANCH   1  22
TORSDOF 2
ENDMDL
MODEL 4
REMARK VINA RESULT: -9.211883127      3.413      6.147
REMARK  2 active torsions:
REMARK  status: ('A' for Active; 'I' for Inactive)
REMARK    1  A    between atoms: C1_2  and  C2_4 
REMARK    2  A    between atoms: C13_16  and  C14_17 
ROOT
HETATM    1  C2  UNL     1     -14.848  16.735 -20.304  1.00  0.00     0.245 C 
HETATM    2  O3  UNL     1     -14.610  15.393 -20.028  1.00  0.00    -0.332 OA
HETATM    3  C3  UNL     1     -13.803  14.912 -19.014  1.00  0.00     0.088 A 
HETATM    4  C4  UNL     1     -12.860  15.770 -18.476  1.00  0.00    -0.014 A 
HETATM    5  C5  UNL     1     -12.030  15.361 -17.471  1.00  0.00     0.011 A 
HETATM    6  C6  UNL     1     -12.152  14.065 -17.001  1.00  0.00     0.013 A 
HETATM    7  C7  UNL     1     -13.085  13.214 -17.532  1.00  0.00    -0.023 A 
HETATM    8  C8  UNL     1     -13.196  11.905 -17.045  1.00  0.00     0.012 A 
HETATM    9  C9  UNL     1     -14.110  11.033 -17.547  1.00  0.00     0.001 A 
HETATM   10  C10 UNL     1     -14.952  11.446 -18.564  1.00  0.00     0.001 A 
HETATM   11  C11 UNL     1     -14.851  12.736 -19.053  1.00  0.00     0.015 A 
HETATM   12  C12 UNL     1     -13.927  13.615 -18.545  1.00  0.00     0.008 A 
HETATM   13  C13 UNL     1     -12.803  17.136 -19.037  1.00  0.00     0.072 C 
HETATM   14  C20 UNL     1     -14.188  17.681 -19.315  1.00  0.00     0.111 C 
HETATM   15  S1  UNL     1     -15.251  17.764 -17.879  1.00  0.00    -0.088 SA
ENDROOT
BRANCH  13  16
HETATM   16  C14 UNL     1     -11.875  18.052 -18.394  1.00  0.00    -0.048 A 
HETATM   17  C15 UNL     1     -12.205  19.393 -18.180  1.00  0.00     0.008 A 
HETATM   18  C16 UNL     1     -11.391  20.318 -17.591  1.00  0.00     0.001 A 
HETATM   19  C17 UNL     1     -10.142  19.920 -17.166  1.00  0.00     0.000 A 
HETATM   20  C18 UNL     1      -9.751  18.609 -17.346  1.00  0.00     0.001 A 
HETATM   21  C19 UNL     1     -10.617  17.703 -17.952  1.00  0.00     0.008 A 
ENDBRANCH  13  16
BRANCH   1  22
HETATM   22  C1  UNL     1     -14.364  17.065 -21.679  1.00  0.00     0.204 C 
HETATM   23  O1  UNL     1     -15.203  17.430 -22.545  1.00  0.00    -0.646 OA
HETATM   24  O2  UNL     1     -13.044  16.994 -22.058  1.00  0.00    -0.646 OA
ENDBRANCH   1  22
TORSDOF 2
ENDMDL
MODEL 5
REMARK VINA RESULT: -9.131390217      2.534      5.615
REMARK  2 active torsions:
REMARK  status: ('A' for Active; 'I' for Inactive)
REMARK    1  A    between atoms: C1_2  and  C2_4 
REMARK    2  A    between atoms: C13_16  and  C14_17 
ROOT
HETATM    1  C2  UNL     1     -16.192  16.915 -19.684  1.00  0.00     0.245 C 
HETATM    2  O3  UNL     1     -15.086  17.424 -19.013  1.00  0.00    -0.332 OA
HETATM    3  C3  UNL     1     -14.073  16.671 -18.449  1.00  0.00     0.088 A 
HETATM    4  C4  UNL     1     -14.333  15.340 -18.173  1.00  0.00    -0.014 A 
HETATM    5  C5  UNL     1     -13.377  14.539 -17.615  1.00  0.00     0.011 A 
HETATM    6  C6  UNL     1     -12.139  15.087 -17.333  1.00  0.00     0.013 A 
HETATM    7  C7  UNL     1     -11.879  16.404 -17.606  1.00  0.00    -0.023 A 
HETATM    8  C8  UNL     1     -10.620  16.945 -17.313  1.00  0.00     0.012 A 
HETATM    9  C9  UNL     1     -10.326  18.246 -17.571  1.00  0.00     0.001 A 
HETATM   10  C10 UNL     1     -11.292  19.060 -18.135  1.00  0.00     0.001 A 
HETATM   11  C11 UNL     1     -12.539  18.537 -18.428  1.00  0.00     0.015 A 
HETATM   12  C12 UNL     1     -12.834  17.223 -18.167  1.00  0.00     0.008 A 
HETATM   13  C13 UNL     1     -15.681  14.839 -18.511  1.00  0.00     0.072 C 
HETATM   14  C20 UNL     1     -16.169  15.403 -19.830  1.00  0.00     0.111 C 
HETATM   15  S1  UNL     1     -15.120  15.027 -21.228  1.00  0.00    -0.088 SA
ENDROOT
BRANCH  13  16
HETATM   16  C14 UNL     1     -15.904  13.417 -18.305  1.00  0.00    -0.048 A 
HETATM   17  C15 UNL     1     -16.205  12.904 -17.041  1.00  0.00     0.008 A 
HETATM   18  C16 UNL     1     -16.422  11.584 -16.760  1.00  0.00     0.001 A 
HETATM   19  C17 UNL     1     -16.344  10.671 -17.790  1.00  0.00     0.000 A 
HETATM   20  C18 UNL     1     -16.051  11.111 -19.064  1.00  0.00     0.001 A 
HETATM   21  C19 UNL     1     -15.838  12.467 -19.300  1.00  0.00     0.008 A 
ENDBRANCH  13  16
BRANCH   1  22
HETATM   22  C1  UNL     1     -17.446  17.309 -18.970  1.00  0.00     0.204 C 
HETATM   23  O1  UNL     1     -17.361  18.085 -17.982  1.00  0.00    -0.646 OA
HETATM   24  O2  UNL     1     -18.696  16.869 -19.333  1.00  0.00    -0.646 OA
ENDBRANCH   1  22
TORSDOF 2
ENDMDL
