MODEL 1
REMARK VINA RESULT: -9.311115455      0.000      0.000
REMARK  3 active torsions:
REMARK  status: ('A' for Active; 'I' for Inactive)
REMARK    1  A    between atoms: C5_6  and  C6_7 
REMARK    2  A    between atoms: C7_9  and  N2_10 
REMARK    3  A    between atoms: C18_24  and  O2_25 
ROOT
HETATM    1  N1  UNL     1     -16.856   6.734 -19.224  1.00  0.00    -0.191 NA
HETATM    2  C1  UNL     1     -16.767   7.859 -18.973  1.00  0.00     0.099 C 
HETATM    3  C2  UNL     1     -16.627   9.276 -18.652  1.00  0.00     0.044 A 
HETATM    4  C3  UNL     1     -15.383   9.807 -18.403  1.00  0.00     0.023 A 
HETATM    5  C4  UNL     1     -15.275  11.168 -18.098  1.00  0.00     0.011 A 
HETATM    6  C5  UNL     1     -16.330  12.003 -18.033  1.00  0.00    -0.025 A 
HETATM    7  C21 UNL     1     -17.587  11.422 -18.294  1.00  0.00     0.011 A 
HETATM    8  C22 UNL     1     -17.729  10.097 -18.595  1.00  0.00     0.023 A 
ENDROOT
BRANCH   6   9
HETATM    9  C6  UNL     1     -16.341  13.378 -17.756  1.00  0.00     0.192 C 
HETATM   10  O1  UNL     1     -15.992  13.442 -16.346  1.00  0.00    -0.341 OA
HETATM   11  C7  UNL     1     -14.721  12.888 -16.211  1.00  0.00     0.354 C 
HETATM   12  C8  UNL     1     -13.747  13.809 -16.841  1.00  0.00     0.008 A 
HETATM   13  C9  UNL     1     -12.436  13.885 -16.404  1.00  0.00     0.012 A 
HETATM   14  C13 UNL     1     -14.199  14.605 -17.883  1.00  0.00    -0.016 A 
HETATM   15  C10 UNL     1     -11.555  14.750 -16.991  1.00  0.00     0.001 A 
HETATM   16  C11 UNL     1     -11.991  15.542 -18.024  1.00  0.00     0.001 A 
HETATM   17  C12 UNL     1     -13.314  15.465 -18.464  1.00  0.00     0.013 A 
HETATM   18  C14 UNL     1     -15.634  14.487 -18.313  1.00  0.00    -0.004 C 
HETATM   19  C15 UNL     1     -15.842  15.044 -19.624  1.00  0.00    -0.026 A 
HETATM   20  C16 UNL     1     -16.787  16.063 -19.851  1.00  0.00     0.015 A 
HETATM   21  C20 UNL     1     -15.161  14.675 -20.773  1.00  0.00     0.015 A 
HETATM   22  C17 UNL     1     -17.001  16.622 -21.092  1.00  0.00     0.037 A 
HETATM   23  C18 UNL     1     -16.281  16.197 -22.184  1.00  0.00     0.065 A 
HETATM   24  C19 UNL     1     -15.344  15.202 -22.011  1.00  0.00     0.037 A 
BRANCH  11  25
HETATM   25  N2  UNL     1     -14.380  12.720 -14.807  1.00  0.00    -0.049 N 
ATOM     26  H23 UNL     1     -15.200  12.808 -14.206  1.00  0.00     0.277 HD
ATOM     27  H22 UNL     1     -14.134  11.755 -14.591  1.00  0.00     0.277 HD
ATOM     28  H21 UNL     1     -13.641  13.369 -14.536  1.00  0.00     0.277 HD
ENDBRANCH  11  25
BRANCH  23  29
HETATM   29  O2  UNL     1     -16.450  16.718 -23.455  1.00  0.00    -0.361 OA
ATOM     30  H2  UNL     1     -16.272  17.625 -23.675  1.00  0.00     0.217 HD
ENDBRANCH  23  29
ENDBRANCH   6   9
TORSDOF 3
ENDMDL
MODEL 2
REMARK VINA RESULT: -9.283659372      3.725      7.325
REMARK  3 active torsions:
REMARK  status: ('A' for Active; 'I' for Inactive)
REMARK    1  A    between atoms: C5_6  and  C6_7 
REMARK    2  A    between atoms: C7_9  and  N2_10 
REMARK    3  A    between atoms: C18_24  and  O2_25 
ROOT
HETATM    1  N1  UNL     1      -8.510  19.021 -18.124  1.00  0.00    -0.191 NA
HETATM    2  C1  UNL     1      -9.597  18.626 -18.081  1.00  0.00     0.099 C 
HETATM    3  C2  UNL     1     -10.976  18.153 -18.029  1.00  0.00     0.044 A 
HETATM    4  C3  UNL     1     -12.015  19.049 -18.119  1.00  0.00     0.023 A 
HETATM    5  C4  UNL     1     -13.329  18.572 -18.066  1.00  0.00     0.011 A 
HETATM    6  C5  UNL     1     -13.644  17.269 -17.931  1.00  0.00    -0.025 A 
HETATM    7  C21 UNL     1     -12.552  16.383 -17.842  1.00  0.00     0.011 A 
HETATM    8  C22 UNL     1     -11.257  16.814 -17.890  1.00  0.00     0.023 A 
ENDROOT
BRANCH   6   9
HETATM    9  C6  UNL     1     -14.914  16.677 -17.884  1.00  0.00     0.192 C 
HETATM   10  O1  UNL     1     -15.808  17.759 -18.262  1.00  0.00    -0.341 OA
HETATM   11  C7  UNL     1     -15.457  18.150 -19.553  1.00  0.00     0.354 C 
HETATM   12  C8  UNL     1     -15.833  17.062 -20.483  1.00  0.00     0.008 A 
HETATM   13  C9  UNL     1     -16.170  17.320 -21.801  1.00  0.00     0.012 A 
HETATM   14  C13 UNL     1     -15.849  15.768 -19.984  1.00  0.00    -0.016 A 
HETATM   15  C10 UNL     1     -16.525  16.302 -22.642  1.00  0.00     0.001 A 
HETATM   16  C11 UNL     1     -16.544  15.018 -22.158  1.00  0.00     0.001 A 
HETATM   17  C12 UNL     1     -16.206  14.758 -20.829  1.00  0.00     0.013 A 
HETATM   18  C14 UNL     1     -15.482  15.544 -18.544  1.00  0.00    -0.004 C 
HETATM   19  C15 UNL     1     -15.149  14.167 -18.290  1.00  0.00    -0.026 A 
HETATM   20  C16 UNL     1     -15.823  13.415 -17.309  1.00  0.00     0.015 A 
HETATM   21  C20 UNL     1     -14.178  13.438 -18.954  1.00  0.00     0.015 A 
HETATM   22  C17 UNL     1     -15.532  12.093 -17.050  1.00  0.00     0.037 A 
HETATM   23  C18 UNL     1     -14.550  11.441 -17.757  1.00  0.00     0.065 A 
HETATM   24  C19 UNL     1     -13.863  12.137 -18.728  1.00  0.00     0.037 A 
BRANCH  11  25
HETATM   25  N2  UNL     1     -16.160  19.366 -19.930  1.00  0.00    -0.049 N 
ATOM     26  H23 UNL     1     -17.166  19.283 -19.780  1.00  0.00     0.277 HD
ATOM     27  H22 UNL     1     -15.970  20.128 -19.281  1.00  0.00     0.277 HD
ATOM     28  H21 UNL     1     -15.941  19.624 -20.893  1.00  0.00     0.277 HD
ENDBRANCH  11  25
BRANCH  23  29
HETATM   29  O2  UNL     1     -14.211  10.116 -17.543  1.00  0.00    -0.361 OA
ATOM     30  H2  UNL     1     -13.316   9.817 -17.437  1.00  0.00     0.217 HD
ENDBRANCH  23  29
ENDBRANCH   6   9
TORSDOF 3
ENDMDL
MODEL 3
REMARK VINA RESULT: -9.199638961      3.871      7.530
REMARK  3 active torsions:
REMARK  status: ('A' for Active; 'I' for Inactive)
REMARK    1  A    between atoms: C5_6  and  C6_7 
REMARK    2  A    between atoms: C7_9  and  N2_10 
REMARK    3  A    between atoms: C18_24  and  O2_25 
ROOT
HETATM    1  N1  UNL     1      -9.136  20.076 -19.647  1.00  0.00    -0.191 NA
HETATM    2  C1  UNL     1     -10.121  19.520 -19.407  1.00  0.00     0.099 C 
HETATM    3  C2  UNL     1     -11.359  18.800 -19.123  1.00  0.00     0.044 A 
HETATM    4  C3  UNL     1     -11.660  17.649 -19.813  1.00  0.00     0.023 A 
HETATM    5  C4  UNL     1     -12.852  16.977 -19.523  1.00  0.00     0.011 A 
HETATM    6  C5  UNL     1     -13.736  17.393 -18.596  1.00  0.00    -0.025 A 
HETATM    7  C21 UNL     1     -13.392  18.576 -17.911  1.00  0.00     0.011 A 
HETATM    8  C22 UNL     1     -12.237  19.257 -18.168  1.00  0.00     0.023 A 
ENDROOT
BRANCH   6   9
HETATM    9  C6  UNL     1     -14.945  16.797 -18.211  1.00  0.00     0.192 C 
HETATM   10  O1  UNL     1     -15.932  17.832 -18.471  1.00  0.00    -0.341 OA
HETATM   11  C7  UNL     1     -15.891  18.105 -19.837  1.00  0.00     0.354 C 
HETATM   12  C8  UNL     1     -16.435  16.932 -20.558  1.00  0.00     0.008 A 
HETATM   13  C9  UNL     1     -17.066  17.065 -21.783  1.00  0.00     0.012 A 
HETATM   14  C13 UNL     1     -16.301  15.691 -19.956  1.00  0.00    -0.016 A 
HETATM   15  C10 UNL     1     -17.572  15.971 -22.429  1.00  0.00     0.001 A 
HETATM   16  C11 UNL     1     -17.444  14.737 -21.843  1.00  0.00     0.001 A 
HETATM   17  C12 UNL     1     -16.809  14.604 -20.606  1.00  0.00     0.013 A 
HETATM   18  C14 UNL     1     -15.614  15.604 -18.623  1.00  0.00    -0.004 C 
HETATM   19  C15 UNL     1     -15.193  14.258 -18.330  1.00  0.00    -0.026 A 
HETATM   20  C16 UNL     1     -15.607  13.594 -17.160  1.00  0.00     0.015 A 
HETATM   21  C20 UNL     1     -14.375  13.479 -19.131  1.00  0.00     0.015 A 
HETATM   22  C17 UNL     1     -15.227  12.305 -16.858  1.00  0.00     0.037 A 
HETATM   23  C18 UNL     1     -14.410  11.599 -17.709  1.00  0.00     0.065 A 
HETATM   24  C19 UNL     1     -13.980  12.207 -18.868  1.00  0.00     0.037 A 
BRANCH  11  25
HETATM   25  N2  UNL     1     -16.696  19.275 -20.151  1.00  0.00    -0.049 N 
ATOM     26  H23 UNL     1     -17.510  19.033 -20.717  1.00  0.00     0.277 HD
ATOM     27  H22 UNL     1     -17.181  19.631 -19.328  1.00  0.00     0.277 HD
ATOM     28  H21 UNL     1     -16.126  19.995 -20.596  1.00  0.00     0.277 HD
ENDBRANCH  11  25
BRANCH  23  29
HETATM   29  O2  UNL     1     -13.994  10.302 -17.462  1.00  0.00    -0.361 OA
ATOM     30  H2  UNL     1     -13.987   9.912 -16.595  1.00  0.00     0.217 HD
ENDBRANCH  23  29
ENDBRANCH   6   9
TORSDOF 3
ENDMDL
MODEL 4
REMARK VINA RESULT: -9.036798644      3.978      7.396
REMARK  3 active torsions:
REMARK  status: ('A' for Active; 'I' for Inactive)
REMARK    1  A    between atoms: C5_6  and  C6_7 
REMARK    2  A    between atoms: C7_9  and  N2_10 
REMARK    3  A    between atoms: C18_24  and  O2_25 
ROOT
HETATM    1  N1  UNL     1     -11.436  19.133 -21.919  1.00  0.00    -0.191 NA
HETATM    2  C1  UNL     1     -12.322  18.621 -21.379  1.00  0.00     0.099 C 
HETATM    3  C2  UNL     1     -13.440  17.958 -20.717  1.00  0.00     0.044 A 
HETATM    4  C3  UNL     1     -13.970  16.805 -21.249  1.00  0.00     0.023 A 
HETATM    5  C4  UNL     1     -15.042  16.188 -20.596  1.00  0.00     0.011 A 
HETATM    6  C5  UNL     1     -15.595  16.658 -19.462  1.00  0.00    -0.025 A 
HETATM    7  C21 UNL     1     -15.025  17.841 -18.949  1.00  0.00     0.011 A 
HETATM    8  C22 UNL     1     -13.978  18.470 -19.560  1.00  0.00     0.023 A 
ENDROOT
BRANCH   6   9
HETATM    9  C6  UNL     1     -16.653  16.119 -18.716  1.00  0.00     0.192 C 
HETATM   10  O1  UNL     1     -17.638  17.188 -18.703  1.00  0.00    -0.341 OA
HETATM   11  C7  UNL     1     -17.999  17.431 -20.027  1.00  0.00     0.354 C 
HETATM   12  C8  UNL     1     -18.771  16.267 -20.516  1.00  0.00     0.008 A 
HETATM   13  C9  UNL     1     -19.735  16.400 -21.501  1.00  0.00     0.012 A 
HETATM   14  C13 UNL     1     -18.504  15.033 -19.942  1.00  0.00    -0.016 A 
HETATM   15  C10 UNL     1     -20.445  15.315 -21.931  1.00  0.00     0.001 A 
HETATM   16  C11 UNL     1     -20.189  14.088 -21.371  1.00  0.00     0.001 A 
HETATM   17  C12 UNL     1     -19.217  13.955 -20.377  1.00  0.00     0.013 A 
HETATM   18  C14 UNL     1     -17.453  14.946 -18.872  1.00  0.00    -0.004 C 
HETATM   19  C15 UNL     1     -17.007  13.591 -18.676  1.00  0.00    -0.026 A 
HETATM   20  C16 UNL     1     -17.073  12.968 -17.415  1.00  0.00     0.015 A 
HETATM   21  C20 UNL     1     -16.491  12.763 -19.659  1.00  0.00     0.015 A 
HETATM   22  C17 UNL     1     -16.663  11.670 -17.200  1.00  0.00     0.037 A 
HETATM   23  C18 UNL     1     -16.161  10.915 -18.233  1.00  0.00     0.065 A 
HETATM   24  C19 UNL     1     -16.077  11.482 -19.486  1.00  0.00     0.037 A 
BRANCH  11  25
HETATM   25  N2  UNL     1     -18.822  18.626 -20.123  1.00  0.00    -0.049 N 
ATOM     26  H23 UNL     1     -19.062  18.843 -21.091  1.00  0.00     0.277 HD
ATOM     27  H22 UNL     1     -19.763  18.466 -19.764  1.00  0.00     0.277 HD
ATOM     28  H21 UNL     1     -18.369  19.414 -19.660  1.00  0.00     0.277 HD
ENDBRANCH  11  25
BRANCH  23  29
HETATM   29  O2  UNL     1     -15.732   9.607 -18.080  1.00  0.00    -0.361 OA
ATOM     30  H2  UNL     1     -16.096   8.879 -18.570  1.00  0.00     0.217 HD
ENDBRANCH  23  29
ENDBRANCH   6   9
TORSDOF 3
ENDMDL
MODEL 5
REMARK VINA RESULT: -9.032778072      4.109      7.354
REMARK  3 active torsions:
REMARK  status: ('A' for Active; 'I' for Inactive)
REMARK    1  A    between atoms: C5_6  and  C6_7 
REMARK    2  A    between atoms: C7_9  and  N2_10 
REMARK    3  A    between atoms: C18_24  and  O2_25 
ROOT
HETATM    1  N1  UNL     1     -11.461  18.617 -21.923  1.00  0.00    -0.191 NA
HETATM    2  C1  UNL     1     -12.392  18.217 -21.367  1.00  0.00     0.099 C 
HETATM    3  C2  UNL     1     -13.566  17.732 -20.649  1.00  0.00     0.044 A 
HETATM    4  C3  UNL     1     -14.077  18.455 -19.596  1.00  0.00     0.023 A 
HETATM    5  C4  UNL     1     -15.204  17.970 -18.923  1.00  0.00     0.011 A 
HETATM    6  C5  UNL     1     -15.828  16.822 -19.247  1.00  0.00    -0.025 A 
HETATM    7  C21 UNL     1     -15.274  16.109 -20.330  1.00  0.00     0.011 A 
HETATM    8  C22 UNL     1     -14.177  16.553 -21.009  1.00  0.00     0.023 A 
ENDROOT
BRANCH   6   9
HETATM    9  C6  UNL     1     -16.966  16.249 -18.660  1.00  0.00     0.192 C 
HETATM   10  O1  UNL     1     -17.938  17.330 -18.679  1.00  0.00    -0.341 OA
HETATM   11  C7  UNL     1     -18.149  17.670 -20.014  1.00  0.00     0.354 C 
HETATM   12  C8  UNL     1     -18.873  16.555 -20.665  1.00  0.00     0.008 A 
HETATM   13  C9  UNL     1     -19.721  16.770 -21.737  1.00  0.00     0.012 A 
HETATM   14  C13 UNL     1     -18.680  15.280 -20.154  1.00  0.00    -0.016 A 
HETATM   15  C10 UNL     1     -20.389  15.729 -22.318  1.00  0.00     0.001 A 
HETATM   16  C11 UNL     1     -20.205  14.463 -21.821  1.00  0.00     0.001 A 
HETATM   17  C12 UNL     1     -19.350  14.246 -20.739  1.00  0.00     0.013 A 
HETATM   18  C14 UNL     1     -17.753  15.102 -18.984  1.00  0.00    -0.004 C 
HETATM   19  C15 UNL     1     -17.342  13.730 -18.837  1.00  0.00    -0.026 A 
HETATM   20  C16 UNL     1     -17.552  13.023 -17.638  1.00  0.00     0.015 A 
HETATM   21  C20 UNL     1     -16.729  12.964 -19.814  1.00  0.00     0.015 A 
HETATM   22  C17 UNL     1     -17.178  11.707 -17.471  1.00  0.00     0.037 A 
HETATM   23  C18 UNL     1     -16.572  11.017 -18.494  1.00  0.00     0.065 A 
HETATM   24  C19 UNL     1     -16.347  11.668 -19.687  1.00  0.00     0.037 A 
BRANCH  11  25
HETATM   25  N2  UNL     1     -18.947  18.881 -20.115  1.00  0.00    -0.049 N 
ATOM     26  H23 UNL     1     -18.998  19.376 -19.224  1.00  0.00     0.277 HD
ATOM     27  H22 UNL     1     -18.475  19.600 -20.662  1.00  0.00     0.277 HD
ATOM     28  H21 UNL     1     -19.874  18.671 -20.485  1.00  0.00     0.277 HD
ENDBRANCH  11  25
BRANCH  23  29
HETATM   29  O2  UNL     1     -16.174   9.695 -18.388  1.00  0.00    -0.361 OA
ATOM     30  H2  UNL     1     -16.049   9.126 -19.139  1.00  0.00     0.217 HD
ENDBRANCH  23  29
ENDBRANCH   6   9
TORSDOF 3
ENDMDL
