MODEL 1
REMARK VINA RESULT: -10.634471428      0.000      0.000
REMARK  3 active torsions:
REMARK  status: ('A' for Active; 'I' for Inactive)
REMARK    1  A    between atoms: C3_4  and  C4_5 
REMARK    2  A    between atoms: C4_5  and  C5_6 
REMARK    3  A    between atoms: C12_13  and  O2_14 
ROOT
HETATM    1  C5  UNL     1     -14.432  16.422 -17.852  1.00  0.00    -0.003 C 
HETATM    2  C6  UNL     1     -13.441  15.752 -17.119  1.00  0.00     0.011 C 
HETATM    3  C7  UNL     1     -13.034  14.432 -17.256  1.00  0.00     0.002 C 
HETATM    4  C8  UNL     1     -13.691  13.423 -17.975  1.00  0.00     0.013 C 
HETATM    5  C9  UNL     1     -15.046  13.359 -18.213  1.00  0.00    -0.011 A 
HETATM    6  C10 UNL     1     -15.885  14.457 -18.424  1.00  0.00     0.028 A 
HETATM    7  C11 UNL     1     -17.209  14.221 -18.701  1.00  0.00     0.053 A 
HETATM    8  C12 UNL     1     -17.661  12.914 -18.759  1.00  0.00     0.077 A 
HETATM    9  C13 UNL     1     -16.812  11.851 -18.545  1.00  0.00     0.008 A 
HETATM   10  C14 UNL     1     -17.305  10.554 -18.603  1.00  0.00     0.015 A 
HETATM   11  C15 UNL     1     -16.460   9.488 -18.381  1.00  0.00     0.001 A 
HETATM   12  C16 UNL     1     -15.119   9.698 -18.097  1.00  0.00     0.001 A 
HETATM   13  C17 UNL     1     -14.616  10.991 -18.037  1.00  0.00     0.013 A 
HETATM   14  C18 UNL     1     -15.464  12.048 -18.262  1.00  0.00    -0.012 A 
HETATM   15  C19 UNL     1     -15.555  15.823 -18.373  1.00  0.00     0.189 C 
HETATM   16  O3  UNL     1     -16.417  16.567 -18.874  1.00  0.00    -0.287 OA
ENDROOT
BRANCH   1  17
HETATM   17  C4  UNL     1     -14.223  17.855 -18.066  1.00  0.00     0.081 C 
BRANCH  17  18
HETATM   18  C3  UNL     1     -13.132  18.238 -18.947  1.00  0.00    -0.046 A 
HETATM   19  C2  UNL     1     -12.961  17.722 -20.207  1.00  0.00     0.090 A 
HETATM   20  C1  UNL     1     -11.873  18.136 -20.996  1.00  0.00     0.287 A 
HETATM   21  O1  UNL     1     -11.750  17.642 -22.142  1.00  0.00    -0.260 OA
HETATM   22  O4  UNL     1     -11.017  19.013 -20.537  1.00  0.00    -0.288 OA
HETATM   23  C21 UNL     1     -11.135  19.536 -19.339  1.00  0.00     0.146 A 
HETATM   24  C20 UNL     1     -12.195  19.158 -18.524  1.00  0.00     0.032 A 
ENDBRANCH  17  18
ENDBRANCH   1  17
BRANCH   8  25
HETATM   25  O2  UNL     1     -18.984  12.648 -19.036  1.00  0.00    -0.360 OA
ATOM     26  H2  UNL     1     -19.559  12.318 -18.355  1.00  0.00     0.217 HD
ENDBRANCH   8  25
TORSDOF 3
ENDMDL
MODEL 2
REMARK VINA RESULT: -10.066470013      0.485      1.240
REMARK  3 active torsions:
REMARK  status: ('A' for Active; 'I' for Inactive)
REMARK    1  A    between atoms: C3_4  and  C4_5 
REMARK    2  A    between atoms: C4_5  and  C5_6 
REMARK    3  A    between atoms: C12_13  and  O2_14 
ROOT
HETATM    1  C5  UNL     1     -14.084  16.236 -17.795  1.00  0.00    -0.003 C 
HETATM    2  C6  UNL     1     -13.107  15.494 -17.114  1.00  0.00     0.011 C 
HETATM    3  C7  UNL     1     -12.782  14.156 -17.292  1.00  0.00     0.002 C 
HETATM    4  C8  UNL     1     -13.521  13.203 -18.006  1.00  0.00     0.013 C 
HETATM    5  C9  UNL     1     -14.886  13.220 -18.194  1.00  0.00    -0.011 A 
HETATM    6  C10 UNL     1     -15.668  14.369 -18.351  1.00  0.00     0.028 A 
HETATM    7  C11 UNL     1     -17.012  14.215 -18.583  1.00  0.00     0.053 A 
HETATM    8  C12 UNL     1     -17.540  12.937 -18.650  1.00  0.00     0.077 A 
HETATM    9  C13 UNL     1     -16.747  11.823 -18.489  1.00  0.00     0.008 A 
HETATM   10  C14 UNL     1     -17.315  10.558 -18.555  1.00  0.00     0.015 A 
HETATM   11  C15 UNL     1     -16.526   9.441 -18.386  1.00  0.00     0.001 A 
HETATM   12  C16 UNL     1     -15.165   9.568 -18.148  1.00  0.00     0.001 A 
HETATM   13  C17 UNL     1     -14.587  10.829 -18.081  1.00  0.00     0.013 A 
HETATM   14  C18 UNL     1     -15.381  11.937 -18.253  1.00  0.00    -0.012 A 
HETATM   15  C19 UNL     1     -15.257  15.712 -18.286  1.00  0.00     0.189 C 
HETATM   16  O3  UNL     1     -16.093  16.515 -18.739  1.00  0.00    -0.287 OA
ENDROOT
BRANCH   1  17
HETATM   17  C4  UNL     1     -13.801  17.658 -17.989  1.00  0.00     0.081 C 
BRANCH  17  18
HETATM   18  C3  UNL     1     -12.855  18.006 -19.038  1.00  0.00    -0.046 A 
HETATM   19  C2  UNL     1     -11.771  18.823 -18.836  1.00  0.00     0.090 A 
HETATM   20  C1  UNL     1     -10.906  19.121 -19.904  1.00  0.00     0.287 A 
HETATM   21  O1  UNL     1      -9.926  19.871 -19.681  1.00  0.00    -0.260 OA
HETATM   22  O4  UNL     1     -11.127  18.624 -21.094  1.00  0.00    -0.288 OA
HETATM   23  C21 UNL     1     -12.150  17.839 -21.339  1.00  0.00     0.146 A 
HETATM   24  C20 UNL     1     -13.030  17.516 -20.315  1.00  0.00     0.032 A 
ENDBRANCH  17  18
ENDBRANCH   1  17
BRANCH   8  25
HETATM   25  O2  UNL     1     -18.886  12.753 -18.882  1.00  0.00    -0.360 OA
ATOM     26  H2  UNL     1     -19.273  11.889 -18.797  1.00  0.00     0.217 HD
ENDBRANCH   8  25
TORSDOF 3
ENDMDL
MODEL 3
REMARK VINA RESULT: -9.999767263      0.939      1.155
REMARK  3 active torsions:
REMARK  status: ('A' for Active; 'I' for Inactive)
REMARK    1  A    between atoms: C3_4  and  C4_5 
REMARK    2  A    between atoms: C4_5  and  C5_6 
REMARK    3  A    between atoms: C12_13  and  O2_14 
ROOT
HETATM    1  C5  UNL     1     -14.251  16.367 -17.861  1.00  0.00    -0.003 C 
HETATM    2  C6  UNL     1     -13.282  15.664 -17.131  1.00  0.00     0.011 C 
HETATM    3  C7  UNL     1     -12.923  14.330 -17.266  1.00  0.00     0.002 C 
HETATM    4  C8  UNL     1     -13.618  13.343 -17.979  1.00  0.00     0.013 C 
HETATM    5  C9  UNL     1     -14.976  13.326 -18.211  1.00  0.00    -0.011 A 
HETATM    6  C10 UNL     1     -15.777  14.453 -18.421  1.00  0.00     0.028 A 
HETATM    7  C11 UNL     1     -17.108  14.264 -18.692  1.00  0.00     0.053 A 
HETATM    8  C12 UNL     1     -17.607  12.973 -18.744  1.00  0.00     0.077 A 
HETATM    9  C13 UNL     1     -16.796  11.881 -18.531  1.00  0.00     0.008 A 
HETATM   10  C14 UNL     1     -17.335  10.603 -18.583  1.00  0.00     0.015 A 
HETATM   11  C15 UNL     1     -16.527   9.508 -18.362  1.00  0.00     0.001 A 
HETATM   12  C16 UNL     1     -15.179   9.671 -18.084  1.00  0.00     0.001 A 
HETATM   13  C17 UNL     1     -14.630  10.945 -18.030  1.00  0.00     0.013 A 
HETATM   14  C18 UNL     1     -15.441  12.031 -18.254  1.00  0.00    -0.012 A 
HETATM   15  C19 UNL     1     -15.397  15.806 -18.376  1.00  0.00     0.189 C 
HETATM   16  O3  UNL     1     -16.235  16.579 -18.875  1.00  0.00    -0.287 OA
ENDROOT
BRANCH   1  17
HETATM   17  C4  UNL     1     -13.993  17.791 -18.081  1.00  0.00     0.081 C 
BRANCH  17  18
HETATM   18  C3  UNL     1     -13.431  18.168 -19.367  1.00  0.00    -0.046 A 
HETATM   19  C2  UNL     1     -13.978  19.134 -20.176  1.00  0.00     0.090 A 
HETATM   20  C1  UNL     1     -13.382  19.436 -21.413  1.00  0.00     0.287 A 
HETATM   21  O1  UNL     1     -13.910  20.324 -22.124  1.00  0.00    -0.260 OA
HETATM   22  O4  UNL     1     -12.304  18.803 -21.802  1.00  0.00    -0.288 OA
HETATM   23  C21 UNL     1     -11.743  17.872 -21.067  1.00  0.00     0.146 A 
HETATM   24  C20 UNL     1     -12.297  17.539 -19.837  1.00  0.00     0.032 A 
ENDBRANCH  17  18
ENDBRANCH   1  17
BRANCH   8  25
HETATM   25  O2  UNL     1     -18.940  12.754 -19.015  1.00  0.00    -0.360 OA
ATOM     26  H2  UNL     1     -19.604  13.329 -18.651  1.00  0.00     0.217 HD
ENDBRANCH   8  25
TORSDOF 3
ENDMDL
MODEL 4
REMARK VINA RESULT: -9.722324295      1.741      2.626
REMARK  3 active torsions:
REMARK  status: ('A' for Active; 'I' for Inactive)
REMARK    1  A    between atoms: C3_4  and  C4_5 
REMARK    2  A    between atoms: C4_5  and  C5_6 
REMARK    3  A    between atoms: C12_13  and  O2_14 
ROOT
HETATM    1  C5  UNL     1     -14.646  16.736 -18.377  1.00  0.00    -0.003 C 
HETATM    2  C6  UNL     1     -15.711  16.622 -19.283  1.00  0.00     0.011 C 
HETATM    3  C7  UNL     1     -16.690  15.638 -19.319  1.00  0.00     0.002 C 
HETATM    4  C8  UNL     1     -16.681  14.422 -18.622  1.00  0.00     0.013 C 
HETATM    5  C9  UNL     1     -15.557  13.729 -18.228  1.00  0.00    -0.011 A 
HETATM    6  C10 UNL     1     -14.352  14.306 -17.817  1.00  0.00     0.028 A 
HETATM    7  C11 UNL     1     -13.340  13.477 -17.404  1.00  0.00     0.053 A 
HETATM    8  C12 UNL     1     -13.548  12.108 -17.413  1.00  0.00     0.077 A 
HETATM    9  C13 UNL     1     -14.745  11.566 -17.825  1.00  0.00     0.008 A 
HETATM   10  C14 UNL     1     -14.912  10.188 -17.827  1.00  0.00     0.015 A 
HETATM   11  C15 UNL     1     -16.105   9.642 -18.247  1.00  0.00     0.001 A 
HETATM   12  C16 UNL     1     -17.144  10.458 -18.671  1.00  0.00     0.001 A 
HETATM   13  C17 UNL     1     -16.987  11.837 -18.672  1.00  0.00     0.013 A 
HETATM   14  C18 UNL     1     -15.795  12.373 -18.250  1.00  0.00    -0.012 A 
HETATM   15  C19 UNL     1     -14.012  15.671 -17.781  1.00  0.00     0.189 C 
HETATM   16  O3  UNL     1     -12.992  15.917 -17.113  1.00  0.00    -0.287 OA
ENDROOT
BRANCH   1  17
HETATM   17  C4  UNL     1     -14.209  18.096 -18.058  1.00  0.00     0.081 C 
BRANCH  17  18
HETATM   18  C3  UNL     1     -13.120  18.642 -18.851  1.00  0.00    -0.046 A 
HETATM   19  C2  UNL     1     -12.918  18.332 -20.173  1.00  0.00     0.090 A 
HETATM   20  C1  UNL     1     -11.835  18.893 -20.871  1.00  0.00     0.287 A 
HETATM   21  O1  UNL     1     -11.683  18.586 -22.077  1.00  0.00    -0.260 OA
HETATM   22  O4  UNL     1     -11.013  19.714 -20.268  1.00  0.00    -0.288 OA
HETATM   23  C21 UNL     1     -11.161  20.043 -19.007  1.00  0.00     0.146 A 
HETATM   24  C20 UNL     1     -12.217  19.513 -18.277  1.00  0.00     0.032 A 
ENDBRANCH  17  18
ENDBRANCH   1  17
BRANCH   8  25
HETATM   25  O2  UNL     1     -12.549  11.251 -17.003  1.00  0.00    -0.360 OA
ATOM     26  H2  UNL     1     -11.963  10.859 -17.640  1.00  0.00     0.217 HD
ENDBRANCH   8  25
TORSDOF 3
ENDMDL
MODEL 5
REMARK VINA RESULT: -9.700030284      1.873      7.308
REMARK  3 active torsions:
REMARK  status: ('A' for Active; 'I' for Inactive)
REMARK    1  A    between atoms: C3_4  and  C4_5 
REMARK    2  A    between atoms: C4_5  and  C5_6 
REMARK    3  A    between atoms: C12_13  and  O2_14 
ROOT
HETATM    1  C5  UNL     1     -13.617  13.255 -16.946  1.00  0.00    -0.003 C 
HETATM    2  C6  UNL     1     -12.284  12.913 -17.217  1.00  0.00     0.011 C 
HETATM    3  C7  UNL     1     -11.167  13.732 -17.138  1.00  0.00     0.002 C 
HETATM    4  C8  UNL     1     -11.159  15.129 -17.015  1.00  0.00     0.013 C 
HETATM    5  C9  UNL     1     -12.139  15.981 -17.474  1.00  0.00    -0.011 A 
HETATM    6  C10 UNL     1     -13.509  15.701 -17.502  1.00  0.00     0.028 A 
HETATM    7  C11 UNL     1     -14.365  16.679 -17.942  1.00  0.00     0.053 A 
HETATM    8  C12 UNL     1     -13.844  17.898 -18.342  1.00  0.00     0.077 A 
HETATM    9  C13 UNL     1     -12.489  18.146 -18.306  1.00  0.00     0.008 A 
HETATM   10  C14 UNL     1     -12.004  19.379 -18.722  1.00  0.00     0.015 A 
HETATM   11  C15 UNL     1     -10.649  19.627 -18.695  1.00  0.00     0.001 A 
HETATM   12  C16 UNL     1      -9.762  18.656 -18.257  1.00  0.00     0.001 A 
HETATM   13  C17 UNL     1     -10.237  17.420 -17.838  1.00  0.00     0.013 A 
HETATM   14  C18 UNL     1     -11.590  17.181 -17.866  1.00  0.00    -0.012 A 
HETATM   15  C19 UNL     1     -14.157  14.505 -17.145  1.00  0.00     0.189 C 
HETATM   16  O3  UNL     1     -15.386  14.624 -16.997  1.00  0.00    -0.287 OA
ENDROOT
BRANCH   1  17
HETATM   17  C4  UNL     1     -14.464  12.190 -16.407  1.00  0.00     0.081 C 
BRANCH  17  18
HETATM   18  C3  UNL     1     -15.268  11.441 -17.360  1.00  0.00    -0.046 A 
HETATM   19  C2  UNL     1     -16.486  11.872 -17.823  1.00  0.00     0.090 A 
HETATM   20  C1  UNL     1     -17.210  11.086 -18.737  1.00  0.00     0.287 A 
HETATM   21  O1  UNL     1     -18.319  11.512 -19.138  1.00  0.00    -0.260 OA
HETATM   22  O4  UNL     1     -16.729   9.941 -19.152  1.00  0.00    -0.288 OA
HETATM   23  C21 UNL     1     -15.570   9.484 -18.739  1.00  0.00     0.146 A 
HETATM   24  C20 UNL     1     -14.820  10.227 -17.837  1.00  0.00     0.032 A 
ENDBRANCH  17  18
ENDBRANCH   1  17
BRANCH   8  25
HETATM   25  O2  UNL     1     -14.680  18.899 -18.787  1.00  0.00    -0.360 OA
ATOM     26  H2  UNL     1     -15.086  19.495 -18.168  1.00  0.00     0.217 HD
ENDBRANCH   8  25
TORSDOF 3
ENDMDL
