MODEL 1
REMARK VINA RESULT: -7.042368239      0.000      0.000
REMARK  7 active torsions:
REMARK  status: ('A' for Active; 'I' for Inactive)
REMARK    1  A    between atoms: N1_1  and  C1_5 
REMARK    2  A    between atoms: C1_5  and  C2_6 
REMARK    3  A    between atoms: C2_6  and  N2_7 
REMARK    4  A    between atoms: N2_7  and  C3_9 
REMARK    5  A    between atoms: C4_12  and  N4_13 
REMARK    6  A    between atoms: C9_23  and  N7_24 
REMARK    7  A    between atoms: N7_24  and  C10_26 
ROOT
HETATM    1  C3  UNL     1      10.609 -11.897   2.808  1.00  0.00     0.707 A 
HETATM    2  N3  UNL     1      10.993 -13.137   3.173  1.00  0.00    -0.021 N 
ATOM      3  H3  UNL     1      10.296 -13.880   3.179  1.00  0.00     0.203 HD
HETATM    4  C4  UNL     1      12.246 -13.434   3.529  1.00  0.00     0.709 A 
HETATM    5  N6  UNL     1      13.170 -12.455   3.524  1.00  0.00    -0.021 N 
ATOM      6  H6  UNL     1      14.131 -12.662   3.793  1.00  0.00     0.203 HD
HETATM    7  C9  UNL     1      12.834 -11.217   3.171  1.00  0.00     0.707 A 
HETATM    8  N8  UNL     1      11.548 -10.939   2.812  1.00  0.00    -0.022 N 
ATOM      9  H8  UNL     1      11.296  -9.988   2.543  1.00  0.00     0.203 HD
ENDROOT
BRANCH   1  10
HETATM   10  N2  UNL     1       9.410 -11.685   2.484  1.00  0.00    -0.223 N 
ATOM     11  H2  UNL     1       9.194 -10.721   2.226  1.00  0.00     0.177 HD
BRANCH  10  12
HETATM   12  C2  UNL     1       8.312 -12.586   2.423  1.00  0.00     0.165 C 
BRANCH  12  13
HETATM   13  C1  UNL     1       7.321 -12.006   1.405  1.00  0.00     0.249 C 
BRANCH  13  14
HETATM   14  N1  UNL     1       7.961 -11.612   0.189  1.00  0.00    -0.078 N 
ATOM     15  H13 UNL     1       7.561 -10.748  -0.175  1.00  0.00     0.274 HD
ATOM     16  H12 UNL     1       8.914 -11.291   0.362  1.00  0.00     0.274 HD
ATOM     17  H11 UNL     1       7.944 -12.351  -0.515  1.00  0.00     0.274 HD
ENDBRANCH  13  14
ENDBRANCH  12  13
ENDBRANCH  10  12
ENDBRANCH   1  10
BRANCH   4  18
HETATM   18  N4  UNL     1      12.709 -14.717   3.926  1.00  0.00    -0.213 N 
HETATM   19  C5  UNL     1      11.863 -15.853   4.057  1.00  0.00     0.168 C 
HETATM   20  C6  UNL     1      12.080 -16.489   5.429  1.00  0.00     0.252 C 
HETATM   21  N5  UNL     1      13.458 -16.786   5.669  1.00  0.00    -0.072 N 
HETATM   22  C7  UNL     1      14.315 -15.626   5.544  1.00  0.00     0.252 C 
ATOM     23  H52 UNL     1      13.581 -17.234   6.576  1.00  0.00     0.277 HD
ATOM     24  H51 UNL     1      13.778 -17.543   5.064  1.00  0.00     0.277 HD
HETATM   25  C8  UNL     1      14.130 -14.926   4.221  1.00  0.00     0.168 C 
ENDBRANCH   4  18
BRANCH   7  26
HETATM   26  N7  UNL     1      13.764 -10.325   3.188  1.00  0.00    -0.220 N 
ATOM     27  H7  UNL     1      13.629  -9.464   3.718  1.00  0.00     0.178 HD
BRANCH  26  28
HETATM   28  C10 UNL     1      14.976 -10.533   2.473  1.00  0.00     0.099 C 
HETATM   29  C11 UNL     1      16.148 -10.486   3.427  1.00  0.00     0.026 C 
HETATM   30  C12 UNL     1      17.290 -10.146   2.467  1.00  0.00     0.002 C 
HETATM   31  C13 UNL     1      16.687  -8.975   1.721  1.00  0.00     0.002 C 
HETATM   32  C14 UNL     1      15.229  -9.287   1.633  1.00  0.00     0.026 C 
ENDBRANCH  26  28
ENDBRANCH   7  26
TORSDOF 7
ENDMDL
MODEL 2
REMARK VINA RESULT: -6.917398041      3.236      5.257
REMARK  7 active torsions:
REMARK  status: ('A' for Active; 'I' for Inactive)
REMARK    1  A    between atoms: N1_1  and  C1_5 
REMARK    2  A    between atoms: C1_5  and  C2_6 
REMARK    3  A    between atoms: C2_6  and  N2_7 
REMARK    4  A    between atoms: N2_7  and  C3_9 
REMARK    5  A    between atoms: C4_12  and  N4_13 
REMARK    6  A    between atoms: C9_23  and  N7_24 
REMARK    7  A    between atoms: N7_24  and  C10_26 
ROOT
HETATM    1  C3  UNL     1      13.957 -13.137   7.542  1.00  0.00     0.707 A 
HETATM    2  N3  UNL     1      13.638 -14.348   7.042  1.00  0.00    -0.021 N 
ATOM      3  H3  UNL     1      13.592 -15.142   7.680  1.00  0.00     0.203 HD
HETATM    4  C4  UNL     1      13.378 -14.554   5.748  1.00  0.00     0.709 A 
HETATM    5  N6  UNL     1      13.438 -13.510   4.901  1.00  0.00    -0.021 N 
ATOM      6  H6  UNL     1      13.243 -13.648   3.910  1.00  0.00     0.203 HD
HETATM    7  C9  UNL     1      13.750 -12.298   5.352  1.00  0.00     0.707 A 
HETATM    8  N8  UNL     1      14.011 -12.113   6.677  1.00  0.00    -0.022 N 
ATOM      9  H8  UNL     1      14.250 -11.181   7.017  1.00  0.00     0.203 HD
ENDROOT
BRANCH   1  10
HETATM   10  N2  UNL     1      14.191 -13.012   8.774  1.00  0.00    -0.223 N 
ATOM     11  H2  UNL     1      14.925 -12.345   9.010  1.00  0.00     0.177 HD
BRANCH  10  12
HETATM   12  C2  UNL     1      13.584 -13.661   9.884  1.00  0.00     0.165 C 
BRANCH  12  13
HETATM   13  C1  UNL     1      14.643 -14.601  10.478  1.00  0.00     0.249 C 
BRANCH  13  14
HETATM   14  N1  UNL     1      14.347 -14.968  11.827  1.00  0.00    -0.078 N 
ATOM     15  H13 UNL     1      13.441 -14.601  12.118  1.00  0.00     0.274 HD
ATOM     16  H12 UNL     1      14.151 -15.966  11.902  1.00  0.00     0.274 HD
ATOM     17  H11 UNL     1      15.083 -14.687  12.476  1.00  0.00     0.274 HD
ENDBRANCH  13  14
ENDBRANCH  12  13
ENDBRANCH  10  12
ENDBRANCH   1  10
BRANCH   4  18
HETATM   18  N4  UNL     1      13.040 -15.804   5.163  1.00  0.00    -0.213 N 
HETATM   19  C5  UNL     1      11.946 -16.605   5.595  1.00  0.00     0.168 C 
HETATM   20  C6  UNL     1      12.436 -18.029   5.855  1.00  0.00     0.252 C 
HETATM   21  N5  UNL     1      13.118 -18.575   4.724  1.00  0.00    -0.072 N 
HETATM   22  C7  UNL     1      14.236 -17.762   4.292  1.00  0.00     0.252 C 
ATOM     23  H52 UNL     1      13.414 -19.534   4.906  1.00  0.00     0.277 HD
ATOM     24  H51 UNL     1      12.471 -18.743   3.954  1.00  0.00     0.277 HD
HETATM   25  C8  UNL     1      13.832 -16.331   4.047  1.00  0.00     0.168 C 
ENDBRANCH   4  18
BRANCH   7  26
HETATM   26  N7  UNL     1      13.791 -11.340   4.491  1.00  0.00    -0.220 N 
ATOM     27  H7  UNL     1      13.080 -10.609   4.513  1.00  0.00     0.178 HD
BRANCH  26  28
HETATM   28  C10 UNL     1      14.821 -11.295   3.510  1.00  0.00     0.099 C 
HETATM   29  C11 UNL     1      15.982 -10.474   4.023  1.00  0.00     0.026 C 
HETATM   30  C12 UNL     1      16.656 -10.072   2.710  1.00  0.00     0.002 C 
HETATM   31  C13 UNL     1      15.463  -9.560   1.930  1.00  0.00     0.002 C 
HETATM   32  C14 UNL     1      14.322 -10.421   2.366  1.00  0.00     0.026 C 
ENDBRANCH  26  28
ENDBRANCH   7  26
TORSDOF 7
ENDMDL
MODEL 3
REMARK VINA RESULT: -6.768375084      3.276      5.406
REMARK  7 active torsions:
REMARK  status: ('A' for Active; 'I' for Inactive)
REMARK    1  A    between atoms: N1_1  and  C1_5 
REMARK    2  A    between atoms: C1_5  and  C2_6 
REMARK    3  A    between atoms: C2_6  and  N2_7 
REMARK    4  A    between atoms: N2_7  and  C3_9 
REMARK    5  A    between atoms: C4_12  and  N4_13 
REMARK    6  A    between atoms: C9_23  and  N7_24 
REMARK    7  A    between atoms: N7_24  and  C10_26 
ROOT
HETATM    1  C3  UNL     1      12.746 -15.014   6.118  1.00  0.00     0.707 A 
HETATM    2  N3  UNL     1      13.388 -15.066   7.302  1.00  0.00    -0.021 N 
ATOM      3  H3  UNL     1      13.300 -15.910   7.867  1.00  0.00     0.203 HD
HETATM    4  C4  UNL     1      14.133 -14.060   7.770  1.00  0.00     0.709 A 
HETATM    5  N6  UNL     1      14.250 -12.944   7.028  1.00  0.00    -0.021 N 
ATOM      6  H6  UNL     1      14.814 -12.165   7.369  1.00  0.00     0.203 HD
HETATM    7  C9  UNL     1      13.634 -12.850   5.853  1.00  0.00     0.707 A 
HETATM    8  N8  UNL     1      12.879 -13.890   5.398  1.00  0.00    -0.022 N 
ATOM      9  H8  UNL     1      12.408 -13.813   4.496  1.00  0.00     0.203 HD
ENDROOT
BRANCH   1  10
HETATM   10  N2  UNL     1      12.059 -16.000   5.736  1.00  0.00    -0.223 N 
ATOM     11  H2  UNL     1      11.097 -16.014   6.075  1.00  0.00     0.177 HD
BRANCH  10  12
HETATM   12  C2  UNL     1      12.423 -17.093   4.904  1.00  0.00     0.165 C 
BRANCH  12  13
HETATM   13  C1  UNL     1      12.607 -18.307   5.826  1.00  0.00     0.249 C 
BRANCH  13  14
HETATM   14  N1  UNL     1      11.718 -19.377   5.496  1.00  0.00    -0.078 N 
ATOM     15  H13 UNL     1      10.882 -19.030   5.028  1.00  0.00     0.274 HD
ATOM     16  H12 UNL     1      12.098 -19.953   4.745  1.00  0.00     0.274 HD
ATOM     17  H11 UNL     1      11.477 -19.945   6.309  1.00  0.00     0.274 HD
ENDBRANCH  13  14
ENDBRANCH  12  13
ENDBRANCH  10  12
ENDBRANCH   1  10
BRANCH   4  18
HETATM   18  N4  UNL     1      14.828 -14.055   9.009  1.00  0.00    -0.213 N 
HETATM   19  C5  UNL     1      16.246 -14.084   9.115  1.00  0.00     0.168 C 
HETATM   20  C6  UNL     1      16.657 -15.204  10.070  1.00  0.00     0.252 C 
HETATM   21  N5  UNL     1      16.002 -15.095  11.336  1.00  0.00    -0.072 N 
HETATM   22  C7  UNL     1      14.558 -15.075  11.225  1.00  0.00     0.252 C 
ATOM     23  H52 UNL     1      16.309 -15.834  11.969  1.00  0.00     0.277 HD
ATOM     24  H51 UNL     1      16.340 -14.283  11.852  1.00  0.00     0.277 HD
HETATM   25  C8  UNL     1      14.081 -14.011  10.270  1.00  0.00     0.168 C 
ENDBRANCH   4  18
BRANCH   7  26
HETATM   26  N7  UNL     1      13.786 -11.755   5.192  1.00  0.00    -0.220 N 
ATOM     27  H7  UNL     1      13.284 -10.915   5.483  1.00  0.00     0.178 HD
BRANCH  26  28
HETATM   28  C10 UNL     1      14.647 -11.707   4.060  1.00  0.00     0.099 C 
HETATM   29  C11 UNL     1      15.741 -10.690   4.291  1.00  0.00     0.026 C 
HETATM   30  C12 UNL     1      16.155 -10.378   2.851  1.00  0.00     0.002 C 
HETATM   31  C13 UNL     1      14.803 -10.121   2.223  1.00  0.00     0.002 C 
HETATM   32  C14 UNL     1      13.870 -11.053   2.924  1.00  0.00     0.026 C 
ENDBRANCH  26  28
ENDBRANCH   7  26
TORSDOF 7
ENDMDL
MODEL 4
REMARK VINA RESULT: -6.516636624      3.400      6.126
REMARK  7 active torsions:
REMARK  status: ('A' for Active; 'I' for Inactive)
REMARK    1  A    between atoms: N1_1  and  C1_5 
REMARK    2  A    between atoms: C1_5  and  C2_6 
REMARK    3  A    between atoms: C2_6  and  N2_7 
REMARK    4  A    between atoms: N2_7  and  C3_9 
REMARK    5  A    between atoms: C4_12  and  N4_13 
REMARK    6  A    between atoms: C9_23  and  N7_24 
REMARK    7  A    between atoms: N7_24  and  C10_26 
ROOT
HETATM    1  C3  UNL     1      14.522 -16.157   6.013  1.00  0.00     0.707 A 
HETATM    2  N3  UNL     1      15.000 -15.971   7.260  1.00  0.00    -0.021 N 
ATOM      3  H3  UNL     1      15.372 -16.776   7.763  1.00  0.00     0.203 HD
HETATM    4  C4  UNL     1      15.007 -14.780   7.865  1.00  0.00     0.709 A 
HETATM    5  N6  UNL     1      14.516 -13.716   7.204  1.00  0.00    -0.021 N 
ATOM      6  H6  UNL     1      14.512 -12.799   7.651  1.00  0.00     0.203 HD
HETATM    7  C9  UNL     1      14.034 -13.854   5.972  1.00  0.00     0.707 A 
HETATM    8  N8  UNL     1      14.037 -15.080   5.376  1.00  0.00    -0.022 N 
ATOM      9  H8  UNL     1      13.665 -15.180   4.431  1.00  0.00     0.203 HD
ENDROOT
BRANCH   1  10
HETATM   10  N2  UNL     1      14.544 -17.308   5.500  1.00  0.00    -0.223 N 
ATOM     11  H2  UNL     1      15.423 -17.814   5.610  1.00  0.00     0.177 HD
BRANCH  10  12
HETATM   12  C2  UNL     1      13.529 -18.007   4.791  1.00  0.00     0.165 C 
BRANCH  12  13
HETATM   13  C1  UNL     1      12.434 -18.347   5.812  1.00  0.00     0.249 C 
BRANCH  13  14
HETATM   14  N1  UNL     1      11.686 -19.507   5.438  1.00  0.00    -0.078 N 
ATOM     15  H13 UNL     1      10.857 -19.253   4.902  1.00  0.00     0.274 HD
ATOM     16  H12 UNL     1      12.179 -20.050   4.730  1.00  0.00     0.274 HD
ATOM     17  H11 UNL     1      11.441 -20.085   6.242  1.00  0.00     0.274 HD
ENDBRANCH  13  14
ENDBRANCH  12  13
ENDBRANCH  10  12
ENDBRANCH   1  10
BRANCH   4  18
HETATM   18  N4  UNL     1      15.493 -14.524   9.175  1.00  0.00    -0.213 N 
HETATM   19  C5  UNL     1      16.860 -14.264   9.471  1.00  0.00     0.168 C 
HETATM   20  C6  UNL     1      17.316 -15.189  10.599  1.00  0.00     0.252 C 
HETATM   21  N5  UNL     1      16.467 -15.094  11.745  1.00  0.00    -0.072 N 
HETATM   22  C7  UNL     1      15.077 -15.367  11.442  1.00  0.00     0.252 C 
ATOM     23  H52 UNL     1      16.802 -15.696  12.496  1.00  0.00     0.277 HD
ATOM     24  H51 UNL     1      16.570 -14.187  12.200  1.00  0.00     0.277 HD
HETATM   25  C8  UNL     1      14.567 -14.510  10.312  1.00  0.00     0.168 C 
ENDBRANCH   4  18
BRANCH   7  26
HETATM   26  N7  UNL     1      13.577 -12.797   5.395  1.00  0.00    -0.220 N 
ATOM     27  H7  UNL     1      12.824 -12.266   5.833  1.00  0.00     0.178 HD
BRANCH  26  28
HETATM   28  C10 UNL     1      14.115 -12.364   4.150  1.00  0.00     0.099 C 
HETATM   29  C11 UNL     1      14.618 -10.944   4.275  1.00  0.00     0.026 C 
HETATM   30  C12 UNL     1      14.593 -10.498   2.812  1.00  0.00     0.002 C 
HETATM   31  C13 UNL     1      13.198 -10.930   2.413  1.00  0.00     0.002 C 
HETATM   32  C14 UNL     1      12.948 -12.182   3.188  1.00  0.00     0.026 C 
ENDBRANCH  26  28
ENDBRANCH   7  26
TORSDOF 7
ENDMDL
MODEL 5
REMARK VINA RESULT: -6.485543635      3.309      4.934
REMARK  7 active torsions:
REMARK  status: ('A' for Active; 'I' for Inactive)
REMARK    1  A    between atoms: N1_1  and  C1_5 
REMARK    2  A    between atoms: C1_5  and  C2_6 
REMARK    3  A    between atoms: C2_6  and  N2_7 
REMARK    4  A    between atoms: N2_7  and  C3_9 
REMARK    5  A    between atoms: C4_12  and  N4_13 
REMARK    6  A    between atoms: C9_23  and  N7_24 
REMARK    7  A    between atoms: N7_24  and  C10_26 
ROOT
HETATM    1  C3  UNL     1      12.834 -14.627   6.267  1.00  0.00     0.707 A 
HETATM    2  N3  UNL     1      13.463 -14.792   7.449  1.00  0.00    -0.021 N 
ATOM      3  H3  UNL     1      13.284 -15.644   7.980  1.00  0.00     0.203 HD
HETATM    4  C4  UNL     1      14.309 -13.890   7.954  1.00  0.00     0.709 A 
HETATM    5  N6  UNL     1      14.547 -12.764   7.257  1.00  0.00    -0.021 N 
ATOM      6  H6  UNL     1      15.189 -12.064   7.627  1.00  0.00     0.203 HD
HETATM    7  C9  UNL     1      13.948 -12.561   6.087  1.00  0.00     0.707 A 
HETATM    8  N8  UNL     1      13.088 -13.496   5.592  1.00  0.00    -0.022 N 
ATOM      9  H8  UNL     1      12.631 -13.334   4.694  1.00  0.00     0.203 HD
ENDROOT
BRANCH   1  10
HETATM   10  N2  UNL     1      12.048 -15.518   5.848  1.00  0.00    -0.223 N 
ATOM     11  H2  UNL     1      11.174 -15.603   6.367  1.00  0.00     0.177 HD
BRANCH  10  12
HETATM   12  C2  UNL     1      12.196 -16.421   4.760  1.00  0.00     0.165 C 
BRANCH  12  13
HETATM   13  C1  UNL     1      11.615 -15.721   3.524  1.00  0.00     0.249 C 
BRANCH  13  14
HETATM   14  N1  UNL     1      12.634 -15.197   2.669  1.00  0.00    -0.078 N 
ATOM     15  H13 UNL     1      13.160 -15.947   2.221  1.00  0.00     0.274 HD
ATOM     16  H12 UNL     1      12.230 -14.763   1.839  1.00  0.00     0.274 HD
ATOM     17  H11 UNL     1      13.256 -14.552   3.156  1.00  0.00     0.274 HD
ENDBRANCH  13  14
ENDBRANCH  12  13
ENDBRANCH  10  12
ENDBRANCH   1  10
BRANCH   4  18
HETATM   18  N4  UNL     1      14.996 -14.006   9.192  1.00  0.00    -0.213 N 
HETATM   19  C5  UNL     1      16.414 -14.021   9.307  1.00  0.00     0.168 C 
HETATM   20  C6  UNL     1      16.841 -15.230  10.137  1.00  0.00     0.252 C 
HETATM   21  N5  UNL     1      16.176 -15.272  11.402  1.00  0.00    -0.072 N 
HETATM   22  C7  UNL     1      14.733 -15.267  11.282  1.00  0.00     0.252 C 
ATOM     23  H52 UNL     1      16.493 -16.070  11.953  1.00  0.00     0.277 HD
ATOM     24  H51 UNL     1      16.495 -14.515  12.006  1.00  0.00     0.277 HD
HETATM   25  C8  UNL     1      14.241 -14.114  10.444  1.00  0.00     0.168 C 
ENDBRANCH   4  18
BRANCH   7  26
HETATM   26  N7  UNL     1      14.217 -11.462   5.469  1.00  0.00    -0.220 N 
ATOM     27  H7  UNL     1      13.929 -10.571   5.872  1.00  0.00     0.178 HD
BRANCH  26  28
HETATM   28  C10 UNL     1      14.914 -11.484   4.228  1.00  0.00     0.099 C 
HETATM   29  C11 UNL     1      16.074 -10.515   4.275  1.00  0.00     0.026 C 
HETATM   30  C12 UNL     1      16.297 -10.259   2.783  1.00  0.00     0.002 C 
HETATM   31  C13 UNL     1      14.883  -9.953   2.339  1.00  0.00     0.002 C 
HETATM   32  C14 UNL     1      14.017 -10.822   3.190  1.00  0.00     0.026 C 
ENDBRANCH  26  28
ENDBRANCH   7  26
TORSDOF 7
ENDMDL
