MODEL 1
REMARK VINA RESULT: -7.810191322      0.000      0.000
REMARK  6 active torsions:
REMARK  status: ('A' for Active; 'I' for Inactive)
REMARK       I    between atoms: C2_2  and  N1_4 
REMARK    1  A    between atoms: N1_4  and  C3_6 
REMARK    2  A    between atoms: C4_7  and  C5_8 
REMARK    3  A    between atoms: N2_9  and  N3_11 
REMARK       I    between atoms: N3_11  and  C6_13 
REMARK    4  A    between atoms: C6_13  and  C7_15 
REMARK       I    between atoms: C7_15  and  N4_17 
REMARK    5  A    between atoms: N4_17  and  N5_19 
REMARK    6  A    between atoms: C9_23  and  N6_24 
ROOT
HETATM    1  C3  UNL     1      12.097 -15.589   4.734  1.00  0.00     0.062 A 
HETATM    2  C4  UNL     1      12.893 -14.814   5.499  1.00  0.00     0.013 A 
HETATM    3  C8  UNL     1      13.215 -13.428   5.097  1.00  0.00     0.070 A 
HETATM    4  C9  UNL     1      12.738 -12.918   3.990  1.00  0.00     0.174 A 
HETATM    5  N7  UNL     1      11.908 -13.743   3.201  1.00  0.00    -0.345 N 
ATOM      6  H7  UNL     1      11.529 -13.359   2.335  1.00  0.00     0.167 HD
HETATM    7  C10 UNL     1      11.599 -14.966   3.518  1.00  0.00     0.120 A 
ENDROOT
BRANCH   2   8
HETATM    8  C5  UNL     1      13.435 -15.350   6.731  1.00  0.00     0.121 C 
HETATM    9  N2  UNL     1      14.189 -14.531   7.442  1.00  0.00    -0.308 N 
ATOM     10  H2  UNL     1      14.354 -13.583   7.104  1.00  0.00     0.186 HD
BRANCH   9  11
HETATM   11  N3  UNL     1      14.763 -14.936   8.641  1.00  0.00    -0.262 N 
HETATM   12  C6  UNL     1      14.236 -14.473   9.861  1.00  0.00     0.329 C 
HETATM   13  O2  UNL     1      13.252 -13.700   9.856  1.00  0.00    -0.261 OA
ATOM     14  H3  UNL     1      15.565 -15.566   8.637  1.00  0.00     0.190 HD
BRANCH  12  15
HETATM   15  C7  UNL     1      14.830 -14.891  11.113  1.00  0.00     0.329 C 
HETATM   16  O3  UNL     1      14.357 -14.540  12.217  1.00  0.00    -0.261 OA
HETATM   17  N4  UNL     1      15.992 -15.732  11.133  1.00  0.00    -0.268 N 
ATOM     18  H4  UNL     1      16.396 -16.032  10.245  1.00  0.00     0.190 HD
BRANCH  17  19
HETATM   19  N5  UNL     1      16.586 -16.150  12.311  1.00  0.00    -0.342 N 
ATOM     20  H52 UNL     1      17.241 -15.513  12.764  1.00  0.00     0.176 HD
ATOM     21  H51 UNL     1      16.391 -17.059  12.729  1.00  0.00     0.176 HD
ENDBRANCH  17  19
ENDBRANCH  12  15
ENDBRANCH   9  11
ENDBRANCH   2   8
BRANCH   1  22
HETATM   22  N1  UNL     1      11.796 -16.908   5.125  1.00  0.00    -0.326 N 
HETATM   23  C2  UNL     1      12.542 -18.069   4.900  1.00  0.00     0.218 C 
HETATM   24  C1  UNL     1      12.031 -19.399   5.410  1.00  0.00     0.117 C 
HETATM   25  O1  UNL     1      13.627 -18.058   4.287  1.00  0.00    -0.274 OA
ATOM     26  H1  UNL     1      10.923 -17.032   5.638  1.00  0.00     0.169 HD
ENDBRANCH   1  22
BRANCH   4  27
HETATM   27  N6  UNL     1      13.041 -11.577   3.587  1.00  0.00    -0.098 N 
HETATM   28  O4  UNL     1      13.076 -11.202   2.417  1.00  0.00    -0.531 OA
HETATM   29  O5  UNL     1      13.307 -10.668   4.579  1.00  0.00    -0.531 OA
ENDBRANCH   4  27
TORSDOF 6
ENDMDL
MODEL 2
REMARK VINA RESULT: -7.586222799      1.133      1.164
REMARK  6 active torsions:
REMARK  status: ('A' for Active; 'I' for Inactive)
REMARK       I    between atoms: C2_2  and  N1_4 
REMARK    1  A    between atoms: N1_4  and  C3_6 
REMARK    2  A    between atoms: C4_7  and  C5_8 
REMARK    3  A    between atoms: N2_9  and  N3_11 
REMARK       I    between atoms: N3_11  and  C6_13 
REMARK    4  A    between atoms: C6_13  and  C7_15 
REMARK       I    between atoms: C7_15  and  N4_17 
REMARK    5  A    between atoms: N4_17  and  N5_19 
REMARK    6  A    between atoms: C9_23  and  N6_24 
ROOT
HETATM    1  C3  UNL     1      12.873 -15.169   4.313  1.00  0.00     0.062 A 
HETATM    2  C4  UNL     1      13.514 -14.201   5.000  1.00  0.00     0.013 A 
HETATM    3  C8  UNL     1      13.353 -12.778   4.634  1.00  0.00     0.070 A 
HETATM    4  C9  UNL     1      12.583 -12.421   3.636  1.00  0.00     0.174 A 
HETATM    5  N7  UNL     1      11.921 -13.447   2.929  1.00  0.00    -0.345 N 
ATOM      6  H7  UNL     1      11.318 -13.183   2.149  1.00  0.00     0.167 HD
HETATM    7  C10 UNL     1      12.035 -14.709   3.217  1.00  0.00     0.120 A 
ENDROOT
BRANCH   2   8
HETATM    8  C5  UNL     1      14.372 -14.566   6.110  1.00  0.00     0.121 C 
HETATM    9  N2  UNL     1      13.855 -14.425   7.317  1.00  0.00    -0.308 N 
ATOM     10  H2  UNL     1      12.901 -14.075   7.415  1.00  0.00     0.186 HD
BRANCH   9  11
HETATM   11  N3  UNL     1      14.583 -14.743   8.456  1.00  0.00    -0.262 N 
HETATM   12  C6  UNL     1      14.107 -14.357   9.723  1.00  0.00     0.329 C 
HETATM   13  O2  UNL     1      13.028 -13.730   9.813  1.00  0.00    -0.261 OA
ATOM     14  H3  UNL     1      15.462 -15.254   8.375  1.00  0.00     0.190 HD
BRANCH  12  15
HETATM   15  C7  UNL     1      14.861 -14.685  10.913  1.00  0.00     0.329 C 
HETATM   16  O3  UNL     1      14.374 -14.558  12.059  1.00  0.00    -0.261 OA
HETATM   17  N4  UNL     1      16.206 -15.174  10.821  1.00  0.00    -0.268 N 
ATOM     18  H4  UNL     1      16.626 -15.287   9.898  1.00  0.00     0.190 HD
BRANCH  17  19
HETATM   19  N5  UNL     1      16.957 -15.498  11.938  1.00  0.00    -0.342 N 
ATOM     20  H52 UNL     1      16.670 -15.104  12.834  1.00  0.00     0.176 HD
ATOM     21  H51 UNL     1      17.774 -16.107  11.891  1.00  0.00     0.176 HD
ENDBRANCH  17  19
ENDBRANCH  12  15
ENDBRANCH   9  11
ENDBRANCH   2   8
BRANCH   1  22
HETATM   22  N1  UNL     1      13.034 -16.523   4.670  1.00  0.00    -0.326 N 
HETATM   23  C2  UNL     1      12.284 -17.272   5.580  1.00  0.00     0.218 C 
HETATM   24  C1  UNL     1      12.629 -18.726   5.818  1.00  0.00     0.117 C 
HETATM   25  O1  UNL     1      11.327 -16.789   6.216  1.00  0.00    -0.274 OA
ATOM     26  H1  UNL     1      13.794 -17.019   4.205  1.00  0.00     0.169 HD
ENDBRANCH   1  22
BRANCH   4  27
HETATM   27  N6  UNL     1      12.416 -11.046   3.269  1.00  0.00    -0.098 N 
HETATM   28  O4  UNL     1      13.335 -10.312   2.915  1.00  0.00    -0.531 OA
HETATM   29  O5  UNL     1      11.144 -10.533   3.321  1.00  0.00    -0.531 OA
ENDBRANCH   4  27
TORSDOF 6
ENDMDL
MODEL 3
REMARK VINA RESULT: -7.386238429      2.055      6.914
REMARK  6 active torsions:
REMARK  status: ('A' for Active; 'I' for Inactive)
REMARK       I    between atoms: C2_2  and  N1_4 
REMARK    1  A    between atoms: N1_4  and  C3_6 
REMARK    2  A    between atoms: C4_7  and  C5_8 
REMARK    3  A    between atoms: N2_9  and  N3_11 
REMARK       I    between atoms: N3_11  and  C6_13 
REMARK    4  A    between atoms: C6_13  and  C7_15 
REMARK       I    between atoms: C7_15  and  N4_17 
REMARK    5  A    between atoms: N4_17  and  N5_19 
REMARK    6  A    between atoms: C9_23  and  N6_24 
ROOT
HETATM    1  C3  UNL     1      15.367 -16.742   7.656  1.00  0.00     0.062 A 
HETATM    2  C4  UNL     1      15.199 -15.464   8.051  1.00  0.00     0.013 A 
HETATM    3  C8  UNL     1      15.277 -15.095   9.481  1.00  0.00     0.070 A 
HETATM    4  C9  UNL     1      15.514 -15.998  10.398  1.00  0.00     0.174 A 
HETATM    5  N7  UNL     1      15.688 -17.331   9.967  1.00  0.00    -0.345 N 
ATOM      6  H7  UNL     1      15.872 -18.046  10.672  1.00  0.00     0.167 HD
HETATM    7  C10 UNL     1      15.626 -17.697   8.721  1.00  0.00     0.120 A 
ENDROOT
BRANCH   2   8
HETATM    8  C5  UNL     1      14.936 -14.441   7.058  1.00  0.00     0.121 C 
HETATM    9  N2  UNL     1      13.666 -14.178   6.813  1.00  0.00    -0.308 N 
ATOM     10  H2  UNL     1      12.942 -14.691   7.318  1.00  0.00     0.186 HD
BRANCH   9  11
HETATM   11  N3  UNL     1      13.294 -13.217   5.881  1.00  0.00    -0.262 N 
HETATM   12  C6  UNL     1      12.696 -13.611   4.669  1.00  0.00     0.329 C 
HETATM   13  O2  UNL     1      12.504 -14.826   4.440  1.00  0.00    -0.261 OA
ATOM     14  H3  UNL     1      13.453 -12.229   6.074  1.00  0.00     0.190 HD
BRANCH  12  15
HETATM   15  C7  UNL     1      12.307 -12.614   3.695  1.00  0.00     0.329 C 
HETATM   16  O3  UNL     1      11.156 -12.122   3.678  1.00  0.00    -0.261 OA
HETATM   17  N4  UNL     1      13.235 -12.149   2.705  1.00  0.00    -0.268 N 
ATOM     18  H4  UNL     1      14.179 -12.535   2.698  1.00  0.00     0.190 HD
BRANCH  17  19
HETATM   19  N5  UNL     1      12.896 -11.198   1.758  1.00  0.00    -0.342 N 
ATOM     20  H52 UNL     1      13.162 -10.231   1.942  1.00  0.00     0.176 HD
ATOM     21  H51 UNL     1      12.398 -11.432   0.900  1.00  0.00     0.176 HD
ENDBRANCH  17  19
ENDBRANCH  12  15
ENDBRANCH   9  11
ENDBRANCH   2   8
BRANCH   1  22
HETATM   22  N1  UNL     1      15.290 -17.083   6.291  1.00  0.00    -0.326 N 
HETATM   23  C2  UNL     1      14.205 -17.624   5.595  1.00  0.00     0.218 C 
HETATM   24  C1  UNL     1      14.334 -17.919   4.117  1.00  0.00     0.117 C 
HETATM   25  O1  UNL     1      13.117 -17.878   6.146  1.00  0.00    -0.274 OA
ATOM     26  H1  UNL     1      16.132 -16.914   5.741  1.00  0.00     0.169 HD
ENDBRANCH   1  22
BRANCH   4  27
HETATM   27  N6  UNL     1      15.594 -15.658  11.787  1.00  0.00    -0.098 N 
HETATM   28  O4  UNL     1      16.387 -16.165  12.576  1.00  0.00    -0.531 OA
HETATM   29  O5  UNL     1      14.722 -14.704  12.251  1.00  0.00    -0.531 OA
ENDBRANCH   4  27
TORSDOF 6
ENDMDL
MODEL 4
REMARK VINA RESULT: -7.363417461      2.025      6.939
REMARK  6 active torsions:
REMARK  status: ('A' for Active; 'I' for Inactive)
REMARK       I    between atoms: C2_2  and  N1_4 
REMARK    1  A    between atoms: N1_4  and  C3_6 
REMARK    2  A    between atoms: C4_7  and  C5_8 
REMARK    3  A    between atoms: N2_9  and  N3_11 
REMARK       I    between atoms: N3_11  and  C6_13 
REMARK    4  A    between atoms: C6_13  and  C7_15 
REMARK       I    between atoms: C7_15  and  N4_17 
REMARK    5  A    between atoms: N4_17  and  N5_19 
REMARK    6  A    between atoms: C9_23  and  N6_24 
ROOT
HETATM    1  C3  UNL     1      15.276 -16.316   7.481  1.00  0.00     0.062 A 
HETATM    2  C4  UNL     1      15.114 -15.022   7.825  1.00  0.00     0.013 A 
HETATM    3  C8  UNL     1      15.177 -14.600   9.241  1.00  0.00     0.070 A 
HETATM    4  C9  UNL     1      15.392 -15.470  10.196  1.00  0.00     0.174 A 
HETATM    5  N7  UNL     1      15.559 -16.819   9.818  1.00  0.00    -0.345 N 
ATOM      6  H7  UNL     1      15.727 -17.508  10.551  1.00  0.00     0.167 HD
HETATM    7  C10 UNL     1      15.511 -17.233   8.586  1.00  0.00     0.120 A 
ENDROOT
BRANCH   2   8
HETATM    8  C5  UNL     1      14.876 -14.036   6.791  1.00  0.00     0.121 C 
HETATM    9  N2  UNL     1      13.612 -13.738   6.548  1.00  0.00    -0.308 N 
ATOM     10  H2  UNL     1      12.878 -14.202   7.084  1.00  0.00     0.186 HD
BRANCH   9  11
HETATM   11  N3  UNL     1      13.262 -12.807   5.579  1.00  0.00    -0.262 N 
HETATM   12  C6  UNL     1      12.705 -13.239   4.361  1.00  0.00     0.329 C 
HETATM   13  O2  UNL     1      12.529 -14.461   4.161  1.00  0.00    -0.261 OA
ATOM     14  H3  UNL     1      13.409 -11.812   5.749  1.00  0.00     0.190 HD
BRANCH  12  15
HETATM   15  C7  UNL     1      12.339 -12.273   3.347  1.00  0.00     0.329 C 
HETATM   16  O3  UNL     1      13.169 -11.844   2.515  1.00  0.00    -0.261 OA
HETATM   17  N4  UNL     1      10.999 -11.770   3.259  1.00  0.00    -0.268 N 
ATOM     18  H4  UNL     1      10.304 -12.105   3.926  1.00  0.00     0.190 HD
BRANCH  17  19
HETATM   19  N5  UNL     1      10.614 -10.846   2.303  1.00  0.00    -0.342 N 
ATOM     20  H52 UNL     1      11.272 -10.103   2.069  1.00  0.00     0.176 HD
ATOM     21  H51 UNL     1       9.708 -10.887   1.836  1.00  0.00     0.176 HD
ENDBRANCH  17  19
ENDBRANCH  12  15
ENDBRANCH   9  11
ENDBRANCH   2   8
BRANCH   1  22
HETATM   22  N1  UNL     1      15.214 -16.708   6.129  1.00  0.00    -0.326 N 
HETATM   23  C2  UNL     1      14.136 -17.272   5.441  1.00  0.00     0.218 C 
HETATM   24  C1  UNL     1      14.283 -17.623   3.977  1.00  0.00     0.117 C 
HETATM   25  O1  UNL     1      13.041 -17.503   5.989  1.00  0.00    -0.274 OA
ATOM     26  H1  UNL     1      16.063 -16.562   5.584  1.00  0.00     0.169 HD
ENDBRANCH   1  22
BRANCH   4  27
HETATM   27  N6  UNL     1      15.456 -15.077  11.572  1.00  0.00    -0.098 N 
HETATM   28  O4  UNL     1      14.489 -14.688  12.222  1.00  0.00    -0.531 OA
HETATM   29  O5  UNL     1      16.680 -15.146  12.188  1.00  0.00    -0.531 OA
ENDBRANCH   4  27
TORSDOF 6
ENDMDL
MODEL 5
REMARK VINA RESULT: -7.161371685      1.793      1.793
REMARK  6 active torsions:
REMARK  status: ('A' for Active; 'I' for Inactive)
REMARK       I    between atoms: C2_2  and  N1_4 
REMARK    1  A    between atoms: N1_4  and  C3_6 
REMARK    2  A    between atoms: C4_7  and  C5_8 
REMARK    3  A    between atoms: N2_9  and  N3_11 
REMARK       I    between atoms: N3_11  and  C6_13 
REMARK    4  A    between atoms: C6_13  and  C7_15 
REMARK       I    between atoms: C7_15  and  N4_17 
REMARK    5  A    between atoms: N4_17  and  N5_19 
REMARK    6  A    between atoms: C9_23  and  N6_24 
ROOT
HETATM    1  C3  UNL     1      12.007 -15.502   4.706  1.00  0.00     0.062 A 
HETATM    2  C4  UNL     1      12.590 -14.528   5.435  1.00  0.00     0.013 A 
HETATM    3  C8  UNL     1      12.793 -13.177   4.870  1.00  0.00     0.070 A 
HETATM    4  C9  UNL     1      12.413 -12.891   3.650  1.00  0.00     0.174 A 
HETATM    5  N7  UNL     1      11.805 -13.923   2.902  1.00  0.00    -0.345 N 
ATOM      6  H7  UNL     1      11.504 -13.715   1.949  1.00  0.00     0.167 HD
HETATM    7  C10 UNL     1      11.608 -15.123   3.360  1.00  0.00     0.120 A 
ENDROOT
BRANCH   2   8
HETATM    8  C5  UNL     1      13.020 -14.813   6.789  1.00  0.00     0.121 C 
HETATM    9  N2  UNL     1      14.300 -15.098   6.947  1.00  0.00    -0.308 N 
ATOM     10  H2  UNL     1      14.915 -15.105   6.132  1.00  0.00     0.186 HD
BRANCH   9  11
HETATM   11  N3  UNL     1      14.827 -15.388   8.199  1.00  0.00    -0.262 N 
HETATM   12  C6  UNL     1      15.387 -16.655   8.447  1.00  0.00     0.329 C 
HETATM   13  O2  UNL     1      15.406 -17.512   7.535  1.00  0.00    -0.261 OA
ATOM     14  H3  UNL     1      14.808 -14.685   8.937  1.00  0.00     0.190 HD
BRANCH  12  15
HETATM   15  C7  UNL     1      15.937 -16.963   9.749  1.00  0.00     0.329 C 
HETATM   16  O3  UNL     1      16.936 -17.705   9.885  1.00  0.00    -0.261 OA
HETATM   17  N4  UNL     1      15.352 -16.423  10.942  1.00  0.00    -0.268 N 
ATOM     18  H4  UNL     1      14.538 -15.815  10.858  1.00  0.00     0.190 HD
BRANCH  17  19
HETATM   19  N5  UNL     1      15.852 -16.696  12.204  1.00  0.00    -0.342 N 
ATOM     20  H52 UNL     1      16.103 -15.905  12.796  1.00  0.00     0.176 HD
ATOM     21  H51 UNL     1      15.975 -17.648  12.549  1.00  0.00     0.176 HD
ENDBRANCH  17  19
ENDBRANCH  12  15
ENDBRANCH   9  11
ENDBRANCH   2   8
BRANCH   1  22
HETATM   22  N1  UNL     1      11.818 -16.786   5.254  1.00  0.00    -0.326 N 
HETATM   23  C2  UNL     1      12.612 -17.924   5.086  1.00  0.00     0.218 C 
HETATM   24  C1  UNL     1      12.225 -19.217   5.770  1.00  0.00     0.117 C 
HETATM   25  O1  UNL     1      13.643 -17.922   4.385  1.00  0.00    -0.274 OA
ATOM     26  H1  UNL     1      10.997 -16.900   5.849  1.00  0.00     0.169 HD
ENDBRANCH   1  22
BRANCH   4  27
HETATM   27  N6  UNL     1      12.603 -11.588   3.087  1.00  0.00    -0.098 N 
HETATM   28  O4  UNL     1      13.461 -11.318   2.251  1.00  0.00    -0.531 OA
HETATM   29  O5  UNL     1      11.766 -10.589   3.520  1.00  0.00    -0.531 OA
ENDBRANCH   4  27
TORSDOF 6
ENDMDL
