MODEL 1
REMARK VINA RESULT: -6.211586248      0.000      0.000
REMARK  7 active torsions:
REMARK  status: ('A' for Active; 'I' for Inactive)
REMARK    1  A    between atoms: C2_2  and  C3_3 
REMARK    2  A    between atoms: C3_3  and  N1_4 
REMARK    3  A    between atoms: N5_22  and  C12_23 
REMARK    4  A    between atoms: C12_23  and  C13_24 
REMARK    5  A    between atoms: C13_24  and  O1_26 
REMARK    6  A    between atoms: C13_24  and  C15_28 
REMARK    7  A    between atoms: C15_28  and  O2_29 
ROOT
HETATM    1  N1  UNL     1      15.022 -15.897   6.287  1.00  0.00    -0.320 N 
HETATM    2  C4  UNL     1      14.858 -16.786   7.370  1.00  0.00     0.170 C 
HETATM    3  C5  UNL     1      16.157 -17.566   7.570  1.00  0.00     0.253 C 
HETATM    4  N2  UNL     1      16.175 -17.991   8.956  1.00  0.00    -0.072 N 
ATOM      5  H21 UNL     1      16.484 -18.959   9.040  1.00  0.00     0.277 HD
ATOM      6  H22 UNL     1      15.228 -18.090   9.323  1.00  0.00     0.277 HD
HETATM    7  C6  UNL     1      16.968 -17.118   9.789  1.00  0.00     0.259 C 
HETATM    8  C7  UNL     1      16.524 -17.156  11.235  1.00  0.00     0.259 C 
HETATM    9  N3  UNL     1      15.206 -16.581  11.408  1.00  0.00    -0.072 N 
ATOM     10  H31 UNL     1      14.719 -17.011  12.194  1.00  0.00     0.277 HD
ATOM     11  H32 UNL     1      14.582 -16.864  10.653  1.00  0.00     0.277 HD
HETATM   12  C8  UNL     1      15.240 -15.151  11.542  1.00  0.00     0.259 C 
HETATM   13  C9  UNL     1      14.043 -14.481  10.863  1.00  0.00     0.259 C 
HETATM   14  N4  UNL     1      14.471 -13.510   9.887  1.00  0.00    -0.072 N 
ATOM     15  H41 UNL     1      15.488 -13.484   9.819  1.00  0.00     0.277 HD
ATOM     16  H42 UNL     1      14.302 -12.560  10.219  1.00  0.00     0.277 HD
HETATM   17  C10 UNL     1      13.867 -13.718   8.577  1.00  0.00     0.248 C 
HETATM   18  C11 UNL     1      14.940 -13.956   7.522  1.00  0.00     0.141 C 
HETATM   19  N5  UNL     1      14.447 -14.662   6.367  1.00  0.00    -0.225 NA
ENDROOT
BRANCH  19  20
HETATM   20  C12 UNL     1      14.525 -13.977   5.146  1.00  0.00     0.153 C 
BRANCH  20  21
HETATM   21  C13 UNL     1      13.297 -13.277   4.652  1.00  0.00     0.088 C 
HETATM   22  C14 UNL     1      13.697 -11.789   4.540  1.00  0.00     0.049 C 
BRANCH  21  23
HETATM   23  O1  UNL     1      12.240 -13.258   5.558  1.00  0.00    -0.387 OA
ATOM     24  H1  UNL     1      11.394 -13.467   5.180  1.00  0.00     0.210 HD
ENDBRANCH  21  23
BRANCH  21  25
HETATM   25  C15 UNL     1      12.891 -13.686   3.268  1.00  0.00     0.202 C 
BRANCH  25  26
HETATM   26  O2  UNL     1      11.675 -13.092   2.887  1.00  0.00    -0.398 OA
ATOM     27  H2  UNL     1      11.658 -12.892   1.958  1.00  0.00     0.209 HD
ENDBRANCH  25  26
ENDBRANCH  21  25
ENDBRANCH  20  21
ENDBRANCH  19  20
BRANCH   1  28
HETATM   28  C3  UNL     1      15.200 -16.546   5.056  1.00  0.00     0.104 C 
BRANCH  28  29
HETATM   29  C2  UNL     1      14.217 -17.602   4.747  1.00  0.00     0.008 C 
HETATM   30  C1  UNL     1      12.997 -17.282   4.362  1.00  0.00     0.013 C 
ENDBRANCH  28  29
ENDBRANCH   1  28
TORSDOF 7
ENDMDL
MODEL 2
REMARK VINA RESULT: -6.081266501      2.211      2.722
REMARK  7 active torsions:
REMARK  status: ('A' for Active; 'I' for Inactive)
REMARK    1  A    between atoms: C2_2  and  C3_3 
REMARK    2  A    between atoms: C3_3  and  N1_4 
REMARK    3  A    between atoms: N5_22  and  C12_23 
REMARK    4  A    between atoms: C12_23  and  C13_24 
REMARK    5  A    between atoms: C13_24  and  O1_26 
REMARK    6  A    between atoms: C13_24  and  C15_28 
REMARK    7  A    between atoms: C15_28  and  O2_29 
ROOT
HETATM    1  N1  UNL     1      15.828 -16.012   6.118  1.00  0.00    -0.320 N 
HETATM    2  C4  UNL     1      16.408 -16.923   7.025  1.00  0.00     0.170 C 
HETATM    3  C5  UNL     1      17.585 -17.620   6.342  1.00  0.00     0.253 C 
HETATM    4  N2  UNL     1      18.475 -18.061   7.398  1.00  0.00    -0.072 N 
ATOM      5  H21 UNL     1      18.810 -19.008   7.225  1.00  0.00     0.277 HD
ATOM      6  H22 UNL     1      17.963 -18.225   8.265  1.00  0.00     0.277 HD
HETATM    7  C6  UNL     1      19.575 -17.150   7.606  1.00  0.00     0.259 C 
HETATM    8  C7  UNL     1      20.123 -17.235   9.014  1.00  0.00     0.259 C 
HETATM    9  N3  UNL     1      19.173 -16.748   9.991  1.00  0.00    -0.072 N 
ATOM     10  H31 UNL     1      19.295 -17.219  10.888  1.00  0.00     0.277 HD
ATOM     11  H32 UNL     1      18.228 -17.061   9.770  1.00  0.00     0.277 HD
HETATM   12  C8  UNL     1      19.220 -15.321  10.147  1.00  0.00     0.259 C 
HETATM   13  C9  UNL     1      17.833 -14.721  10.386  1.00  0.00     0.259 C 
HETATM   14  N4  UNL     1      17.523 -13.711   9.404  1.00  0.00    -0.072 N 
ATOM     15  H41 UNL     1      18.278 -13.619   8.724  1.00  0.00     0.277 HD
ATOM     16  H42 UNL     1      17.556 -12.779   9.816  1.00  0.00     0.277 HD
HETATM   17  C10 UNL     1      16.248 -13.941   8.737  1.00  0.00     0.248 C 
HETATM   18  C11 UNL     1      16.447 -14.095   7.235  1.00  0.00     0.141 C 
HETATM   19  N5  UNL     1      15.375 -14.818   6.597  1.00  0.00    -0.225 NA
ENDROOT
BRANCH  19  20
HETATM   20  C12 UNL     1      14.651 -14.113   5.624  1.00  0.00     0.153 C 
BRANCH  20  21
HETATM   21  C13 UNL     1      13.361 -13.472   6.034  1.00  0.00     0.088 C 
HETATM   22  C14 UNL     1      12.493 -13.458   4.755  1.00  0.00     0.049 C 
BRANCH  21  23
HETATM   23  O1  UNL     1      13.466 -12.124   6.365  1.00  0.00    -0.387 OA
ATOM     24  H1  UNL     1      14.224 -11.686   5.997  1.00  0.00     0.210 HD
ENDBRANCH  21  23
BRANCH  21  25
HETATM   25  C15 UNL     1      12.585 -14.275   7.034  1.00  0.00     0.202 C 
BRANCH  25  26
HETATM   26  O2  UNL     1      11.818 -13.453   7.877  1.00  0.00    -0.398 OA
ATOM     27  H2  UNL     1      11.810 -13.778   8.770  1.00  0.00     0.209 HD
ENDBRANCH  25  26
ENDBRANCH  21  25
ENDBRANCH  20  21
ENDBRANCH  19  20
BRANCH   1  28
HETATM   28  C3  UNL     1      15.234 -16.632   5.009  1.00  0.00     0.104 C 
BRANCH  28  29
HETATM   29  C2  UNL     1      14.148 -17.581   5.319  1.00  0.00     0.008 C 
HETATM   30  C1  UNL     1      12.991 -17.493   4.693  1.00  0.00     0.013 C 
ENDBRANCH  28  29
ENDBRANCH   1  28
TORSDOF 7
ENDMDL
MODEL 3
REMARK VINA RESULT: -6.055213801      1.476      1.725
REMARK  7 active torsions:
REMARK  status: ('A' for Active; 'I' for Inactive)
REMARK    1  A    between atoms: C2_2  and  C3_3 
REMARK    2  A    between atoms: C3_3  and  N1_4 
REMARK    3  A    between atoms: N5_22  and  C12_23 
REMARK    4  A    between atoms: C12_23  and  C13_24 
REMARK    5  A    between atoms: C13_24  and  O1_26 
REMARK    6  A    between atoms: C13_24  and  C15_28 
REMARK    7  A    between atoms: C15_28  and  O2_29 
ROOT
HETATM    1  N1  UNL     1      15.567 -14.450   5.574  1.00  0.00    -0.320 N 
HETATM    2  C4  UNL     1      15.318 -15.583   6.377  1.00  0.00     0.170 C 
HETATM    3  C5  UNL     1      16.614 -16.382   6.518  1.00  0.00     0.253 C 
HETATM    4  N2  UNL     1      16.499 -17.142   7.747  1.00  0.00    -0.072 N 
ATOM      5  H21 UNL     1      16.828 -18.099   7.620  1.00  0.00     0.277 HD
ATOM      6  H22 UNL     1      15.522 -17.334   7.971  1.00  0.00     0.277 HD
HETATM    7  C6  UNL     1      17.171 -16.503   8.853  1.00  0.00     0.259 C 
HETATM    8  C7  UNL     1      16.579 -16.906  10.186  1.00  0.00     0.259 C 
HETATM    9  N3  UNL     1      15.233 -16.398  10.351  1.00  0.00    -0.072 N 
ATOM     10  H31 UNL     1      14.680 -17.015  10.946  1.00  0.00     0.277 HD
ATOM     11  H32 UNL     1      14.701 -16.485   9.486  1.00  0.00     0.277 HD
HETATM   12  C8  UNL     1      15.206 -15.048  10.840  1.00  0.00     0.259 C 
HETATM   13  C9  UNL     1      14.067 -14.234  10.222  1.00  0.00     0.259 C 
HETATM   14  N4  UNL     1      14.564 -13.047   9.572  1.00  0.00    -0.072 N 
ATOM     15  H41 UNL     1      15.581 -13.000   9.626  1.00  0.00     0.277 HD
ATOM     16  H42 UNL     1      14.332 -12.212  10.110  1.00  0.00     0.277 HD
HETATM   17  C10 UNL     1      14.109 -12.921   8.194  1.00  0.00     0.248 C 
HETATM   18  C11 UNL     1      15.294 -12.882   7.238  1.00  0.00     0.141 C 
HETATM   19  N5  UNL     1      14.948 -13.277   5.896  1.00  0.00    -0.225 NA
ENDROOT
BRANCH  19  20
HETATM   20  C12 UNL     1      15.132 -12.306   4.900  1.00  0.00     0.153 C 
BRANCH  20  21
HETATM   21  C13 UNL     1      13.943 -11.505   4.471  1.00  0.00     0.088 C 
HETATM   22  C14 UNL     1      14.426 -10.687   3.253  1.00  0.00     0.049 C 
BRANCH  21  23
HETATM   23  O1  UNL     1      13.548 -10.526   5.379  1.00  0.00    -0.387 OA
ATOM     24  H1  UNL     1      12.798 -10.013   5.102  1.00  0.00     0.210 HD
ENDBRANCH  21  23
BRANCH  21  25
HETATM   25  C15 UNL     1      12.808 -12.343   3.964  1.00  0.00     0.202 C 
BRANCH  25  26
HETATM   26  O2  UNL     1      12.264 -13.148   4.979  1.00  0.00    -0.398 OA
ATOM     27  H2  UNL     1      11.495 -12.748   5.370  1.00  0.00     0.209 HD
ENDBRANCH  25  26
ENDBRANCH  21  25
ENDBRANCH  20  21
ENDBRANCH  19  20
BRANCH   1  28
HETATM   28  C3  UNL     1      15.894 -14.768   4.248  1.00  0.00     0.104 C 
BRANCH  28  29
HETATM   29  C2  UNL     1      14.844 -15.469   3.485  1.00  0.00     0.008 C 
HETATM   30  C1  UNL     1      15.159 -16.474   2.692  1.00  0.00     0.013 C 
ENDBRANCH  28  29
ENDBRANCH   1  28
TORSDOF 7
ENDMDL
MODEL 4
REMARK VINA RESULT: -6.008102455      2.111      3.908
REMARK  7 active torsions:
REMARK  status: ('A' for Active; 'I' for Inactive)
REMARK    1  A    between atoms: C2_2  and  C3_3 
REMARK    2  A    between atoms: C3_3  and  N1_4 
REMARK    3  A    between atoms: N5_22  and  C12_23 
REMARK    4  A    between atoms: C12_23  and  C13_24 
REMARK    5  A    between atoms: C13_24  and  O1_26 
REMARK    6  A    between atoms: C13_24  and  C15_28 
REMARK    7  A    between atoms: C15_28  and  O2_29 
ROOT
HETATM    1  N1  UNL     1      14.094 -15.006   7.077  1.00  0.00    -0.320 N 
HETATM    2  C4  UNL     1      14.806 -14.394   8.130  1.00  0.00     0.170 C 
HETATM    3  C5  UNL     1      13.855 -14.170   9.305  1.00  0.00     0.253 C 
HETATM    4  N2  UNL     1      14.678 -14.113  10.497  1.00  0.00    -0.072 N 
ATOM      5  H21 UNL     1      14.383 -13.355  11.112  1.00  0.00     0.277 HD
ATOM      6  H22 UNL     1      15.620 -13.788  10.279  1.00  0.00     0.277 HD
HETATM    7  C6  UNL     1      14.711 -15.372  11.203  1.00  0.00     0.259 C 
HETATM    8  C7  UNL     1      15.969 -15.525  12.031  1.00  0.00     0.259 C 
HETATM    9  N3  UNL     1      17.148 -15.644  11.199  1.00  0.00    -0.072 N 
ATOM     10  H31 UNL     1      17.970 -15.270  11.674  1.00  0.00     0.277 HD
ATOM     11  H32 UNL     1      17.106 -14.998  10.411  1.00  0.00     0.277 HD
HETATM   12  C8  UNL     1      17.377 -16.989  10.752  1.00  0.00     0.259 C 
HETATM   13  C9  UNL     1      17.931 -17.036   9.326  1.00  0.00     0.259 C 
HETATM   14  N4  UNL     1      17.097 -17.838   8.466  1.00  0.00    -0.072 N 
ATOM     15  H41 UNL     1      16.284 -18.190   8.972  1.00  0.00     0.277 HD
ATOM     16  H42 UNL     1      17.549 -18.724   8.242  1.00  0.00     0.277 HD
HETATM   17  C10 UNL     1      16.692 -17.138   7.254  1.00  0.00     0.248 C 
HETATM   18  C11 UNL     1      15.175 -17.038   7.171  1.00  0.00     0.141 C 
HETATM   19  N5  UNL     1      14.727 -15.956   6.330  1.00  0.00    -0.225 NA
ENDROOT
BRANCH  19  20
HETATM   20  C12 UNL     1      13.968 -16.322   5.209  1.00  0.00     0.153 C 
BRANCH  20  21
HETATM   21  C13 UNL     1      14.649 -16.348   3.875  1.00  0.00     0.088 C 
HETATM   22  C14 UNL     1      13.669 -15.649   2.907  1.00  0.00     0.049 C 
BRANCH  21  23
HETATM   23  O1  UNL     1      14.792 -17.619   3.325  1.00  0.00    -0.387 OA
ATOM     24  H1  UNL     1      14.478 -17.699   2.432  1.00  0.00     0.210 HD
ENDBRANCH  21  23
BRANCH  21  25
HETATM   25  C15 UNL     1      15.906 -15.532   3.830  1.00  0.00     0.202 C 
BRANCH  25  26
HETATM   26  O2  UNL     1      16.951 -16.225   3.195  1.00  0.00    -0.398 OA
ATOM     27  H2  UNL     1      17.708 -15.667   3.055  1.00  0.00     0.209 HD
ENDBRANCH  25  26
ENDBRANCH  21  25
ENDBRANCH  20  21
ENDBRANCH  19  20
BRANCH   1  28
HETATM   28  C3  UNL     1      13.095 -14.188   6.530  1.00  0.00     0.104 C 
BRANCH  28  29
HETATM   29  C2  UNL     1      13.535 -12.843   6.112  1.00  0.00     0.008 C 
HETATM   30  C1  UNL     1      13.664 -12.556   4.831  1.00  0.00     0.013 C 
ENDBRANCH  28  29
ENDBRANCH   1  28
TORSDOF 7
ENDMDL
MODEL 5
REMARK VINA RESULT: -5.923723269      1.918      2.453
REMARK  7 active torsions:
REMARK  status: ('A' for Active; 'I' for Inactive)
REMARK    1  A    between atoms: C2_2  and  C3_3 
REMARK    2  A    between atoms: C3_3  and  N1_4 
REMARK    3  A    between atoms: N5_22  and  C12_23 
REMARK    4  A    between atoms: C12_23  and  C13_24 
REMARK    5  A    between atoms: C13_24  and  O1_26 
REMARK    6  A    between atoms: C13_24  and  C15_28 
REMARK    7  A    between atoms: C15_28  and  O2_29 
ROOT
HETATM    1  N1  UNL     1      13.755 -14.886   4.715  1.00  0.00    -0.320 N 
HETATM    2  C4  UNL     1      13.596 -15.688   5.865  1.00  0.00     0.170 C 
HETATM    3  C5  UNL     1      14.296 -17.028   5.632  1.00  0.00     0.253 C 
HETATM    4  N2  UNL     1      14.625 -17.555   6.942  1.00  0.00    -0.072 N 
ATOM      5  H21 UNL     1      14.414 -18.550   7.002  1.00  0.00     0.277 HD
ATOM      6  H22 UNL     1      13.977 -17.209   7.651  1.00  0.00     0.277 HD
HETATM    7  C6  UNL     1      15.994 -17.289   7.313  1.00  0.00     0.259 C 
HETATM    8  C7  UNL     1      16.180 -17.260   8.815  1.00  0.00     0.259 C 
HETATM    9  N3  UNL     1      15.507 -16.129   9.417  1.00  0.00    -0.072 N 
ATOM     10  H31 UNL     1      15.212 -16.343  10.370  1.00  0.00     0.277 HD
ATOM     11  H32 UNL     1      14.592 -15.978   8.992  1.00  0.00     0.277 HD
HETATM   12  C8  UNL     1      16.297 -14.930   9.379  1.00  0.00     0.259 C 
HETATM   13  C9  UNL     1      15.441 -13.683   9.144  1.00  0.00     0.259 C 
HETATM   14  N4  UNL     1      15.887 -12.953   7.983  1.00  0.00    -0.072 N 
ATOM     15  H41 UNL     1      16.666 -13.430   7.530  1.00  0.00     0.277 HD
ATOM     16  H42 UNL     1      16.356 -12.089   8.254  1.00  0.00     0.277 HD
HETATM   17  C10 UNL     1      14.815 -12.688   7.032  1.00  0.00     0.248 C 
HETATM   18  C11 UNL     1      15.131 -13.310   5.679  1.00  0.00     0.141 C 
HETATM   19  N5  UNL     1      13.955 -13.546   4.880  1.00  0.00    -0.225 NA
ENDROOT
BRANCH  19  20
HETATM   20  C12 UNL     1      13.893 -12.861   3.657  1.00  0.00     0.153 C 
BRANCH  20  21
HETATM   21  C13 UNL     1      13.068 -11.613   3.592  1.00  0.00     0.088 C 
HETATM   22  C14 UNL     1      13.669 -10.793   2.428  1.00  0.00     0.049 C 
BRANCH  21  23
HETATM   23  O1  UNL     1      13.212 -10.768   4.688  1.00  0.00    -0.387 OA
ATOM     24  H1  UNL     1      12.444 -10.243   4.885  1.00  0.00     0.210 HD
ENDBRANCH  21  23
BRANCH  21  25
HETATM   25  C15 UNL     1      11.639 -11.859   3.210  1.00  0.00     0.202 C 
BRANCH  25  26
HETATM   26  O2  UNL     1      10.887 -10.672   3.221  1.00  0.00    -0.398 OA
ATOM     27  H2  UNL     1      10.597 -10.448   4.098  1.00  0.00     0.209 HD
ENDBRANCH  25  26
ENDBRANCH  21  25
ENDBRANCH  20  21
ENDBRANCH  19  20
BRANCH   1  28
HETATM   28  C3  UNL     1      13.102 -15.397   3.584  1.00  0.00     0.104 C 
BRANCH  28  29
HETATM   29  C2  UNL     1      11.699 -15.807   3.792  1.00  0.00     0.008 C 
HETATM   30  C1  UNL     1      10.760 -15.403   2.960  1.00  0.00     0.013 C 
ENDBRANCH  28  29
ENDBRANCH   1  28
TORSDOF 7
ENDMDL
