MODEL 1
REMARK VINA RESULT: -6.264672436      0.000      0.000
REMARK  7 active torsions:
REMARK  status: ('A' for Active; 'I' for Inactive)
REMARK    1  A    between atoms: C4_4  and  N1_5 
REMARK    2  A    between atoms: N1_5  and  C5_7 
REMARK    3  A    between atoms: C5_7  and  C6_8 
REMARK    4  A    between atoms: C6_8  and  N2_9 
REMARK    5  A    between atoms: C8_14  and  N3_15 
REMARK    6  A    between atoms: N3_15  and  N4_17 
REMARK       I    between atoms: N4_17  and  C9_19 
REMARK    7  A    between atoms: C10_24  and  N6_25 
ROOT
HETATM    1  C1  UNL     1      12.029 -19.314   5.031  1.00  0.00     0.068 C 
HETATM    2  C2  UNL     1      12.489 -17.912   5.271  1.00  0.00     0.009 A 
HETATM    3  C3  UNL     1      13.376 -17.665   6.308  1.00  0.00     0.054 A 
HETATM    4  C4  UNL     1      13.821 -16.392   6.559  1.00  0.00     0.047 A 
HETATM    5  C7  UNL     1      13.355 -15.366   5.745  1.00  0.00     0.081 A 
HETATM    6  C8  UNL     1      13.762 -14.076   5.946  1.00  0.00     0.152 A 
HETATM    7  N5  UNL     1      13.310 -13.074   5.154  1.00  0.00    -0.174 N 
ATOM      8  H5  UNL     1      13.628 -12.120   5.325  1.00  0.00     0.186 HD
HETATM    9  C10 UNL     1      12.450 -13.312   4.149  1.00  0.00     0.682 A 
HETATM   10  N7  UNL     1      12.060 -14.585   3.965  1.00  0.00    -0.175 N 
ATOM     11  H7  UNL     1      11.407 -14.778   3.204  1.00  0.00     0.186 HD
HETATM   12  C13 UNL     1      12.470 -15.614   4.711  1.00  0.00     0.137 A 
HETATM   13  N8  UNL     1      12.067 -16.885   4.510  1.00  0.00    -0.345 N 
ATOM     14  H8  UNL     1      11.415 -17.077   3.748  1.00  0.00     0.167 HD
ENDROOT
BRANCH   4  15
HETATM   15  N1  UNL     1      14.643 -16.082   7.501  1.00  0.00    -0.387 N 
ATOM     16  H1  UNL     1      14.712 -15.131   7.863  1.00  0.00     0.159 HD
BRANCH  15  17
HETATM   17  C5  UNL     1      15.476 -17.170   8.028  1.00  0.00     0.147 C 
BRANCH  17  18
HETATM   18  C6  UNL     1      16.308 -16.680   9.195  1.00  0.00     0.249 C 
BRANCH  18  19
HETATM   19  N2  UNL     1      15.472 -16.066  10.197  1.00  0.00    -0.078 N 
ATOM     20  H23 UNL     1      14.854 -15.363   9.794  1.00  0.00     0.274 HD
ATOM     21  H22 UNL     1      14.764 -16.712  10.547  1.00  0.00     0.274 HD
ATOM     22  H21 UNL     1      16.038 -15.681  10.954  1.00  0.00     0.274 HD
ENDBRANCH  18  19
ENDBRANCH  17  18
ENDBRANCH  15  17
ENDBRANCH   4  15
BRANCH   6  23
HETATM   23  N3  UNL     1      14.592 -13.850   6.918  1.00  0.00    -0.279 N 
ATOM     24  H3  UNL     1      15.442 -14.409   6.989  1.00  0.00     0.189 HD
BRANCH  23  25
HETATM   25  N4  UNL     1      14.344 -12.844   7.879  1.00  0.00    -0.242 N 
HETATM   26  C9  UNL     1      13.610 -13.128   9.057  1.00  0.00     0.303 C 
HETATM   27  O1  UNL     1      13.148 -14.273   9.307  1.00  0.00    -0.628 OA
HETATM   28  O2  UNL     1      13.378 -12.127   9.983  1.00  0.00    -0.628 OA
ATOM     29  H4  UNL     1      14.697 -11.900   7.721  1.00  0.00     0.193 HD
ENDBRANCH  23  25
ENDBRANCH   6  23
BRANCH   9  30
HETATM   30  N6  UNL     1      11.978 -12.235   3.314  1.00  0.00    -0.226 N 
HETATM   31  C11 UNL     1      12.945 -11.397   2.665  1.00  0.00     0.168 C 
HETATM   32  C12 UNL     1      10.579 -11.990   3.124  1.00  0.00     0.168 C 
ENDBRANCH   9  30
TORSDOF 7
ENDMDL
MODEL 2
REMARK VINA RESULT: -6.257836850      2.839      6.721
REMARK  7 active torsions:
REMARK  status: ('A' for Active; 'I' for Inactive)
REMARK    1  A    between atoms: C4_4  and  N1_5 
REMARK    2  A    between atoms: N1_5  and  C5_7 
REMARK    3  A    between atoms: C5_7  and  C6_8 
REMARK    4  A    between atoms: C6_8  and  N2_9 
REMARK    5  A    between atoms: C8_14  and  N3_15 
REMARK    6  A    between atoms: N3_15  and  N4_17 
REMARK       I    between atoms: N4_17  and  C9_19 
REMARK    7  A    between atoms: C10_24  and  N6_25 
ROOT
HETATM    1  C1  UNL     1      17.776 -10.038   5.132  1.00  0.00     0.068 C 
HETATM    2  C2  UNL     1      16.777 -10.984   5.716  1.00  0.00     0.009 A 
HETATM    3  C3  UNL     1      15.589 -11.208   5.038  1.00  0.00     0.054 A 
HETATM    4  C4  UNL     1      14.648 -12.071   5.542  1.00  0.00     0.047 A 
HETATM    5  C7  UNL     1      14.925 -12.706   6.747  1.00  0.00     0.081 A 
HETATM    6  C8  UNL     1      14.026 -13.575   7.299  1.00  0.00     0.152 A 
HETATM    7  N5  UNL     1      14.292 -14.196   8.474  1.00  0.00    -0.174 N 
ATOM      8  H5  UNL     1      13.606 -14.840   8.866  1.00  0.00     0.186 HD
HETATM    9  C10 UNL     1      15.444 -13.979   9.133  1.00  0.00     0.682 A 
HETATM   10  N7  UNL     1      16.316 -13.122   8.577  1.00  0.00    -0.175 N 
ATOM     11  H7  UNL     1      17.194 -12.949   9.068  1.00  0.00     0.186 HD
HETATM   12  C13 UNL     1      16.110 -12.480   7.423  1.00  0.00     0.137 A 
HETATM   13  N8  UNL     1      16.999 -11.624   6.880  1.00  0.00    -0.345 N 
ATOM     14  H8  UNL     1      17.877 -11.453   7.372  1.00  0.00     0.167 HD
ENDROOT
BRANCH   4  15
HETATM   15  N1  UNL     1      13.522 -12.332   4.971  1.00  0.00    -0.387 N 
ATOM     16  H1  UNL     1      12.755 -12.776   5.477  1.00  0.00     0.159 HD
BRANCH  15  17
HETATM   17  C5  UNL     1      13.402 -11.956   3.558  1.00  0.00     0.147 C 
BRANCH  17  18
HETATM   18  C6  UNL     1      11.943 -11.854   3.162  1.00  0.00     0.249 C 
BRANCH  18  19
HETATM   19  N2  UNL     1      11.366 -13.165   2.992  1.00  0.00    -0.078 N 
ATOM     20  H23 UNL     1      10.794 -13.433   3.793  1.00  0.00     0.274 HD
ATOM     21  H22 UNL     1      10.639 -13.168   2.276  1.00  0.00     0.274 HD
ATOM     22  H21 UNL     1      12.090 -13.857   2.797  1.00  0.00     0.274 HD
ENDBRANCH  18  19
ENDBRANCH  17  18
ENDBRANCH  15  17
ENDBRANCH   4  15
BRANCH   6  23
HETATM   23  N3  UNL     1      12.915 -13.783   6.661  1.00  0.00    -0.279 N 
ATOM     24  H3  UNL     1      12.472 -13.010   6.164  1.00  0.00     0.189 HD
BRANCH  23  25
HETATM   25  N4  UNL     1      12.306 -15.058   6.639  1.00  0.00    -0.242 N 
HETATM   26  C9  UNL     1      12.295 -15.840   5.458  1.00  0.00     0.303 C 
HETATM   27  O1  UNL     1      12.819 -15.447   4.381  1.00  0.00    -0.628 OA
HETATM   28  O2  UNL     1      11.693 -17.085   5.460  1.00  0.00    -0.628 OA
ATOM     29  H4  UNL     1      11.868 -15.420   7.486  1.00  0.00     0.193 HD
ENDBRANCH  23  25
ENDBRANCH   6  23
BRANCH   9  30
HETATM   30  N6  UNL     1      15.713 -14.647  10.382  1.00  0.00    -0.226 N 
HETATM   31  C11 UNL     1      17.056 -15.076  10.653  1.00  0.00     0.168 C 
HETATM   32  C12 UNL     1      14.679 -14.886  11.345  1.00  0.00     0.168 C 
ENDBRANCH   9  30
TORSDOF 7
ENDMDL
MODEL 3
REMARK VINA RESULT: -6.201846499      4.944      8.144
REMARK  7 active torsions:
REMARK  status: ('A' for Active; 'I' for Inactive)
REMARK    1  A    between atoms: C4_4  and  N1_5 
REMARK    2  A    between atoms: N1_5  and  C5_7 
REMARK    3  A    between atoms: C5_7  and  C6_8 
REMARK    4  A    between atoms: C6_8  and  N2_9 
REMARK    5  A    between atoms: C8_14  and  N3_15 
REMARK    6  A    between atoms: N3_15  and  N4_17 
REMARK       I    between atoms: N4_17  and  C9_19 
REMARK    7  A    between atoms: C10_24  and  N6_25 
ROOT
HETATM    1  C1  UNL     1      17.735 -11.209   6.427  1.00  0.00     0.068 C 
HETATM    2  C2  UNL     1      17.931 -12.258   7.475  1.00  0.00     0.009 A 
HETATM    3  C3  UNL     1      16.816 -12.852   8.046  1.00  0.00     0.054 A 
HETATM    4  C4  UNL     1      16.955 -13.819   9.010  1.00  0.00     0.047 A 
HETATM    5  C7  UNL     1      18.243 -14.178   9.391  1.00  0.00     0.081 A 
HETATM    6  C8  UNL     1      18.445 -15.134  10.347  1.00  0.00     0.152 A 
HETATM    7  N5  UNL     1      19.699 -15.487  10.721  1.00  0.00    -0.174 N 
ATOM      8  H5  UNL     1      19.824 -16.203  11.436  1.00  0.00     0.186 HD
HETATM    9  C10 UNL     1      20.781 -14.912  10.169  1.00  0.00     0.682 A 
HETATM   10  N7  UNL     1      20.564 -13.973   9.231  1.00  0.00    -0.175 N 
ATOM     11  H7  UNL     1      21.378 -13.530   8.804  1.00  0.00     0.186 HD
HETATM   12  C13 UNL     1      19.355 -13.584   8.821  1.00  0.00     0.137 A 
HETATM   13  N8  UNL     1      19.158 -12.640   7.878  1.00  0.00    -0.345 N 
ATOM     14  H8  UNL     1      19.972 -12.198   7.451  1.00  0.00     0.167 HD
ENDROOT
BRANCH   4  15
HETATM   15  N1  UNL     1      15.970 -14.417   9.586  1.00  0.00    -0.387 N 
ATOM     16  H1  UNL     1      16.107 -15.005  10.408  1.00  0.00     0.159 HD
BRANCH  15  17
HETATM   17  C5  UNL     1      14.642 -14.206   8.999  1.00  0.00     0.147 C 
BRANCH  17  18
HETATM   18  C6  UNL     1      13.628 -13.902  10.084  1.00  0.00     0.249 C 
BRANCH  18  19
HETATM   19  N2  UNL     1      13.989 -14.555  11.318  1.00  0.00    -0.078 N 
ATOM     20  H23 UNL     1      14.984 -14.773  11.354  1.00  0.00     0.274 HD
ATOM     21  H22 UNL     1      13.943 -13.915  12.112  1.00  0.00     0.274 HD
ATOM     22  H21 UNL     1      13.416 -15.385  11.470  1.00  0.00     0.274 HD
ENDBRANCH  18  19
ENDBRANCH  17  18
ENDBRANCH  15  17
ENDBRANCH   4  15
BRANCH   6  23
HETATM   23  N3  UNL     1      17.399 -15.688  10.879  1.00  0.00    -0.279 N 
ATOM     24  H3  UNL     1      16.551 -15.135  11.006  1.00  0.00     0.189 HD
BRANCH  23  25
HETATM   25  N4  UNL     1      17.409 -17.042  11.284  1.00  0.00    -0.242 N 
HETATM   26  C9  UNL     1      16.200 -17.737  11.530  1.00  0.00     0.303 C 
HETATM   27  O1  UNL     1      15.069 -17.196  11.403  1.00  0.00    -0.628 OA
HETATM   28  O2  UNL     1      16.234 -19.062  11.927  1.00  0.00    -0.628 OA
ATOM     29  H4  UNL     1      18.299 -17.524  11.402  1.00  0.00     0.193 HD
ENDBRANCH  23  25
ENDBRANCH   6  23
BRANCH   9  30
HETATM   30  N6  UNL     1      22.109 -15.298  10.577  1.00  0.00    -0.226 N 
HETATM   31  C11 UNL     1      22.840 -16.215   9.751  1.00  0.00     0.168 C 
HETATM   32  C12 UNL     1      22.704 -14.787  11.777  1.00  0.00     0.168 C 
ENDBRANCH   9  30
TORSDOF 7
ENDMDL
MODEL 4
REMARK VINA RESULT: -6.201539239      3.701      5.727
REMARK  7 active torsions:
REMARK  status: ('A' for Active; 'I' for Inactive)
REMARK    1  A    between atoms: C4_4  and  N1_5 
REMARK    2  A    between atoms: N1_5  and  C5_7 
REMARK    3  A    between atoms: C5_7  and  C6_8 
REMARK    4  A    between atoms: C6_8  and  N2_9 
REMARK    5  A    between atoms: C8_14  and  N3_15 
REMARK    6  A    between atoms: N3_15  and  N4_17 
REMARK       I    between atoms: N4_17  and  C9_19 
REMARK    7  A    between atoms: C10_24  and  N6_25 
ROOT
HETATM    1  C1  UNL     1      17.388 -11.962   7.601  1.00  0.00     0.068 C 
HETATM    2  C2  UNL     1      16.911 -13.357   7.850  1.00  0.00     0.009 A 
HETATM    3  C3  UNL     1      17.240 -13.975   9.046  1.00  0.00     0.054 A 
HETATM    4  C4  UNL     1      16.819 -15.254   9.311  1.00  0.00     0.047 A 
HETATM    5  C7  UNL     1      16.060 -15.904   8.345  1.00  0.00     0.081 A 
HETATM    6  C8  UNL     1      15.613 -17.180   8.552  1.00  0.00     0.152 A 
HETATM    7  N5  UNL     1      14.872 -17.816   7.612  1.00  0.00    -0.174 N 
ATOM      8  H5  UNL     1      14.550 -18.767   7.789  1.00  0.00     0.186 HD
HETATM    9  C10 UNL     1      14.553 -17.218   6.451  1.00  0.00     0.682 A 
HETATM   10  N7  UNL     1      15.000 -15.964   6.264  1.00  0.00    -0.175 N 
ATOM     11  H7  UNL     1      14.764 -15.500   5.387  1.00  0.00     0.186 HD
HETATM   12  C13 UNL     1      15.733 -15.286   7.151  1.00  0.00     0.137 A 
HETATM   13  N8  UNL     1      16.172 -14.028   6.945  1.00  0.00    -0.345 N 
ATOM     14  H8  UNL     1      15.935 -13.564   6.068  1.00  0.00     0.167 HD
ENDROOT
BRANCH   4  15
HETATM   15  N1  UNL     1      17.083 -15.895  10.398  1.00  0.00    -0.387 N 
ATOM     16  H1  UNL     1      17.556 -16.799  10.386  1.00  0.00     0.159 HD
BRANCH  15  17
HETATM   17  C5  UNL     1      16.667 -15.257  11.652  1.00  0.00     0.147 C 
BRANCH  17  18
HETATM   18  C6  UNL     1      15.265 -14.698  11.520  1.00  0.00     0.249 C 
BRANCH  18  19
HETATM   19  N2  UNL     1      14.282 -15.746  11.650  1.00  0.00    -0.078 N 
ATOM     20  H23 UNL     1      14.022 -16.134  10.743  1.00  0.00     0.274 HD
ATOM     21  H22 UNL     1      14.679 -16.586  12.070  1.00  0.00     0.274 HD
ATOM     22  H21 UNL     1      13.467 -15.415  12.166  1.00  0.00     0.274 HD
ENDBRANCH  18  19
ENDBRANCH  17  18
ENDBRANCH  15  17
ENDBRANCH   4  15
BRANCH   6  23
HETATM   23  N3  UNL     1      15.922 -17.754   9.673  1.00  0.00    -0.279 N 
ATOM     24  H3  UNL     1      16.565 -17.288  10.313  1.00  0.00     0.189 HD
BRANCH  23  25
HETATM   25  N4  UNL     1      15.387 -19.014  10.027  1.00  0.00    -0.242 N 
HETATM   26  C9  UNL     1      15.141 -19.346  11.382  1.00  0.00     0.303 C 
HETATM   27  O1  UNL     1      15.382 -18.550  12.329  1.00  0.00    -0.628 OA
HETATM   28  O2  UNL     1      14.617 -20.584  11.705  1.00  0.00    -0.628 OA
ATOM     29  H4  UNL     1      15.175 -19.693   9.297  1.00  0.00     0.193 HD
ENDBRANCH  23  25
ENDBRANCH   6  23
BRANCH   9  30
HETATM   30  N6  UNL     1      13.763 -17.908   5.461  1.00  0.00    -0.226 N 
HETATM   31  C11 UNL     1      14.223 -17.913   4.102  1.00  0.00     0.168 C 
HETATM   32  C12 UNL     1      12.545 -18.580   5.805  1.00  0.00     0.168 C 
ENDBRANCH   9  30
TORSDOF 7
ENDMDL
MODEL 5
REMARK VINA RESULT: -6.126072663      1.473      5.272
REMARK  7 active torsions:
REMARK  status: ('A' for Active; 'I' for Inactive)
REMARK    1  A    between atoms: C4_4  and  N1_5 
REMARK    2  A    between atoms: N1_5  and  C5_7 
REMARK    3  A    between atoms: C5_7  and  C6_8 
REMARK    4  A    between atoms: C6_8  and  N2_9 
REMARK    5  A    between atoms: C8_14  and  N3_15 
REMARK    6  A    between atoms: N3_15  and  N4_17 
REMARK       I    between atoms: N4_17  and  C9_19 
REMARK    7  A    between atoms: C10_24  and  N6_25 
ROOT
HETATM    1  C1  UNL     1      12.089 -19.124   5.136  1.00  0.00     0.068 C 
HETATM    2  C2  UNL     1      12.881 -18.027   5.772  1.00  0.00     0.009 A 
HETATM    3  C3  UNL     1      12.491 -16.712   5.565  1.00  0.00     0.054 A 
HETATM    4  C4  UNL     1      13.193 -15.678   6.132  1.00  0.00     0.047 A 
HETATM    5  C7  UNL     1      14.299 -15.991   6.914  1.00  0.00     0.081 A 
HETATM    6  C8  UNL     1      15.037 -15.004   7.504  1.00  0.00     0.152 A 
HETATM    7  N5  UNL     1      16.116 -15.306   8.267  1.00  0.00    -0.174 N 
ATOM      8  H5  UNL     1      16.651 -14.552   8.697  1.00  0.00     0.186 HD
HETATM    9  C10 UNL     1      16.495 -16.580   8.468  1.00  0.00     0.682 A 
HETATM   10  N7  UNL     1      15.758 -17.538   7.880  1.00  0.00    -0.175 N 
ATOM     11  H7  UNL     1      16.036 -18.509   8.026  1.00  0.00     0.186 HD
HETATM   12  C13 UNL     1      14.687 -17.304   7.118  1.00  0.00     0.137 A 
HETATM   13  N8  UNL     1      13.959 -18.279   6.538  1.00  0.00    -0.345 N 
ATOM     14  H8  UNL     1      14.238 -19.250   6.685  1.00  0.00     0.167 HD
ENDROOT
BRANCH   4  15
HETATM   15  N1  UNL     1      12.894 -14.433   5.988  1.00  0.00    -0.387 N 
ATOM     16  H1  UNL     1      13.075 -13.749   6.723  1.00  0.00     0.159 HD
BRANCH  15  17
HETATM   17  C5  UNL     1      12.281 -14.050   4.711  1.00  0.00     0.147 C 
BRANCH  17  18
HETATM   18  C6  UNL     1      13.191 -13.108   3.950  1.00  0.00     0.249 C 
BRANCH  18  19
HETATM   19  N2  UNL     1      12.601 -12.734   2.688  1.00  0.00    -0.078 N 
ATOM     20  H23 UNL     1      12.106 -13.514   2.257  1.00  0.00     0.274 HD
ATOM     21  H22 UNL     1      11.811 -12.101   2.814  1.00  0.00     0.274 HD
ATOM     22  H21 UNL     1      13.304 -12.341   2.063  1.00  0.00     0.274 HD
ENDBRANCH  18  19
ENDBRANCH  17  18
ENDBRANCH  15  17
ENDBRANCH   4  15
BRANCH   6  23
HETATM   23  N3  UNL     1      14.669 -13.775   7.309  1.00  0.00    -0.279 N 
ATOM     24  H3  UNL     1      14.484 -13.454   6.358  1.00  0.00     0.189 HD
BRANCH  23  25
HETATM   25  N4  UNL     1      14.519 -12.871   8.385  1.00  0.00    -0.242 N 
HETATM   26  C9  UNL     1      13.374 -12.916   9.219  1.00  0.00     0.303 C 
HETATM   27  O1  UNL     1      12.444 -13.748   9.048  1.00  0.00    -0.628 OA
HETATM   28  O2  UNL     1      13.249 -12.021  10.266  1.00  0.00    -0.628 OA
ATOM     29  H4  UNL     1      15.245 -12.178   8.564  1.00  0.00     0.193 HD
ENDBRANCH  23  25
ENDBRANCH   6  23
BRANCH   9  30
HETATM   30  N6  UNL     1      17.645 -16.886   9.282  1.00  0.00    -0.226 N 
HETATM   31  C11 UNL     1      17.503 -16.850  10.709  1.00  0.00     0.168 C 
HETATM   32  C12 UNL     1      18.911 -17.221   8.699  1.00  0.00     0.168 C 
ENDBRANCH   9  30
TORSDOF 7
ENDMDL
