MODEL 1
REMARK VINA RESULT: -6.369067640      0.000      0.000
REMARK  9 active torsions:
REMARK  status: ('A' for Active; 'I' for Inactive)
REMARK    1  A    between atoms: C2_5  and  O1_6 
REMARK    2  A    between atoms: C2_5  and  C3_8 
REMARK    3  A    between atoms: C3_8  and  N3_9 
REMARK    4  A    between atoms: N3_9  and  N4_11 
REMARK       I    between atoms: N4_11  and  C4_13 
REMARK    5  A    between atoms: C4_13  and  C5_15 
REMARK    6  A    between atoms: N5_16  and  C6_18 
REMARK    7  A    between atoms: C8_20  and  O3_21 
REMARK    8  A    between atoms: C9_23  and  O4_24 
REMARK    9  A    between atoms: C11_28  and  N6_29 
ROOT
HETATM    1  N3  UNL     1      -5.213 -25.549  14.861  1.00  0.00    -0.329 N 
ATOM      2  H3  UNL     1      -5.260 -24.606  14.477  1.00  0.00     0.180 HD
ENDROOT
BRANCH   1   3
HETATM    3  C3  UNL     1      -6.336 -26.169  15.451  1.00  0.00     0.202 C 
BRANCH   3   4
HETATM    4  C2  UNL     1      -7.518 -26.412  14.594  1.00  0.00     0.181 C 
HETATM    5  N2  UNL     1      -7.945 -25.212  13.876  1.00  0.00    -0.330 N 
HETATM    6  C1  UNL     1      -8.995 -25.286  13.132  1.00  0.00     0.186 C 
ATOM      7  H2  UNL     1      -7.425 -24.339  13.963  1.00  0.00     0.165 HD
HETATM    8  N1  UNL     1      -9.494 -24.178  12.392  1.00  0.00    -0.064 NA
HETATM    9  N7  UNL     1      -9.659 -26.542  13.066  1.00  0.00    -0.362 N 
HETATM   10  C12 UNL     1      -9.781 -27.331  14.271  1.00  0.00     0.160 C 
ATOM     11  H7  UNL     1     -10.043 -26.880  12.183  1.00  0.00     0.162 HD
HETATM   12  C11 UNL     1      -8.677 -27.094  15.259  1.00  0.00     0.257 C 
BRANCH  12  13
HETATM   13  N6  UNL     1      -9.220 -26.399  16.387  1.00  0.00    -0.069 N 
ATOM     14  H63 UNL     1      -9.406 -27.053  17.147  1.00  0.00     0.275 HD
ATOM     15  H62 UNL     1      -8.503 -25.819  16.823  1.00  0.00     0.275 HD
ATOM     16  H61 UNL     1     -10.051 -25.842  16.191  1.00  0.00     0.275 HD
ENDBRANCH  12  13
BRANCH   4  17
HETATM   17  O1  UNL     1      -7.101 -27.299  13.569  1.00  0.00    -0.367 OA
ATOM     18  H1  UNL     1      -7.871 -27.826  13.392  1.00  0.00     0.212 HD
ENDBRANCH   4  17
ENDBRANCH   3   4
ENDBRANCH   1   3
BRANCH   1  19
HETATM   19  N4  UNL     1      -4.053 -26.287  14.833  1.00  0.00    -0.270 N 
HETATM   20  C4  UNL     1      -3.677 -27.201  13.869  1.00  0.00     0.274 C 
HETATM   21  O2  UNL     1      -4.425 -27.438  12.891  1.00  0.00    -0.265 OA
ATOM     22  H4  UNL     1      -3.403 -26.144  15.606  1.00  0.00     0.190 HD
BRANCH  20  23
HETATM   23  C5  UNL     1      -2.409 -27.907  13.967  1.00  0.00     0.161 C 
HETATM   24  N5  UNL     1      -1.962 -28.369  15.081  1.00  0.00    -0.368 N 
ATOM     25  H5  UNL     1      -2.492 -28.254  15.944  1.00  0.00     0.161 HD
BRANCH  24  26
HETATM   26  C6  UNL     1      -0.691 -29.055  15.078  1.00  0.00     0.222 C 
HETATM   27  C7  UNL     1      -0.290 -29.456  16.467  1.00  0.00     0.088 C 
HETATM   28  C8  UNL     1       1.218 -29.414  16.602  1.00  0.00     0.153 C 
HETATM   29  C9  UNL     1       1.740 -28.008  16.368  1.00  0.00     0.170 C 
HETATM   30  C10 UNL     1       0.705 -27.287  15.513  1.00  0.00     0.204 C 
HETATM   31  O5  UNL     1       0.238 -28.167  14.539  1.00  0.00    -0.364 OA
BRANCH  28  32
HETATM   32  O3  UNL     1       1.774 -30.234  15.642  1.00  0.00    -0.393 OA
ATOM     33  H3  UNL     1       2.181 -29.694  14.976  1.00  0.00     0.210 HD
ENDBRANCH  28  32
BRANCH  29  34
HETATM   34  O4  UNL     1       2.949 -27.982  15.713  1.00  0.00    -0.391 OA
ATOM     35  H4  UNL     1       3.385 -27.139  15.767  1.00  0.00     0.210 HD
ENDBRANCH  29  34
ENDBRANCH  24  26
ENDBRANCH  20  23
ENDBRANCH   1  19
TORSDOF 9
ENDMDL
MODEL 2
REMARK VINA RESULT: -6.184274711      7.141     11.982
REMARK  9 active torsions:
REMARK  status: ('A' for Active; 'I' for Inactive)
REMARK    1  A    between atoms: C2_5  and  O1_6 
REMARK    2  A    between atoms: C2_5  and  C3_8 
REMARK    3  A    between atoms: C3_8  and  N3_9 
REMARK    4  A    between atoms: N3_9  and  N4_11 
REMARK       I    between atoms: N4_11  and  C4_13 
REMARK    5  A    between atoms: C4_13  and  C5_15 
REMARK    6  A    between atoms: N5_16  and  C6_18 
REMARK    7  A    between atoms: C8_20  and  O3_21 
REMARK    8  A    between atoms: C9_23  and  O4_24 
REMARK    9  A    between atoms: C11_28  and  N6_29 
ROOT
HETATM    1  N3  UNL     1       1.771 -32.349  22.245  1.00  0.00    -0.329 N 
ATOM      2  H3  UNL     1       0.836 -32.503  22.621  1.00  0.00     0.180 HD
ENDROOT
BRANCH   1   3
HETATM    3  C3  UNL     1       2.929 -32.537  23.029  1.00  0.00     0.202 C 
BRANCH   3   4
HETATM    4  C2  UNL     1       3.489 -31.356  23.727  1.00  0.00     0.181 C 
HETATM    5  N2  UNL     1       4.817 -30.995  23.236  1.00  0.00    -0.330 N 
HETATM    6  C1  UNL     1       5.429 -30.009  23.798  1.00  0.00     0.186 C 
ATOM      7  H2  UNL     1       5.249 -31.509  22.468  1.00  0.00     0.165 HD
HETATM    8  N1  UNL     1       6.724 -29.577  23.396  1.00  0.00    -0.064 NA
HETATM    9  N7  UNL     1       4.756 -29.345  24.860  1.00  0.00    -0.362 N 
HETATM   10  C12 UNL     1       3.994 -30.133  25.804  1.00  0.00     0.160 C 
ATOM     11  H7  UNL     1       4.809 -28.331  24.955  1.00  0.00     0.162 HD
HETATM   12  C11 UNL     1       3.454 -31.407  25.226  1.00  0.00     0.257 C 
BRANCH  12  13
HETATM   13  N6  UNL     1       4.162 -32.506  25.809  1.00  0.00    -0.069 N 
ATOM     14  H63 UNL     1       3.985 -32.545  26.813  1.00  0.00     0.275 HD
ATOM     15  H62 UNL     1       3.742 -33.390  25.520  1.00  0.00     0.275 HD
ATOM     16  H61 UNL     1       5.165 -32.517  25.628  1.00  0.00     0.275 HD
ENDBRANCH  12  13
BRANCH   4  17
HETATM   17  O1  UNL     1       2.675 -30.251  23.371  1.00  0.00    -0.367 OA
ATOM     18  H1  UNL     1       2.986 -30.002  22.510  1.00  0.00     0.212 HD
ENDBRANCH   4  17
ENDBRANCH   3   4
ENDBRANCH   1   3
BRANCH   1  19
HETATM   19  N4  UNL     1       1.973 -31.947  20.946  1.00  0.00    -0.270 N 
HETATM   20  C4  UNL     1       1.031 -31.409  20.091  1.00  0.00     0.274 C 
HETATM   21  O2  UNL     1      -0.153 -31.247  20.469  1.00  0.00    -0.265 OA
ATOM     22  H4  UNL     1       2.916 -32.059  20.575  1.00  0.00     0.190 HD
BRANCH  20  23
HETATM   23  C5  UNL     1       1.391 -31.021  18.736  1.00  0.00     0.161 C 
HETATM   24  N5  UNL     1       0.510 -30.727  17.845  1.00  0.00    -0.368 N 
ATOM     25  H5  UNL     1      -0.485 -30.758  18.066  1.00  0.00     0.161 HD
BRANCH  24  26
HETATM   26  C6  UNL     1       0.965 -30.355  16.526  1.00  0.00     0.222 C 
HETATM   27  C7  UNL     1       1.806 -29.114  16.575  1.00  0.00     0.088 C 
HETATM   28  C8  UNL     1       1.615 -28.310  15.306  1.00  0.00     0.153 C 
HETATM   29  C9  UNL     1       0.168 -27.872  15.158  1.00  0.00     0.170 C 
HETATM   30  C10 UNL     1      -0.676 -28.854  15.960  1.00  0.00     0.204 C 
HETATM   31  O5  UNL     1      -0.178 -30.141  15.758  1.00  0.00    -0.364 OA
BRANCH  28  32
HETATM   32  O3  UNL     1       1.925 -29.107  14.223  1.00  0.00    -0.393 OA
ATOM     33  H3  UNL     1       2.227 -28.554  13.512  1.00  0.00     0.210 HD
ENDBRANCH  28  32
BRANCH  29  34
HETATM   34  O4  UNL     1      -0.268 -27.876  13.854  1.00  0.00    -0.391 OA
ATOM     35  H4  UNL     1      -0.679 -27.059  13.595  1.00  0.00     0.210 HD
ENDBRANCH  29  34
ENDBRANCH  24  26
ENDBRANCH  20  23
ENDBRANCH   1  19
TORSDOF 9
ENDMDL
MODEL 3
REMARK VINA RESULT: -6.178963171      1.476      2.358
REMARK  9 active torsions:
REMARK  status: ('A' for Active; 'I' for Inactive)
REMARK    1  A    between atoms: C2_5  and  O1_6 
REMARK    2  A    between atoms: C2_5  and  C3_8 
REMARK    3  A    between atoms: C3_8  and  N3_9 
REMARK    4  A    between atoms: N3_9  and  N4_11 
REMARK       I    between atoms: N4_11  and  C4_13 
REMARK    5  A    between atoms: C4_13  and  C5_15 
REMARK    6  A    between atoms: N5_16  and  C6_18 
REMARK    7  A    between atoms: C8_20  and  O3_21 
REMARK    8  A    between atoms: C9_23  and  O4_24 
REMARK    9  A    between atoms: C11_28  and  N6_29 
ROOT
HETATM    1  N3  UNL     1      -5.673 -26.323  12.659  1.00  0.00    -0.329 N 
ATOM      2  H3  UNL     1      -5.702 -25.346  12.369  1.00  0.00     0.180 HD
ENDROOT
BRANCH   1   3
HETATM    3  C3  UNL     1      -6.851 -27.065  12.891  1.00  0.00     0.202 C 
BRANCH   3   4
HETATM    4  C2  UNL     1      -7.539 -26.878  14.189  1.00  0.00     0.181 C 
HETATM    5  N2  UNL     1      -7.228 -27.940  15.144  1.00  0.00    -0.330 N 
HETATM    6  C1  UNL     1      -7.805 -27.913  16.297  1.00  0.00     0.186 C 
ATOM      7  H2  UNL     1      -6.572 -28.683  14.905  1.00  0.00     0.165 HD
HETATM    8  N1  UNL     1      -7.572 -28.898  17.297  1.00  0.00    -0.064 NA
HETATM    9  N7  UNL     1      -8.704 -26.841  16.550  1.00  0.00    -0.362 N 
HETATM   10  C12 UNL     1      -9.577 -26.395  15.486  1.00  0.00     0.160 C 
ATOM     11  H7  UNL     1      -8.734 -26.393  17.467  1.00  0.00     0.162 HD
HETATM   12  C11 UNL     1      -9.015 -26.623  14.114  1.00  0.00     0.257 C 
BRANCH  12  13
HETATM   13  N6  UNL     1      -9.775 -27.658  13.479  1.00  0.00    -0.069 N 
ATOM     14  H63 UNL     1      -9.185 -28.470  13.304  1.00  0.00     0.275 HD
ATOM     15  H62 UNL     1     -10.442 -28.060  14.137  1.00  0.00     0.275 HD
ATOM     16  H61 UNL     1     -10.252 -27.377  12.622  1.00  0.00     0.275 HD
ENDBRANCH  12  13
BRANCH   4  17
HETATM   17  O1  UNL     1      -6.988 -25.711  14.776  1.00  0.00    -0.367 OA
ATOM     18  H1  UNL     1      -6.263 -26.035  15.298  1.00  0.00     0.212 HD
ENDBRANCH   4  17
ENDBRANCH   3   4
ENDBRANCH   1   3
BRANCH   1  19
HETATM   19  N4  UNL     1      -4.485 -26.989  12.845  1.00  0.00    -0.270 N 
HETATM   20  C4  UNL     1      -3.802 -27.145  14.035  1.00  0.00     0.274 C 
HETATM   21  O2  UNL     1      -4.250 -26.650  15.096  1.00  0.00    -0.265 OA
ATOM     22  H4  UNL     1      -4.064 -27.411  12.017  1.00  0.00     0.190 HD
BRANCH  20  23
HETATM   23  C5  UNL     1      -2.551 -27.885  14.083  1.00  0.00     0.161 C 
HETATM   24  N5  UNL     1      -1.988 -28.216  15.192  1.00  0.00    -0.368 N 
ATOM     25  H5  UNL     1      -2.409 -27.966  16.087  1.00  0.00     0.161 HD
BRANCH  24  26
HETATM   26  C6  UNL     1      -0.745 -28.950  15.138  1.00  0.00     0.222 C 
HETATM   27  C7  UNL     1      -0.317 -29.390  16.507  1.00  0.00     0.088 C 
HETATM   28  C8  UNL     1       1.195 -29.407  16.595  1.00  0.00     0.153 C 
HETATM   29  C9  UNL     1       1.763 -28.018  16.367  1.00  0.00     0.170 C 
HETATM   30  C10 UNL     1       0.731 -27.243  15.557  1.00  0.00     0.204 C 
HETATM   31  O5  UNL     1       0.200 -28.089  14.584  1.00  0.00    -0.364 OA
BRANCH  28  32
HETATM   32  O3  UNL     1       1.689 -30.231  15.605  1.00  0.00    -0.393 OA
ATOM     33  H3  UNL     1       2.555 -29.929  15.358  1.00  0.00     0.210 HD
ENDBRANCH  28  32
BRANCH  29  34
HETATM   34  O4  UNL     1       2.952 -28.027  15.675  1.00  0.00    -0.391 OA
ATOM     35  H4  UNL     1       2.923 -27.511  14.877  1.00  0.00     0.210 HD
ENDBRANCH  29  34
ENDBRANCH  24  26
ENDBRANCH  20  23
ENDBRANCH   1  19
TORSDOF 9
ENDMDL
MODEL 4
REMARK VINA RESULT: -6.161534113      1.393      1.974
REMARK  9 active torsions:
REMARK  status: ('A' for Active; 'I' for Inactive)
REMARK    1  A    between atoms: C2_5  and  O1_6 
REMARK    2  A    between atoms: C2_5  and  C3_8 
REMARK    3  A    between atoms: C3_8  and  N3_9 
REMARK    4  A    between atoms: N3_9  and  N4_11 
REMARK       I    between atoms: N4_11  and  C4_13 
REMARK    5  A    between atoms: C4_13  and  C5_15 
REMARK    6  A    between atoms: N5_16  and  C6_18 
REMARK    7  A    between atoms: C8_20  and  O3_21 
REMARK    8  A    between atoms: C9_23  and  O4_24 
REMARK    9  A    between atoms: C11_28  and  N6_29 
ROOT
HETATM    1  N3  UNL     1      -5.269 -25.278  14.551  1.00  0.00    -0.329 N 
ATOM      2  H3  UNL     1      -5.414 -24.602  15.300  1.00  0.00     0.180 HD
ENDROOT
BRANCH   1   3
HETATM    3  C3  UNL     1      -6.243 -25.505  13.555  1.00  0.00     0.202 C 
BRANCH   3   4
HETATM    4  C2  UNL     1      -7.566 -26.011  13.987  1.00  0.00     0.181 C 
HETATM    5  N2  UNL     1      -7.601 -26.338  15.412  1.00  0.00    -0.330 N 
HETATM    6  C1  UNL     1      -8.687 -26.833  15.898  1.00  0.00     0.186 C 
ATOM      7  H2  UNL     1      -6.786 -26.180  16.005  1.00  0.00     0.165 HD
HETATM    8  N1  UNL     1      -8.825 -27.186  17.270  1.00  0.00    -0.064 NA
HETATM    9  N7  UNL     1      -9.776 -27.020  15.003  1.00  0.00    -0.362 N 
HETATM   10  C12 UNL     1      -9.505 -27.494  13.664  1.00  0.00     0.160 C 
ATOM     11  H7  UNL     1     -10.732 -26.822  15.300  1.00  0.00     0.162 HD
HETATM   12  C11 UNL     1      -8.146 -27.116  13.156  1.00  0.00     0.257 C 
BRANCH  12  13
HETATM   13  N6  UNL     1      -7.343 -28.300  13.083  1.00  0.00    -0.069 N 
ATOM     14  H63 UNL     1      -7.110 -28.508  12.112  1.00  0.00     0.275 HD
ATOM     15  H62 UNL     1      -6.411 -28.119  13.455  1.00  0.00     0.275 HD
ATOM     16  H61 UNL     1      -7.747 -29.122  13.531  1.00  0.00     0.275 HD
ENDBRANCH  12  13
BRANCH   4  17
HETATM   17  O1  UNL     1      -8.475 -24.930  13.859  1.00  0.00    -0.367 OA
ATOM     18  H1  UNL     1      -9.001 -25.158  13.101  1.00  0.00     0.212 HD
ENDBRANCH   4  17
ENDBRANCH   3   4
ENDBRANCH   1   3
BRANCH   1  19
HETATM   19  N4  UNL     1      -4.115 -26.018  14.456  1.00  0.00    -0.270 N 
HETATM   20  C4  UNL     1      -3.990 -27.383  14.632  1.00  0.00     0.274 C 
HETATM   21  O2  UNL     1      -4.991 -28.082  14.915  1.00  0.00    -0.265 OA
ATOM     22  H4  UNL     1      -3.261 -25.506  14.233  1.00  0.00     0.190 HD
BRANCH  20  23
HETATM   23  C5  UNL     1      -2.698 -28.036  14.493  1.00  0.00     0.161 C 
HETATM   24  N5  UNL     1      -1.944 -28.295  15.503  1.00  0.00    -0.368 N 
ATOM     25  H5  UNL     1      -2.235 -28.047  16.449  1.00  0.00     0.161 HD
BRANCH  24  26
HETATM   26  C6  UNL     1      -0.676 -28.945  15.265  1.00  0.00     0.222 C 
HETATM   27  C7  UNL     1      -0.140 -29.560  16.523  1.00  0.00     0.088 C 
HETATM   28  C8  UNL     1       1.374 -29.510  16.518  1.00  0.00     0.153 C 
HETATM   29  C9  UNL     1       1.865 -28.074  16.469  1.00  0.00     0.170 C 
HETATM   30  C10 UNL     1       0.748 -27.244  15.850  1.00  0.00     0.204 C 
HETATM   31  O5  UNL     1       0.191 -27.962  14.793  1.00  0.00    -0.364 OA
BRANCH  28  32
HETATM   32  O3  UNL     1       1.837 -30.150  15.386  1.00  0.00    -0.393 OA
ATOM     33  H3  UNL     1       1.717 -29.576  14.639  1.00  0.00     0.210 HD
ENDBRANCH  28  32
BRANCH  29  34
HETATM   34  O4  UNL     1       3.004 -27.916  15.715  1.00  0.00    -0.391 OA
ATOM     35  H4  UNL     1       3.150 -28.630  15.105  1.00  0.00     0.210 HD
ENDBRANCH  29  34
ENDBRANCH  24  26
ENDBRANCH  20  23
ENDBRANCH   1  19
TORSDOF 9
ENDMDL
MODEL 5
REMARK VINA RESULT: -5.971839687      3.177      9.115
REMARK  9 active torsions:
REMARK  status: ('A' for Active; 'I' for Inactive)
REMARK    1  A    between atoms: C2_5  and  O1_6 
REMARK    2  A    between atoms: C2_5  and  C3_8 
REMARK    3  A    between atoms: C3_8  and  N3_9 
REMARK    4  A    between atoms: N3_9  and  N4_11 
REMARK       I    between atoms: N4_11  and  C4_13 
REMARK    5  A    between atoms: C4_13  and  C5_15 
REMARK    6  A    between atoms: N5_16  and  C6_18 
REMARK    7  A    between atoms: C8_20  and  O3_21 
REMARK    8  A    between atoms: C9_23  and  O4_24 
REMARK    9  A    between atoms: C11_28  and  N6_29 
ROOT
HETATM    1  N3  UNL     1       0.300 -28.559  16.061  1.00  0.00    -0.329 N 
ATOM      2  H3  UNL     1       1.052 -27.882  16.188  1.00  0.00     0.180 HD
ENDROOT
BRANCH   1   3
HETATM    3  C3  UNL     1       0.557 -29.942  15.943  1.00  0.00     0.202 C 
BRANCH   3   4
HETATM    4  C2  UNL     1       0.378 -30.782  17.150  1.00  0.00     0.181 C 
HETATM    5  N2  UNL     1       1.510 -30.687  18.070  1.00  0.00    -0.330 N 
HETATM    6  C1  UNL     1       1.492 -31.410  19.137  1.00  0.00     0.186 C 
ATOM      7  H2  UNL     1       2.294 -30.066  17.872  1.00  0.00     0.165 HD
HETATM    8  N1  UNL     1       2.543 -31.392  20.096  1.00  0.00    -0.064 NA
HETATM    9  N7  UNL     1       0.360 -32.247  19.338  1.00  0.00    -0.362 N 
HETATM   10  C12 UNL     1      -0.213 -32.931  18.199  1.00  0.00     0.160 C 
ATOM     11  H7  UNL     1      -0.040 -32.364  20.269  1.00  0.00     0.162 HD
HETATM   12  C11 UNL     1      -0.007 -32.210  16.900  1.00  0.00     0.257 C 
BRANCH  12  13
HETATM   13  N6  UNL     1       0.923 -32.956  16.109  1.00  0.00    -0.069 N 
ATOM     14  H63 UNL     1       0.425 -33.584  15.478  1.00  0.00     0.275 HD
ATOM     15  H62 UNL     1       1.379 -32.346  15.430  1.00  0.00     0.275 HD
ATOM     16  H61 UNL     1       1.623 -33.474  16.641  1.00  0.00     0.275 HD
ENDBRANCH  12  13
BRANCH   4  17
HETATM   17  O1  UNL     1      -0.705 -30.224  17.875  1.00  0.00    -0.367 OA
ATOM     18  H1  UNL     1      -1.383 -30.888  17.828  1.00  0.00     0.212 HD
ENDBRANCH   4  17
ENDBRANCH   3   4
ENDBRANCH   1   3
BRANCH   1  19
HETATM   19  N4  UNL     1      -1.018 -28.175  15.995  1.00  0.00    -0.270 N 
HETATM   20  C4  UNL     1      -1.786 -28.046  14.854  1.00  0.00     0.274 C 
HETATM   21  O2  UNL     1      -1.294 -28.282  13.726  1.00  0.00    -0.265 OA
ATOM     22  H4  UNL     1      -1.476 -27.963  16.881  1.00  0.00     0.190 HD
BRANCH  20  23
HETATM   23  C5  UNL     1      -3.178 -27.635  14.938  1.00  0.00     0.161 C 
HETATM   24  N5  UNL     1      -3.534 -26.398  14.926  1.00  0.00    -0.368 N 
ATOM     25  H5  UNL     1      -2.838 -25.656  14.856  1.00  0.00     0.161 HD
BRANCH  24  26
HETATM   26  C6  UNL     1      -4.942 -26.087  15.015  1.00  0.00     0.222 C 
HETATM   27  C7  UNL     1      -5.777 -27.327  14.898  1.00  0.00     0.088 C 
HETATM   28  C8  UNL     1      -7.090 -27.004  14.214  1.00  0.00     0.153 C 
HETATM   29  C9  UNL     1      -6.850 -26.485  12.808  1.00  0.00     0.170 C 
HETATM   30  C10 UNL     1      -5.440 -25.908  12.782  1.00  0.00     0.204 C 
HETATM   31  O5  UNL     1      -5.220 -25.210  13.968  1.00  0.00    -0.364 OA
BRANCH  28  32
HETATM   32  O3  UNL     1      -7.729 -26.010  14.926  1.00  0.00    -0.393 OA
ATOM     33  H3  UNL     1      -7.556 -25.174  14.508  1.00  0.00     0.210 HD
ENDBRANCH  28  32
BRANCH  29  34
HETATM   34  O4  UNL     1      -7.736 -25.502  12.436  1.00  0.00    -0.391 OA
ATOM     35  H4  UNL     1      -8.635 -25.805  12.394  1.00  0.00     0.210 HD
ENDBRANCH  29  34
ENDBRANCH  24  26
ENDBRANCH  20  23
ENDBRANCH   1  19
TORSDOF 9
ENDMDL
