MODEL 1
REMARK VINA RESULT: -6.835667221      0.000      0.000
REMARK  7 active torsions:
REMARK  status: ('A' for Active; 'I' for Inactive)
REMARK       I    between atoms: N1_2  and  C2_4 
REMARK       I    between atoms: C2_4  and  N3_6 
REMARK       I    between atoms: N3_6  and  C3_8 
REMARK    1  A    between atoms: C3_8  and  C4_10 
REMARK    2  A    between atoms: C4_10  and  O2_11 
REMARK    3  A    between atoms: C4_10  and  C5_13 
REMARK    4  A    between atoms: C6_17  and  N5_18 
REMARK    5  A    between atoms: C7_23  and  C8_24 
REMARK    6  A    between atoms: C9_29  and  O4_30 
REMARK    7  A    between atoms: C10_32  and  O5_33 
ROOT
HETATM    1  C5  UNL     1       0.429 -29.656  15.922  1.00  0.00     0.257 C 
HETATM    2  N4  UNL     1      -0.622 -29.013  16.672  1.00  0.00    -0.038 N 
ATOM      3  H41 UNL     1      -0.394 -28.802  17.643  1.00  0.00     0.280 HD
ATOM      4  H42 UNL     1      -1.424 -29.605  16.890  1.00  0.00     0.280 HD
HETATM    5  C6  UNL     1      -0.917 -27.859  15.841  1.00  0.00     0.358 C 
HETATM    6  C9  UNL     1       0.398 -27.425  15.223  1.00  0.00     0.202 C 
HETATM    7  C10 UNL     1       1.352 -28.612  15.412  1.00  0.00     0.184 C 
ENDROOT
BRANCH   1   8
HETATM    8  C4  UNL     1       1.050 -30.823  16.608  1.00  0.00     0.243 C 
BRANCH   8   9
HETATM    9  C3  UNL     1       0.575 -31.060  17.986  1.00  0.00     0.255 C 
HETATM   10  N3  UNL     1       1.535 -31.213  19.010  1.00  0.00    -0.299 N 
HETATM   11  C2  UNL     1       1.114 -31.440  20.340  1.00  0.00     0.190 C 
ATOM     12  H3  UNL     1       2.530 -31.161  18.791  1.00  0.00     0.171 HD
HETATM   13  N1  UNL     1       1.971 -31.588  21.314  1.00  0.00    -0.369 N 
HETATM   14  N2  UNL     1      -0.257 -31.516  20.658  1.00  0.00    -0.063 NA
HETATM   15  C1  UNL     1       3.389 -31.532  21.122  1.00  0.00     0.148 C 
ATOM     16  H1  UNL     1       1.615 -31.750  22.256  1.00  0.00     0.161 HD
HETATM   17  O1  UNL     1      -0.639 -31.131  18.295  1.00  0.00    -0.270 OA
ENDBRANCH   8   9
BRANCH   8  18
HETATM   18  O2  UNL     1       0.777 -31.948  15.835  1.00  0.00    -0.384 OA
ATOM     19  H2  UNL     1       1.593 -32.292  15.490  1.00  0.00     0.210 HD
ENDBRANCH   8  18
ENDBRANCH   1   8
BRANCH   7  20
HETATM   20  O5  UNL     1       1.859 -28.922  14.132  1.00  0.00    -0.391 OA
ATOM     21  H5  UNL     1       2.649 -28.436  13.928  1.00  0.00     0.210 HD
ENDBRANCH   7  20
BRANCH   5  22
HETATM   22  N5  UNL     1      -1.898 -28.190  14.833  1.00  0.00    -0.183 N 
HETATM   23  N6  UNL     1      -3.070 -28.753  15.019  1.00  0.00    -0.222 N 
HETATM   24  N7  UNL     1      -3.694 -28.898  13.842  1.00  0.00    -0.264 N 
ATOM     25  H6  UNL     1      -3.448 -29.038  15.922  1.00  0.00     0.210 HD
HETATM   26  C7  UNL     1      -2.881 -28.407  12.888  1.00  0.00     0.203 A 
ATOM     27  H7  UNL     1      -4.617 -29.305  13.695  1.00  0.00     0.190 HD
HETATM   28  N9  UNL     1      -1.782 -27.978  13.534  1.00  0.00    -0.260 N 
ATOM     29  H9  UNL     1      -0.973 -27.549  13.085  1.00  0.00     0.190 HD
BRANCH  26  30
HETATM   30  C8  UNL     1      -3.136 -28.347  11.432  1.00  0.00     0.301 C 
HETATM   31  N8  UNL     1      -2.596 -29.360  10.613  1.00  0.00    -0.054 NA
HETATM   32  O3  UNL     1      -3.814 -27.422  10.948  1.00  0.00    -0.268 OA
ENDBRANCH  26  30
ENDBRANCH   5  22
BRANCH   6  33
HETATM   33  O4  UNL     1       0.858 -26.330  15.932  1.00  0.00    -0.389 OA
ATOM     34  H4  UNL     1       0.994 -25.620  15.316  1.00  0.00     0.210 HD
ENDBRANCH   6  33
TORSDOF 7
ENDMDL
MODEL 2
REMARK VINA RESULT: -6.819028446      1.685      2.032
REMARK  7 active torsions:
REMARK  status: ('A' for Active; 'I' for Inactive)
REMARK       I    between atoms: N1_2  and  C2_4 
REMARK       I    between atoms: C2_4  and  N3_6 
REMARK       I    between atoms: N3_6  and  C3_8 
REMARK    1  A    between atoms: C3_8  and  C4_10 
REMARK    2  A    between atoms: C4_10  and  O2_11 
REMARK    3  A    between atoms: C4_10  and  C5_13 
REMARK    4  A    between atoms: C6_17  and  N5_18 
REMARK    5  A    between atoms: C7_23  and  C8_24 
REMARK    6  A    between atoms: C9_29  and  O4_30 
REMARK    7  A    between atoms: C10_32  and  O5_33 
ROOT
HETATM    1  C5  UNL     1       0.359 -29.285  16.076  1.00  0.00     0.257 C 
HETATM    2  N4  UNL     1      -0.721 -28.438  16.517  1.00  0.00    -0.038 N 
ATOM      3  H41 UNL     1      -0.556 -27.947  17.395  1.00  0.00     0.280 HD
ATOM      4  H42 UNL     1      -1.555 -28.930  16.839  1.00  0.00     0.280 HD
HETATM    5  C6  UNL     1      -0.919 -27.583  15.359  1.00  0.00     0.358 C 
HETATM    6  C9  UNL     1       0.449 -27.367  14.743  1.00  0.00     0.202 C 
HETATM    7  C10 UNL     1       1.348 -28.452  15.350  1.00  0.00     0.184 C 
ENDROOT
BRANCH   1   8
HETATM    8  C4  UNL     1       0.893 -30.199  17.124  1.00  0.00     0.243 C 
BRANCH   8   9
HETATM    9  C3  UNL     1       0.714 -31.638  16.845  1.00  0.00     0.255 C 
HETATM   10  N3  UNL     1       1.083 -32.567  17.843  1.00  0.00    -0.299 N 
HETATM   11  C2  UNL     1       0.924 -33.951  17.608  1.00  0.00     0.190 C 
ATOM     12  H3  UNL     1       1.463 -32.239  18.731  1.00  0.00     0.171 HD
HETATM   13  N1  UNL     1       1.254 -34.840  18.506  1.00  0.00    -0.369 N 
HETATM   14  N2  UNL     1       0.400 -34.418  16.386  1.00  0.00    -0.063 NA
HETATM   15  C1  UNL     1       1.795 -34.494  19.786  1.00  0.00     0.148 C 
ATOM     16  H1  UNL     1       1.119 -35.827  18.286  1.00  0.00     0.161 HD
HETATM   17  O1  UNL     1       0.250 -32.080  15.766  1.00  0.00    -0.270 OA
ENDBRANCH   8   9
BRANCH   8  18
HETATM   18  O2  UNL     1       2.252 -29.927  17.253  1.00  0.00    -0.384 OA
ATOM     19  H2  UNL     1       2.685 -30.686  17.626  1.00  0.00     0.210 HD
ENDBRANCH   8  18
ENDBRANCH   1   8
BRANCH   7  20
HETATM   20  O5  UNL     1       1.934 -29.136  14.263  1.00  0.00    -0.391 OA
ATOM     21  H5  UNL     1       2.006 -28.592  13.489  1.00  0.00     0.210 HD
ENDBRANCH   7  20
BRANCH   5  22
HETATM   22  N5  UNL     1      -1.837 -28.191  14.424  1.00  0.00    -0.183 N 
HETATM   23  N6  UNL     1      -2.780 -29.067  14.689  1.00  0.00    -0.222 N 
HETATM   24  N7  UNL     1      -3.423 -29.395  13.560  1.00  0.00    -0.264 N 
ATOM     25  H6  UNL     1      -2.990 -29.440  15.614  1.00  0.00     0.210 HD
HETATM   26  C7  UNL     1      -2.860 -28.700  12.555  1.00  0.00     0.203 A 
ATOM     27  H7  UNL     1      -4.198 -30.053  13.478  1.00  0.00     0.190 HD
HETATM   28  N9  UNL     1      -1.886 -27.967  13.122  1.00  0.00    -0.260 N 
ATOM     29  H9  UNL     1      -1.271 -27.327  12.619  1.00  0.00     0.190 HD
BRANCH  26  30
HETATM   30  C8  UNL     1      -3.231 -28.730  11.123  1.00  0.00     0.301 C 
HETATM   31  N8  UNL     1      -2.595 -29.667  10.283  1.00  0.00    -0.054 NA
HETATM   32  O3  UNL     1      -4.087 -27.944  10.676  1.00  0.00    -0.268 OA
ENDBRANCH  26  30
ENDBRANCH   5  22
BRANCH   6  33
HETATM   33  O4  UNL     1       0.893 -26.115  15.126  1.00  0.00    -0.389 OA
ATOM     34  H4  UNL     1       1.766 -25.994  14.771  1.00  0.00     0.210 HD
ENDBRANCH   6  33
TORSDOF 7
ENDMDL
MODEL 3
REMARK VINA RESULT: -6.769569125      1.239      1.504
REMARK  7 active torsions:
REMARK  status: ('A' for Active; 'I' for Inactive)
REMARK       I    between atoms: N1_2  and  C2_4 
REMARK       I    between atoms: C2_4  and  N3_6 
REMARK       I    between atoms: N3_6  and  C3_8 
REMARK    1  A    between atoms: C3_8  and  C4_10 
REMARK    2  A    between atoms: C4_10  and  O2_11 
REMARK    3  A    between atoms: C4_10  and  C5_13 
REMARK    4  A    between atoms: C6_17  and  N5_18 
REMARK    5  A    between atoms: C7_23  and  C8_24 
REMARK    6  A    between atoms: C9_29  and  O4_30 
REMARK    7  A    between atoms: C10_32  and  O5_33 
ROOT
HETATM    1  C5  UNL     1       0.256 -29.610  15.804  1.00  0.00     0.257 C 
HETATM    2  N4  UNL     1      -0.782 -28.954  16.559  1.00  0.00    -0.038 N 
ATOM      3  H41 UNL     1      -0.623 -28.910  17.566  1.00  0.00     0.280 HD
ATOM      4  H42 UNL     1      -1.661 -29.468  16.625  1.00  0.00     0.280 HD
HETATM    5  C6  UNL     1      -0.868 -27.668  15.890  1.00  0.00     0.358 C 
HETATM    6  C9  UNL     1       0.538 -27.317  15.446  1.00  0.00     0.202 C 
HETATM    7  C10 UNL     1       1.333 -28.628  15.527  1.00  0.00     0.184 C 
ENDROOT
BRANCH   1   8
HETATM    8  C4  UNL     1       0.678 -30.929  16.353  1.00  0.00     0.243 C 
BRANCH   8   9
HETATM    9  C3  UNL     1       0.404 -31.120  17.792  1.00  0.00     0.255 C 
HETATM   10  N3  UNL     1       1.500 -31.255  18.672  1.00  0.00    -0.299 N 
HETATM   11  C2  UNL     1       1.272 -31.438  20.055  1.00  0.00     0.190 C 
ATOM     12  H3  UNL     1       2.453 -31.220  18.311  1.00  0.00     0.171 HD
HETATM   13  N1  UNL     1       2.260 -31.567  20.900  1.00  0.00    -0.369 N 
HETATM   14  N2  UNL     1      -0.040 -31.489  20.568  1.00  0.00    -0.063 NA
HETATM   15  C1  UNL     1       3.636 -31.532  20.505  1.00  0.00     0.148 C 
ATOM     16  H1  UNL     1       2.041 -31.697  21.888  1.00  0.00     0.161 HD
HETATM   17  O1  UNL     1      -0.753 -31.168  18.274  1.00  0.00    -0.270 OA
ENDBRANCH   8   9
BRANCH   8  18
HETATM   18  O2  UNL     1       0.005 -31.910  15.630  1.00  0.00    -0.384 OA
ATOM     19  H2  UNL     1       0.569 -32.219  14.930  1.00  0.00     0.210 HD
ENDBRANCH   8  18
ENDBRANCH   1   8
BRANCH   7  20
HETATM   20  O5  UNL     1       1.919 -28.816  14.257  1.00  0.00    -0.391 OA
ATOM     21  H5  UNL     1       2.692 -28.279  14.132  1.00  0.00     0.210 HD
ENDBRANCH   7  20
BRANCH   5  22
HETATM   22  N5  UNL     1      -1.782 -27.731  14.773  1.00  0.00    -0.183 N 
HETATM   23  N6  UNL     1      -1.485 -27.964  13.515  1.00  0.00    -0.222 N 
HETATM   24  N7  UNL     1      -2.602 -27.944  12.775  1.00  0.00    -0.264 N 
ATOM     25  H6  UNL     1      -0.546 -28.134  13.155  1.00  0.00     0.210 HD
HETATM   26  C7  UNL     1      -3.633 -27.689  13.602  1.00  0.00     0.203 A 
ATOM     27  H7  UNL     1      -2.661 -28.095  11.768  1.00  0.00     0.190 HD
HETATM   28  N9  UNL     1      -3.092 -27.564  14.827  1.00  0.00    -0.260 N 
ATOM     29  H9  UNL     1      -3.618 -27.367  15.678  1.00  0.00     0.190 HD
BRANCH  26  30
HETATM   30  C8  UNL     1      -5.064 -27.571  13.245  1.00  0.00     0.301 C 
HETATM   31  N8  UNL     1      -5.408 -26.878  12.067  1.00  0.00    -0.054 NA
HETATM   32  O3  UNL     1      -5.939 -28.075  13.973  1.00  0.00    -0.268 OA
ENDBRANCH  26  30
ENDBRANCH   5  22
BRANCH   6  33
HETATM   33  O4  UNL     1       1.049 -26.397  16.343  1.00  0.00    -0.389 OA
ATOM     34  H4  UNL     1       1.980 -26.310  16.172  1.00  0.00     0.210 HD
ENDBRANCH   6  33
TORSDOF 7
ENDMDL
MODEL 4
REMARK VINA RESULT: -6.566354429      2.435      3.008
REMARK  7 active torsions:
REMARK  status: ('A' for Active; 'I' for Inactive)
REMARK       I    between atoms: N1_2  and  C2_4 
REMARK       I    between atoms: C2_4  and  N3_6 
REMARK       I    between atoms: N3_6  and  C3_8 
REMARK    1  A    between atoms: C3_8  and  C4_10 
REMARK    2  A    between atoms: C4_10  and  O2_11 
REMARK    3  A    between atoms: C4_10  and  C5_13 
REMARK    4  A    between atoms: C6_17  and  N5_18 
REMARK    5  A    between atoms: C7_23  and  C8_24 
REMARK    6  A    between atoms: C9_29  and  O4_30 
REMARK    7  A    between atoms: C10_32  and  O5_33 
ROOT
HETATM    1  C5  UNL     1       0.065 -29.434  16.045  1.00  0.00     0.257 C 
HETATM    2  N4  UNL     1      -0.943 -28.573  16.612  1.00  0.00    -0.038 N 
ATOM      3  H41 UNL     1      -0.804 -28.332  17.594  1.00  0.00     0.280 HD
ATOM      4  H42 UNL     1      -1.856 -29.006  16.750  1.00  0.00     0.280 HD
HETATM    5  C6  UNL     1      -0.926 -27.450  15.692  1.00  0.00     0.358 C 
HETATM    6  C9  UNL     1       0.511 -27.287  15.235  1.00  0.00     0.202 C 
HETATM    7  C10 UNL     1       1.212 -28.599  15.612  1.00  0.00     0.184 C 
ENDROOT
BRANCH   1   8
HETATM    8  C4  UNL     1       0.384 -30.635  16.867  1.00  0.00     0.243 C 
BRANCH   8   9
HETATM    9  C3  UNL     1       0.204 -31.928  16.176  1.00  0.00     0.255 C 
HETATM   10  N3  UNL     1       1.072 -32.992  16.505  1.00  0.00    -0.299 N 
HETATM   11  C2  UNL     1       0.927 -34.242  15.863  1.00  0.00     0.190 C 
ATOM     12  H3  UNL     1       1.803 -32.858  17.204  1.00  0.00     0.171 HD
HETATM   13  N1  UNL     1       1.711 -35.249  16.140  1.00  0.00    -0.369 N 
HETATM   14  N2  UNL     1      -0.077 -34.441  14.894  1.00  0.00    -0.063 NA
HETATM   15  C1  UNL     1       2.767 -35.175  17.104  1.00  0.00     0.148 C 
ATOM     16  H1  UNL     1       1.564 -36.130  15.647  1.00  0.00     0.161 HD
HETATM   17  O1  UNL     1      -0.681 -32.131  15.311  1.00  0.00    -0.270 OA
ENDBRANCH   8   9
BRANCH   8  18
HETATM   18  O2  UNL     1       1.711 -30.517  17.271  1.00  0.00    -0.384 OA
ATOM     19  H2  UNL     1       1.766 -29.873  17.967  1.00  0.00     0.210 HD
ENDBRANCH   8  18
ENDBRANCH   1   8
BRANCH   7  20
HETATM   20  O5  UNL     1       1.813 -29.082  14.429  1.00  0.00    -0.391 OA
ATOM     21  H5  UNL     1       2.209 -29.937  14.547  1.00  0.00     0.210 HD
ENDBRANCH   7  20
BRANCH   5  22
HETATM   22  N5  UNL     1      -1.816 -27.686  14.579  1.00  0.00    -0.183 N 
HETATM   23  N6  UNL     1      -1.483 -27.963  13.338  1.00  0.00    -0.222 N 
HETATM   24  N7  UNL     1      -2.589 -28.115  12.597  1.00  0.00    -0.264 N 
ATOM     25  H6  UNL     1      -0.528 -28.049  12.992  1.00  0.00     0.210 HD
HETATM   26  C7  UNL     1      -3.649 -27.925  13.404  1.00  0.00     0.203 A 
ATOM     27  H7  UNL     1      -2.621 -28.335  11.601  1.00  0.00     0.190 HD
HETATM   28  N9  UNL     1      -3.137 -27.663  14.619  1.00  0.00    -0.260 N 
ATOM     29  H9  UNL     1      -3.690 -27.472  15.455  1.00  0.00     0.190 HD
BRANCH  26  30
HETATM   30  C8  UNL     1      -5.081 -27.990  13.037  1.00  0.00     0.301 C 
HETATM   31  N8  UNL     1      -5.474 -27.509  11.771  1.00  0.00    -0.054 NA
HETATM   32  O3  UNL     1      -5.915 -28.461  13.832  1.00  0.00    -0.268 OA
ENDBRANCH  26  30
ENDBRANCH   5  22
BRANCH   6  33
HETATM   33  O4  UNL     1       1.064 -26.235  15.944  1.00  0.00    -0.389 OA
ATOM     34  H4  UNL     1       0.406 -25.914  16.549  1.00  0.00     0.210 HD
ENDBRANCH   6  33
TORSDOF 7
ENDMDL
MODEL 5
REMARK VINA RESULT: -6.521855880      2.084      2.856
REMARK  7 active torsions:
REMARK  status: ('A' for Active; 'I' for Inactive)
REMARK       I    between atoms: N1_2  and  C2_4 
REMARK       I    between atoms: C2_4  and  N3_6 
REMARK       I    between atoms: N3_6  and  C3_8 
REMARK    1  A    between atoms: C3_8  and  C4_10 
REMARK    2  A    between atoms: C4_10  and  O2_11 
REMARK    3  A    between atoms: C4_10  and  C5_13 
REMARK    4  A    between atoms: C6_17  and  N5_18 
REMARK    5  A    between atoms: C7_23  and  C8_24 
REMARK    6  A    between atoms: C9_29  and  O4_30 
REMARK    7  A    between atoms: C10_32  and  O5_33 
ROOT
HETATM    1  C5  UNL     1       0.206 -29.207  16.194  1.00  0.00     0.257 C 
HETATM    2  N4  UNL     1      -0.830 -28.248  16.487  1.00  0.00    -0.038 N 
ATOM      3  H41 UNL     1      -0.670 -27.679  17.319  1.00  0.00     0.280 HD
ATOM      4  H42 UNL     1      -1.711 -28.646  16.813  1.00  0.00     0.280 HD
HETATM    5  C6  UNL     1      -0.912 -27.509  15.240  1.00  0.00     0.358 C 
HETATM    6  C9  UNL     1       0.495 -27.451  14.678  1.00  0.00     0.202 C 
HETATM    7  C10 UNL     1       1.285 -28.523  15.441  1.00  0.00     0.184 C 
ENDROOT
BRANCH   1   8
HETATM    8  C4  UNL     1       0.623 -30.038  17.358  1.00  0.00     0.243 C 
BRANCH   8   9
HETATM    9  C3  UNL     1       0.051 -31.399  17.388  1.00  0.00     0.255 C 
HETATM   10  N3  UNL     1      -1.316 -31.560  17.072  1.00  0.00    -0.299 N 
HETATM   11  C2  UNL     1      -1.895 -32.849  17.091  1.00  0.00     0.190 C 
ATOM     12  H3  UNL     1      -1.884 -30.748  16.831  1.00  0.00     0.171 HD
HETATM   13  N1  UNL     1      -3.155 -33.038  16.805  1.00  0.00    -0.369 N 
HETATM   14  N2  UNL     1      -1.122 -33.980  17.423  1.00  0.00    -0.063 NA
HETATM   15  C1  UNL     1      -4.044 -31.972  16.451  1.00  0.00     0.148 C 
ATOM     16  H1  UNL     1      -3.523 -33.988  16.834  1.00  0.00     0.161 HD
HETATM   17  O1  UNL     1       0.717 -32.421  17.680  1.00  0.00    -0.270 OA
ENDBRANCH   8   9
BRANCH   8  18
HETATM   18  O2  UNL     1       2.012 -30.131  17.319  1.00  0.00    -0.384 OA
ATOM     19  H2  UNL     1       2.364 -29.339  16.931  1.00  0.00     0.210 HD
ENDBRANCH   8  18
ENDBRANCH   1   8
BRANCH   7  20
HETATM   20  O5  UNL     1       1.870 -29.356  14.463  1.00  0.00    -0.391 OA
ATOM     21  H5  UNL     1       2.305 -28.861  13.779  1.00  0.00     0.210 HD
ENDBRANCH   7  20
BRANCH   5  22
HETATM   22  N5  UNL     1      -1.827 -28.150  14.323  1.00  0.00    -0.183 N 
HETATM   23  N6  UNL     1      -2.746 -29.043  14.611  1.00  0.00    -0.222 N 
HETATM   24  N7  UNL     1      -3.395 -29.402  13.495  1.00  0.00    -0.264 N 
ATOM     25  H6  UNL     1      -2.937 -29.409  15.544  1.00  0.00     0.210 HD
HETATM   26  C7  UNL     1      -2.860 -28.707  12.474  1.00  0.00     0.203 A 
ATOM     27  H7  UNL     1      -4.156 -30.078  13.431  1.00  0.00     0.190 HD
HETATM   28  N9  UNL     1      -1.896 -27.945  13.020  1.00  0.00    -0.260 N 
ATOM     29  H9  UNL     1      -1.301 -27.299  12.501  1.00  0.00     0.190 HD
BRANCH  26  30
HETATM   30  C8  UNL     1      -3.247 -28.766  11.047  1.00  0.00     0.301 C 
HETATM   31  N8  UNL     1      -2.576 -29.676  10.205  1.00  0.00    -0.054 NA
HETATM   32  O3  UNL     1      -4.145 -28.025  10.606  1.00  0.00    -0.268 OA
ENDBRANCH  26  30
ENDBRANCH   5  22
BRANCH   6  33
HETATM   33  O4  UNL     1       1.010 -26.197  14.955  1.00  0.00    -0.389 OA
ATOM     34  H4  UNL     1       1.728 -26.038  14.353  1.00  0.00     0.210 HD
ENDBRANCH   6  33
TORSDOF 7
ENDMDL
