MODEL 1
REMARK VINA RESULT: -5.455426887      0.000      0.000
REMARK  9 active torsions:
REMARK  status: ('A' for Active; 'I' for Inactive)
REMARK    1  A    between atoms: N1_1  and  N2_4 
REMARK    2  A    between atoms: C2_9  and  N4_10 
REMARK    3  A    between atoms: C3_11  and  C4_12 
REMARK    4  A    between atoms: C4_12  and  N5_13 
REMARK       I    between atoms: N5_13  and  C5_15 
REMARK    5  A    between atoms: C5_15  and  O2_17 
REMARK    6  A    between atoms: O2_17  and  N6_18 
REMARK    7  A    between atoms: C6_21  and  O3_22 
REMARK    8  A    between atoms: C9_30  and  O6_31 
REMARK    9  A    between atoms: C10_33  and  O7_34 
ROOT
HETATM    1  N4  UNL     1      -3.439 -28.540  13.296  1.00  0.00    -0.249 N 
HETATM    2  C3  UNL     1      -4.368 -27.628  13.301  1.00  0.00     0.079 A 
HETATM    3  C6  UNL     1      -5.247 -27.559  12.169  1.00  0.00     0.159 A 
HETATM    4  C7  UNL     1      -5.174 -28.384  11.110  1.00  0.00     0.284 A 
HETATM    5  O4  UNL     1      -5.926 -28.361  10.106  1.00  0.00    -0.265 OA
HETATM    6  N7  UNL     1      -4.206 -29.323  11.133  1.00  0.00    -0.273 N 
ATOM      7  H7  UNL     1      -4.096 -29.979  10.360  1.00  0.00     0.173 HD
HETATM    8  C8  UNL     1      -3.399 -29.370  12.188  1.00  0.00     0.335 A 
HETATM    9  O5  UNL     1      -2.511 -30.290  12.140  1.00  0.00    -0.246 OA
ENDROOT
BRANCH   1  10
HETATM   10  C2  UNL     1      -2.355 -28.574  14.191  1.00  0.00     0.126 C 
HETATM   11  N3  UNL     1      -1.092 -27.993  13.982  1.00  0.00    -0.330 N 
HETATM   12  C1  UNL     1      -0.445 -28.110  15.268  1.00  0.00     0.129 C 
ATOM     13  H3  UNL     1      -0.720 -27.585  13.124  1.00  0.00     0.168 HD
HETATM   14  N2  UNL     1       0.462 -27.351  15.763  1.00  0.00    -0.293 N 
HETATM   15  C10 UNL     1      -1.014 -29.283  15.981  1.00  0.00     0.223 C 
ATOM     16  H2  UNL     1       0.808 -27.587  16.692  1.00  0.00     0.187 HD
HETATM   17  C9  UNL     1      -2.280 -29.667  15.210  1.00  0.00     0.222 C 
BRANCH  14  18
HETATM   18  N1  UNL     1       1.018 -26.231  15.145  1.00  0.00    -0.344 N 
ATOM     19  H12 UNL     1       0.750 -26.079  14.172  1.00  0.00     0.176 HD
ATOM     20  H11 UNL     1       1.658 -25.564  15.577  1.00  0.00     0.176 HD
ENDBRANCH  14  18
BRANCH  15  21
HETATM   21  O7  UNL     1      -0.079 -30.310  15.946  1.00  0.00    -0.385 OA
ATOM     22  H7  UNL     1      -0.024 -30.630  15.053  1.00  0.00     0.210 HD
ENDBRANCH  15  21
BRANCH  17  23
HETATM   23  O6  UNL     1      -2.212 -30.957  14.898  1.00  0.00    -0.385 OA
ATOM     24  H6  UNL     1      -2.953 -31.459  14.580  1.00  0.00     0.210 HD
ENDBRANCH  17  23
ENDBRANCH   1  10
BRANCH   2  25
HETATM   25  C4  UNL     1      -4.667 -26.551  14.217  1.00  0.00     0.185 C 
BRANCH  25  26
HETATM   26  N5  UNL     1      -5.706 -26.963  15.137  1.00  0.00    -0.330 N 
HETATM   27  C5  UNL     1      -7.037 -26.704  15.329  1.00  0.00     0.382 C 
HETATM   28  O1  UNL     1      -7.750 -25.959  14.637  1.00  0.00    -0.236 OA
ATOM     29  H5  UNL     1      -5.352 -27.626  15.827  1.00  0.00     0.165 HD
BRANCH  27  30
HETATM   30  O2  UNL     1      -7.697 -27.317  16.411  1.00  0.00    -0.188 OA
BRANCH  30  31
HETATM   31  N6  UNL     1      -8.725 -26.724  17.024  1.00  0.00    -0.301 N 
ATOM     32  H62 UNL     1      -8.527 -25.970  17.682  1.00  0.00     0.184 HD
ATOM     33  H61 UNL     1      -9.687 -27.011  16.845  1.00  0.00     0.184 HD
ENDBRANCH  30  31
ENDBRANCH  27  30
ENDBRANCH  25  26
ENDBRANCH   2  25
BRANCH   3  34
HETATM   34  O3  UNL     1      -6.258 -26.582  12.127  1.00  0.00    -0.354 OA
ATOM     35  H3  UNL     1      -6.046 -25.693  11.865  1.00  0.00     0.218 HD
ENDBRANCH   3  34
TORSDOF 9
ENDMDL
MODEL 2
REMARK VINA RESULT: -5.410352083      1.729      4.103
REMARK  9 active torsions:
REMARK  status: ('A' for Active; 'I' for Inactive)
REMARK    1  A    between atoms: N1_1  and  N2_4 
REMARK    2  A    between atoms: C2_9  and  N4_10 
REMARK    3  A    between atoms: C3_11  and  C4_12 
REMARK    4  A    between atoms: C4_12  and  N5_13 
REMARK       I    between atoms: N5_13  and  C5_15 
REMARK    5  A    between atoms: C5_15  and  O2_17 
REMARK    6  A    between atoms: O2_17  and  N6_18 
REMARK    7  A    between atoms: C6_21  and  O3_22 
REMARK    8  A    between atoms: C9_30  and  O6_31 
REMARK    9  A    between atoms: C10_33  and  O7_34 
ROOT
HETATM    1  N4  UNL     1      -3.445 -27.633  13.474  1.00  0.00    -0.249 N 
HETATM    2  C3  UNL     1      -3.721 -28.149  12.312  1.00  0.00     0.079 A 
HETATM    3  C6  UNL     1      -5.009 -27.872  11.744  1.00  0.00     0.159 A 
HETATM    4  C7  UNL     1      -5.942 -27.106  12.335  1.00  0.00     0.284 A 
HETATM    5  O4  UNL     1      -7.075 -26.834  11.869  1.00  0.00    -0.265 OA
HETATM    6  N7  UNL     1      -5.628 -26.580  13.536  1.00  0.00    -0.273 N 
ATOM      7  H7  UNL     1      -6.292 -25.990  14.039  1.00  0.00     0.173 HD
HETATM    8  C8  UNL     1      -4.432 -26.849  14.049  1.00  0.00     0.335 A 
HETATM    9  O5  UNL     1      -4.205 -26.310  15.186  1.00  0.00    -0.246 OA
ENDROOT
BRANCH   1  10
HETATM   10  C2  UNL     1      -2.349 -28.011  14.271  1.00  0.00     0.126 C 
HETATM   11  N3  UNL     1      -1.013 -27.621  14.076  1.00  0.00    -0.330 N 
HETATM   12  C1  UNL     1      -0.345 -28.079  15.273  1.00  0.00     0.129 C 
ATOM     13  H3  UNL     1      -0.609 -27.131  13.278  1.00  0.00     0.168 HD
HETATM   14  N2  UNL     1       0.701 -27.585  15.826  1.00  0.00    -0.293 N 
HETATM   15  C10 UNL     1      -1.085 -29.249  15.811  1.00  0.00     0.223 C 
ATOM     16  H2  UNL     1       1.036 -28.041  16.674  1.00  0.00     0.187 HD
HETATM   17  C9  UNL     1      -2.429 -29.268  15.078  1.00  0.00     0.222 C 
BRANCH  14  18
HETATM   18  N1  UNL     1       1.422 -26.480  15.373  1.00  0.00    -0.344 N 
ATOM     19  H12 UNL     1       0.960 -25.904  14.668  1.00  0.00     0.176 HD
ATOM     20  H11 UNL     1       2.355 -26.206  15.682  1.00  0.00     0.176 HD
ENDBRANCH  14  18
BRANCH  15  21
HETATM   21  O7  UNL     1      -0.349 -30.394  15.532  1.00  0.00    -0.385 OA
ATOM     22  H7  UNL     1      -0.929 -31.143  15.597  1.00  0.00     0.210 HD
ENDBRANCH  15  21
BRANCH  17  23
HETATM   23  O6  UNL     1      -2.604 -30.473  14.543  1.00  0.00    -0.385 OA
ATOM     24  H6  UNL     1      -2.930 -31.220  15.029  1.00  0.00     0.210 HD
ENDBRANCH  17  23
ENDBRANCH   1  10
BRANCH   2  25
HETATM   25  C4  UNL     1      -2.999 -29.066  11.459  1.00  0.00     0.185 C 
BRANCH  25  26
HETATM   26  N5  UNL     1      -3.403 -30.425  11.748  1.00  0.00    -0.330 N 
HETATM   27  C5  UNL     1      -3.264 -31.658  11.169  1.00  0.00     0.382 C 
HETATM   28  O1  UNL     1      -2.650 -31.915  10.121  1.00  0.00    -0.236 OA
ATOM     29  H5  UNL     1      -3.935 -30.480  12.617  1.00  0.00     0.165 HD
BRANCH  27  30
HETATM   30  O2  UNL     1      -3.867 -32.770  11.789  1.00  0.00    -0.188 OA
BRANCH  30  31
HETATM   31  N6  UNL     1      -3.788 -32.956  13.110  1.00  0.00    -0.301 N 
ATOM     32  H62 UNL     1      -4.115 -32.209  13.724  1.00  0.00     0.184 HD
ATOM     33  H61 UNL     1      -3.413 -33.819  13.502  1.00  0.00     0.184 HD
ENDBRANCH  30  31
ENDBRANCH  27  30
ENDBRANCH  25  26
ENDBRANCH   2  25
BRANCH   3  34
HETATM   34  O3  UNL     1      -5.355 -28.418  10.494  1.00  0.00    -0.354 OA
ATOM     35  H3  UNL     1      -5.971 -29.140  10.448  1.00  0.00     0.218 HD
ENDBRANCH   3  34
TORSDOF 9
ENDMDL
MODEL 3
REMARK VINA RESULT: -5.350181184      2.599      6.405
REMARK  9 active torsions:
REMARK  status: ('A' for Active; 'I' for Inactive)
REMARK    1  A    between atoms: N1_1  and  N2_4 
REMARK    2  A    between atoms: C2_9  and  N4_10 
REMARK    3  A    between atoms: C3_11  and  C4_12 
REMARK    4  A    between atoms: C4_12  and  N5_13 
REMARK       I    between atoms: N5_13  and  C5_15 
REMARK    5  A    between atoms: C5_15  and  O2_17 
REMARK    6  A    between atoms: O2_17  and  N6_18 
REMARK    7  A    between atoms: C6_21  and  O3_22 
REMARK    8  A    between atoms: C9_30  and  O6_31 
REMARK    9  A    between atoms: C10_33  and  O7_34 
ROOT
HETATM    1  N4  UNL     1      -2.815 -29.693  14.385  1.00  0.00    -0.249 N 
HETATM    2  C3  UNL     1      -2.013 -29.395  15.366  1.00  0.00     0.079 A 
HETATM    3  C6  UNL     1      -1.744 -30.408  16.345  1.00  0.00     0.159 A 
HETATM    4  C7  UNL     1      -2.262 -31.648  16.304  1.00  0.00     0.284 A 
HETATM    5  O4  UNL     1      -2.046 -32.564  17.135  1.00  0.00    -0.265 OA
HETATM    6  N7  UNL     1      -3.085 -31.932  15.275  1.00  0.00    -0.273 N 
ATOM      7  H7  UNL     1      -3.512 -32.854  15.185  1.00  0.00     0.173 HD
HETATM    8  C8  UNL     1      -3.326 -30.981  14.379  1.00  0.00     0.335 A 
HETATM    9  O5  UNL     1      -4.110 -31.327  13.430  1.00  0.00    -0.246 OA
ENDROOT
BRANCH   1  10
HETATM   10  C2  UNL     1      -3.376 -28.752  13.503  1.00  0.00     0.126 C 
HETATM   11  N3  UNL     1      -4.681 -28.234  13.568  1.00  0.00    -0.330 N 
HETATM   12  C1  UNL     1      -4.671 -27.160  12.602  1.00  0.00     0.129 C 
ATOM     13  H3  UNL     1      -5.453 -28.542  14.159  1.00  0.00     0.168 HD
HETATM   14  N2  UNL     1      -5.383 -26.094  12.605  1.00  0.00    -0.293 N 
HETATM   15  C10 UNL     1      -3.658 -27.469  11.560  1.00  0.00     0.223 C 
ATOM     16  H2  UNL     1      -5.243 -25.440  11.835  1.00  0.00     0.187 HD
HETATM   17  C9  UNL     1      -2.812 -28.613  12.124  1.00  0.00     0.222 C 
BRANCH  14  18
HETATM   18  N1  UNL     1      -6.334 -25.748  13.565  1.00  0.00    -0.344 N 
ATOM     19  H12 UNL     1      -5.967 -25.366  14.438  1.00  0.00     0.176 HD
ATOM     20  H11 UNL     1      -7.345 -25.844  13.469  1.00  0.00     0.176 HD
ENDBRANCH  14  18
BRANCH  15  21
HETATM   21  O7  UNL     1      -4.327 -27.866  10.408  1.00  0.00    -0.385 OA
ATOM     22  H7  UNL     1      -3.839 -27.549   9.657  1.00  0.00     0.210 HD
ENDBRANCH  15  21
BRANCH  17  23
HETATM   23  O6  UNL     1      -2.791 -29.604  11.238  1.00  0.00    -0.385 OA
ATOM     24  H6  UNL     1      -2.050 -30.186  11.120  1.00  0.00     0.210 HD
ENDBRANCH  17  23
ENDBRANCH   1  10
BRANCH   2  25
HETATM   25  C4  UNL     1      -1.366 -28.160  15.751  1.00  0.00     0.185 C 
BRANCH  25  26
HETATM   26  N5  UNL     1       0.070 -28.341  15.758  1.00  0.00    -0.330 N 
HETATM   27  C5  UNL     1       1.173 -27.623  15.382  1.00  0.00     0.382 C 
HETATM   28  O1  UNL     1       1.179 -26.479  14.899  1.00  0.00    -0.236 OA
ATOM     29  H5  UNL     1       0.330 -29.248  16.147  1.00  0.00     0.165 HD
BRANCH  27  30
HETATM   30  O2  UNL     1       2.446 -28.206  15.536  1.00  0.00    -0.188 OA
BRANCH  30  31
HETATM   31  N6  UNL     1       2.585 -29.499  15.845  1.00  0.00    -0.301 N 
ATOM     32  H62 UNL     1       2.742 -29.750  16.821  1.00  0.00     0.184 HD
ATOM     33  H61 UNL     1       2.536 -30.223  15.128  1.00  0.00     0.184 HD
ENDBRANCH  30  31
ENDBRANCH  27  30
ENDBRANCH  25  26
ENDBRANCH   2  25
BRANCH   3  34
HETATM   34  O3  UNL     1      -0.892 -30.126  17.429  1.00  0.00    -0.354 OA
ATOM     35  H3  UNL     1      -1.144 -30.386  18.307  1.00  0.00     0.218 HD
ENDBRANCH   3  34
TORSDOF 9
ENDMDL
MODEL 4
REMARK VINA RESULT: -5.312543555      2.959      4.872
REMARK  9 active torsions:
REMARK  status: ('A' for Active; 'I' for Inactive)
REMARK    1  A    between atoms: N1_1  and  N2_4 
REMARK    2  A    between atoms: C2_9  and  N4_10 
REMARK    3  A    between atoms: C3_11  and  C4_12 
REMARK    4  A    between atoms: C4_12  and  N5_13 
REMARK       I    between atoms: N5_13  and  C5_15 
REMARK    5  A    between atoms: C5_15  and  O2_17 
REMARK    6  A    between atoms: O2_17  and  N6_18 
REMARK    7  A    between atoms: C6_21  and  O3_22 
REMARK    8  A    between atoms: C9_30  and  O6_31 
REMARK    9  A    between atoms: C10_33  and  O7_34 
ROOT
HETATM    1  N4  UNL     1      -1.878 -28.645  14.917  1.00  0.00    -0.249 N 
HETATM    2  C3  UNL     1      -2.718 -29.581  14.581  1.00  0.00     0.079 A 
HETATM    3  C6  UNL     1      -4.092 -29.213  14.392  1.00  0.00     0.159 A 
HETATM    4  C7  UNL     1      -4.560 -27.960  14.531  1.00  0.00     0.284 A 
HETATM    5  O4  UNL     1      -5.749 -27.597  14.368  1.00  0.00    -0.265 OA
HETATM    6  N7  UNL     1      -3.667 -27.010  14.875  1.00  0.00    -0.273 N 
ATOM      7  H7  UNL     1      -3.957 -26.040  14.998  1.00  0.00     0.173 HD
HETATM    8  C8  UNL     1      -2.399 -27.369  15.049  1.00  0.00     0.335 A 
HETATM    9  O5  UNL     1      -1.612 -26.413  15.367  1.00  0.00    -0.246 OA
ENDROOT
BRANCH   1  10
HETATM   10  C2  UNL     1      -0.572 -28.881  15.384  1.00  0.00     0.126 C 
HETATM   11  N3  UNL     1      -0.205 -29.135  16.717  1.00  0.00    -0.330 N 
HETATM   12  C1  UNL     1       1.181 -29.531  16.620  1.00  0.00     0.129 C 
ATOM     13  H3  UNL     1      -0.781 -29.059  17.556  1.00  0.00     0.168 HD
HETATM   14  N2  UNL     1       1.832 -30.309  17.405  1.00  0.00    -0.293 N 
HETATM   15  C10 UNL     1       1.774 -28.894  15.416  1.00  0.00     0.223 C 
ATOM     16  H2  UNL     1       2.813 -30.477  17.182  1.00  0.00     0.187 HD
HETATM   17  C9  UNL     1       0.592 -28.370  14.596  1.00  0.00     0.222 C 
BRANCH  14  18
HETATM   18  N1  UNL     1       1.321 -30.944  18.536  1.00  0.00    -0.344 N 
ATOM     19  H12 UNL     1       0.964 -31.889  18.394  1.00  0.00     0.176 HD
ATOM     20  H11 UNL     1       1.276 -30.549  19.476  1.00  0.00     0.176 HD
ENDBRANCH  14  18
BRANCH  15  21
HETATM   21  O7  UNL     1       2.591 -27.852  15.834  1.00  0.00    -0.385 OA
ATOM     22  H7  UNL     1       3.135 -27.588  15.101  1.00  0.00     0.210 HD
ENDBRANCH  15  21
BRANCH  17  23
HETATM   23  O6  UNL     1       0.793 -27.081  14.338  1.00  0.00    -0.385 OA
ATOM     24  H6  UNL     1       1.580 -26.746  13.925  1.00  0.00     0.210 HD
ENDBRANCH  17  23
ENDBRANCH   1  10
BRANCH   2  25
HETATM   25  C4  UNL     1      -2.572 -31.012  14.434  1.00  0.00     0.185 C 
BRANCH  25  26
HETATM   26  N5  UNL     1      -2.849 -31.665  15.695  1.00  0.00    -0.330 N 
HETATM   27  C5  UNL     1      -2.127 -32.173  16.742  1.00  0.00     0.382 C 
HETATM   28  O1  UNL     1      -0.891 -32.162  16.859  1.00  0.00    -0.236 OA
ATOM     29  H5  UNL     1      -3.852 -31.777  15.845  1.00  0.00     0.165 HD
BRANCH  27  30
HETATM   30  O2  UNL     1      -2.816 -32.781  17.809  1.00  0.00    -0.188 OA
BRANCH  30  31
HETATM   31  N6  UNL     1      -4.151 -32.762  17.874  1.00  0.00    -0.301 N 
ATOM     32  H62 UNL     1      -4.673 -32.521  17.031  1.00  0.00     0.184 HD
ATOM     33  H61 UNL     1      -4.643 -32.981  18.740  1.00  0.00     0.184 HD
ENDBRANCH  30  31
ENDBRANCH  27  30
ENDBRANCH  25  26
ENDBRANCH   2  25
BRANCH   3  34
HETATM   34  O3  UNL     1      -5.037 -30.193  14.039  1.00  0.00    -0.354 OA
ATOM     35  H3  UNL     1      -5.249 -30.338  13.124  1.00  0.00     0.218 HD
ENDBRANCH   3  34
TORSDOF 9
ENDMDL
MODEL 5
REMARK VINA RESULT: -5.276210227      3.498      6.080
REMARK  9 active torsions:
REMARK  status: ('A' for Active; 'I' for Inactive)
REMARK    1  A    between atoms: N1_1  and  N2_4 
REMARK    2  A    between atoms: C2_9  and  N4_10 
REMARK    3  A    between atoms: C3_11  and  C4_12 
REMARK    4  A    between atoms: C4_12  and  N5_13 
REMARK       I    between atoms: N5_13  and  C5_15 
REMARK    5  A    between atoms: C5_15  and  O2_17 
REMARK    6  A    between atoms: O2_17  and  N6_18 
REMARK    7  A    between atoms: C6_21  and  O3_22 
REMARK    8  A    between atoms: C9_30  and  O6_31 
REMARK    9  A    between atoms: C10_33  and  O7_34 
ROOT
HETATM    1  N4  UNL     1       0.459 -29.583  16.515  1.00  0.00    -0.249 N 
HETATM    2  C3  UNL     1      -0.685 -29.120  16.102  1.00  0.00     0.079 A 
HETATM    3  C6  UNL     1      -0.725 -27.774  15.607  1.00  0.00     0.159 A 
HETATM    4  C7  UNL     1       0.349 -26.968  15.536  1.00  0.00     0.284 A 
HETATM    5  O4  UNL     1       0.357 -25.790  15.103  1.00  0.00    -0.265 OA
HETATM    6  N7  UNL     1       1.522 -27.475  15.965  1.00  0.00    -0.273 N 
ATOM      7  H7  UNL     1       2.375 -26.915  15.938  1.00  0.00     0.173 HD
HETATM    8  C8  UNL     1       1.540 -28.722  16.423  1.00  0.00     0.335 A 
HETATM    9  O5  UNL     1       2.689 -29.134  16.806  1.00  0.00    -0.246 OA
ENDROOT
BRANCH   1  10
HETATM   10  C2  UNL     1       0.616 -30.769  17.256  1.00  0.00     0.126 C 
HETATM   11  N3  UNL     1       1.392 -30.921  18.418  1.00  0.00    -0.330 N 
HETATM   12  C1  UNL     1       1.031 -32.233  18.901  1.00  0.00     0.129 C 
ATOM     13  H3  UNL     1       2.055 -30.260  18.824  1.00  0.00     0.168 HD
HETATM   14  N2  UNL     1       1.047 -32.656  20.112  1.00  0.00    -0.293 N 
HETATM   15  C10 UNL     1       0.601 -33.063  17.746  1.00  0.00     0.223 C 
ATOM     16  H2  UNL     1       0.757 -33.621  20.269  1.00  0.00     0.187 HD
HETATM   17  C9  UNL     1       0.390 -32.087  16.585  1.00  0.00     0.222 C 
BRANCH  14  18
HETATM   18  N1  UNL     1       1.424 -31.916  21.232  1.00  0.00    -0.344 N 
ATOM     19  H12 UNL     1       2.062 -32.381  21.879  1.00  0.00     0.176 HD
ATOM     20  H11 UNL     1       1.121 -30.967  21.453  1.00  0.00     0.176 HD
ENDBRANCH  14  18
BRANCH  15  21
HETATM   21  O7  UNL     1       1.616 -33.967  17.458  1.00  0.00    -0.385 OA
ATOM     22  H7  UNL     1       2.437 -33.491  17.425  1.00  0.00     0.210 HD
ENDBRANCH  15  21
BRANCH  17  23
HETATM   23  O6  UNL     1       1.098 -32.509  15.542  1.00  0.00    -0.385 OA
ATOM     24  H6  UNL     1       2.004 -32.786  15.601  1.00  0.00     0.210 HD
ENDBRANCH  17  23
ENDBRANCH   1  10
BRANCH   2  25
HETATM   25  C4  UNL     1      -2.020 -29.674  16.118  1.00  0.00     0.185 C 
BRANCH  25  26
HETATM   26  N5  UNL     1      -2.287 -30.344  14.863  1.00  0.00    -0.330 N 
HETATM   27  C5  UNL     1      -3.009 -30.095  13.726  1.00  0.00     0.382 C 
HETATM   28  O1  UNL     1      -3.674 -29.076  13.484  1.00  0.00    -0.236 OA
ATOM     29  H5  UNL     1      -1.809 -31.244  14.812  1.00  0.00     0.165 HD
BRANCH  27  30
HETATM   30  O2  UNL     1      -3.028 -31.070  12.710  1.00  0.00    -0.188 OA
BRANCH  30  31
HETATM   31  N6  UNL     1      -3.394 -30.764  11.461  1.00  0.00    -0.301 N 
ATOM     32  H62 UNL     1      -4.331 -31.025  11.154  1.00  0.00     0.184 HD
ATOM     33  H61 UNL     1      -2.758 -30.283  10.826  1.00  0.00     0.184 HD
ENDBRANCH  30  31
ENDBRANCH  27  30
ENDBRANCH  25  26
ENDBRANCH   2  25
BRANCH   3  34
HETATM   34  O3  UNL     1      -1.942 -27.228  15.161  1.00  0.00    -0.354 OA
ATOM     35  H3  UNL     1      -2.690 -27.202  15.746  1.00  0.00     0.218 HD
ENDBRANCH   3  34
TORSDOF 9
ENDMDL
