MODEL 1
REMARK VINA RESULT: -6.474073616      0.000      0.000
REMARK  8 active torsions:
REMARK  status: ('A' for Active; 'I' for Inactive)
REMARK    1  A    between atoms: N1_1  and  C1_4 
REMARK    2  A    between atoms: N3_8  and  C3_9 
REMARK    3  A    between atoms: C4_11  and  C5_12 
REMARK    4  A    between atoms: C5_12  and  C6_13 
REMARK    5  A    between atoms: C6_13  and  C7_14 
REMARK       I    between atoms: C7_14  and  N4_16 
REMARK    6  A    between atoms: C9_23  and  O3_24 
REMARK    7  A    between atoms: C9_23  and  O4_26 
REMARK    8  A    between atoms: C10_28  and  O5_29 
ROOT
HETATM    1  C3  UNL     1       0.226 -29.863  15.924  1.00  0.00     0.272 C 
HETATM    2  O1  UNL     1      -0.710 -29.076  16.554  1.00  0.00    -0.339 OA
HETATM    3  C4  UNL     1      -1.062 -27.939  15.871  1.00  0.00     0.223 C 
HETATM    4  N7  UNL     1       0.023 -27.156  15.386  1.00  0.00    -0.341 N 
ATOM      5  H7  UNL     1      -0.115 -26.316  14.823  1.00  0.00     0.161 HD
HETATM    6  C9  UNL     1       1.321 -27.637  15.745  1.00  0.00     0.273 C 
HETATM    7  C10 UNL     1       1.393 -29.107  15.368  1.00  0.00     0.252 C 
ENDROOT
BRANCH   1   8
HETATM    8  N3  UNL     1       0.638 -30.891  16.871  1.00  0.00    -0.265 N 
HETATM    9  C2  UNL     1       1.086 -30.587  18.115  1.00  0.00     0.208 A 
HETATM   10  N2  UNL     1       1.463 -31.535  18.984  1.00  0.00    -0.188 N 
HETATM   11  C1  UNL     1       1.412 -32.817  18.655  1.00  0.00     0.680 A 
ATOM     12  H2  UNL     1       1.794 -31.266  19.910  1.00  0.00     0.185 HD
HETATM   13  N8  UNL     1       0.977 -33.166  17.439  1.00  0.00    -0.141 N 
HETATM   14  C11 UNL     1       0.604 -32.205  16.582  1.00  0.00     0.344 A 
ATOM     15  H8  UNL     1       0.930 -34.148  17.168  1.00  0.00     0.189 HD
HETATM   16  O6  UNL     1       0.182 -32.492  15.411  1.00  0.00    -0.246 OA
BRANCH  11  17
HETATM   17  N1  UNL     1       1.790 -33.693  19.538  1.00  0.00    -0.234 N 
ATOM     18  H12 UNL     1       1.673 -33.545  20.540  1.00  0.00     0.174 HD
ATOM     19  H11 UNL     1       2.221 -34.556  19.206  1.00  0.00     0.174 HD
ENDBRANCH  11  17
ENDBRANCH   1   8
BRANCH   7  20
HETATM   20  O5  UNL     1       2.620 -29.616  15.851  1.00  0.00    -0.384 OA
ATOM     21  H5  UNL     1       2.594 -30.561  15.940  1.00  0.00     0.210 HD
ENDBRANCH   7  20
BRANCH   3  22
HETATM   22  C5  UNL     1      -2.016 -28.275  14.742  1.00  0.00     0.062 C 
BRANCH  22  23
HETATM   23  C6  UNL     1      -3.223 -27.371  14.787  1.00  0.00     0.107 C 
BRANCH  23  24
HETATM   24  C7  UNL     1      -4.403 -28.073  14.263  1.00  0.00     0.223 C 
HETATM   25  O2  UNL     1      -5.390 -28.265  14.982  1.00  0.00    -0.273 OA
HETATM   26  N4  UNL     1      -4.395 -28.524  12.930  1.00  0.00    -0.304 N 
HETATM   27  C8  UNL     1      -4.709 -27.726  11.983  1.00  0.00     0.203 C 
ATOM     28  H4  UNL     1      -4.138 -29.488  12.719  1.00  0.00     0.171 HD
HETATM   29  N5  UNL     1      -5.064 -26.398  12.269  1.00  0.00    -0.066 NA
HETATM   30  N6  UNL     1      -4.689 -28.225  10.636  1.00  0.00    -0.066 NA
ENDBRANCH  23  24
ENDBRANCH  22  23
ENDBRANCH   3  22
BRANCH   6  31
HETATM   31  O3  UNL     1       1.622 -27.469  17.096  1.00  0.00    -0.347 OA
ATOM     32  H3  UNL     1       1.947 -28.258  17.513  1.00  0.00     0.215 HD
ENDBRANCH   6  31
BRANCH   6  33
HETATM   33  O4  UNL     1       2.266 -26.973  14.963  1.00  0.00    -0.347 OA
ATOM     34  H4  UNL     1       2.167 -26.039  15.104  1.00  0.00     0.215 HD
ENDBRANCH   6  33
TORSDOF 8
ENDMDL
MODEL 2
REMARK VINA RESULT: -6.431094277      0.968      1.231
REMARK  8 active torsions:
REMARK  status: ('A' for Active; 'I' for Inactive)
REMARK    1  A    between atoms: N1_1  and  C1_4 
REMARK    2  A    between atoms: N3_8  and  C3_9 
REMARK    3  A    between atoms: C4_11  and  C5_12 
REMARK    4  A    between atoms: C5_12  and  C6_13 
REMARK    5  A    between atoms: C6_13  and  C7_14 
REMARK       I    between atoms: C7_14  and  N4_16 
REMARK    6  A    between atoms: C9_23  and  O3_24 
REMARK    7  A    between atoms: C9_23  and  O4_26 
REMARK    8  A    between atoms: C10_28  and  O5_29 
ROOT
HETATM    1  C3  UNL     1       0.236 -29.904  15.989  1.00  0.00     0.272 C 
HETATM    2  O1  UNL     1      -0.665 -29.099  16.649  1.00  0.00    -0.339 OA
HETATM    3  C4  UNL     1      -1.015 -27.955  15.979  1.00  0.00     0.223 C 
HETATM    4  N7  UNL     1       0.069 -27.192  15.461  1.00  0.00    -0.341 N 
ATOM      5  H7  UNL     1      -0.070 -26.348  14.905  1.00  0.00     0.161 HD
HETATM    6  C9  UNL     1       1.367 -27.698  15.781  1.00  0.00     0.273 C 
HETATM    7  C10 UNL     1       1.400 -29.168  15.399  1.00  0.00     0.252 C 
ENDROOT
BRANCH   1   8
HETATM    8  N3  UNL     1       0.656 -30.941  16.921  1.00  0.00    -0.265 N 
HETATM    9  C2  UNL     1       1.108 -30.651  18.167  1.00  0.00     0.208 A 
HETATM   10  N2  UNL     1       1.494 -31.607  19.023  1.00  0.00    -0.188 N 
HETATM   11  C1  UNL     1       1.447 -32.885  18.678  1.00  0.00     0.680 A 
ATOM     12  H2  UNL     1       1.827 -31.348  19.951  1.00  0.00     0.185 HD
HETATM   13  N8  UNL     1       1.008 -33.222  17.459  1.00  0.00    -0.141 N 
HETATM   14  C11 UNL     1       0.627 -32.251  16.617  1.00  0.00     0.344 A 
ATOM     15  H8  UNL     1       0.965 -34.200  17.176  1.00  0.00     0.189 HD
HETATM   16  O6  UNL     1       0.201 -32.525  15.443  1.00  0.00    -0.246 OA
BRANCH  11  17
HETATM   17  N1  UNL     1       1.833 -33.770  19.548  1.00  0.00    -0.234 N 
ATOM     18  H12 UNL     1       1.200 -34.470  19.934  1.00  0.00     0.174 HD
ATOM     19  H11 UNL     1       2.807 -33.755  19.851  1.00  0.00     0.174 HD
ENDBRANCH  11  17
ENDBRANCH   1   8
BRANCH   7  20
HETATM   20  O5  UNL     1       2.631 -29.702  15.844  1.00  0.00    -0.384 OA
ATOM     21  H5  UNL     1       2.955 -29.239  16.607  1.00  0.00     0.210 HD
ENDBRANCH   7  20
BRANCH   3  22
HETATM   22  C5  UNL     1      -2.010 -28.269  14.879  1.00  0.00     0.062 C 
BRANCH  22  23
HETATM   23  C6  UNL     1      -3.103 -27.231  14.845  1.00  0.00     0.107 C 
BRANCH  23  24
HETATM   24  C7  UNL     1      -4.377 -27.847  14.446  1.00  0.00     0.223 C 
HETATM   25  O2  UNL     1      -4.728 -28.930  14.927  1.00  0.00    -0.273 OA
HETATM   26  N4  UNL     1      -5.192 -27.186  13.509  1.00  0.00    -0.304 N 
HETATM   27  C8  UNL     1      -5.996 -26.271  13.893  1.00  0.00     0.203 C 
ATOM     28  H4  UNL     1      -5.142 -27.438  12.522  1.00  0.00     0.171 HD
HETATM   29  N5  UNL     1      -6.069 -25.922  15.251  1.00  0.00    -0.066 NA
HETATM   30  N6  UNL     1      -6.812 -25.621  12.906  1.00  0.00    -0.066 NA
ENDBRANCH  23  24
ENDBRANCH  22  23
ENDBRANCH   3  22
BRANCH   6  31
HETATM   31  O3  UNL     1       1.713 -27.539  17.122  1.00  0.00    -0.347 OA
ATOM     32  H3  UNL     1       0.996 -27.711  17.721  1.00  0.00     0.215 HD
ENDBRANCH   6  31
BRANCH   6  33
HETATM   33  O4  UNL     1       2.302 -27.050  14.971  1.00  0.00    -0.347 OA
ATOM     34  H4  UNL     1       2.947 -26.637  15.533  1.00  0.00     0.215 HD
ENDBRANCH   6  33
TORSDOF 8
ENDMDL
MODEL 3
REMARK VINA RESULT: -6.422568890      2.885      8.030
REMARK  8 active torsions:
REMARK  status: ('A' for Active; 'I' for Inactive)
REMARK    1  A    between atoms: N1_1  and  C1_4 
REMARK    2  A    between atoms: N3_8  and  C3_9 
REMARK    3  A    between atoms: C4_11  and  C5_12 
REMARK    4  A    between atoms: C5_12  and  C6_13 
REMARK    5  A    between atoms: C6_13  and  C7_14 
REMARK       I    between atoms: C7_14  and  N4_16 
REMARK    6  A    between atoms: C9_23  and  O3_24 
REMARK    7  A    between atoms: C9_23  and  O4_26 
REMARK    8  A    between atoms: C10_28  and  O5_29 
ROOT
HETATM    1  C3  UNL     1      -4.701 -27.335  13.706  1.00  0.00     0.272 C 
HETATM    2  O1  UNL     1      -4.114 -28.497  14.152  1.00  0.00    -0.339 OA
HETATM    3  C4  UNL     1      -2.985 -28.872  13.469  1.00  0.00     0.223 C 
HETATM    4  N7  UNL     1      -3.098 -28.866  12.050  1.00  0.00    -0.341 N 
ATOM      5  H7  UNL     1      -2.311 -29.080  11.436  1.00  0.00     0.161 HD
HETATM    6  C9  UNL     1      -4.397 -28.538  11.551  1.00  0.00     0.273 C 
HETATM    7  C10 UNL     1      -4.838 -27.246  12.218  1.00  0.00     0.252 C 
ENDROOT
BRANCH   1   8
HETATM    8  N3  UNL     1      -5.984 -27.208  14.385  1.00  0.00    -0.265 N 
HETATM    9  C2  UNL     1      -6.699 -28.290  14.783  1.00  0.00     0.208 A 
HETATM   10  N2  UNL     1      -7.878 -28.169  15.408  1.00  0.00    -0.188 N 
HETATM   11  C1  UNL     1      -8.394 -26.976  15.661  1.00  0.00     0.680 A 
ATOM     12  H2  UNL     1      -8.385 -29.007  15.692  1.00  0.00     0.185 HD
HETATM   13  N8  UNL     1      -7.725 -25.879  15.288  1.00  0.00    -0.141 N 
HETATM   14  C11 UNL     1      -6.547 -26.018  14.664  1.00  0.00     0.344 A 
ATOM     15  H8  UNL     1      -8.106 -24.951  15.475  1.00  0.00     0.189 HD
HETATM   16  O6  UNL     1      -5.874 -24.998  14.290  1.00  0.00    -0.246 OA
BRANCH  11  17
HETATM   17  N1  UNL     1      -9.541 -26.920  16.270  1.00  0.00    -0.234 N 
ATOM     18  H12 UNL     1     -10.255 -27.640  16.159  1.00  0.00     0.174 HD
ATOM     19  H11 UNL     1      -9.725 -26.122  16.878  1.00  0.00     0.174 HD
ENDBRANCH  11  17
ENDBRANCH   1   8
BRANCH   7  20
HETATM   20  O5  UNL     1      -6.175 -26.998  11.833  1.00  0.00    -0.384 OA
ATOM     21  H5  UNL     1      -6.379 -26.071  11.857  1.00  0.00     0.210 HD
ENDBRANCH   7  20
BRANCH   3  22
HETATM   22  C5  UNL     1      -1.800 -28.034  13.906  1.00  0.00     0.062 C 
BRANCH  22  23
HETATM   23  C6  UNL     1      -1.632 -28.101  15.404  1.00  0.00     0.107 C 
BRANCH  23  24
HETATM   24  C7  UNL     1      -0.868 -29.300  15.776  1.00  0.00     0.223 C 
HETATM   25  O2  UNL     1      -1.264 -30.424  15.448  1.00  0.00    -0.273 OA
HETATM   26  N4  UNL     1       0.322 -29.152  16.513  1.00  0.00    -0.304 N 
HETATM   27  C8  UNL     1       1.419 -28.896  15.911  1.00  0.00     0.203 C 
ATOM     28  H4  UNL     1       0.309 -29.249  17.528  1.00  0.00     0.171 HD
HETATM   29  N5  UNL     1       1.441 -28.762  14.513  1.00  0.00    -0.066 NA
HETATM   30  N6  UNL     1       2.611 -28.752  16.698  1.00  0.00    -0.066 NA
ENDBRANCH  23  24
ENDBRANCH  22  23
ENDBRANCH   3  22
BRANCH   6  31
HETATM   31  O3  UNL     1      -5.343 -29.539  11.762  1.00  0.00    -0.347 OA
ATOM     32  H3  UNL     1      -6.091 -29.253  12.273  1.00  0.00     0.215 HD
ENDBRANCH   6  31
BRANCH   6  33
HETATM   33  O4  UNL     1      -4.287 -28.270  10.186  1.00  0.00    -0.347 OA
ATOM     34  H4  UNL     1      -5.094 -28.539   9.763  1.00  0.00     0.215 HD
ENDBRANCH   6  33
TORSDOF 8
ENDMDL
MODEL 4
REMARK VINA RESULT: -6.252728618      1.107      1.288
REMARK  8 active torsions:
REMARK  status: ('A' for Active; 'I' for Inactive)
REMARK    1  A    between atoms: N1_1  and  C1_4 
REMARK    2  A    between atoms: N3_8  and  C3_9 
REMARK    3  A    between atoms: C4_11  and  C5_12 
REMARK    4  A    between atoms: C5_12  and  C6_13 
REMARK    5  A    between atoms: C6_13  and  C7_14 
REMARK       I    between atoms: C7_14  and  N4_16 
REMARK    6  A    between atoms: C9_23  and  O3_24 
REMARK    7  A    between atoms: C9_23  and  O4_26 
REMARK    8  A    between atoms: C10_28  and  O5_29 
ROOT
HETATM    1  C3  UNL     1       0.227 -30.035  16.097  1.00  0.00     0.272 C 
HETATM    2  O1  UNL     1      -0.686 -29.246  16.759  1.00  0.00    -0.339 OA
HETATM    3  C4  UNL     1      -1.112 -28.145  16.060  1.00  0.00     0.223 C 
HETATM    4  N7  UNL     1      -0.082 -27.356  15.475  1.00  0.00    -0.341 N 
ATOM      5  H7  UNL     1      -0.279 -26.541  14.893  1.00  0.00     0.161 HD
HETATM    6  C9  UNL     1       1.248 -27.791  15.765  1.00  0.00     0.273 C 
HETATM    7  C10 UNL     1       1.334 -29.273  15.437  1.00  0.00     0.252 C 
ENDROOT
BRANCH   1   8
HETATM    8  N3  UNL     1       0.726 -31.015  17.051  1.00  0.00    -0.265 N 
HETATM    9  C2  UNL     1       1.204 -30.657  18.269  1.00  0.00     0.208 A 
HETATM   10  N2  UNL     1       1.662 -31.562  19.145  1.00  0.00    -0.188 N 
HETATM   11  C1  UNL     1       1.666 -32.853  18.849  1.00  0.00     0.680 A 
ATOM     12  H2  UNL     1       2.013 -31.253  20.051  1.00  0.00     0.185 HD
HETATM   13  N8  UNL     1       1.205 -33.255  17.659  1.00  0.00    -0.141 N 
HETATM   14  C11 UNL     1       0.750 -32.337  16.795  1.00  0.00     0.344 A 
ATOM     15  H8  UNL     1       1.199 -34.245  17.413  1.00  0.00     0.189 HD
HETATM   16  O6  UNL     1       0.300 -32.674  15.648  1.00  0.00    -0.246 OA
BRANCH  11  17
HETATM   17  N1  UNL     1       2.122 -33.685  19.737  1.00  0.00    -0.234 N 
ATOM     18  H12 UNL     1       2.240 -34.680  19.544  1.00  0.00     0.174 HD
ATOM     19  H11 UNL     1       2.367 -33.322  20.657  1.00  0.00     0.174 HD
ENDBRANCH  11  17
ENDBRANCH   1   8
BRANCH   7  20
HETATM   20  O5  UNL     1       2.603 -29.734  15.856  1.00  0.00    -0.384 OA
ATOM     21  H5  UNL     1       3.118 -30.051  15.124  1.00  0.00     0.210 HD
ENDBRANCH   7  20
BRANCH   3  22
HETATM   22  C5  UNL     1      -2.129 -28.546  15.010  1.00  0.00     0.062 C 
BRANCH  22  23
HETATM   23  C6  UNL     1      -1.900 -27.776  13.733  1.00  0.00     0.107 C 
BRANCH  23  24
HETATM   24  C7  UNL     1      -2.733 -28.324  12.653  1.00  0.00     0.223 C 
HETATM   25  O2  UNL     1      -2.536 -29.468  12.227  1.00  0.00    -0.273 OA
HETATM   26  N4  UNL     1      -3.758 -27.529  12.109  1.00  0.00    -0.304 N 
HETATM   27  C8  UNL     1      -4.900 -27.479  12.679  1.00  0.00     0.203 C 
ATOM     28  H4  UNL     1      -3.590 -26.992  11.259  1.00  0.00     0.171 HD
HETATM   29  N5  UNL     1      -5.135 -28.218  13.851  1.00  0.00    -0.066 NA
HETATM   30  N6  UNL     1      -5.920 -26.657  12.093  1.00  0.00    -0.066 NA
ENDBRANCH  23  24
ENDBRANCH  22  23
ENDBRANCH   3  22
BRANCH   6  31
HETATM   31  O3  UNL     1       1.633 -27.565  17.085  1.00  0.00    -0.347 OA
ATOM     32  H3  UNL     1       2.185 -28.251  17.442  1.00  0.00     0.215 HD
ENDBRANCH   6  31
BRANCH   6  33
HETATM   33  O4  UNL     1       2.123 -27.135  14.898  1.00  0.00    -0.347 OA
ATOM     34  H4  UNL     1       3.010 -27.401  15.111  1.00  0.00     0.215 HD
ENDBRANCH   6  33
TORSDOF 8
ENDMDL
MODEL 5
REMARK VINA RESULT: -6.151119975      2.830      4.517
REMARK  8 active torsions:
REMARK  status: ('A' for Active; 'I' for Inactive)
REMARK    1  A    between atoms: N1_1  and  C1_4 
REMARK    2  A    between atoms: N3_8  and  C3_9 
REMARK    3  A    between atoms: C4_11  and  C5_12 
REMARK    4  A    between atoms: C5_12  and  C6_13 
REMARK    5  A    between atoms: C6_13  and  C7_14 
REMARK       I    between atoms: C7_14  and  N4_16 
REMARK    6  A    between atoms: C9_23  and  O3_24 
REMARK    7  A    between atoms: C9_23  and  O4_26 
REMARK    8  A    between atoms: C10_28  and  O5_29 
ROOT
HETATM    1  C3  UNL     1      -2.712 -28.345  15.003  1.00  0.00     0.272 C 
HETATM    2  O1  UNL     1      -2.713 -27.019  14.636  1.00  0.00    -0.339 OA
HETATM    3  C4  UNL     1      -3.902 -26.562  14.126  1.00  0.00     0.223 C 
HETATM    4  N7  UNL     1      -4.486 -27.374  13.114  1.00  0.00    -0.341 N 
ATOM      5  H7  UNL     1      -5.392 -27.162  12.695  1.00  0.00     0.161 HD
HETATM    6  C9  UNL     1      -3.707 -28.510  12.730  1.00  0.00     0.273 C 
HETATM    7  C10 UNL     1      -3.329 -29.263  13.994  1.00  0.00     0.252 C 
ENDROOT
BRANCH   1   8
HETATM    8  N3  UNL     1      -1.335 -28.709  15.309  1.00  0.00    -0.265 N 
HETATM    9  C2  UNL     1      -0.278 -28.034  14.792  1.00  0.00     0.208 A 
HETATM   10  N2  UNL     1       0.987 -28.372  15.076  1.00  0.00    -0.188 N 
HETATM   11  C1  UNL     1       1.254 -29.389  15.881  1.00  0.00     0.680 A 
ATOM     12  H2  UNL     1       1.754 -27.838  14.668  1.00  0.00     0.185 HD
HETATM   13  N8  UNL     1       0.245 -30.086  16.416  1.00  0.00    -0.141 N 
HETATM   14  C11 UNL     1      -1.014 -29.735  16.121  1.00  0.00     0.344 A 
ATOM     15  H8  UNL     1       0.431 -30.873  17.038  1.00  0.00     0.189 HD
HETATM   16  O6  UNL     1      -2.010 -30.371  16.608  1.00  0.00    -0.246 OA
BRANCH  11  17
HETATM   17  N1  UNL     1       2.500 -29.671  16.121  1.00  0.00    -0.234 N 
ATOM     18  H12 UNL     1       2.869 -29.756  17.068  1.00  0.00     0.174 HD
ATOM     19  H11 UNL     1       3.124 -29.810  15.327  1.00  0.00     0.174 HD
ENDBRANCH  11  17
ENDBRANCH   1   8
BRANCH   7  20
HETATM   20  O5  UNL     1      -2.443 -30.302  13.628  1.00  0.00    -0.384 OA
ATOM     21  H5  UNL     1      -2.147 -30.207  12.730  1.00  0.00     0.210 HD
ENDBRANCH   7  20
BRANCH   3  22
HETATM   22  C5  UNL     1      -4.897 -26.316  15.244  1.00  0.00     0.062 C 
BRANCH  22  23
HETATM   23  C6  UNL     1      -6.267 -26.038  14.677  1.00  0.00     0.107 C 
BRANCH  23  24
HETATM   24  C7  UNL     1      -7.264 -26.915  15.308  1.00  0.00     0.223 C 
HETATM   25  O2  UNL     1      -8.419 -26.517  15.498  1.00  0.00    -0.273 OA
HETATM   26  N4  UNL     1      -6.887 -28.215  15.692  1.00  0.00    -0.304 N 
HETATM   27  C8  UNL     1      -6.901 -29.164  14.837  1.00  0.00     0.203 C 
ATOM     28  H4  UNL     1      -6.602 -28.400  16.653  1.00  0.00     0.171 HD
HETATM   29  N5  UNL     1      -7.293 -28.913  13.512  1.00  0.00    -0.066 NA
HETATM   30  N6  UNL     1      -6.510 -30.477  15.268  1.00  0.00    -0.066 NA
ENDBRANCH  23  24
ENDBRANCH  22  23
ENDBRANCH   3  22
BRANCH   6  31
HETATM   31  O3  UNL     1      -2.565 -28.181  12.002  1.00  0.00    -0.347 OA
ATOM     32  H3  UNL     1      -2.477 -27.250  11.834  1.00  0.00     0.215 HD
ENDBRANCH   6  31
BRANCH   6  33
HETATM   33  O4  UNL     1      -4.517 -29.363  11.979  1.00  0.00    -0.347 OA
ATOM     34  H4  UNL     1      -4.181 -29.388  11.091  1.00  0.00     0.215 HD
ENDBRANCH   6  33
TORSDOF 8
ENDMDL
