MODEL 1
REMARK VINA RESULT: -6.348464793      0.000      0.000
REMARK  10 active torsions:
REMARK  status: ('A' for Active; 'I' for Inactive)
REMARK    1  A    between atoms: N1_1  and  C1_4 
REMARK    2  A    between atoms: C2_7  and  O1_8 
REMARK    3  A    between atoms: O1_8  and  C3_9 
REMARK    4  A    between atoms: C3_9  and  O2_10 
REMARK    5  A    between atoms: C3_9  and  C4_12 
REMARK    6  A    between atoms: C4_12  and  N3_13 
REMARK    7  A    between atoms: C4_12  and  C5_17 
REMARK    8  A    between atoms: C7_21  and  O5_22 
REMARK    9  A    between atoms: C8_24  and  O6_25 
REMARK   10  A    between atoms: C9_29  and  N5_30 
REMARK       I    between atoms: N5_30  and  C10_32 
ROOT
HETATM    1  O1  UNL     1      -2.352 -27.051  14.825  1.00  0.00    -0.287 OA
ENDROOT
BRANCH   1   2
HETATM    2  C2  UNL     1      -3.710 -27.237  14.830  1.00  0.00     0.254 A 
HETATM    3  N2  UNL     1      -4.174 -28.524  14.879  1.00  0.00    -0.154 N 
HETATM    4  C1  UNL     1      -5.478 -28.824  14.888  1.00  0.00     0.693 A 
ATOM      5  H2  UNL     1      -3.498 -29.287  14.909  1.00  0.00     0.188 HD
HETATM    6  N7  UNL     1      -6.359 -27.787  14.846  1.00  0.00    -0.022 N 
HETATM    7  C9  UNL     1      -5.929 -26.517  14.799  1.00  0.00     0.703 A 
ATOM      8  H7  UNL     1      -7.361 -27.979  14.852  1.00  0.00     0.203 HD
HETATM    9  N4  UNL     1      -4.604 -26.255  14.791  1.00  0.00    -0.153 N 
ATOM     10  H4  UNL     1      -4.284 -25.287  14.755  1.00  0.00     0.188 HD
BRANCH   4  11
HETATM   11  N1  UNL     1      -5.913 -30.048  14.934  1.00  0.00    -0.234 N 
ATOM     12  H12 UNL     1      -6.907 -30.243  14.810  1.00  0.00     0.174 HD
ATOM     13  H11 UNL     1      -5.296 -30.844  15.094  1.00  0.00     0.174 HD
ENDBRANCH   4  11
BRANCH   7  14
HETATM   14  N5  UNL     1      -6.788 -25.569  14.771  1.00  0.00    -0.143 N 
HETATM   15  C10 UNL     1      -7.979 -25.658  14.010  1.00  0.00     0.346 C 
HETATM   16  N6  UNL     1      -9.169 -26.092  14.592  1.00  0.00    -0.039 NA
HETATM   17  O7  UNL     1      -7.947 -25.341  12.802  1.00  0.00    -0.250 OA
ATOM     18  H5  UNL     1      -6.609 -24.724  15.314  1.00  0.00     0.188 HD
ENDBRANCH   7  14
ENDBRANCH   1   2
BRANCH   1  19
HETATM   19  C3  UNL     1      -1.414 -27.954  14.368  1.00  0.00     0.299 C 
BRANCH  19  20
HETATM   20  O2  UNL     1      -1.605 -28.286  13.013  1.00  0.00    -0.368 OA
ATOM     21  H2  UNL     1      -2.351 -28.859  12.881  1.00  0.00     0.212 HD
ENDBRANCH  19  20
BRANCH  19  22
HETATM   22  C4  UNL     1      -0.027 -27.410  14.593  1.00  0.00     0.270 C 
BRANCH  22  23
HETATM   23  N3  UNL     1       0.056 -26.456  15.675  1.00  0.00    -0.068 N 
ATOM     24  H33 UNL     1      -0.715 -25.789  15.626  1.00  0.00     0.275 HD
ATOM     25  H32 UNL     1      -0.160 -26.902  16.566  1.00  0.00     0.275 HD
ATOM     26  H31 UNL     1       0.950 -25.969  15.724  1.00  0.00     0.275 HD
ENDBRANCH  22  23
BRANCH  22  27
HETATM   27  C5  UNL     1       0.884 -28.569  14.884  1.00  0.00     0.199 C 
HETATM   28  O3  UNL     1       0.219 -29.707  15.329  1.00  0.00    -0.309 OA
HETATM   29  C6  UNL     1       0.959 -30.400  16.269  1.00  0.00     0.291 C 
HETATM   30  O4  UNL     1       0.590 -31.469  16.797  1.00  0.00    -0.262 OA
HETATM   31  C7  UNL     1       2.209 -29.637  16.494  1.00  0.00     0.248 C 
HETATM   32  C8  UNL     1       1.820 -28.253  16.056  1.00  0.00     0.188 C 
BRANCH  31  33
HETATM   33  O5  UNL     1       2.600 -29.671  17.833  1.00  0.00    -0.383 OA
ATOM     34  H5  UNL     1       2.518 -30.543  18.201  1.00  0.00     0.210 HD
ENDBRANCH  31  33
BRANCH  32  35
HETATM   35  O6  UNL     1       2.861 -27.490  15.584  1.00  0.00    -0.390 OA
ATOM     36  H6  UNL     1       3.343 -27.148  16.328  1.00  0.00     0.210 HD
ENDBRANCH  32  35
ENDBRANCH  22  27
ENDBRANCH  19  22
ENDBRANCH   1  19
TORSDOF 10
ENDMDL
MODEL 2
REMARK VINA RESULT: -6.314647767      5.518      9.051
REMARK  10 active torsions:
REMARK  status: ('A' for Active; 'I' for Inactive)
REMARK    1  A    between atoms: N1_1  and  C1_4 
REMARK    2  A    between atoms: C2_7  and  O1_8 
REMARK    3  A    between atoms: O1_8  and  C3_9 
REMARK    4  A    between atoms: C3_9  and  O2_10 
REMARK    5  A    between atoms: C3_9  and  C4_12 
REMARK    6  A    between atoms: C4_12  and  N3_13 
REMARK    7  A    between atoms: C4_12  and  C5_17 
REMARK    8  A    between atoms: C7_21  and  O5_22 
REMARK    9  A    between atoms: C8_24  and  O6_25 
REMARK   10  A    between atoms: C9_29  and  N5_30 
REMARK       I    between atoms: N5_30  and  C10_32 
ROOT
HETATM    1  O1  UNL     1       0.152 -33.894  16.743  1.00  0.00    -0.287 OA
ENDROOT
BRANCH   1   2
HETATM    2  C2  UNL     1       1.336 -34.217  17.353  1.00  0.00     0.254 A 
HETATM    3  N2  UNL     1       2.182 -35.064  16.686  1.00  0.00    -0.154 N 
HETATM    4  C1  UNL     1       3.362 -35.448  17.185  1.00  0.00     0.693 A 
ATOM      5  H2  UNL     1       1.900 -35.417  15.772  1.00  0.00     0.188 HD
HETATM    6  N7  UNL     1       3.714 -34.963  18.407  1.00  0.00    -0.022 N 
HETATM    7  C9  UNL     1       2.903 -34.132  19.079  1.00  0.00     0.703 A 
ATOM      8  H7  UNL     1       4.607 -35.236  18.817  1.00  0.00     0.203 HD
HETATM    9  N4  UNL     1       1.718 -33.767  18.542  1.00  0.00    -0.153 N 
ATOM     10  H4  UNL     1       1.107 -33.135  19.059  1.00  0.00     0.188 HD
BRANCH   4  11
HETATM   11  N1  UNL     1       4.162 -36.252  16.548  1.00  0.00    -0.234 N 
ATOM     12  H12 UNL     1       4.748 -36.907  17.066  1.00  0.00     0.174 HD
ATOM     13  H11 UNL     1       4.234 -36.261  15.530  1.00  0.00     0.174 HD
ENDBRANCH   4  11
BRANCH   7  14
HETATM   14  N5  UNL     1       3.273 -33.689  20.221  1.00  0.00    -0.143 N 
HETATM   15  C10 UNL     1       3.312 -32.303  20.510  1.00  0.00     0.346 C 
HETATM   16  N6  UNL     1       2.235 -31.672  21.134  1.00  0.00    -0.039 NA
HETATM   17  O7  UNL     1       4.329 -31.650  20.197  1.00  0.00    -0.250 OA
ATOM     18  H5  UNL     1       3.547 -34.354  20.944  1.00  0.00     0.188 HD
ENDBRANCH   7  14
ENDBRANCH   1   2
BRANCH   1  19
HETATM   19  C3  UNL     1      -0.078 -32.779  15.964  1.00  0.00     0.299 C 
BRANCH  19  20
HETATM   20  O2  UNL     1      -0.495 -33.111  14.660  1.00  0.00    -0.368 OA
ATOM     21  H2  UNL     1       0.026 -32.680  13.993  1.00  0.00     0.212 HD
ENDBRANCH  19  20
BRANCH  19  22
HETATM   22  C4  UNL     1      -1.089 -31.884  16.635  1.00  0.00     0.270 C 
BRANCH  22  23
HETATM   23  N3  UNL     1      -1.457 -32.316  17.963  1.00  0.00    -0.068 N 
ATOM     24  H33 UNL     1      -2.394 -32.717  17.965  1.00  0.00     0.275 HD
ATOM     25  H32 UNL     1      -0.918 -33.138  18.237  1.00  0.00     0.275 HD
ATOM     26  H31 UNL     1      -1.378 -31.584  18.669  1.00  0.00     0.275 HD
ENDBRANCH  22  23
BRANCH  22  27
HETATM   27  C5  UNL     1      -0.509 -30.500  16.706  1.00  0.00     0.199 C 
HETATM   28  O3  UNL     1      -0.420 -29.866  15.470  1.00  0.00    -0.309 OA
HETATM   29  C6  UNL     1       0.706 -29.068  15.383  1.00  0.00     0.291 C 
HETATM   30  O4  UNL     1       0.994 -28.374  14.386  1.00  0.00    -0.262 OA
HETATM   31  C7  UNL     1       1.447 -29.213  16.657  1.00  0.00     0.248 C 
HETATM   32  C8  UNL     1       0.952 -30.538  17.165  1.00  0.00     0.188 C 
BRANCH  31  33
HETATM   33  O5  UNL     1       2.828 -29.213  16.454  1.00  0.00    -0.383 OA
ATOM     34  H5  UNL     1       3.229 -28.410  16.764  1.00  0.00     0.210 HD
ENDBRANCH  31  33
BRANCH  32  35
HETATM   35  O6  UNL     1       0.973 -30.670  18.533  1.00  0.00    -0.390 OA
ATOM     36  H6  UNL     1       1.076 -29.806  18.915  1.00  0.00     0.210 HD
ENDBRANCH  32  35
ENDBRANCH  22  27
ENDBRANCH  19  22
ENDBRANCH   1  19
TORSDOF 10
ENDMDL
MODEL 3
REMARK VINA RESULT: -6.249956122      1.527      2.763
REMARK  10 active torsions:
REMARK  status: ('A' for Active; 'I' for Inactive)
REMARK    1  A    between atoms: N1_1  and  C1_4 
REMARK    2  A    between atoms: C2_7  and  O1_8 
REMARK    3  A    between atoms: O1_8  and  C3_9 
REMARK    4  A    between atoms: C3_9  and  O2_10 
REMARK    5  A    between atoms: C3_9  and  C4_12 
REMARK    6  A    between atoms: C4_12  and  N3_13 
REMARK    7  A    between atoms: C4_12  and  C5_17 
REMARK    8  A    between atoms: C7_21  and  O5_22 
REMARK    9  A    between atoms: C8_24  and  O6_25 
REMARK   10  A    between atoms: C9_29  and  N5_30 
REMARK       I    between atoms: N5_30  and  C10_32 
ROOT
HETATM    1  O1  UNL     1      -2.296 -26.977  14.838  1.00  0.00    -0.287 OA
ENDROOT
BRANCH   1   2
HETATM    2  C2  UNL     1      -3.661 -27.099  14.804  1.00  0.00     0.254 A 
HETATM    3  N2  UNL     1      -4.398 -25.949  14.701  1.00  0.00    -0.154 N 
HETATM    4  C1  UNL     1      -5.734 -25.947  14.660  1.00  0.00     0.693 A 
ATOM      5  H2  UNL     1      -3.906 -25.057  14.654  1.00  0.00     0.188 HD
HETATM    6  N7  UNL     1      -6.364 -27.152  14.725  1.00  0.00    -0.022 N 
HETATM    7  C9  UNL     1      -5.665 -28.292  14.826  1.00  0.00     0.703 A 
ATOM      8  H7  UNL     1      -7.383 -27.188  14.697  1.00  0.00     0.203 HD
HETATM    9  N4  UNL     1      -4.315 -28.253  14.865  1.00  0.00    -0.153 N 
ATOM     10  H4  UNL     1      -3.789 -29.124  14.942  1.00  0.00     0.188 HD
BRANCH   4  11
HETATM   11  N1  UNL     1      -6.429 -24.853  14.561  1.00  0.00    -0.234 N 
ATOM     12  H12 UNL     1      -6.500 -24.371  13.664  1.00  0.00     0.174 HD
ATOM     13  H11 UNL     1      -6.919 -24.440  15.355  1.00  0.00     0.174 HD
ENDBRANCH   4  11
BRANCH   7  14
HETATM   14  N5  UNL     1      -6.292 -29.406  14.875  1.00  0.00    -0.143 N 
HETATM   15  C10 UNL     1      -5.615 -30.643  15.001  1.00  0.00     0.346 C 
HETATM   16  N6  UNL     1      -5.424 -31.230  16.252  1.00  0.00    -0.039 NA
HETATM   17  O7  UNL     1      -5.188 -31.205  13.971  1.00  0.00    -0.250 OA
ATOM     18  H5  UNL     1      -7.311 -29.403  14.822  1.00  0.00     0.188 HD
ENDBRANCH   7  14
ENDBRANCH   1   2
BRANCH   1  19
HETATM   19  C3  UNL     1      -1.389 -27.928  14.417  1.00  0.00     0.299 C 
BRANCH  19  20
HETATM   20  O2  UNL     1      -1.617 -28.337  13.089  1.00  0.00    -0.368 OA
ATOM     21  H2  UNL     1      -1.017 -27.928  12.476  1.00  0.00     0.212 HD
ENDBRANCH  19  20
BRANCH  19  22
HETATM   22  C4  UNL     1       0.016 -27.404  14.579  1.00  0.00     0.270 C 
BRANCH  22  23
HETATM   23  N3  UNL     1       0.150 -26.415  15.624  1.00  0.00    -0.068 N 
ATOM     24  H33 UNL     1       1.009 -25.877  15.502  1.00  0.00     0.275 HD
ATOM     25  H32 UNL     1      -0.536 -25.670  15.505  1.00  0.00     0.275 HD
ATOM     26  H31 UNL     1       0.099 -26.803  16.565  1.00  0.00     0.275 HD
ENDBRANCH  22  23
BRANCH  22  27
HETATM   27  C5  UNL     1       0.914 -28.569  14.881  1.00  0.00     0.199 C 
HETATM   28  O3  UNL     1       0.235 -29.698  15.330  1.00  0.00    -0.309 OA
HETATM   29  C6  UNL     1       0.964 -30.392  16.277  1.00  0.00     0.291 C 
HETATM   30  O4  UNL     1       0.583 -31.455  16.810  1.00  0.00    -0.262 OA
HETATM   31  C7  UNL     1       2.220 -29.641  16.504  1.00  0.00     0.248 C 
HETATM   32  C8  UNL     1       1.847 -28.255  16.056  1.00  0.00     0.188 C 
BRANCH  31  33
HETATM   33  O5  UNL     1       2.604 -29.670  17.845  1.00  0.00    -0.383 OA
ATOM     34  H5  UNL     1       2.499 -28.822  18.260  1.00  0.00     0.210 HD
ENDBRANCH  31  33
BRANCH  32  35
HETATM   35  O6  UNL     1       2.897 -27.505  15.585  1.00  0.00    -0.390 OA
ATOM     36  H6  UNL     1       3.636 -28.084  15.437  1.00  0.00     0.210 HD
ENDBRANCH  32  35
ENDBRANCH  22  27
ENDBRANCH  19  22
ENDBRANCH   1  19
TORSDOF 10
ENDMDL
MODEL 4
REMARK VINA RESULT: -6.191847659      2.792      7.933
REMARK  10 active torsions:
REMARK  status: ('A' for Active; 'I' for Inactive)
REMARK    1  A    between atoms: N1_1  and  C1_4 
REMARK    2  A    between atoms: C2_7  and  O1_8 
REMARK    3  A    between atoms: O1_8  and  C3_9 
REMARK    4  A    between atoms: C3_9  and  O2_10 
REMARK    5  A    between atoms: C3_9  and  C4_12 
REMARK    6  A    between atoms: C4_12  and  N3_13 
REMARK    7  A    between atoms: C4_12  and  C5_17 
REMARK    8  A    between atoms: C7_21  and  O5_22 
REMARK    9  A    between atoms: C8_24  and  O6_25 
REMARK   10  A    between atoms: C9_29  and  N5_30 
REMARK       I    between atoms: N5_30  and  C10_32 
ROOT
HETATM    1  O1  UNL     1      -1.952 -28.179  15.581  1.00  0.00    -0.287 OA
ENDROOT
BRANCH   1   2
HETATM    2  C2  UNL     1      -0.736 -28.686  15.959  1.00  0.00     0.254 A 
HETATM    3  N2  UNL     1       0.382 -27.964  15.635  1.00  0.00    -0.154 N 
HETATM    4  C1  UNL     1       1.619 -28.362  15.952  1.00  0.00     0.693 A 
ATOM      5  H2  UNL     1       0.266 -27.086  15.129  1.00  0.00     0.188 HD
HETATM    6  N7  UNL     1       1.745 -29.537  16.626  1.00  0.00    -0.022 N 
HETATM    7  C9  UNL     1       0.666 -30.263  16.956  1.00  0.00     0.703 A 
ATOM      8  H7  UNL     1       2.673 -29.871  16.884  1.00  0.00     0.203 HD
HETATM    9  N4  UNL     1      -0.568 -29.827  16.617  1.00  0.00    -0.153 N 
ATOM     10  H4  UNL     1      -1.384 -30.384  16.871  1.00  0.00     0.188 HD
BRANCH   4  11
HETATM   11  N1  UNL     1       2.676 -27.671  15.642  1.00  0.00    -0.234 N 
ATOM     12  H12 UNL     1       2.597 -26.867  15.019  1.00  0.00     0.174 HD
ATOM     13  H11 UNL     1       3.604 -27.899  15.999  1.00  0.00     0.174 HD
ENDBRANCH   4  11
BRANCH   7  14
HETATM   14  N5  UNL     1       0.823 -31.358  17.598  1.00  0.00    -0.143 N 
HETATM   15  C10 UNL     1       1.030 -31.382  18.999  1.00  0.00     0.346 C 
HETATM   16  N6  UNL     1      -0.040 -31.565  19.876  1.00  0.00    -0.039 NA
HETATM   17  O7  UNL     1       2.189 -31.237  19.441  1.00  0.00    -0.250 OA
ATOM     18  H5  UNL     1       0.800 -32.240  17.086  1.00  0.00     0.188 HD
ENDBRANCH   7  14
ENDBRANCH   1   2
BRANCH   1  19
HETATM   19  C3  UNL     1      -2.381 -27.993  14.283  1.00  0.00     0.299 C 
BRANCH  19  20
HETATM   20  O2  UNL     1      -1.371 -28.260  13.339  1.00  0.00    -0.368 OA
ATOM     21  H2  UNL     1      -1.719 -28.403  12.467  1.00  0.00     0.212 HD
ENDBRANCH  19  20
BRANCH  19  22
HETATM   22  C4  UNL     1      -3.596 -28.846  14.018  1.00  0.00     0.270 C 
BRANCH  22  23
HETATM   23  N3  UNL     1      -3.898 -29.775  15.083  1.00  0.00    -0.068 N 
ATOM     24  H33 UNL     1      -3.200 -29.712  15.824  1.00  0.00     0.275 HD
ATOM     25  H32 UNL     1      -4.724 -29.473  15.600  1.00  0.00     0.275 HD
ATOM     26  H31 UNL     1      -4.003 -30.739  14.769  1.00  0.00     0.275 HD
ENDBRANCH  22  23
BRANCH  22  27
HETATM   27  C5  UNL     1      -4.769 -27.931  13.811  1.00  0.00     0.199 C 
HETATM   28  O3  UNL     1      -4.471 -26.585  14.002  1.00  0.00    -0.309 OA
HETATM   29  C6  UNL     1      -5.529 -25.900  14.569  1.00  0.00     0.291 C 
HETATM   30  O4  UNL     1      -5.517 -24.676  14.812  1.00  0.00    -0.262 OA
HETATM   31  C7  UNL     1      -6.611 -26.883  14.810  1.00  0.00     0.248 C 
HETATM   32  C8  UNL     1      -5.856 -28.181  14.863  1.00  0.00     0.188 C 
BRANCH  31  33
HETATM   33  O5  UNL     1      -7.288 -26.623  16.002  1.00  0.00    -0.383 OA
ATOM     34  H5  UNL     1      -6.731 -26.757  16.759  1.00  0.00     0.210 HD
ENDBRANCH  31  33
BRANCH  32  35
HETATM   35  O6  UNL     1      -6.584 -29.281  14.479  1.00  0.00    -0.390 OA
ATOM     36  H6  UNL     1      -6.335 -29.511  13.592  1.00  0.00     0.210 HD
ENDBRANCH  32  35
ENDBRANCH  22  27
ENDBRANCH  19  22
ENDBRANCH   1  19
TORSDOF 10
ENDMDL
MODEL 5
REMARK VINA RESULT: -6.145866959      2.106      2.416
REMARK  10 active torsions:
REMARK  status: ('A' for Active; 'I' for Inactive)
REMARK    1  A    between atoms: N1_1  and  C1_4 
REMARK    2  A    between atoms: C2_7  and  O1_8 
REMARK    3  A    between atoms: O1_8  and  C3_9 
REMARK    4  A    between atoms: C3_9  and  O2_10 
REMARK    5  A    between atoms: C3_9  and  C4_12 
REMARK    6  A    between atoms: C4_12  and  N3_13 
REMARK    7  A    between atoms: C4_12  and  C5_17 
REMARK    8  A    between atoms: C7_21  and  O5_22 
REMARK    9  A    between atoms: C8_24  and  O6_25 
REMARK   10  A    between atoms: C9_29  and  N5_30 
REMARK       I    between atoms: N5_30  and  C10_32 
ROOT
HETATM    1  O1  UNL     1      -1.519 -28.034  13.554  1.00  0.00    -0.287 OA
ENDROOT
BRANCH   1   2
HETATM    2  C2  UNL     1      -2.710 -28.062  12.876  1.00  0.00     0.254 A 
HETATM    3  N2  UNL     1      -2.736 -28.706  11.667  1.00  0.00    -0.154 N 
HETATM    4  C1  UNL     1      -3.841 -28.795  10.918  1.00  0.00     0.693 A 
ATOM      5  H2  UNL     1      -1.878 -29.135  11.324  1.00  0.00     0.188 HD
HETATM    6  N7  UNL     1      -4.973 -28.213  11.400  1.00  0.00    -0.022 N 
HETATM    7  C9  UNL     1      -4.973 -27.576  12.581  1.00  0.00     0.703 A 
ATOM      8  H7  UNL     1      -5.834 -28.261  10.856  1.00  0.00     0.203 HD
HETATM    9  N4  UNL     1      -3.836 -27.508  13.309  1.00  0.00    -0.153 N 
ATOM     10  H4  UNL     1      -3.843 -27.022  14.206  1.00  0.00     0.188 HD
BRANCH   4  11
HETATM   11  N1  UNL     1      -3.861 -29.408   9.772  1.00  0.00    -0.234 N 
ATOM     12  H12 UNL     1      -3.682 -30.412   9.726  1.00  0.00     0.174 HD
ATOM     13  H11 UNL     1      -4.050 -28.925   8.894  1.00  0.00     0.174 HD
ENDBRANCH   4  11
BRANCH   7  14
HETATM   14  N5  UNL     1      -6.059 -27.050  13.006  1.00  0.00    -0.143 N 
HETATM   15  C10 UNL     1      -6.146 -26.435  14.279  1.00  0.00     0.346 C 
HETATM   16  N6  UNL     1      -5.970 -25.058  14.422  1.00  0.00    -0.039 NA
HETATM   17  O7  UNL     1      -6.383 -27.146  15.278  1.00  0.00    -0.250 OA
ATOM     18  H5  UNL     1      -6.886 -27.074  12.410  1.00  0.00     0.188 HD
ENDBRANCH   7  14
ENDBRANCH   1   2
BRANCH   1  19
HETATM   19  C3  UNL     1      -1.238 -27.263  14.663  1.00  0.00     0.299 C 
BRANCH  19  20
HETATM   20  O2  UNL     1      -1.764 -27.813  15.848  1.00  0.00    -0.368 OA
ATOM     21  H2  UNL     1      -1.218 -28.508  16.197  1.00  0.00     0.212 HD
ENDBRANCH  19  20
BRANCH  19  22
HETATM   22  C4  UNL     1       0.251 -27.062  14.783  1.00  0.00     0.270 C 
BRANCH  22  23
HETATM   23  N3  UNL     1       0.634 -26.186  15.866  1.00  0.00    -0.068 N 
ATOM     24  H33 UNL     1       0.683 -26.701  16.746  1.00  0.00     0.275 HD
ATOM     25  H32 UNL     1       1.612 -25.908  15.776  1.00  0.00     0.275 HD
ATOM     26  H31 UNL     1       0.035 -25.366  15.962  1.00  0.00     0.275 HD
ENDBRANCH  22  23
BRANCH  22  27
HETATM   27  C5  UNL     1       0.886 -28.408  14.987  1.00  0.00     0.199 C 
HETATM   28  O3  UNL     1      -0.013 -29.399  15.371  1.00  0.00    -0.309 OA
HETATM   29  C6  UNL     1       0.558 -30.296  16.253  1.00  0.00     0.291 C 
HETATM   30  O4  UNL     1      -0.036 -31.290  16.720  1.00  0.00    -0.262 OA
HETATM   31  C7  UNL     1       1.945 -29.843  16.506  1.00  0.00     0.248 C 
HETATM   32  C8  UNL     1       1.870 -28.382  16.162  1.00  0.00     0.188 C 
BRANCH  31  33
HETATM   33  O5  UNL     1       2.321 -30.048  17.834  1.00  0.00    -0.383 OA
ATOM     34  H5  UNL     1       3.157 -30.496  17.898  1.00  0.00     0.210 HD
ENDBRANCH  31  33
BRANCH  32  35
HETATM   35  O6  UNL     1       3.052 -27.837  15.723  1.00  0.00    -0.390 OA
ATOM     36  H6  UNL     1       2.851 -27.102  15.155  1.00  0.00     0.210 HD
ENDBRANCH  32  35
ENDBRANCH  22  27
ENDBRANCH  19  22
ENDBRANCH   1  19
TORSDOF 10
ENDMDL
