MODEL 1
REMARK VINA RESULT: -7.062712606      0.000      0.000
REMARK  3 active torsions:
REMARK  status: ('A' for Active; 'I' for Inactive)
REMARK    1  A    between atoms: C15_17  and  C16_18 
REMARK    2  A    between atoms: C16_18  and  O2_19 
REMARK    3  A    between atoms: C20_24  and  O3_25 
ROOT
HETATM    1  C1  UNL     1       2.788  -7.639  -0.993  1.00  0.00     0.020 C 
HETATM    2  C2  UNL     1       2.612  -9.034  -1.620  1.00  0.00     0.005 C 
HETATM    3  C3  UNL     1       1.273  -9.546  -1.450  1.00  0.00     0.179 C 
HETATM    4  O1  UNL     1       1.799 -10.633  -0.717  1.00  0.00    -0.384 OA
HETATM    5  C4  UNL     1       3.030 -10.056  -0.587  1.00  0.00     0.133 C 
HETATM    6  C5  UNL     1       4.226 -10.764  -1.101  1.00  0.00     0.053 C 
HETATM    7  C6  UNL     1       3.983 -11.429  -2.469  1.00  0.00     0.107 C 
HETATM    8  C7  UNL     1       2.995 -12.459  -2.223  1.00  0.00     0.065 C 
HETATM    9  N1  UNL     1       2.225 -13.295  -2.026  1.00  0.00    -0.197 NA
HETATM   10  C8  UNL     1       3.666 -10.422  -3.491  1.00  0.00     0.016 C 
HETATM   11  C9  UNL     1       4.991 -10.171  -4.277  1.00  0.00     0.015 C 
HETATM   12  C10 UNL     1       5.178 -11.333  -5.156  1.00  0.00     0.009 C 
HETATM   13  C11 UNL     1       3.747 -11.823  -5.347  1.00  0.00     0.034 C 
HETATM   14  C12 UNL     1       3.513 -12.169  -6.744  1.00  0.00     0.002 C 
HETATM   15  C13 UNL     1       2.854 -13.550  -6.880  1.00  0.00     0.006 C 
HETATM   16  C14 UNL     1       1.577 -13.306  -7.611  1.00  0.00     0.008 C 
HETATM   17  C15 UNL     1       1.941 -12.130  -8.497  1.00  0.00     0.018 C 
HETATM   18  C17 UNL     1       2.721 -11.224  -7.578  1.00  0.00    -0.032 C 
HETATM   19  C18 UNL     1       3.583 -10.340  -8.467  1.00  0.00     0.016 C 
HETATM   20  C19 UNL     1       1.803 -10.373  -6.801  1.00  0.00     0.045 C 
HETATM   21  C20 UNL     1       2.451  -9.727  -5.571  1.00  0.00     0.160 C 
HETATM   22  C21 UNL     1       2.842 -10.852  -4.655  1.00  0.00     0.142 C 
HETATM   23  F1  UNL     1       1.679 -11.512  -4.378  1.00  0.00    -0.239 F 
HETATM   24  C22 UNL     1       3.408  -9.107  -2.860  1.00  0.00     0.028 C 
ENDROOT
BRANCH  21  25
HETATM   25  O3  UNL     1       1.344  -9.007  -5.053  1.00  0.00    -0.392 OA
ATOM     26  H3  UNL     1       0.916  -9.692  -4.553  1.00  0.00     0.210 HD
ENDBRANCH  21  25
BRANCH  17  27
HETATM   27  C16 UNL     1       0.726 -11.494  -9.085  1.00  0.00     0.169 C 
BRANCH  27  28
HETATM   28  O2  UNL     1       0.972 -11.211 -10.423  1.00  0.00    -0.400 OA
ATOM     29  H2  UNL     1       0.481 -10.435 -10.666  1.00  0.00     0.209 HD
ENDBRANCH  27  28
ENDBRANCH  17  27
TORSDOF 3
ENDMDL
MODEL 2
REMARK VINA RESULT: -7.007941375      1.932      2.823
REMARK  3 active torsions:
REMARK  status: ('A' for Active; 'I' for Inactive)
REMARK    1  A    between atoms: C15_17  and  C16_18 
REMARK    2  A    between atoms: C16_18  and  O2_19 
REMARK    3  A    between atoms: C20_24  and  O3_25 
ROOT
HETATM    1  C1  UNL     1       6.425 -11.002  -0.580  1.00  0.00     0.020 C 
HETATM    2  C2  UNL     1       5.142 -10.630  -1.345  1.00  0.00     0.005 C 
HETATM    3  C3  UNL     1       5.044  -9.212  -1.596  1.00  0.00     0.179 C 
HETATM    4  O1  UNL     1       3.852  -9.177  -0.839  1.00  0.00    -0.384 OA
HETATM    5  C4  UNL     1       4.044 -10.428  -0.327  1.00  0.00     0.133 C 
HETATM    6  C5  UNL     1       3.016 -11.473  -0.547  1.00  0.00     0.053 C 
HETATM    7  C6  UNL     1       2.450 -11.459  -1.979  1.00  0.00     0.107 C 
HETATM    8  C7  UNL     1       1.754 -10.194  -2.102  1.00  0.00     0.065 C 
HETATM    9  N1  UNL     1       1.180  -9.198  -2.197  1.00  0.00    -0.197 NA
HETATM   10  C8  UNL     1       3.504 -11.747  -2.961  1.00  0.00     0.016 C 
HETATM   11  C9  UNL     1       3.355 -13.257  -3.326  1.00  0.00     0.015 C 
HETATM   12  C10 UNL     1       2.189 -13.356  -4.213  1.00  0.00     0.009 C 
HETATM   13  C11 UNL     1       2.138 -11.963  -4.833  1.00  0.00     0.034 C 
HETATM   14  C12 UNL     1       1.874 -12.056  -6.263  1.00  0.00     0.002 C 
HETATM   15  C13 UNL     1       0.747 -11.105  -6.691  1.00  0.00     0.006 C 
HETATM   16  C14 UNL     1       1.352 -10.216  -7.724  1.00  0.00     0.008 C 
HETATM   17  C15 UNL     1       2.370 -11.135  -8.373  1.00  0.00     0.018 C 
HETATM   18  C17 UNL     1       3.008 -11.837  -7.202  1.00  0.00    -0.032 C 
HETATM   19  C18 UNL     1       3.601 -13.131  -7.741  1.00  0.00     0.016 C 
HETATM   20  C19 UNL     1       4.092 -11.011  -6.641  1.00  0.00     0.045 C 
HETATM   21  C20 UNL     1       4.521 -11.430  -5.230  1.00  0.00     0.160 C 
HETATM   22  C21 UNL     1       3.332 -11.208  -4.340  1.00  0.00     0.142 C 
HETATM   23  F1  UNL     1       3.042  -9.878  -4.451  1.00  0.00    -0.239 F 
HETATM   24  C22 UNL     1       4.837 -11.697  -2.319  1.00  0.00     0.028 C 
ENDROOT
BRANCH  21  25
HETATM   25  O3  UNL     1       5.535 -10.469  -4.981  1.00  0.00    -0.392 OA
ATOM     26  H3  UNL     1       6.217 -11.031  -4.632  1.00  0.00     0.210 HD
ENDBRANCH  21  25
BRANCH  17  27
HETATM   27  C16 UNL     1       3.332 -10.370  -9.219  1.00  0.00     0.169 C 
BRANCH  27  28
HETATM   28  O2  UNL     1       2.956  -9.033  -9.226  1.00  0.00    -0.400 OA
ATOM     29  H2  UNL     1       3.527  -8.552  -8.637  1.00  0.00     0.209 HD
ENDBRANCH  27  28
ENDBRANCH  17  27
TORSDOF 3
ENDMDL
MODEL 3
REMARK VINA RESULT: -6.941878730      1.752      2.456
REMARK  3 active torsions:
REMARK  status: ('A' for Active; 'I' for Inactive)
REMARK    1  A    between atoms: C15_17  and  C16_18 
REMARK    2  A    between atoms: C16_18  and  O2_19 
REMARK    3  A    between atoms: C20_24  and  O3_25 
ROOT
HETATM    1  C1  UNL     1       3.662  -6.050  -0.474  1.00  0.00     0.020 C 
HETATM    2  C2  UNL     1       3.079  -7.470  -0.595  1.00  0.00     0.005 C 
HETATM    3  C3  UNL     1       1.636  -7.474  -0.566  1.00  0.00     0.179 C 
HETATM    4  O1  UNL     1       1.678  -8.270   0.601  1.00  0.00    -0.384 OA
HETATM    5  C4  UNL     1       3.013  -8.058   0.796  1.00  0.00     0.133 C 
HETATM    6  C5  UNL     1       3.937  -9.216   0.848  1.00  0.00     0.053 C 
HETATM    7  C6  UNL     1       3.618 -10.281  -0.217  1.00  0.00     0.107 C 
HETATM    8  C7  UNL     1       2.315 -10.804   0.143  1.00  0.00     0.065 C 
HETATM    9  N1  UNL     1       1.288 -11.238   0.439  1.00  0.00    -0.197 NA
HETATM   10  C8  UNL     1       3.772  -9.730  -1.570  1.00  0.00     0.016 C 
HETATM   11  C9  UNL     1       5.174 -10.199  -2.071  1.00  0.00     0.015 C 
HETATM   12  C10 UNL     1       5.036 -11.619  -2.421  1.00  0.00     0.009 C 
HETATM   13  C11 UNL     1       3.550 -11.725  -2.748  1.00  0.00     0.034 C 
HETATM   14  C12 UNL     1       3.353 -12.527  -3.950  1.00  0.00     0.002 C 
HETATM   15  C13 UNL     1       2.275 -13.600  -3.740  1.00  0.00     0.006 C 
HETATM   16  C14 UNL     1       1.241 -13.329  -4.780  1.00  0.00     0.008 C 
HETATM   17  C15 UNL     1       2.075 -12.765  -5.914  1.00  0.00     0.018 C 
HETATM   18  C17 UNL     1       3.023 -11.821  -5.218  1.00  0.00    -0.032 C 
HETATM   19  C18 UNL     1       4.222 -11.651  -6.140  1.00  0.00     0.016 C 
HETATM   20  C19 UNL     1       2.382 -10.510  -5.019  1.00  0.00     0.045 C 
HETATM   21  C20 UNL     1       3.086  -9.629  -3.980  1.00  0.00     0.160 C 
HETATM   22  C21 UNL     1       2.971 -10.347  -2.665  1.00  0.00     0.142 C 
HETATM   23  F1  UNL     1       1.630 -10.486  -2.446  1.00  0.00    -0.239 F 
HETATM   24  C22 UNL     1       3.921  -8.258  -1.516  1.00  0.00     0.028 C 
ENDROOT
BRANCH  21  25
HETATM   25  O3  UNL     1       2.250  -8.484  -4.013  1.00  0.00    -0.392 OA
ATOM     26  H3  UNL     1       2.808  -7.882  -4.492  1.00  0.00     0.210 HD
ENDBRANCH  21  25
BRANCH  17  27
HETATM   27  C16 UNL     1       1.219 -12.111  -6.947  1.00  0.00     0.169 C 
BRANCH  27  28
HETATM   28  O2  UNL     1       1.216 -12.901  -8.090  1.00  0.00    -0.400 OA
ATOM     29  H2  UNL     1       0.833 -12.404  -8.803  1.00  0.00     0.209 HD
ENDBRANCH  27  28
ENDBRANCH  17  27
TORSDOF 3
ENDMDL
MODEL 4
REMARK VINA RESULT: -6.806008028      2.190      6.218
REMARK  3 active torsions:
REMARK  status: ('A' for Active; 'I' for Inactive)
REMARK    1  A    between atoms: C15_17  and  C16_18 
REMARK    2  A    between atoms: C16_18  and  O2_19 
REMARK    3  A    between atoms: C20_24  and  O3_25 
ROOT
HETATM    1  C1  UNL     1       3.658 -10.681  -9.266  1.00  0.00     0.020 C 
HETATM    2  C2  UNL     1       3.337 -11.450  -7.972  1.00  0.00     0.005 C 
HETATM    3  C3  UNL     1       4.006 -12.727  -7.914  1.00  0.00     0.179 C 
HETATM    4  O1  UNL     1       2.747 -13.366  -7.861  1.00  0.00    -0.384 OA
HETATM    5  C4  UNL     1       2.066 -12.234  -8.208  1.00  0.00     0.133 C 
HETATM    6  C5  UNL     1       1.023 -11.701  -7.300  1.00  0.00     0.053 C 
HETATM    7  C6  UNL     1       1.438 -11.756  -5.818  1.00  0.00     0.107 C 
HETATM    8  C7  UNL     1       1.547 -13.166  -5.504  1.00  0.00     0.065 C 
HETATM    9  N1  UNL     1       1.612 -14.288  -5.244  1.00  0.00    -0.197 NA
HETATM   10  C8  UNL     1       2.621 -10.919  -5.575  1.00  0.00     0.016 C 
HETATM   11  C9  UNL     1       2.088  -9.578  -4.981  1.00  0.00     0.015 C 
HETATM   12  C10 UNL     1       1.721  -9.860  -3.586  1.00  0.00     0.009 C 
HETATM   13  C11 UNL     1       2.622 -11.044  -3.251  1.00  0.00     0.034 C 
HETATM   14  C12 UNL     1       3.206 -10.876  -1.926  1.00  0.00     0.002 C 
HETATM   15  C13 UNL     1       3.048 -12.146  -1.076  1.00  0.00     0.006 C 
HETATM   16  C14 UNL     1       4.436 -12.545  -0.705  1.00  0.00     0.008 C 
HETATM   17  C15 UNL     1       5.139 -11.204  -0.622  1.00  0.00     0.018 C 
HETATM   18  C17 UNL     1       4.633 -10.465  -1.835  1.00  0.00    -0.032 C 
HETATM   19  C18 UNL     1       4.814  -8.982  -1.549  1.00  0.00     0.016 C 
HETATM   20  C19 UNL     1       5.431 -10.826  -3.020  1.00  0.00     0.045 C 
HETATM   21  C20 UNL     1       4.761 -10.463  -4.350  1.00  0.00     0.160 C 
HETATM   22  C21 UNL     1       3.507 -11.285  -4.434  1.00  0.00     0.142 C 
HETATM   23  F1  UNL     1       3.922 -12.584  -4.367  1.00  0.00    -0.239 F 
HETATM   24  C22 UNL     1       3.224 -10.489  -6.857  1.00  0.00     0.028 C 
ENDROOT
BRANCH  21  25
HETATM   25  O3  UNL     1       5.742 -10.930  -5.262  1.00  0.00    -0.392 OA
ATOM     26  H3  UNL     1       5.265 -11.641  -5.673  1.00  0.00     0.210 HD
ENDBRANCH  21  25
BRANCH  17  27
HETATM   27  C16 UNL     1       6.622 -11.367  -0.587  1.00  0.00     0.169 C 
BRANCH  27  28
HETATM   28  O2  UNL     1       6.919 -12.716  -0.435  1.00  0.00    -0.400 OA
ATOM     29  H2  UNL     1       7.856 -12.835  -0.537  1.00  0.00     0.209 HD
ENDBRANCH  27  28
ENDBRANCH  17  27
TORSDOF 3
ENDMDL
MODEL 5
REMARK VINA RESULT: -6.285871583      2.271      3.173
REMARK  3 active torsions:
REMARK  status: ('A' for Active; 'I' for Inactive)
REMARK    1  A    between atoms: C15_17  and  C16_18 
REMARK    2  A    between atoms: C16_18  and  O2_19 
REMARK    3  A    between atoms: C20_24  and  O3_25 
ROOT
HETATM    1  C1  UNL     1       2.734 -12.485   1.036  1.00  0.00     0.020 C 
HETATM    2  C2  UNL     1       3.530 -12.235  -0.258  1.00  0.00     0.005 C 
HETATM    3  C3  UNL     1       4.478 -13.288  -0.531  1.00  0.00     0.179 C 
HETATM    4  O1  UNL     1       5.526 -12.345  -0.448  1.00  0.00    -0.384 OA
HETATM    5  C4  UNL     1       4.727 -11.382   0.099  1.00  0.00     0.133 C 
HETATM    6  C5  UNL     1       4.581 -10.077  -0.588  1.00  0.00     0.053 C 
HETATM    7  C6  UNL     1       4.440 -10.220  -2.114  1.00  0.00     0.107 C 
HETATM    8  C7  UNL     1       5.706 -10.759  -2.567  1.00  0.00     0.065 C 
HETATM    9  N1  UNL     1       6.721 -11.168  -2.933  1.00  0.00    -0.197 NA
HETATM   10  C8  UNL     1       3.226 -10.971  -2.460  1.00  0.00     0.016 C 
HETATM   11  C9  UNL     1       2.152  -9.906  -2.844  1.00  0.00     0.015 C 
HETATM   12  C10 UNL     1       2.507  -9.424  -4.185  1.00  0.00     0.009 C 
HETATM   13  C11 UNL     1       3.276 -10.610  -4.758  1.00  0.00     0.034 C 
HETATM   14  C12 UNL     1       2.871 -10.856  -6.137  1.00  0.00     0.002 C 
HETATM   15  C13 UNL     1       4.087 -11.009  -7.062  1.00  0.00     0.006 C 
HETATM   16  C14 UNL     1       3.947 -12.361  -7.676  1.00  0.00     0.008 C 
HETATM   17  C15 UNL     1       2.441 -12.522  -7.745  1.00  0.00     0.018 C 
HETATM   18  C17 UNL     1       1.970 -12.009  -6.407  1.00  0.00    -0.032 C 
HETATM   19  C18 UNL     1       0.514 -11.605  -6.585  1.00  0.00     0.016 C 
HETATM   20  C19 UNL     1       2.051 -13.077  -5.395  1.00  0.00     0.045 C 
HETATM   21  C20 UNL     1       1.993 -12.565  -3.952  1.00  0.00     0.160 C 
HETATM   22  C21 UNL     1       3.215 -11.715  -3.751  1.00  0.00     0.142 C 
HETATM   23  F1  UNL     1       4.273 -12.542  -3.996  1.00  0.00    -0.239 F 
HETATM   24  C22 UNL     1       2.644 -11.598  -1.252  1.00  0.00     0.028 C 
ENDROOT
BRANCH  21  25
HETATM   25  O3  UNL     1       2.100 -13.791  -3.246  1.00  0.00    -0.392 OA
ATOM     26  H3  UNL     1       1.475 -14.319  -3.730  1.00  0.00     0.210 HD
ENDBRANCH  21  25
BRANCH  17  27
HETATM   27  C16 UNL     1       2.056 -13.937  -8.021  1.00  0.00     0.169 C 
BRANCH  27  28
HETATM   28  O2  UNL     1       0.914 -13.944  -8.813  1.00  0.00    -0.400 OA
ATOM     29  H2  UNL     1       0.192 -13.586  -8.309  1.00  0.00     0.209 HD
ENDBRANCH  27  28
ENDBRANCH  17  27
TORSDOF 3
ENDMDL
