MODEL 1
REMARK VINA RESULT: -9.340991908      0.000      0.000
REMARK  6 active torsions:
REMARK  status: ('A' for Active; 'I' for Inactive)
REMARK    1  A    between atoms: N1_8  and  N2_10 
REMARK    2  A    between atoms: N2_10  and  C7_12 
REMARK    3  A    between atoms: C7_12  and  N3_14 
REMARK       I    between atoms: N3_14  and  C8_15 
REMARK    4  A    between atoms: C8_15  and  C9_17 
REMARK    5  A    between atoms: C9_17  and  C12_20 
REMARK    6  A    between atoms: C13_21  and  C14_22 
ROOT
HETATM    1  C7  UNL     1       2.475 -10.708 -10.058  1.00  0.00     0.267 C 
HETATM    2  S1  UNL     1       2.902  -9.092 -10.022  1.00  0.00    -0.024 SA
ENDROOT
BRANCH   1   3
HETATM    3  N2  UNL     1       2.625 -11.312 -11.331  1.00  0.00    -0.265 N 
ATOM      4  H2  UNL     1       1.780 -11.483 -11.874  1.00  0.00     0.190 HD
BRANCH   3   5
HETATM    5  N1  UNL     1       3.816 -11.681 -11.886  1.00  0.00    -0.305 N 
HETATM    6  C6  UNL     1       4.021 -12.103 -13.095  1.00  0.00     0.011 C 
HETATM    7  C5  UNL     1       2.934 -12.242 -14.068  1.00  0.00     0.132 C 
HETATM    8  C17 UNL     1       5.412 -12.441 -13.417  1.00  0.00     0.059 C 
HETATM    9  C4  UNL     1       3.388 -12.124 -15.481  1.00  0.00     0.132 C 
HETATM   10  C3  UNL     1       4.835 -11.727 -15.701  1.00  0.00     0.083 C 
HETATM   11  O1  UNL     1       2.632 -12.339 -16.395  1.00  0.00    -0.298 OA
HETATM   12  C2  UNL     1       5.627 -12.695 -14.873  1.00  0.00    -0.006 C 
HETATM   13  C1  UNL     1       7.129 -12.529 -15.125  1.00  0.00     0.011 C 
ATOM     14  H1  UNL     1       4.637 -11.619 -11.282  1.00  0.00     0.186 HD
ENDBRANCH   3   5
ENDBRANCH   1   3
BRANCH   1  15
HETATM   15  N3  UNL     1       2.043 -11.264  -8.890  1.00  0.00    -0.338 NA
HETATM   16  C8  UNL     1       1.620 -11.808  -7.747  1.00  0.00     0.314 C 
HETATM   17  O2  UNL     1       0.481 -11.584  -7.193  1.00  0.00    -0.255 OA
BRANCH  16  18
HETATM   18  C9  UNL     1       2.443 -12.783  -6.947  1.00  0.00     0.111 C 
HETATM   19  C10 UNL     1       1.848 -14.158  -6.950  1.00  0.00     0.040 C 
HETATM   20  C11 UNL     1       3.829 -12.926  -7.615  1.00  0.00     0.040 C 
BRANCH  18  21
HETATM   21  C12 UNL     1       2.606 -12.199  -5.624  1.00  0.00    -0.084 C 
HETATM   22  C13 UNL     1       2.774 -11.710  -4.536  1.00  0.00    -0.080 C 
BRANCH  22  23
HETATM   23  C14 UNL     1       3.014 -11.085  -3.212  1.00  0.00     0.093 C 
HETATM   24  C15 UNL     1       2.489  -9.659  -3.174  1.00  0.00     0.046 C 
HETATM   25  C16 UNL     1       2.275 -11.857  -2.138  1.00  0.00     0.046 C 
HETATM   26 CL1  UNL     1       4.775 -11.131  -2.942  1.00  0.00    -0.106 Cl
ENDBRANCH  22  23
ENDBRANCH  18  21
ENDBRANCH  16  18
ENDBRANCH   1  15
TORSDOF 6
ENDMDL
MODEL 2
REMARK VINA RESULT: -9.072210537      3.940      8.577
REMARK  6 active torsions:
REMARK  status: ('A' for Active; 'I' for Inactive)
REMARK    1  A    between atoms: N1_8  and  N2_10 
REMARK    2  A    between atoms: N2_10  and  C7_12 
REMARK    3  A    between atoms: C7_12  and  N3_14 
REMARK       I    between atoms: N3_14  and  C8_15 
REMARK    4  A    between atoms: C8_15  and  C9_17 
REMARK    5  A    between atoms: C9_17  and  C12_20 
REMARK    6  A    between atoms: C13_21  and  C14_22 
ROOT
HETATM    1  C7  UNL     1       2.710 -12.125 -13.926  1.00  0.00     0.267 C 
HETATM    2  S1  UNL     1       1.987 -11.919 -15.419  1.00  0.00    -0.024 SA
ENDROOT
BRANCH   1   3
HETATM    3  N2  UNL     1       1.795 -12.136 -12.844  1.00  0.00    -0.265 N 
ATOM      4  H2  UNL     1       0.815 -11.951 -13.053  1.00  0.00     0.190 HD
BRANCH   3   5
HETATM    5  N1  UNL     1       2.127 -12.374 -11.542  1.00  0.00    -0.305 N 
HETATM    6  C6  UNL     1       2.730 -11.567 -10.725  1.00  0.00     0.011 C 
HETATM    7  C5  UNL     1       3.153 -10.222 -11.127  1.00  0.00     0.132 C 
HETATM    8  C17 UNL     1       2.968 -12.095  -9.378  1.00  0.00     0.059 C 
HETATM    9  C4  UNL     1       3.237  -9.265  -9.990  1.00  0.00     0.132 C 
HETATM   10  C3  UNL     1       2.733  -9.756  -8.647  1.00  0.00     0.083 C 
HETATM   11  O1  UNL     1       3.689  -8.158 -10.144  1.00  0.00    -0.298 OA
HETATM   12  C2  UNL     1       3.449 -11.054  -8.421  1.00  0.00    -0.006 C 
HETATM   13  C1  UNL     1       3.170 -11.595  -7.015  1.00  0.00     0.011 C 
ATOM     14  H1  UNL     1       1.872 -13.289 -11.169  1.00  0.00     0.186 HD
ENDBRANCH   3   5
ENDBRANCH   1   3
BRANCH   1  15
HETATM   15  N3  UNL     1       4.066 -12.264 -13.905  1.00  0.00    -0.338 NA
HETATM   16  C8  UNL     1       5.394 -12.400 -13.885  1.00  0.00     0.314 C 
HETATM   17  O2  UNL     1       6.120 -12.449 -12.825  1.00  0.00    -0.255 OA
BRANCH  16  18
HETATM   18  C9  UNL     1       6.227 -12.524 -15.133  1.00  0.00     0.111 C 
HETATM   19  C10 UNL     1       5.756 -13.639 -16.016  1.00  0.00     0.040 C 
HETATM   20  C11 UNL     1       6.064 -11.235 -15.967  1.00  0.00     0.040 C 
BRANCH  18  21
HETATM   21  C12 UNL     1       7.610 -12.642 -14.697  1.00  0.00    -0.084 C 
HETATM   22  C13 UNL     1       8.763 -12.712 -14.355  1.00  0.00    -0.080 C 
BRANCH  22  23
HETATM   23  C14 UNL     1      10.187 -12.755 -13.939  1.00  0.00     0.093 C 
HETATM   24  C15 UNL     1      10.316 -12.843 -12.427  1.00  0.00     0.046 C 
HETATM   25  C16 UNL     1      10.852 -13.991 -14.513  1.00  0.00     0.046 C 
HETATM   26 CL1  UNL     1      10.943 -11.268 -14.566  1.00  0.00    -0.106 Cl
ENDBRANCH  22  23
ENDBRANCH  18  21
ENDBRANCH  16  18
ENDBRANCH   1  15
TORSDOF 6
ENDMDL
MODEL 3
REMARK VINA RESULT: -8.907216351      1.595      2.103
REMARK  6 active torsions:
REMARK  status: ('A' for Active; 'I' for Inactive)
REMARK    1  A    between atoms: N1_8  and  N2_10 
REMARK    2  A    between atoms: N2_10  and  C7_12 
REMARK    3  A    between atoms: C7_12  and  N3_14 
REMARK       I    between atoms: N3_14  and  C8_15 
REMARK    4  A    between atoms: C8_15  and  C9_17 
REMARK    5  A    between atoms: C9_17  and  C12_20 
REMARK    6  A    between atoms: C13_21  and  C14_22 
ROOT
HETATM    1  C7  UNL     1       2.700 -11.089  -9.741  1.00  0.00     0.267 C 
HETATM    2  S1  UNL     1       2.920  -9.436  -9.849  1.00  0.00    -0.024 SA
ENDROOT
BRANCH   1   3
HETATM    3  N2  UNL     1       2.773 -11.759 -10.989  1.00  0.00    -0.265 N 
ATOM      4  H2  UNL     1       1.898 -12.070 -11.409  1.00  0.00     0.190 HD
BRANCH   3   5
HETATM    5  N1  UNL     1       3.926 -12.019 -11.670  1.00  0.00    -0.305 N 
HETATM    6  C6  UNL     1       4.050 -12.268 -12.937  1.00  0.00     0.011 C 
HETATM    7  C5  UNL     1       2.898 -12.303 -13.842  1.00  0.00     0.132 C 
HETATM    8  C17 UNL     1       5.419 -12.522 -13.399  1.00  0.00     0.059 C 
HETATM    9  C4  UNL     1       3.246 -11.984 -15.254  1.00  0.00     0.132 C 
HETATM   10  C3  UNL     1       4.666 -11.523 -15.518  1.00  0.00     0.083 C 
HETATM   11  O1  UNL     1       2.429 -12.093 -16.133  1.00  0.00    -0.298 OA
HETATM   12  C2  UNL     1       5.532 -12.572 -14.887  1.00  0.00    -0.006 C 
HETATM   13  C1  UNL     1       7.008 -12.335 -15.218  1.00  0.00     0.011 C 
ATOM     14  H1  UNL     1       4.788 -12.017 -11.123  1.00  0.00     0.186 HD
ENDBRANCH   3   5
ENDBRANCH   1   3
BRANCH   1  15
HETATM   15  N3  UNL     1       2.484 -11.609  -8.500  1.00  0.00    -0.338 NA
HETATM   16  C8  UNL     1       2.273 -12.118  -7.284  1.00  0.00     0.314 C 
HETATM   17  O2  UNL     1       1.648 -13.213  -7.035  1.00  0.00    -0.255 OA
BRANCH  16  18
HETATM   18  C9  UNL     1       2.761 -11.459  -6.021  1.00  0.00     0.111 C 
HETATM   19  C10 UNL     1       4.220 -11.127  -6.086  1.00  0.00     0.040 C 
HETATM   20  C11 UNL     1       2.033 -10.107  -5.855  1.00  0.00     0.040 C 
BRANCH  18  21
HETATM   21  C12 UNL     1       2.391 -12.341  -4.925  1.00  0.00    -0.084 C 
HETATM   22  C13 UNL     1       2.113 -13.062  -4.001  1.00  0.00    -0.080 C 
BRANCH  22  23
HETATM   23  C14 UNL     1       1.793 -13.925  -2.836  1.00  0.00     0.093 C 
HETATM   24  C15 UNL     1       0.476 -14.656  -3.039  1.00  0.00     0.046 C 
HETATM   25  C16 UNL     1       2.866 -14.982  -2.671  1.00  0.00     0.046 C 
HETATM   26 CL1  UNL     1       1.723 -12.851  -1.415  1.00  0.00    -0.106 Cl
ENDBRANCH  22  23
ENDBRANCH  18  21
ENDBRANCH  16  18
ENDBRANCH   1  15
TORSDOF 6
ENDMDL
MODEL 4
REMARK VINA RESULT: -8.896629181      2.114      2.764
REMARK  6 active torsions:
REMARK  status: ('A' for Active; 'I' for Inactive)
REMARK    1  A    between atoms: N1_8  and  N2_10 
REMARK    2  A    between atoms: N2_10  and  C7_12 
REMARK    3  A    between atoms: C7_12  and  N3_14 
REMARK       I    between atoms: N3_14  and  C8_15 
REMARK    4  A    between atoms: C8_15  and  C9_17 
REMARK    5  A    between atoms: C9_17  and  C12_20 
REMARK    6  A    between atoms: C13_21  and  C14_22 
ROOT
HETATM    1  C7  UNL     1       2.001 -11.303  -8.480  1.00  0.00     0.267 C 
HETATM    2  S1  UNL     1       1.311 -12.819  -8.629  1.00  0.00    -0.024 SA
ENDROOT
BRANCH   1   3
HETATM    3  N2  UNL     1       2.387 -10.726  -9.716  1.00  0.00    -0.265 N 
ATOM      4  H2  UNL     1       1.831  -9.945 -10.066  1.00  0.00     0.190 HD
BRANCH   3   5
HETATM    5  N1  UNL     1       3.444 -11.136 -10.475  1.00  0.00    -0.305 N 
HETATM    6  C6  UNL     1       3.400 -11.748 -11.617  1.00  0.00     0.011 C 
HETATM    7  C5  UNL     1       2.134 -12.094 -12.269  1.00  0.00     0.132 C 
HETATM    8  C17 UNL     1       4.702 -12.079 -12.206  1.00  0.00     0.059 C 
HETATM    9  C4  UNL     1       2.242 -12.199 -13.751  1.00  0.00     0.132 C 
HETATM   10  C3  UNL     1       3.564 -11.787 -14.368  1.00  0.00     0.083 C 
HETATM   11  O1  UNL     1       1.316 -12.596 -14.413  1.00  0.00    -0.298 OA
HETATM   12  C2  UNL     1       4.598 -12.567 -13.613  1.00  0.00    -0.006 C 
HETATM   13  C1  UNL     1       5.985 -12.386 -14.239  1.00  0.00     0.011 C 
ATOM     14  H1  UNL     1       4.373 -10.939 -10.102  1.00  0.00     0.186 HD
ENDBRANCH   3   5
ENDBRANCH   1   3
BRANCH   1  15
HETATM   15  N3  UNL     1       2.113 -10.791  -7.222  1.00  0.00    -0.338 NA
HETATM   16  C8  UNL     1       2.223 -10.290  -5.990  1.00  0.00     0.314 C 
HETATM   17  O2  UNL     1       1.633  -9.230  -5.563  1.00  0.00    -0.255 OA
BRANCH  16  18
HETATM   18  C9  UNL     1       3.068 -10.924  -4.917  1.00  0.00     0.111 C 
HETATM   19  C10 UNL     1       2.641 -12.328  -4.620  1.00  0.00     0.040 C 
HETATM   20  C11 UNL     1       4.522 -11.029  -5.428  1.00  0.00     0.040 C 
BRANCH  18  21
HETATM   21  C12 UNL     1       3.026 -10.026  -3.773  1.00  0.00    -0.084 C 
HETATM   22  C13 UNL     1       3.024  -9.275  -2.831  1.00  0.00    -0.080 C 
BRANCH  22  23
HETATM   23  C14 UNL     1       3.053  -8.325  -1.691  1.00  0.00     0.093 C 
HETATM   24  C15 UNL     1       4.144  -8.693  -0.698  1.00  0.00     0.046 C 
HETATM   25  C16 UNL     1       3.364  -6.930  -2.192  1.00  0.00     0.046 C 
HETATM   26 CL1  UNL     1       1.441  -8.393  -0.934  1.00  0.00    -0.106 Cl
ENDBRANCH  22  23
ENDBRANCH  18  21
ENDBRANCH  16  18
ENDBRANCH   1  15
TORSDOF 6
ENDMDL
MODEL 5
REMARK VINA RESULT: -8.857941473      1.309      1.659
REMARK  6 active torsions:
REMARK  status: ('A' for Active; 'I' for Inactive)
REMARK    1  A    between atoms: N1_8  and  N2_10 
REMARK    2  A    between atoms: N2_10  and  C7_12 
REMARK    3  A    between atoms: C7_12  and  N3_14 
REMARK       I    between atoms: N3_14  and  C8_15 
REMARK    4  A    between atoms: C8_15  and  C9_17 
REMARK    5  A    between atoms: C9_17  and  C12_20 
REMARK    6  A    between atoms: C13_21  and  C14_22 
ROOT
HETATM    1  C7  UNL     1       3.174 -10.447  -9.860  1.00  0.00     0.267 C 
HETATM    2  S1  UNL     1       3.204  -8.831 -10.286  1.00  0.00    -0.024 SA
ENDROOT
BRANCH   1   3
HETATM    3  N2  UNL     1       3.100 -11.330 -10.966  1.00  0.00    -0.265 N 
ATOM      4  H2  UNL     1       2.177 -11.668 -11.239  1.00  0.00     0.190 HD
BRANCH   3   5
HETATM    5  N1  UNL     1       4.169 -11.761 -11.695  1.00  0.00    -0.305 N 
HETATM    6  C6  UNL     1       4.176 -12.121 -12.941  1.00  0.00     0.011 C 
HETATM    7  C5  UNL     1       2.964 -12.106 -13.765  1.00  0.00     0.132 C 
HETATM    8  C17 UNL     1       5.476 -12.552 -13.466  1.00  0.00     0.059 C 
HETATM    9  C4  UNL     1       3.240 -11.936 -15.218  1.00  0.00     0.132 C 
HETATM   10  C3  UNL     1       4.676 -11.649 -15.611  1.00  0.00     0.083 C 
HETATM   11  O1  UNL     1       2.354 -12.028 -16.031  1.00  0.00    -0.298 OA
HETATM   12  C2  UNL     1       5.476 -12.730 -14.948  1.00  0.00    -0.006 C 
HETATM   13  C1  UNL     1       6.941 -12.675 -15.392  1.00  0.00     0.011 C 
ATOM     14  H1  UNL     1       5.063 -11.807 -11.206  1.00  0.00     0.186 HD
ENDBRANCH   3   5
ENDBRANCH   1   3
BRANCH   1  15
HETATM   15  N3  UNL     1       3.227 -10.741  -8.530  1.00  0.00    -0.338 NA
HETATM   16  C8  UNL     1       3.280 -11.030  -7.228  1.00  0.00     0.314 C 
HETATM   17  O2  UNL     1       4.346 -11.332  -6.575  1.00  0.00    -0.255 OA
BRANCH  16  18
HETATM   18  C9  UNL     1       2.067 -11.028  -6.336  1.00  0.00     0.111 C 
HETATM   19  C10 UNL     1       0.921 -10.280  -6.944  1.00  0.00     0.040 C 
HETATM   20  C11 UNL     1       1.574 -12.483  -6.168  1.00  0.00     0.040 C 
BRANCH  18  21
HETATM   21  C12 UNL     1       2.503 -10.519  -5.044  1.00  0.00    -0.084 C 
HETATM   22  C13 UNL     1       2.844 -10.120  -3.960  1.00  0.00    -0.080 C 
BRANCH  22  23
HETATM   23  C14 UNL     1       3.257  -9.668  -2.608  1.00  0.00     0.093 C 
HETATM   24  C15 UNL     1       3.356  -8.153  -2.541  1.00  0.00     0.046 C 
HETATM   25  C16 UNL     1       2.220 -10.090  -1.587  1.00  0.00     0.046 C 
HETATM   26 CL1  UNL     1       4.833 -10.433  -2.278  1.00  0.00    -0.106 Cl
ENDBRANCH  22  23
ENDBRANCH  18  21
ENDBRANCH  16  18
ENDBRANCH   1  15
TORSDOF 6
ENDMDL
