MODEL 1
REMARK VINA RESULT: -8.380736655      0.000      0.000
REMARK  3 active torsions:
REMARK  status: ('A' for Active; 'I' for Inactive)
REMARK    1  A    between atoms: C2_2  and  O1_3 
REMARK    2  A    between atoms: O1_3  and  C3_4 
REMARK       I    between atoms: C3_4  and  N1_6 
REMARK       I    between atoms: N1_6  and  C4_8 
REMARK       I    between atoms: C4_8  and  N2_10 
REMARK    3  A    between atoms: N2_10  and  C5_12 
ROOT
HETATM    1  C3  UNL     1       3.035  -9.407  -2.397  1.00  0.00     0.373 C 
HETATM    2  O2  UNL     1       1.935  -9.427  -2.983  1.00  0.00    -0.238 OA
HETATM    3  N1  UNL     1       4.204  -9.793  -3.069  1.00  0.00    -0.254 N 
ATOM      4  H1  UNL     1       5.053  -9.743  -2.506  1.00  0.00     0.175 HD
HETATM    5  C4  UNL     1       4.401 -10.229  -4.367  1.00  0.00     0.324 C 
HETATM    6  O3  UNL     1       5.585 -10.522  -4.736  1.00  0.00    -0.247 OA
HETATM    7  N2  UNL     1       3.407 -10.379  -5.316  1.00  0.00    -0.337 N 
ATOM      8  H2  UNL     1       2.451 -10.151  -5.041  1.00  0.00     0.164 HD
ENDROOT
BRANCH   7   9
HETATM    9  C5  UNL     1       3.630 -10.841  -6.683  1.00  0.00     0.094 C 
HETATM   10  C6  UNL     1       2.731 -10.179  -7.674  1.00  0.00     0.009 C 
HETATM   11  C7  UNL     1       1.333 -10.746  -7.691  1.00  0.00     0.011 C 
HETATM   12  C11 UNL     1       3.324 -10.448  -9.063  1.00  0.00     0.011 C 
HETATM   13  C8  UNL     1       1.365 -12.254  -7.869  1.00  0.00    -0.013 C 
HETATM   14  C9  UNL     1       1.976 -12.516  -9.234  1.00  0.00     0.009 C 
HETATM   15  C14 UNL     1       2.201 -12.902  -6.799  1.00  0.00     0.011 C 
HETATM   16  C10 UNL     1       3.377 -11.929  -9.256  1.00  0.00    -0.013 C 
HETATM   17  C12 UNL     1       4.175 -12.644  -8.194  1.00  0.00     0.011 C 
HETATM   18  C13 UNL     1       3.592 -12.324  -6.813  1.00  0.00     0.009 C 
ENDBRANCH   7   9
BRANCH   1  19
HETATM   19  O1  UNL     1       3.109  -8.994  -1.048  1.00  0.00    -0.263 OA
BRANCH  19  20
HETATM   20  C2  UNL     1       2.009  -8.600  -0.341  1.00  0.00     0.085 C 
HETATM   21  C1  UNL     1       1.074  -9.555   0.289  1.00  0.00     0.079 C 
HETATM   22  C15 UNL     1       1.780  -7.280  -0.220  1.00  0.00     0.094 C 
HETATM   23  O4  UNL     1       0.715  -6.695   0.459  1.00  0.00    -0.351 OA
HETATM   24  C18 UNL     1       2.584  -6.168  -0.768  1.00  0.00     0.143 C 
HETATM   25  C16 UNL     1       1.081  -5.414   0.940  1.00  0.00     0.177 C 
HETATM   26  C17 UNL     1       2.260  -4.980   0.107  1.00  0.00     0.054 C 
HETATM   27 CL1  UNL     1       4.327  -6.486  -0.628  1.00  0.00    -0.118 Cl
ENDBRANCH  19  20
ENDBRANCH   1  19
TORSDOF 3
ENDMDL
MODEL 2
REMARK VINA RESULT: -8.264062150      1.232      1.684
REMARK  3 active torsions:
REMARK  status: ('A' for Active; 'I' for Inactive)
REMARK    1  A    between atoms: C2_2  and  O1_3 
REMARK    2  A    between atoms: O1_3  and  C3_4 
REMARK       I    between atoms: C3_4  and  N1_6 
REMARK       I    between atoms: N1_6  and  C4_8 
REMARK       I    between atoms: C4_8  and  N2_10 
REMARK    3  A    between atoms: N2_10  and  C5_12 
ROOT
HETATM    1  C3  UNL     1       2.938  -9.232  -2.606  1.00  0.00     0.373 C 
HETATM    2  O2  UNL     1       1.856  -9.264  -3.223  1.00  0.00    -0.238 OA
HETATM    3  N1  UNL     1       4.122  -9.660  -3.226  1.00  0.00    -0.254 N 
ATOM      4  H1  UNL     1       4.954  -9.596  -2.640  1.00  0.00     0.175 HD
HETATM    5  C4  UNL     1       4.351 -10.154  -4.498  1.00  0.00     0.324 C 
HETATM    6  O3  UNL     1       5.541 -10.476  -4.819  1.00  0.00    -0.247 OA
HETATM    7  N2  UNL     1       3.383 -10.332  -5.468  1.00  0.00    -0.337 N 
ATOM      8  H2  UNL     1       2.422 -10.082  -5.233  1.00  0.00     0.164 HD
ENDROOT
BRANCH   7   9
HETATM    9  C5  UNL     1       3.640 -10.855  -6.807  1.00  0.00     0.094 C 
HETATM   10  C6  UNL     1       2.811 -10.193  -7.858  1.00  0.00     0.009 C 
HETATM   11  C7  UNL     1       1.391 -10.700  -7.913  1.00  0.00     0.011 C 
HETATM   12  C11 UNL     1       3.447 -10.541  -9.211  1.00  0.00     0.011 C 
HETATM   13  C8  UNL     1       1.363 -12.214  -8.035  1.00  0.00    -0.013 C 
HETATM   14  C9  UNL     1       2.016 -12.554  -9.363  1.00  0.00     0.009 C 
HETATM   15  C14 UNL     1       2.126 -12.856  -6.908  1.00  0.00     0.011 C 
HETATM   16  C10 UNL     1       3.441 -12.028  -9.348  1.00  0.00    -0.013 C 
HETATM   17  C12 UNL     1       4.164 -12.736  -8.228  1.00  0.00     0.011 C 
HETATM   18  C13 UNL     1       3.541 -12.339  -6.885  1.00  0.00     0.009 C 
ENDBRANCH   7   9
BRANCH   1  19
HETATM   19  O1  UNL     1       2.978  -8.763  -1.274  1.00  0.00    -0.263 OA
BRANCH  19  20
HETATM   20  C2  UNL     1       2.723  -7.462  -0.948  1.00  0.00     0.085 C 
HETATM   21  C1  UNL     1       3.325  -6.320  -1.666  1.00  0.00     0.079 C 
HETATM   22  C15 UNL     1       1.882  -7.223   0.075  1.00  0.00     0.094 C 
HETATM   23  O4  UNL     1       1.506  -5.970   0.548  1.00  0.00    -0.351 OA
HETATM   24  C18 UNL     1       1.179  -8.213   0.917  1.00  0.00     0.143 C 
HETATM   25  C16 UNL     1       0.216  -6.029   1.130  1.00  0.00     0.177 C 
HETATM   26  C17 UNL     1      -0.019  -7.478   1.471  1.00  0.00     0.054 C 
HETATM   27 CL1  UNL     1       0.579  -9.584  -0.041  1.00  0.00    -0.118 Cl
ENDBRANCH  19  20
ENDBRANCH   1  19
TORSDOF 3
ENDMDL
MODEL 3
REMARK VINA RESULT: -8.149345082      1.654      2.049
REMARK  3 active torsions:
REMARK  status: ('A' for Active; 'I' for Inactive)
REMARK    1  A    between atoms: C2_2  and  O1_3 
REMARK    2  A    between atoms: O1_3  and  C3_4 
REMARK       I    between atoms: C3_4  and  N1_6 
REMARK       I    between atoms: N1_6  and  C4_8 
REMARK       I    between atoms: C4_8  and  N2_10 
REMARK    3  A    between atoms: N2_10  and  C5_12 
ROOT
HETATM    1  C3  UNL     1       3.149  -9.427  -2.332  1.00  0.00     0.373 C 
HETATM    2  O2  UNL     1       2.032  -9.472  -2.883  1.00  0.00    -0.238 OA
HETATM    3  N1  UNL     1       4.305  -9.788  -3.041  1.00  0.00    -0.254 N 
ATOM      4  H1  UNL     1       5.170  -9.719  -2.504  1.00  0.00     0.175 HD
HETATM    5  C4  UNL     1       4.470 -10.220  -4.345  1.00  0.00     0.324 C 
HETATM    6  O3  UNL     1       5.649 -10.486  -4.750  1.00  0.00    -0.247 OA
HETATM    7  N2  UNL     1       3.450 -10.391  -5.261  1.00  0.00    -0.337 N 
ATOM      8  H2  UNL     1       2.498 -10.185  -4.957  1.00  0.00     0.164 HD
ENDROOT
BRANCH   7   9
HETATM    9  C5  UNL     1       3.640 -10.849  -6.635  1.00  0.00     0.094 C 
HETATM   10  C6  UNL     1       2.713 -10.188  -7.601  1.00  0.00     0.009 C 
HETATM   11  C7  UNL     1       1.318 -10.762  -7.583  1.00  0.00     0.011 C 
HETATM   12  C11 UNL     1       3.271 -10.451  -9.005  1.00  0.00     0.011 C 
HETATM   13  C8  UNL     1       1.352 -12.269  -7.766  1.00  0.00    -0.013 C 
HETATM   14  C9  UNL     1       1.929 -12.525  -9.147  1.00  0.00     0.009 C 
HETATM   15  C14 UNL     1       2.218 -12.916  -6.720  1.00  0.00     0.011 C 
HETATM   16  C10 UNL     1       3.326 -11.931  -9.204  1.00  0.00    -0.013 C 
HETATM   17  C12 UNL     1       4.155 -12.645  -8.165  1.00  0.00     0.011 C 
HETATM   18  C13 UNL     1       3.606 -12.332  -6.768  1.00  0.00     0.009 C 
ENDBRANCH   7   9
BRANCH   1  19
HETATM   19  O1  UNL     1       3.257  -9.013  -0.986  1.00  0.00    -0.263 OA
BRANCH  19  20
HETATM   20  C2  UNL     1       4.458  -8.901  -0.347  1.00  0.00     0.085 C 
HETATM   21  C1  UNL     1       5.362 -10.049  -0.129  1.00  0.00     0.079 C 
HETATM   22  C15 UNL     1       4.824  -7.685   0.097  1.00  0.00     0.094 C 
HETATM   23  O4  UNL     1       6.005  -7.381   0.767  1.00  0.00    -0.351 OA
HETATM   24  C18 UNL     1       4.074  -6.417  -0.017  1.00  0.00     0.143 C 
HETATM   25  C16 UNL     1       6.376  -6.035   0.527  1.00  0.00     0.177 C 
HETATM   26  C17 UNL     1       5.118  -5.331   0.086  1.00  0.00     0.054 C 
HETATM   27 CL1  UNL     1       3.284  -6.261  -1.602  1.00  0.00    -0.118 Cl
ENDBRANCH  19  20
ENDBRANCH   1  19
TORSDOF 3
ENDMDL
MODEL 4
REMARK VINA RESULT: -8.140295591      1.955      2.313
REMARK  3 active torsions:
REMARK  status: ('A' for Active; 'I' for Inactive)
REMARK    1  A    between atoms: C2_2  and  O1_3 
REMARK    2  A    between atoms: O1_3  and  C3_4 
REMARK       I    between atoms: C3_4  and  N1_6 
REMARK       I    between atoms: N1_6  and  C4_8 
REMARK       I    between atoms: C4_8  and  N2_10 
REMARK    3  A    between atoms: N2_10  and  C5_12 
ROOT
HETATM    1  C3  UNL     1       3.085  -9.420  -2.323  1.00  0.00     0.373 C 
HETATM    2  O2  UNL     1       1.973  -9.466  -2.885  1.00  0.00    -0.238 OA
HETATM    3  N1  UNL     1       4.248  -9.781  -3.021  1.00  0.00    -0.254 N 
ATOM      4  H1  UNL     1       5.107  -9.711  -2.476  1.00  0.00     0.175 HD
HETATM    5  C4  UNL     1       4.425 -10.214  -4.323  1.00  0.00     0.324 C 
HETATM    6  O3  UNL     1       5.608 -10.480  -4.717  1.00  0.00    -0.247 OA
HETATM    7  N2  UNL     1       3.414 -10.388  -5.248  1.00  0.00    -0.337 N 
ATOM      8  H2  UNL     1       2.459 -10.181  -4.953  1.00  0.00     0.164 HD
ENDROOT
BRANCH   7   9
HETATM    9  C5  UNL     1       3.618 -10.846  -6.620  1.00  0.00     0.094 C 
HETATM   10  C6  UNL     1       2.700 -10.187  -7.595  1.00  0.00     0.009 C 
HETATM   11  C7  UNL     1       1.305 -10.759  -7.591  1.00  0.00     0.011 C 
HETATM   12  C11 UNL     1       3.272 -10.451  -8.994  1.00  0.00     0.011 C 
HETATM   13  C8  UNL     1       1.340 -12.267  -7.772  1.00  0.00    -0.013 C 
HETATM   14  C9  UNL     1       1.931 -12.524  -9.147  1.00  0.00     0.009 C 
HETATM   15  C14 UNL     1       2.196 -12.913  -6.717  1.00  0.00     0.011 C 
HETATM   16  C10 UNL     1       3.328 -11.931  -9.191  1.00  0.00    -0.013 C 
HETATM   17  C12 UNL     1       4.147 -12.644  -8.143  1.00  0.00     0.011 C 
HETATM   18  C13 UNL     1       3.584 -12.329  -6.752  1.00  0.00     0.009 C 
ENDBRANCH   7   9
BRANCH   1  19
HETATM   19  O1  UNL     1       3.179  -9.005  -0.977  1.00  0.00    -0.263 OA
BRANCH  19  20
HETATM   20  C2  UNL     1       3.531  -7.733  -0.626  1.00  0.00     0.085 C 
HETATM   21  C1  UNL     1       2.672  -6.560  -0.889  1.00  0.00     0.079 C 
HETATM   22  C15 UNL     1       4.714  -7.554  -0.012  1.00  0.00     0.094 C 
HETATM   23  O4  UNL     1       5.237  -6.337   0.416  1.00  0.00    -0.351 OA
HETATM   24  C18 UNL     1       5.714  -8.582   0.342  1.00  0.00     0.143 C 
HETATM   25  C16 UNL     1       6.100  -6.533   1.522  1.00  0.00     0.177 C 
HETATM   26  C17 UNL     1       6.514  -7.981   1.474  1.00  0.00     0.054 C 
HETATM   27 CL1  UNL     1       4.945 -10.065   0.949  1.00  0.00    -0.118 Cl
ENDBRANCH  19  20
ENDBRANCH   1  19
TORSDOF 3
ENDMDL
MODEL 5
REMARK VINA RESULT: -8.138596782      0.862      1.003
REMARK  3 active torsions:
REMARK  status: ('A' for Active; 'I' for Inactive)
REMARK    1  A    between atoms: C2_2  and  O1_3 
REMARK    2  A    between atoms: O1_3  and  C3_4 
REMARK       I    between atoms: C3_4  and  N1_6 
REMARK       I    between atoms: N1_6  and  C4_8 
REMARK       I    between atoms: C4_8  and  N2_10 
REMARK    3  A    between atoms: N2_10  and  C5_12 
ROOT
HETATM    1  C3  UNL     1       3.160  -9.296  -2.454  1.00  0.00     0.373 C 
HETATM    2  O2  UNL     1       2.049  -9.309  -3.020  1.00  0.00    -0.238 OA
HETATM    3  N1  UNL     1       4.310  -9.717  -3.140  1.00  0.00    -0.254 N 
ATOM      4  H1  UNL     1       5.169  -9.670  -2.592  1.00  0.00     0.175 HD
HETATM    5  C4  UNL     1       4.474 -10.184  -4.431  1.00  0.00     0.324 C 
HETATM    6  O3  UNL     1       5.647 -10.505  -4.815  1.00  0.00    -0.247 OA
HETATM    7  N2  UNL     1       3.460 -10.336  -5.358  1.00  0.00    -0.337 N 
ATOM      8  H2  UNL     1       2.514 -10.086  -5.071  1.00  0.00     0.164 HD
ENDROOT
BRANCH   7   9
HETATM    9  C5  UNL     1       3.651 -10.831  -6.718  1.00  0.00     0.094 C 
HETATM   10  C6  UNL     1       2.735 -10.184  -7.705  1.00  0.00     0.009 C 
HETATM   11  C7  UNL     1       1.333 -10.739  -7.679  1.00  0.00     0.011 C 
HETATM   12  C11 UNL     1       3.296 -10.490  -9.100  1.00  0.00     0.011 C 
HETATM   13  C8  UNL     1       1.348 -12.251  -7.823  1.00  0.00    -0.013 C 
HETATM   14  C9  UNL     1       1.928 -12.550  -9.194  1.00  0.00     0.009 C 
HETATM   15  C14 UNL     1       2.202 -12.882  -6.756  1.00  0.00     0.011 C 
HETATM   16  C10 UNL     1       3.332 -11.975  -9.260  1.00  0.00    -0.013 C 
HETATM   17  C12 UNL     1       4.148 -12.673  -8.199  1.00  0.00     0.011 C 
HETATM   18  C13 UNL     1       3.597 -12.316  -6.814  1.00  0.00     0.009 C 
ENDBRANCH   7   9
BRANCH   1  19
HETATM   19  O1  UNL     1       3.266  -8.856  -1.117  1.00  0.00    -0.263 OA
BRANCH  19  20
HETATM   20  C2  UNL     1       2.378  -9.232  -0.149  1.00  0.00     0.085 C 
HETATM   21  C1  UNL     1       2.421 -10.553   0.510  1.00  0.00     0.079 C 
HETATM   22  C15 UNL     1       1.429  -8.350   0.211  1.00  0.00     0.094 C 
HETATM   23  O4  UNL     1       0.444  -8.556   1.173  1.00  0.00    -0.351 OA
HETATM   24  C18 UNL     1       1.212  -6.987  -0.319  1.00  0.00     0.143 C 
HETATM   25  C16 UNL     1       0.056  -7.324   1.752  1.00  0.00     0.177 C 
HETATM   26  C17 UNL     1       0.463  -6.256   0.770  1.00  0.00     0.054 C 
HETATM   27 CL1  UNL     1       2.748  -6.135  -0.588  1.00  0.00    -0.118 Cl
ENDBRANCH  19  20
ENDBRANCH   1  19
TORSDOF 3
ENDMDL
