MODEL 1
REMARK VINA RESULT: -6.030961488      0.000      0.000
REMARK  6 active torsions:
REMARK  status: ('A' for Active; 'I' for Inactive)
REMARK    1  A    between atoms: N1_2  and  C3_4 
REMARK    2  A    between atoms: C3_4  and  C4_5 
REMARK    3  A    between atoms: C4_5  and  N2_6 
REMARK    4  A    between atoms: N6_13  and  C5_14 
REMARK    5  A    between atoms: C5_14  and  N7_15 
REMARK    6  A    between atoms: C6_19  and  O1_20 
ROOT
HETATM    1  N2  UNL     1      -6.010  11.032  -5.460  1.00  0.00    -0.238 N 
HETATM    2  N3  UNL     1      -6.940  11.768  -6.047  1.00  0.00    -0.222 N 
ATOM      3  H3  UNL     1      -7.751  11.284  -6.434  1.00  0.00     0.210 HD
HETATM    4  N4  UNL     1      -6.898  13.067  -6.167  1.00  0.00    -0.213 N 
ATOM      5  H4  UNL     1      -7.652  13.571  -6.633  1.00  0.00     0.211 HD
HETATM    6  N5  UNL     1      -5.857  13.715  -5.672  1.00  0.00    -0.220 N 
ATOM      7  H5  UNL     1      -5.794  14.730  -5.749  1.00  0.00     0.210 HD
HETATM    8  N6  UNL     1      -4.899  13.024  -5.074  1.00  0.00    -0.213 N 
HETATM    9  C6  UNL     1      -4.947  11.682  -4.953  1.00  0.00     0.259 A 
ENDROOT
BRANCH   1  10
HETATM   10  C4  UNL     1      -6.136   9.592  -5.371  1.00  0.00     0.184 C 
BRANCH  10  11
HETATM   11  C3  UNL     1      -6.522   8.982  -6.698  1.00  0.00     0.293 C 
BRANCH  11  12
HETATM   12  N1  UNL     1      -6.425   7.560  -6.663  1.00  0.00     0.081 N 
HETATM   13  C1  UNL     1      -7.555   6.927  -7.274  1.00  0.00     0.309 C 
HETATM   14  C2  UNL     1      -6.159   7.007  -5.378  1.00  0.00     0.309 C 
ENDBRANCH  11  12
ENDBRANCH  10  11
ENDBRANCH   1  10
BRANCH   9  15
HETATM   15  O1  UNL     1      -3.916  10.982  -4.315  1.00  0.00    -0.330 OA
ATOM     16  H1  UNL     1      -4.105  10.367  -3.617  1.00  0.00     0.221 HD
ENDBRANCH   9  15
BRANCH   8  17
HETATM   17  C5  UNL     1      -3.752  13.747  -4.529  1.00  0.00     0.383 C 
BRANCH  17  18
HETATM   18  N7  UNL     1      -3.781  13.744  -3.068  1.00  0.00    -0.061 N 
ATOM     19  H73 UNL     1      -4.520  14.347  -2.705  1.00  0.00     0.276 HD
ATOM     20  H72 UNL     1      -4.114  12.853  -2.699  1.00  0.00     0.276 HD
ATOM     21  H71 UNL     1      -2.869  13.993  -2.686  1.00  0.00     0.276 HD
ENDBRANCH  17  18
ENDBRANCH   8  17
TORSDOF 6
ENDMDL
MODEL 2
REMARK VINA RESULT: -5.872793910      1.250      1.380
REMARK  6 active torsions:
REMARK  status: ('A' for Active; 'I' for Inactive)
REMARK    1  A    between atoms: N1_2  and  C3_4 
REMARK    2  A    between atoms: C3_4  and  C4_5 
REMARK    3  A    between atoms: C4_5  and  N2_6 
REMARK    4  A    between atoms: N6_13  and  C5_14 
REMARK    5  A    between atoms: C5_14  and  N7_15 
REMARK    6  A    between atoms: C6_19  and  O1_20 
ROOT
HETATM    1  N2  UNL     1      -5.814  11.838  -5.498  1.00  0.00    -0.238 N 
HETATM    2  N3  UNL     1      -6.509  12.878  -5.930  1.00  0.00    -0.222 N 
ATOM      3  H3  UNL     1      -7.350  12.690  -6.477  1.00  0.00     0.210 HD
HETATM    4  N4  UNL     1      -6.199  14.126  -5.708  1.00  0.00    -0.213 N 
ATOM      5  H4  UNL     1      -6.781  14.880  -6.072  1.00  0.00     0.211 HD
HETATM    6  N5  UNL     1      -5.114  14.393  -5.002  1.00  0.00    -0.220 N 
ATOM      7  H5  UNL     1      -4.844  15.358  -4.811  1.00  0.00     0.210 HD
HETATM    8  N6  UNL     1      -4.384  13.386  -4.547  1.00  0.00    -0.213 N 
HETATM    9  C6  UNL     1      -4.709  12.099  -4.778  1.00  0.00     0.259 A 
ENDROOT
BRANCH   1  10
HETATM   10  C4  UNL     1      -6.230  10.482  -5.791  1.00  0.00     0.184 C 
BRANCH  10  11
HETATM   11  C3  UNL     1      -6.941  10.391  -7.122  1.00  0.00     0.293 C 
BRANCH  11  12
HETATM   12  N1  UNL     1      -6.990   9.047  -7.593  1.00  0.00     0.081 N 
HETATM   13  C1  UNL     1      -8.272   8.710  -8.134  1.00  0.00     0.309 C 
HETATM   14  C2  UNL     1      -6.553   8.065  -6.657  1.00  0.00     0.309 C 
ENDBRANCH  11  12
ENDBRANCH  10  11
ENDBRANCH   1  10
BRANCH   9  15
HETATM   15  O1  UNL     1      -3.913  11.058  -4.282  1.00  0.00    -0.330 OA
ATOM     16  H1  UNL     1      -3.201  11.235  -3.680  1.00  0.00     0.221 HD
ENDBRANCH   9  15
BRANCH   8  17
HETATM   17  C5  UNL     1      -3.186  13.689  -3.766  1.00  0.00     0.383 C 
BRANCH  17  18
HETATM   18  N7  UNL     1      -1.993  13.142  -4.410  1.00  0.00    -0.061 N 
ATOM     19  H73 UNL     1      -1.443  12.574  -3.765  1.00  0.00     0.276 HD
ATOM     20  H72 UNL     1      -2.230  12.419  -5.089  1.00  0.00     0.276 HD
ATOM     21  H71 UNL     1      -1.434  13.885  -4.830  1.00  0.00     0.276 HD
ENDBRANCH  17  18
ENDBRANCH   8  17
TORSDOF 6
ENDMDL
MODEL 3
REMARK VINA RESULT: -5.797263667      1.989      5.399
REMARK  6 active torsions:
REMARK  status: ('A' for Active; 'I' for Inactive)
REMARK    1  A    between atoms: N1_2  and  C3_4 
REMARK    2  A    between atoms: C3_4  and  C4_5 
REMARK    3  A    between atoms: C4_5  and  N2_6 
REMARK    4  A    between atoms: N6_13  and  C5_14 
REMARK    5  A    between atoms: C5_14  and  N7_15 
REMARK    6  A    between atoms: C6_19  and  O1_20 
ROOT
HETATM    1  N2  UNL     1      -6.362   9.672  -5.939  1.00  0.00    -0.238 N 
HETATM    2  N3  UNL     1      -6.746   9.706  -7.205  1.00  0.00    -0.222 N 
ATOM      3  H3  UNL     1      -6.973  10.617  -7.606  1.00  0.00     0.210 HD
HETATM    4  N4  UNL     1      -6.856   8.660  -7.979  1.00  0.00    -0.213 N 
ATOM      5  H4  UNL     1      -7.158   8.760  -8.948  1.00  0.00     0.211 HD
HETATM    6  N5  UNL     1      -6.566   7.471  -7.481  1.00  0.00    -0.220 N 
ATOM      7  H5  UNL     1      -6.642   6.634  -8.060  1.00  0.00     0.210 HD
HETATM    8  N6  UNL     1      -6.177   7.384  -6.219  1.00  0.00    -0.213 N 
HETATM    9  C6  UNL     1      -6.065   8.466  -5.423  1.00  0.00     0.259 A 
ENDROOT
BRANCH   1  10
HETATM   10  C4  UNL     1      -6.268  10.883  -5.150  1.00  0.00     0.184 C 
BRANCH  10  11
HETATM   11  C3  UNL     1      -5.247  11.842  -5.717  1.00  0.00     0.293 C 
BRANCH  11  12
HETATM   12  N1  UNL     1      -4.131  11.989  -4.842  1.00  0.00     0.081 N 
HETATM   13  C1  UNL     1      -4.371  12.966  -3.823  1.00  0.00     0.309 C 
HETATM   14  C2  UNL     1      -2.884  12.219  -5.491  1.00  0.00     0.309 C 
ENDBRANCH  11  12
ENDBRANCH  10  11
ENDBRANCH   1  10
BRANCH   9  15
HETATM   15  O1  UNL     1      -5.651   8.338  -4.091  1.00  0.00    -0.330 OA
ATOM     16  H1  UNL     1      -5.907   7.585  -3.573  1.00  0.00     0.221 HD
ENDBRANCH   9  15
BRANCH   8  17
HETATM   17  C5  UNL     1      -5.859   6.065  -5.674  1.00  0.00     0.383 C 
BRANCH  17  18
HETATM   18  N7  UNL     1      -6.798   5.697  -4.617  1.00  0.00    -0.061 N 
ATOM     19  H73 UNL     1      -7.167   4.756  -4.751  1.00  0.00     0.276 HD
ATOM     20  H72 UNL     1      -6.324   5.552  -3.726  1.00  0.00     0.276 HD
ATOM     21  H71 UNL     1      -7.545   6.387  -4.538  1.00  0.00     0.276 HD
ENDBRANCH  17  18
ENDBRANCH   8  17
TORSDOF 6
ENDMDL
MODEL 4
REMARK VINA RESULT: -5.793226660      2.109      3.420
REMARK  6 active torsions:
REMARK  status: ('A' for Active; 'I' for Inactive)
REMARK    1  A    between atoms: N1_2  and  C3_4 
REMARK    2  A    between atoms: C3_4  and  C4_5 
REMARK    3  A    between atoms: C4_5  and  N2_6 
REMARK    4  A    between atoms: N6_13  and  C5_14 
REMARK    5  A    between atoms: C5_14  and  N7_15 
REMARK    6  A    between atoms: C6_19  and  O1_20 
ROOT
HETATM    1  N2  UNL     1      -6.682   8.084  -6.869  1.00  0.00    -0.238 N 
HETATM    2  N3  UNL     1      -6.823   8.391  -8.148  1.00  0.00    -0.222 N 
ATOM      3  H3  UNL     1      -7.097   7.643  -8.786  1.00  0.00     0.210 HD
HETATM    4  N4  UNL     1      -6.639   9.580  -8.655  1.00  0.00    -0.213 N 
ATOM      5  H4  UNL     1      -6.765   9.745  -9.653  1.00  0.00     0.211 HD
HETATM    6  N5  UNL     1      -6.284  10.564  -7.847  1.00  0.00    -0.220 N 
ATOM      7  H5  UNL     1      -6.132  11.504  -8.211  1.00  0.00     0.210 HD
HETATM    8  N6  UNL     1      -6.130  10.308  -6.557  1.00  0.00    -0.213 N 
HETATM    9  C6  UNL     1      -6.322   9.078  -6.039  1.00  0.00     0.259 A 
ENDROOT
BRANCH   1  10
HETATM   10  C4  UNL     1      -6.907   6.736  -6.391  1.00  0.00     0.184 C 
BRANCH  10  11
HETATM   11  C3  UNL     1      -5.741   5.828  -6.708  1.00  0.00     0.293 C 
BRANCH  11  12
HETATM   12  N1  UNL     1      -5.487   4.917  -5.642  1.00  0.00     0.081 N 
HETATM   13  C1  UNL     1      -6.536   3.953  -5.494  1.00  0.00     0.309 C 
HETATM   14  C2  UNL     1      -5.169   5.525  -4.393  1.00  0.00     0.309 C 
ENDBRANCH  11  12
ENDBRANCH  10  11
ENDBRANCH   1  10
BRANCH   9  15
HETATM   15  O1  UNL     1      -6.150   8.842  -4.669  1.00  0.00    -0.330 OA
ATOM     16  H1  UNL     1      -5.426   8.315  -4.354  1.00  0.00     0.221 HD
ENDBRANCH   9  15
BRANCH   8  17
HETATM   17  C5  UNL     1      -5.738  11.401  -5.669  1.00  0.00     0.383 C 
BRANCH  17  18
HETATM   18  N7  UNL     1      -6.720  11.583  -4.603  1.00  0.00    -0.061 N 
ATOM     19  H73 UNL     1      -7.642  11.241  -4.876  1.00  0.00     0.276 HD
ATOM     20  H72 UNL     1      -6.548  10.952  -3.820  1.00  0.00     0.276 HD
ATOM     21  H71 UNL     1      -6.753  12.557  -4.302  1.00  0.00     0.276 HD
ENDBRANCH  17  18
ENDBRANCH   8  17
TORSDOF 6
ENDMDL
MODEL 5
REMARK VINA RESULT: -5.739679426      1.815      2.755
REMARK  6 active torsions:
REMARK  status: ('A' for Active; 'I' for Inactive)
REMARK    1  A    between atoms: N1_2  and  C3_4 
REMARK    2  A    between atoms: C3_4  and  C4_5 
REMARK    3  A    between atoms: C4_5  and  N2_6 
REMARK    4  A    between atoms: N6_13  and  C5_14 
REMARK    5  A    between atoms: C5_14  and  N7_15 
REMARK    6  A    between atoms: C6_19  and  O1_20 
ROOT
HETATM    1  N2  UNL     1      -4.467  12.484  -5.011  1.00  0.00    -0.238 N 
HETATM    2  N3  UNL     1      -5.020  12.906  -3.886  1.00  0.00    -0.222 N 
ATOM      3  H3  UNL     1      -6.009  12.699  -3.739  1.00  0.00     0.210 HD
HETATM    4  N4  UNL     1      -4.395  13.566  -2.949  1.00  0.00    -0.213 N 
ATOM      5  H4  UNL     1      -4.885  13.861  -2.105  1.00  0.00     0.211 HD
HETATM    6  N5  UNL     1      -3.113  13.843  -3.118  1.00  0.00    -0.220 N 
ATOM      7  H5  UNL     1      -2.596  14.358  -2.405  1.00  0.00     0.210 HD
HETATM    8  N6  UNL     1      -2.513  13.442  -4.228  1.00  0.00    -0.213 N 
HETATM    9  C6  UNL     1      -3.163  12.760  -5.192  1.00  0.00     0.259 A 
ENDROOT
BRANCH   1  10
HETATM   10  C4  UNL     1      -5.236  11.756  -6.000  1.00  0.00     0.184 C 
BRANCH  10  11
HETATM   11  C3  UNL     1      -6.172  10.759  -5.356  1.00  0.00     0.293 C 
BRANCH  11  12
HETATM   12  N1  UNL     1      -5.998   9.455  -5.904  1.00  0.00     0.081 N 
HETATM   13  C1  UNL     1      -6.883   9.207  -7.001  1.00  0.00     0.309 C 
HETATM   14  C2  UNL     1      -6.045   8.393  -4.956  1.00  0.00     0.309 C 
ENDBRANCH  11  12
ENDBRANCH  10  11
ENDBRANCH   1  10
BRANCH   9  15
HETATM   15  O1  UNL     1      -2.498  12.352  -6.355  1.00  0.00    -0.330 OA
ATOM     16  H1  UNL     1      -2.847  12.558  -7.213  1.00  0.00     0.221 HD
ENDBRANCH   9  15
BRANCH   8  17
HETATM   17  C5  UNL     1      -1.096  13.752  -4.408  1.00  0.00     0.383 C 
BRANCH  17  18
HETATM   18  N7  UNL     1      -0.364  13.588  -3.154  1.00  0.00    -0.061 N 
ATOM     19  H73 UNL     1      -0.172  12.606  -2.954  1.00  0.00     0.276 HD
ATOM     20  H72 UNL     1       0.597  13.920  -3.232  1.00  0.00     0.276 HD
ATOM     21  H71 UNL     1      -0.857  14.040  -2.384  1.00  0.00     0.276 HD
ENDBRANCH  17  18
ENDBRANCH   8  17
TORSDOF 6
ENDMDL
