MODEL 1
REMARK VINA RESULT: -6.255578413      0.000      0.000
REMARK  6 active torsions:
REMARK  status: ('A' for Active; 'I' for Inactive)
REMARK    1  A    between atoms: N1_4  and  C3_5 
REMARK    2  A    between atoms: C3_5  and  O2_6 
REMARK    3  A    between atoms: N4_12  and  C4_13 
REMARK    4  A    between atoms: C4_13  and  O3_14 
REMARK    5  A    between atoms: O3_14  and  C5_15 
REMARK    6  A    between atoms: C5_15  and  O4_16 
ROOT
HETATM    1  O1  UNL     1      -6.406   9.395  -4.734  1.00  0.00    -0.265 OA
HETATM    2  C1  UNL     1      -6.145   8.243  -5.156  1.00  0.00     0.282 A 
HETATM    3  C2  UNL     1      -5.764   7.245  -4.318  1.00  0.00     0.190 A 
HETATM    4  N1  UNL     1      -5.494   6.027  -4.811  1.00  0.00    -0.259 N 
HETATM    5  N2  UNL     1      -5.604   5.817  -6.108  1.00  0.00    -0.224 N 
ATOM      6  H2  UNL     1      -5.399   4.891  -6.482  1.00  0.00     0.210 HD
HETATM    7  N3  UNL     1      -5.979   6.788  -6.943  1.00  0.00    -0.221 N 
ATOM      8  H3  UNL     1      -6.057   6.599  -7.943  1.00  0.00     0.210 HD
HETATM    9  N4  UNL     1      -6.250   8.002  -6.471  1.00  0.00    -0.216 N 
ENDROOT
BRANCH   9  10
HETATM   10  C4  UNL     1      -6.661   9.079  -7.358  1.00  0.00     0.324 C 
BRANCH  10  11
HETATM   11  O3  UNL     1      -8.017   8.965  -7.555  1.00  0.00    -0.346 OA
BRANCH  11  12
HETATM   12  C5  UNL     1      -8.374   8.427  -8.773  1.00  0.00     0.336 C 
BRANCH  12  13
HETATM   13  O4  UNL     1      -8.508   7.050  -8.763  1.00  0.00    -0.377 OA
ATOM     14  H4  UNL     1      -8.865   6.690  -9.567  1.00  0.00     0.212 HD
ENDBRANCH  12  13
ENDBRANCH  11  12
ENDBRANCH  10  11
ENDBRANCH   9  10
BRANCH   4  15
HETATM   15  C3  UNL     1      -5.091   4.997  -3.880  1.00  0.00     0.314 C 
BRANCH  15  16
HETATM   16  O2  UNL     1      -5.781   3.836  -4.234  1.00  0.00    -0.380 OA
ATOM     17  H2  UNL     1      -6.262   3.554  -3.465  1.00  0.00     0.211 HD
ENDBRANCH  15  16
ENDBRANCH   4  15
TORSDOF 6
ENDMDL
MODEL 2
REMARK VINA RESULT: -6.116054494      2.000      3.590
REMARK  6 active torsions:
REMARK  status: ('A' for Active; 'I' for Inactive)
REMARK    1  A    between atoms: N1_4  and  C3_5 
REMARK    2  A    between atoms: C3_5  and  O2_6 
REMARK    3  A    between atoms: N4_12  and  C4_13 
REMARK    4  A    between atoms: C4_13  and  O3_14 
REMARK    5  A    between atoms: O3_14  and  C5_15 
REMARK    6  A    between atoms: C5_15  and  O4_16 
ROOT
HETATM    1  O1  UNL     1      -6.845   8.409  -7.482  1.00  0.00    -0.265 OA
HETATM    2  C1  UNL     1      -6.507   7.716  -6.493  1.00  0.00     0.282 A 
HETATM    3  C2  UNL     1      -6.508   6.358  -6.539  1.00  0.00     0.190 A 
HETATM    4  N1  UNL     1      -6.140   5.655  -5.458  1.00  0.00    -0.259 N 
HETATM    5  N2  UNL     1      -5.780   6.295  -4.363  1.00  0.00    -0.224 N 
ATOM      6  H2  UNL     1      -5.500   5.759  -3.542  1.00  0.00     0.210 HD
HETATM    7  N3  UNL     1      -5.774   7.628  -4.304  1.00  0.00    -0.221 N 
ATOM      8  H3  UNL     1      -5.491   8.099  -3.444  1.00  0.00     0.210 HD
HETATM    9  N4  UNL     1      -6.136   8.342  -5.366  1.00  0.00    -0.216 N 
ENDROOT
BRANCH   9  10
HETATM   10  C4  UNL     1      -6.138   9.796  -5.330  1.00  0.00     0.324 C 
BRANCH  10  11
HETATM   11  O3  UNL     1      -4.970  10.201  -4.730  1.00  0.00    -0.346 OA
BRANCH  11  12
HETATM   12  C5  UNL     1      -4.679  11.539  -4.888  1.00  0.00     0.336 C 
BRANCH  12  13
HETATM   13  O4  UNL     1      -3.822  12.047  -3.929  1.00  0.00    -0.377 OA
ATOM     14  H4  UNL     1      -2.942  11.691  -3.968  1.00  0.00     0.212 HD
ENDBRANCH  12  13
ENDBRANCH  11  12
ENDBRANCH  10  11
ENDBRANCH   9  10
BRANCH   4  15
HETATM   15  C3  UNL     1      -6.157   4.213  -5.555  1.00  0.00     0.314 C 
BRANCH  15  16
HETATM   16  O2  UNL     1      -5.952   3.715  -4.267  1.00  0.00    -0.380 OA
ATOM     17  H2  UNL     1      -6.763   3.300  -3.997  1.00  0.00     0.211 HD
ENDBRANCH  15  16
ENDBRANCH   4  15
TORSDOF 6
ENDMDL
MODEL 3
REMARK VINA RESULT: -6.110173962      2.003      5.036
REMARK  6 active torsions:
REMARK  status: ('A' for Active; 'I' for Inactive)
REMARK    1  A    between atoms: N1_4  and  C3_5 
REMARK    2  A    between atoms: C3_5  and  O2_6 
REMARK    3  A    between atoms: N4_12  and  C4_13 
REMARK    4  A    between atoms: C4_13  and  O3_14 
REMARK    5  A    between atoms: O3_14  and  C5_15 
REMARK    6  A    between atoms: C5_15  and  O4_16 
ROOT
HETATM    1  O1  UNL     1      -8.649   4.521  -6.551  1.00  0.00    -0.265 OA
HETATM    2  C1  UNL     1      -7.865   5.470  -6.791  1.00  0.00     0.282 A 
HETATM    3  C2  UNL     1      -8.268   6.575  -7.471  1.00  0.00     0.190 A 
HETATM    4  N1  UNL     1      -7.396   7.567  -7.707  1.00  0.00    -0.259 N 
HETATM    5  N2  UNL     1      -6.157   7.454  -7.272  1.00  0.00    -0.224 N 
ATOM      6  H2  UNL     1      -5.495   8.209  -7.452  1.00  0.00     0.210 HD
HETATM    7  N3  UNL     1      -5.747   6.375  -6.603  1.00  0.00    -0.221 N 
ATOM      8  H3  UNL     1      -4.782   6.312  -6.277  1.00  0.00     0.210 HD
HETATM    9  N4  UNL     1      -6.598   5.382  -6.360  1.00  0.00    -0.216 N 
ENDROOT
BRANCH   9  10
HETATM   10  C4  UNL     1      -6.179   4.194  -5.632  1.00  0.00     0.324 C 
BRANCH  10  11
HETATM   11  O3  UNL     1      -6.352   4.443  -4.291  1.00  0.00    -0.346 OA
BRANCH  11  12
HETATM   12  C5  UNL     1      -5.307   5.113  -3.694  1.00  0.00     0.336 C 
BRANCH  12  13
HETATM   13  O4  UNL     1      -5.594   6.426  -3.364  1.00  0.00    -0.377 OA
ATOM     14  H4  UNL     1      -4.870   6.891  -2.963  1.00  0.00     0.212 HD
ENDBRANCH  12  13
ENDBRANCH  11  12
ENDBRANCH  10  11
ENDBRANCH   9  10
BRANCH   4  15
HETATM   15  C3  UNL     1      -7.872   8.722  -8.435  1.00  0.00     0.314 C 
BRANCH  15  16
HETATM   16  O2  UNL     1      -6.762   9.297  -9.058  1.00  0.00    -0.380 OA
ATOM     17  H2  UNL     1      -6.152   9.537  -8.371  1.00  0.00     0.211 HD
ENDBRANCH  15  16
ENDBRANCH   4  15
TORSDOF 6
ENDMDL
MODEL 4
REMARK VINA RESULT: -6.074537000      2.564      3.412
REMARK  6 active torsions:
REMARK  status: ('A' for Active; 'I' for Inactive)
REMARK    1  A    between atoms: N1_4  and  C3_5 
REMARK    2  A    between atoms: C3_5  and  O2_6 
REMARK    3  A    between atoms: N4_12  and  C4_13 
REMARK    4  A    between atoms: C4_13  and  O3_14 
REMARK    5  A    between atoms: O3_14  and  C5_15 
REMARK    6  A    between atoms: C5_15  and  O4_16 
ROOT
HETATM    1  O1  UNL     1      -5.984   7.771  -3.273  1.00  0.00    -0.265 OA
HETATM    2  C1  UNL     1      -5.987   7.354  -4.455  1.00  0.00     0.282 A 
HETATM    3  C2  UNL     1      -5.895   6.029  -4.744  1.00  0.00     0.190 A 
HETATM    4  N1  UNL     1      -5.902   5.625  -6.024  1.00  0.00    -0.259 N 
HETATM    5  N2  UNL     1      -5.998   6.524  -6.984  1.00  0.00    -0.224 N 
ATOM      6  H2  UNL     1      -6.003   6.215  -7.956  1.00  0.00     0.210 HD
HETATM    7  N3  UNL     1      -6.089   7.827  -6.714  1.00  0.00    -0.221 N 
ATOM      8  H3  UNL     1      -6.162   8.502  -7.476  1.00  0.00     0.210 HD
HETATM    9  N4  UNL     1      -6.084   8.246  -5.452  1.00  0.00    -0.216 N 
ENDROOT
BRANCH   9  10
HETATM   10  C4  UNL     1      -6.182   9.661  -5.128  1.00  0.00     0.324 C 
BRANCH  10  11
HETATM   11  O3  UNL     1      -4.927  10.098  -4.778  1.00  0.00    -0.346 OA
BRANCH  11  12
HETATM   12  C5  UNL     1      -4.736  11.456  -4.913  1.00  0.00     0.336 C 
BRANCH  12  13
HETATM   13  O4  UNL     1      -3.863  11.997  -3.986  1.00  0.00    -0.377 OA
ATOM     14  H4  UNL     1      -4.247  12.674  -3.441  1.00  0.00     0.212 HD
ENDBRANCH  12  13
ENDBRANCH  11  12
ENDBRANCH  10  11
ENDBRANCH   9  10
BRANCH   4  15
HETATM   15  C3  UNL     1      -5.802   4.206  -6.282  1.00  0.00     0.314 C 
BRANCH  15  16
HETATM   16  O2  UNL     1      -5.983   3.555  -5.060  1.00  0.00    -0.380 OA
ATOM     17  H2  UNL     1      -6.062   2.628  -5.249  1.00  0.00     0.211 HD
ENDBRANCH  15  16
ENDBRANCH   4  15
TORSDOF 6
ENDMDL
MODEL 5
REMARK VINA RESULT: -6.068176848      1.662      4.482
REMARK  6 active torsions:
REMARK  status: ('A' for Active; 'I' for Inactive)
REMARK    1  A    between atoms: N1_4  and  C3_5 
REMARK    2  A    between atoms: C3_5  and  O2_6 
REMARK    3  A    between atoms: N4_12  and  C4_13 
REMARK    4  A    between atoms: C4_13  and  O3_14 
REMARK    5  A    between atoms: O3_14  and  C5_15 
REMARK    6  A    between atoms: C5_15  and  O4_16 
ROOT
HETATM    1  O1  UNL     1      -5.619   9.033  -4.628  1.00  0.00    -0.265 OA
HETATM    2  C1  UNL     1      -6.188   8.445  -5.578  1.00  0.00     0.282 A 
HETATM    3  C2  UNL     1      -6.552   9.103  -6.709  1.00  0.00     0.190 A 
HETATM    4  N1  UNL     1      -7.160   8.435  -7.701  1.00  0.00    -0.259 N 
HETATM    5  N2  UNL     1      -7.394   7.145  -7.563  1.00  0.00    -0.224 N 
ATOM      6  H2  UNL     1      -7.856   6.639  -8.318  1.00  0.00     0.210 HD
HETATM    7  N3  UNL     1      -7.042   6.486  -6.458  1.00  0.00    -0.221 N 
ATOM      8  H3  UNL     1      -7.235   5.487  -6.375  1.00  0.00     0.210 HD
HETATM    9  N4  UNL     1      -6.439   7.132  -5.464  1.00  0.00    -0.216 N 
ENDROOT
BRANCH   9  10
HETATM   10  C4  UNL     1      -6.043   6.439  -4.247  1.00  0.00     0.324 C 
BRANCH  10  11
HETATM   11  O3  UNL     1      -6.755   5.265  -4.184  1.00  0.00    -0.346 OA
BRANCH  11  12
HETATM   12  C5  UNL     1      -6.030   4.139  -4.508  1.00  0.00     0.336 C 
BRANCH  12  13
HETATM   13  O4  UNL     1      -6.388   3.566  -5.716  1.00  0.00    -0.377 OA
ATOM     14  H4  UNL     1      -7.195   3.066  -5.684  1.00  0.00     0.212 HD
ENDBRANCH  12  13
ENDBRANCH  11  12
ENDBRANCH  10  11
ENDBRANCH   9  10
BRANCH   4  15
HETATM   15  C3  UNL     1      -7.529   9.178  -8.886  1.00  0.00     0.314 C 
BRANCH  15  16
HETATM   16  O2  UNL     1      -6.426   9.959  -9.237  1.00  0.00    -0.380 OA
ATOM     17  H2  UNL     1      -6.760  10.716  -9.704  1.00  0.00     0.211 HD
ENDBRANCH  15  16
ENDBRANCH   4  15
TORSDOF 6
ENDMDL
