MODEL 1
REMARK VINA RESULT: -7.476099541      0.000      0.000
REMARK  4 active torsions:
REMARK  status: ('A' for Active; 'I' for Inactive)
REMARK    1  A    between atoms: C2_2  and  C4_4 
REMARK    2  A    between atoms: C4_4  and  C5_5 
REMARK    3  A    between atoms: C5_5  and  N1_6 
REMARK    4  A    between atoms: N1_6  and  C6_8 
ROOT
HETATM    1  C6  UNL     1       4.002   0.458 -29.987  1.00  0.00     0.145 A 
HETATM    2  N2  UNL     1       2.701   0.704 -29.848  1.00  0.00    -0.339 N 
ATOM      3  H2  UNL     1       2.295   1.575 -30.191  1.00  0.00     0.168 HD
HETATM    4  C7  UNL     1       1.954  -0.193 -29.261  1.00  0.00     0.029 A 
HETATM    5  C8  UNL     1       2.547  -1.338 -28.822  1.00  0.00     0.031 A 
HETATM    6  S1  UNL     1       4.173  -1.096 -29.265  1.00  0.00    -0.055 SA
HETATM    7  C9  UNL     1       1.709  -2.394 -28.140  1.00  0.00     0.117 C 
HETATM    8  C10 UNL     1       2.685  -3.300 -27.412  1.00  0.00     0.038 C 
HETATM    9  N3  UNL     1       0.863  -1.779 -27.173  1.00  0.00    -0.400 N 
HETATM   10  C11 UNL     1      -0.043  -2.689 -26.565  1.00  0.00     0.144 C 
HETATM   11  C12 UNL     1       0.335  -0.506 -27.508  1.00  0.00     0.026 C 
HETATM   12  C13 UNL     1      -1.123  -0.328 -27.145  1.00  0.00     0.038 C 
HETATM   13  C14 UNL     1       1.104   0.537 -26.684  1.00  0.00     0.038 C 
HETATM   14  C15 UNL     1       0.462  -0.152 -28.984  1.00  0.00     0.088 C 
ENDROOT
BRANCH   1  15
HETATM   15  N1  UNL     1       4.937   1.202 -30.537  1.00  0.00    -0.370 N 
ATOM     16  H1  UNL     1       5.454   0.886 -31.357  1.00  0.00     0.161 HD
BRANCH  15  17
HETATM   17  C5  UNL     1       5.201   2.485 -29.934  1.00  0.00     0.122 C 
BRANCH  17  18
HETATM   18  C4  UNL     1       6.408   2.370 -29.037  1.00  0.00     0.023 C 
BRANCH  18  19
HETATM   19  C2  UNL     1       7.391   3.499 -29.269  1.00  0.00    -0.021 C 
HETATM   20  C1  UNL     1       8.235   3.772 -28.060  1.00  0.00     0.009 C 
HETATM   21  C3  UNL     1       6.676   4.782 -29.633  1.00  0.00     0.009 C 
ENDBRANCH  18  19
ENDBRANCH  17  18
ENDBRANCH  15  17
ENDBRANCH   1  15
TORSDOF 4
ENDMDL
MODEL 2
REMARK VINA RESULT: -7.439700907      1.019      1.019
REMARK  4 active torsions:
REMARK  status: ('A' for Active; 'I' for Inactive)
REMARK    1  A    between atoms: C2_2  and  C4_4 
REMARK    2  A    between atoms: C4_4  and  C5_5 
REMARK    3  A    between atoms: C5_5  and  N1_6 
REMARK    4  A    between atoms: N1_6  and  C6_8 
ROOT
HETATM    1  C6  UNL     1       4.281  -0.259 -28.875  1.00  0.00     0.145 A 
HETATM    2  N2  UNL     1       3.143   0.425 -28.979  1.00  0.00    -0.339 N 
ATOM      3  H2  UNL     1       3.147   1.400 -29.277  1.00  0.00     0.168 HD
HETATM    4  C7  UNL     1       2.021  -0.180 -28.691  1.00  0.00     0.029 A 
HETATM    5  C8  UNL     1       2.074  -1.483 -28.298  1.00  0.00     0.031 A 
HETATM    6  S1  UNL     1       3.744  -1.810 -28.353  1.00  0.00    -0.055 SA
HETATM    7  C9  UNL     1       0.793  -2.209 -27.959  1.00  0.00     0.117 C 
HETATM    8  C10 UNL     1       1.204  -3.441 -27.173  1.00  0.00     0.038 C 
HETATM    9  N3  UNL     1      -0.009  -1.388 -27.116  1.00  0.00    -0.400 N 
HETATM   10  C11 UNL     1      -1.286  -1.949 -26.842  1.00  0.00     0.144 C 
HETATM   11  C12 UNL     1       0.014   0.006 -27.376  1.00  0.00     0.026 C 
HETATM   12  C13 UNL     1      -1.344   0.670 -27.306  1.00  0.00     0.038 C 
HETATM   13  C14 UNL     1       0.859   0.661 -26.274  1.00  0.00     0.038 C 
HETATM   14  C15 UNL     1       0.608   0.373 -28.730  1.00  0.00     0.088 C 
ENDROOT
BRANCH   1  15
HETATM   15  N1  UNL     1       5.514   0.135 -29.109  1.00  0.00    -0.370 N 
ATOM     16  H1  UNL     1       6.290  -0.527 -29.118  1.00  0.00     0.161 HD
BRANCH  15  17
HETATM   17  C5  UNL     1       5.726   1.540 -29.351  1.00  0.00     0.122 C 
BRANCH  17  18
HETATM   18  C4  UNL     1       6.838   2.033 -28.462  1.00  0.00     0.023 C 
BRANCH  18  19
HETATM   19  C2  UNL     1       7.521   3.256 -29.039  1.00  0.00    -0.021 C 
HETATM   20  C1  UNL     1       8.335   3.987 -28.014  1.00  0.00     0.009 C 
HETATM   21  C3  UNL     1       6.513   4.228 -29.610  1.00  0.00     0.009 C 
ENDBRANCH  18  19
ENDBRANCH  17  18
ENDBRANCH  15  17
ENDBRANCH   1  15
TORSDOF 4
ENDMDL
MODEL 3
REMARK VINA RESULT: -7.079149786      1.092      1.136
REMARK  4 active torsions:
REMARK  status: ('A' for Active; 'I' for Inactive)
REMARK    1  A    between atoms: C2_2  and  C4_4 
REMARK    2  A    between atoms: C4_4  and  C5_5 
REMARK    3  A    between atoms: C5_5  and  N1_6 
REMARK    4  A    between atoms: N1_6  and  C6_8 
ROOT
HETATM    1  C6  UNL     1       3.126   0.437 -29.249  1.00  0.00     0.145 A 
HETATM    2  N2  UNL     1       1.806   0.263 -29.289  1.00  0.00    -0.339 N 
ATOM      3  H2  UNL     1       1.197   0.986 -29.670  1.00  0.00     0.168 HD
HETATM    4  C7  UNL     1       1.308  -0.854 -28.829  1.00  0.00     0.029 A 
HETATM    5  C8  UNL     1       2.168  -1.786 -28.331  1.00  0.00     0.031 A 
HETATM    6  S1  UNL     1       3.680  -1.030 -28.538  1.00  0.00    -0.055 SA
HETATM    7  C9  UNL     1       1.622  -3.087 -27.792  1.00  0.00     0.117 C 
HETATM    8  C10 UNL     1       2.732  -3.692 -26.951  1.00  0.00     0.038 C 
HETATM    9  N3  UNL     1       0.511  -2.821 -26.942  1.00  0.00    -0.400 N 
HETATM   10  C11 UNL     1      -0.136  -4.000 -26.483  1.00  0.00     0.144 C 
HETATM   11  C12 UNL     1      -0.341  -1.753 -27.325  1.00  0.00     0.026 C 
HETATM   12  C13 UNL     1      -1.816  -2.053 -27.166  1.00  0.00     0.038 C 
HETATM   13  C14 UNL     1      -0.047  -0.577 -26.383  1.00  0.00     0.038 C 
HETATM   14  C15 UNL     1      -0.144  -1.289 -28.762  1.00  0.00     0.088 C 
ENDROOT
BRANCH   1  15
HETATM   15  N1  UNL     1       3.843   1.464 -29.650  1.00  0.00    -0.370 N 
ATOM     16  H1  UNL     1       3.433   2.393 -29.744  1.00  0.00     0.161 HD
BRANCH  15  17
HETATM   17  C5  UNL     1       5.233   1.225 -29.950  1.00  0.00     0.122 C 
BRANCH  17  18
HETATM   18  C4  UNL     1       6.083   1.787 -28.839  1.00  0.00     0.023 C 
BRANCH  18  19
HETATM   19  C2  UNL     1       6.973   2.913 -29.325  1.00  0.00    -0.021 C 
HETATM   20  C1  UNL     1       7.963   3.342 -28.283  1.00  0.00     0.009 C 
HETATM   21  C3  UNL     1       6.157   4.125 -29.716  1.00  0.00     0.009 C 
ENDBRANCH  18  19
ENDBRANCH  17  18
ENDBRANCH  15  17
ENDBRANCH   1  15
TORSDOF 4
ENDMDL
MODEL 4
REMARK VINA RESULT: -7.069182308      1.776      2.725
REMARK  4 active torsions:
REMARK  status: ('A' for Active; 'I' for Inactive)
REMARK    1  A    between atoms: C2_2  and  C4_4 
REMARK    2  A    between atoms: C4_4  and  C5_5 
REMARK    3  A    between atoms: C5_5  and  N1_6 
REMARK    4  A    between atoms: N1_6  and  C6_8 
ROOT
HETATM    1  C6  UNL     1       2.139  -0.509 -29.036  1.00  0.00     0.145 A 
HETATM    2  N2  UNL     1       0.868  -0.859 -28.849  1.00  0.00    -0.339 N 
ATOM      3  H2  UNL     1       0.109  -0.261 -29.177  1.00  0.00     0.168 HD
HETATM    4  C7  UNL     1       0.612  -1.984 -28.237  1.00  0.00     0.029 A 
HETATM    5  C8  UNL     1       1.664  -2.744 -27.820  1.00  0.00     0.031 A 
HETATM    6  S1  UNL     1       3.001  -1.817 -28.321  1.00  0.00    -0.055 SA
HETATM    7  C9  UNL     1       1.399  -4.051 -27.110  1.00  0.00     0.117 C 
HETATM    8  C10 UNL     1       2.698  -4.423 -26.418  1.00  0.00     0.038 C 
HETATM    9  N3  UNL     1       0.401  -3.856 -26.112  1.00  0.00    -0.400 N 
HETATM   10  C11 UNL     1       0.009  -5.063 -25.473  1.00  0.00     0.144 C 
HETATM   11  C12 UNL     1      -0.644  -2.951 -26.427  1.00  0.00     0.026 C 
HETATM   12  C13 UNL     1      -2.019  -3.428 -26.012  1.00  0.00     0.038 C 
HETATM   13  C14 UNL     1      -0.387  -1.664 -25.630  1.00  0.00     0.038 C 
HETATM   14  C15 UNL     1      -0.735  -2.600 -27.906  1.00  0.00     0.088 C 
ENDROOT
BRANCH   1  15
HETATM   15  N1  UNL     1       2.631   0.563 -29.618  1.00  0.00    -0.370 N 
ATOM     16  H1  UNL     1       2.593   1.477 -29.167  1.00  0.00     0.161 HD
BRANCH  15  17
HETATM   17  C5  UNL     1       3.227   0.395 -30.920  1.00  0.00     0.122 C 
BRANCH  17  18
HETATM   18  C4  UNL     1       4.678   0.799 -30.856  1.00  0.00     0.023 C 
BRANCH  18  19
HETATM   19  C2  UNL     1       4.963   1.690 -29.664  1.00  0.00    -0.021 C 
HETATM   20  C1  UNL     1       5.367   3.075 -30.074  1.00  0.00     0.009 C 
HETATM   21  C3  UNL     1       6.072   1.119 -28.807  1.00  0.00     0.009 C 
ENDBRANCH  18  19
ENDBRANCH  17  18
ENDBRANCH  15  17
ENDBRANCH   1  15
TORSDOF 4
ENDMDL
MODEL 5
REMARK VINA RESULT: -7.067058660      1.582      2.443
REMARK  4 active torsions:
REMARK  status: ('A' for Active; 'I' for Inactive)
REMARK    1  A    between atoms: C2_2  and  C4_4 
REMARK    2  A    between atoms: C4_4  and  C5_5 
REMARK    3  A    between atoms: C5_5  and  N1_6 
REMARK    4  A    between atoms: N1_6  and  C6_8 
ROOT
HETATM    1  C6  UNL     1       2.033  -0.643 -30.084  1.00  0.00     0.145 A 
HETATM    2  N2  UNL     1       0.735  -0.925 -29.990  1.00  0.00    -0.339 N 
ATOM      3  H2  UNL     1       0.051  -0.431 -30.563  1.00  0.00     0.168 HD
HETATM    4  C7  UNL     1       0.355  -1.849 -29.148  1.00  0.00     0.029 A 
HETATM    5  C8  UNL     1       1.311  -2.478 -28.408  1.00  0.00     0.031 A 
HETATM    6  S1  UNL     1       2.739  -1.722 -28.943  1.00  0.00    -0.055 SA
HETATM    7  C9  UNL     1       0.903  -3.551 -27.426  1.00  0.00     0.117 C 
HETATM    8  C10 UNL     1       2.084  -3.735 -26.490  1.00  0.00     0.038 C 
HETATM    9  N3  UNL     1      -0.209  -3.097 -26.661  1.00  0.00    -0.400 N 
HETATM   10  C11 UNL     1      -0.730  -4.092 -25.790  1.00  0.00     0.144 C 
HETATM   11  C12 UNL     1      -1.166  -2.302 -27.339  1.00  0.00     0.026 C 
HETATM   12  C13 UNL     1      -2.602  -2.647 -27.008  1.00  0.00     0.038 C 
HETATM   13  C14 UNL     1      -0.964  -0.852 -26.876  1.00  0.00     0.038 C 
HETATM   14  C15 UNL     1      -1.047  -2.351 -28.857  1.00  0.00     0.088 C 
ENDROOT
BRANCH   1  15
HETATM   15  N1  UNL     1       2.640   0.237 -30.851  1.00  0.00    -0.370 N 
ATOM     16  H1  UNL     1       2.119   0.965 -31.339  1.00  0.00     0.161 HD
BRANCH  15  17
HETATM   17  C5  UNL     1       4.072   0.130 -30.976  1.00  0.00     0.122 C 
BRANCH  17  18
HETATM   18  C4  UNL     1       4.675   1.511 -30.959  1.00  0.00     0.023 C 
BRANCH  18  19
HETATM   19  C2  UNL     1       5.141   1.907 -29.573  1.00  0.00    -0.021 C 
HETATM   20  C1  UNL     1       6.119   3.043 -29.606  1.00  0.00     0.009 C 
HETATM   21  C3  UNL     1       5.804   0.745 -28.867  1.00  0.00     0.009 C 
ENDBRANCH  18  19
ENDBRANCH  17  18
ENDBRANCH  15  17
ENDBRANCH   1  15
TORSDOF 4
ENDMDL
