MODEL 1
REMARK VINA RESULT: -8.074593710      0.000      0.000
REMARK  5 active torsions:
REMARK  status: ('A' for Active; 'I' for Inactive)
REMARK    1  A    between atoms: C2_2  and  C4_4 
REMARK    2  A    between atoms: C6_6  and  O1_7 
REMARK    3  A    between atoms: O1_7  and  C7_8 
REMARK    4  A    between atoms: C7_8  and  C8_10 
REMARK    5  A    between atoms: C17_19  and  O3_20 
ROOT
HETATM    1  C4  UNL     1       3.567  -0.449 -28.543  1.00  0.00    -0.044 C 
HETATM    2  C5  UNL     1       3.033  -1.391 -27.808  1.00  0.00     0.013 C 
HETATM    3  C6  UNL     1       1.614  -1.797 -27.464  1.00  0.00     0.156 C 
HETATM    4  C12 UNL     1       0.961  -2.097 -28.810  1.00  0.00     0.045 C 
HETATM    5  C13 UNL     1       0.590  -0.863 -29.569  1.00  0.00     0.013 C 
HETATM    6  C14 UNL     1       0.610   0.365 -28.756  1.00  0.00    -0.025 C 
HETATM    7  C15 UNL     1       1.701   1.093 -28.633  1.00  0.00    -0.018 C 
HETATM    8  C16 UNL     1       2.952   0.638 -29.351  1.00  0.00     0.070 C 
HETATM    9  C17 UNL     1       2.623   0.120 -30.710  1.00  0.00     0.131 C 
HETATM   10  C18 UNL     1       1.367  -0.664 -30.834  1.00  0.00     0.041 C 
ENDROOT
BRANCH   3  11
HETATM   11  O1  UNL     1       1.597  -2.897 -26.616  1.00  0.00    -0.308 OA
BRANCH  11  12
HETATM   12  C7  UNL     1       0.485  -3.097 -25.797  1.00  0.00     0.289 C 
HETATM   13  O2  UNL     1       0.252  -2.225 -24.887  1.00  0.00    -0.260 OA
BRANCH  12  14
HETATM   14  C8  UNL     1      -0.409  -4.214 -25.911  1.00  0.00     0.009 C 
HETATM   15  C9  UNL     1       0.014  -5.541 -25.425  1.00  0.00     0.054 C 
HETATM   16  C10 UNL     1      -1.605  -4.086 -26.443  1.00  0.00    -0.018 C 
HETATM   17  C11 UNL     1      -2.159  -2.829 -26.967  1.00  0.00     0.036 C 
ENDBRANCH  12  14
ENDBRANCH  11  12
ENDBRANCH   3  11
BRANCH   1  18
HETATM   18  C2  UNL     1       4.997  -0.456 -28.573  1.00  0.00    -0.065 C 
HETATM   19  C1  UNL     1       5.760  -1.525 -28.383  1.00  0.00     0.019 C 
HETATM   20  C3  UNL     1       5.720   0.841 -28.849  1.00  0.00     0.048 C 
ENDBRANCH   1  18
BRANCH   9  21
HETATM   21  O3  UNL     1       3.662  -0.663 -31.247  1.00  0.00    -0.395 OA
ATOM     22  H3  UNL     1       4.505  -0.454 -30.861  1.00  0.00     0.210 HD
ENDBRANCH   9  21
TORSDOF 5
ENDMDL
MODEL 2
REMARK VINA RESULT: -7.984080389      1.204      1.598
REMARK  5 active torsions:
REMARK  status: ('A' for Active; 'I' for Inactive)
REMARK    1  A    between atoms: C2_2  and  C4_4 
REMARK    2  A    between atoms: C6_6  and  O1_7 
REMARK    3  A    between atoms: O1_7  and  C7_8 
REMARK    4  A    between atoms: C7_8  and  C8_10 
REMARK    5  A    between atoms: C17_19  and  O3_20 
ROOT
HETATM    1  C4  UNL     1       4.264  -0.474 -28.520  1.00  0.00    -0.044 C 
HETATM    2  C5  UNL     1       3.538  -1.370 -27.901  1.00  0.00     0.013 C 
HETATM    3  C6  UNL     1       2.056  -1.682 -27.840  1.00  0.00     0.156 C 
HETATM    4  C12 UNL     1       1.661  -1.962 -29.287  1.00  0.00     0.045 C 
HETATM    5  C13 UNL     1       1.523  -0.718 -30.106  1.00  0.00     0.013 C 
HETATM    6  C14 UNL     1       1.463   0.518 -29.308  1.00  0.00    -0.025 C 
HETATM    7  C15 UNL     1       2.553   1.179 -28.976  1.00  0.00    -0.018 C 
HETATM    8  C16 UNL     1       3.889   0.637 -29.435  1.00  0.00     0.070 C 
HETATM    9  C17 UNL     1       3.799   0.120 -30.831  1.00  0.00     0.131 C 
HETATM   10  C18 UNL     1       2.543  -0.586 -31.196  1.00  0.00     0.041 C 
ENDROOT
BRANCH   3  11
HETATM   11  O1  UNL     1       1.805  -2.766 -27.009  1.00  0.00    -0.308 OA
BRANCH  11  12
HETATM   12  C7  UNL     1       0.615  -2.793 -26.280  1.00  0.00     0.289 C 
HETATM   13  O2  UNL     1       0.390  -3.821 -25.547  1.00  0.00    -0.260 OA
BRANCH  12  14
HETATM   14  C8  UNL     1      -0.366  -1.746 -26.299  1.00  0.00     0.009 C 
HETATM   15  C9  UNL     1      -0.177  -0.553 -25.452  1.00  0.00     0.054 C 
HETATM   16  C10 UNL     1      -1.438  -1.822 -27.057  1.00  0.00    -0.018 C 
HETATM   17  C11 UNL     1      -1.757  -2.946 -27.949  1.00  0.00     0.036 C 
ENDBRANCH  12  14
ENDBRANCH  11  12
ENDBRANCH   3  11
BRANCH   1  18
HETATM   18  C2  UNL     1       5.669  -0.570 -28.270  1.00  0.00    -0.065 C 
HETATM   19  C1  UNL     1       6.340  -1.703 -28.107  1.00  0.00     0.019 C 
HETATM   20  C3  UNL     1       6.476   0.704 -28.188  1.00  0.00     0.048 C 
ENDBRANCH   1  18
BRANCH   9  21
HETATM   21  O3  UNL     1       4.870  -0.733 -31.153  1.00  0.00    -0.395 OA
ATOM     22  H3  UNL     1       5.605  -0.261 -31.527  1.00  0.00     0.210 HD
ENDBRANCH   9  21
TORSDOF 5
ENDMDL
MODEL 3
REMARK VINA RESULT: -7.760656440      0.337      1.235
REMARK  5 active torsions:
REMARK  status: ('A' for Active; 'I' for Inactive)
REMARK    1  A    between atoms: C2_2  and  C4_4 
REMARK    2  A    between atoms: C6_6  and  O1_7 
REMARK    3  A    between atoms: O1_7  and  C7_8 
REMARK    4  A    between atoms: C7_8  and  C8_10 
REMARK    5  A    between atoms: C17_19  and  O3_20 
ROOT
HETATM    1  C4  UNL     1       3.482  -0.530 -28.484  1.00  0.00    -0.044 C 
HETATM    2  C5  UNL     1       2.891  -1.458 -27.776  1.00  0.00     0.013 C 
HETATM    3  C6  UNL     1       1.448  -1.807 -27.470  1.00  0.00     0.156 C 
HETATM    4  C12 UNL     1       0.816  -2.062 -28.836  1.00  0.00     0.045 C 
HETATM    5  C13 UNL     1       0.515  -0.803 -29.585  1.00  0.00     0.013 C 
HETATM    6  C14 UNL     1       0.568   0.412 -28.754  1.00  0.00    -0.025 C 
HETATM    7  C15 UNL     1       1.685   1.091 -28.595  1.00  0.00    -0.018 C 
HETATM    8  C16 UNL     1       2.933   0.593 -29.290  1.00  0.00     0.070 C 
HETATM    9  C17 UNL     1       2.615   0.108 -30.664  1.00  0.00     0.131 C 
HETATM   10  C18 UNL     1       1.330  -0.620 -30.829  1.00  0.00     0.041 C 
ENDROOT
BRANCH   3  11
HETATM   11  O1  UNL     1       1.365  -2.917 -26.640  1.00  0.00    -0.308 OA
BRANCH  11  12
HETATM   12  C7  UNL     1       0.263  -3.041 -25.792  1.00  0.00     0.289 C 
HETATM   13  O2  UNL     1       0.290  -2.399 -24.683  1.00  0.00    -0.260 OA
BRANCH  12  14
HETATM   14  C8  UNL     1      -0.894  -3.838 -26.086  1.00  0.00     0.009 C 
HETATM   15  C9  UNL     1      -2.099  -3.197 -26.646  1.00  0.00     0.054 C 
HETATM   16  C10 UNL     1      -0.910  -5.135 -25.866  1.00  0.00    -0.018 C 
HETATM   17  C11 UNL     1       0.213  -5.905 -25.313  1.00  0.00     0.036 C 
ENDBRANCH  12  14
ENDBRANCH  11  12
ENDBRANCH   3  11
BRANCH   1  18
HETATM   18  C2  UNL     1       4.911  -0.598 -28.481  1.00  0.00    -0.065 C 
HETATM   19  C1  UNL     1       5.623  -1.702 -28.298  1.00  0.00     0.019 C 
HETATM   20  C3  UNL     1       5.694   0.673 -28.709  1.00  0.00     0.048 C 
ENDBRANCH   1  18
BRANCH   9  21
HETATM   21  O3  UNL     1       3.633  -0.711 -31.188  1.00  0.00    -0.395 OA
ATOM     22  H3  UNL     1       3.471  -1.633 -31.025  1.00  0.00     0.210 HD
ENDBRANCH   9  21
TORSDOF 5
ENDMDL
MODEL 4
REMARK VINA RESULT: -7.715092587      1.665      5.876
REMARK  5 active torsions:
REMARK  status: ('A' for Active; 'I' for Inactive)
REMARK    1  A    between atoms: C2_2  and  C4_4 
REMARK    2  A    between atoms: C6_6  and  O1_7 
REMARK    3  A    between atoms: O1_7  and  C7_8 
REMARK    4  A    between atoms: C7_8  and  C8_10 
REMARK    5  A    between atoms: C17_19  and  O3_20 
ROOT
HETATM    1  C4  UNL     1       1.181  -2.669 -27.174  1.00  0.00    -0.044 C 
HETATM    2  C5  UNL     1       2.399  -2.274 -27.440  1.00  0.00     0.013 C 
HETATM    3  C6  UNL     1       2.998  -1.115 -28.213  1.00  0.00     0.156 C 
HETATM    4  C12 UNL     1       2.450   0.132 -27.524  1.00  0.00     0.045 C 
HETATM    5  C13 UNL     1       1.029   0.423 -27.884  1.00  0.00     0.013 C 
HETATM    6  C14 UNL     1       0.546  -0.324 -29.058  1.00  0.00    -0.025 C 
HETATM    7  C15 UNL     1      -0.008  -1.513 -28.940  1.00  0.00    -0.018 C 
HETATM    8  C16 UNL     1      -0.143  -2.108 -27.555  1.00  0.00     0.070 C 
HETATM    9  C17 UNL     1      -0.541  -1.063 -26.568  1.00  0.00     0.131 C 
HETATM   10  C18 UNL     1       0.066   0.282 -26.745  1.00  0.00     0.041 C 
ENDROOT
BRANCH   3  11
HETATM   11  O1  UNL     1       4.386  -1.159 -28.191  1.00  0.00    -0.308 OA
BRANCH  11  12
HETATM   12  C7  UNL     1       5.091  -0.695 -29.302  1.00  0.00     0.289 C 
HETATM   13  O2  UNL     1       6.249  -1.199 -29.524  1.00  0.00    -0.260 OA
BRANCH  12  14
HETATM   14  C8  UNL     1       4.602   0.305 -30.207  1.00  0.00     0.009 C 
HETATM   15  C9  UNL     1       3.615  -0.065 -31.239  1.00  0.00     0.054 C 
HETATM   16  C10 UNL     1       5.013   1.553 -30.142  1.00  0.00    -0.018 C 
HETATM   17  C11 UNL     1       5.990   2.063 -29.169  1.00  0.00     0.036 C 
ENDBRANCH  12  14
ENDBRANCH  11  12
ENDBRANCH   3  11
BRANCH   1  18
HETATM   18  C2  UNL     1       1.100  -3.857 -26.382  1.00  0.00    -0.065 C 
HETATM   19  C1  UNL     1      -0.026  -4.438 -25.988  1.00  0.00     0.019 C 
HETATM   20  C3  UNL     1       2.385  -4.527 -25.954  1.00  0.00     0.048 C 
ENDBRANCH   1  18
BRANCH   9  21
HETATM   21  O3  UNL     1      -0.295  -1.464 -25.241  1.00  0.00    -0.395 OA
ATOM     22  H3  UNL     1      -0.320  -0.733 -24.635  1.00  0.00     0.210 HD
ENDBRANCH   9  21
TORSDOF 5
ENDMDL
MODEL 5
REMARK VINA RESULT: -7.687069252      1.592      6.041
REMARK  5 active torsions:
REMARK  status: ('A' for Active; 'I' for Inactive)
REMARK    1  A    between atoms: C2_2  and  C4_4 
REMARK    2  A    between atoms: C6_6  and  O1_7 
REMARK    3  A    between atoms: O1_7  and  C7_8 
REMARK    4  A    between atoms: C7_8  and  C8_10 
REMARK    5  A    between atoms: C17_19  and  O3_20 
ROOT
HETATM    1  C4  UNL     1       1.278  -2.341 -27.574  1.00  0.00    -0.044 C 
HETATM    2  C5  UNL     1       2.485  -1.836 -27.568  1.00  0.00     0.013 C 
HETATM    3  C6  UNL     1       3.166  -0.696 -28.298  1.00  0.00     0.156 C 
HETATM    4  C12 UNL     1       2.351   0.540 -27.928  1.00  0.00     0.045 C 
HETATM    5  C13 UNL     1       1.056   0.631 -28.671  1.00  0.00     0.013 C 
HETATM    6  C14 UNL     1       0.969  -0.275 -29.829  1.00  0.00    -0.025 C 
HETATM    7  C15 UNL     1       0.506  -1.503 -29.712  1.00  0.00    -0.018 C 
HETATM    8  C16 UNL     1       0.060  -1.973 -28.345  1.00  0.00     0.070 C 
HETATM    9  C17 UNL     1      -0.674  -0.892 -27.626  1.00  0.00     0.131 C 
HETATM   10  C18 UNL     1      -0.159   0.490 -27.806  1.00  0.00     0.041 C 
ENDROOT
BRANCH   3  11
HETATM   11  O1  UNL     1       4.496  -0.579 -27.918  1.00  0.00    -0.308 OA
BRANCH  11  12
HETATM   12  C7  UNL     1       5.431  -0.156 -28.864  1.00  0.00     0.289 C 
HETATM   13  O2  UNL     1       6.013  -1.055 -29.570  1.00  0.00    -0.260 OA
BRANCH  12  14
HETATM   14  C8  UNL     1       5.778   1.217 -29.097  1.00  0.00     0.009 C 
HETATM   15  C9  UNL     1       5.002   2.012 -30.067  1.00  0.00     0.054 C 
HETATM   16  C10 UNL     1       6.778   1.791 -28.464  1.00  0.00    -0.018 C 
HETATM   17  C11 UNL     1       7.635   1.124 -27.473  1.00  0.00     0.036 C 
ENDBRANCH  12  14
ENDBRANCH  11  12
ENDBRANCH   3  11
BRANCH   1  18
HETATM   18  C2  UNL     1       1.092  -3.449 -26.689  1.00  0.00    -0.065 C 
HETATM   19  C1  UNL     1      -0.082  -3.890 -26.254  1.00  0.00     0.019 C 
HETATM   20  C3  UNL     1       2.310  -4.198 -26.205  1.00  0.00     0.048 C 
ENDBRANCH   1  18
BRANCH   9  21
HETATM   21  O3  UNL     1      -0.756  -1.133 -26.242  1.00  0.00    -0.395 OA
ATOM     22  H3  UNL     1      -1.607  -0.903 -25.888  1.00  0.00     0.210 HD
ENDBRANCH   9  21
TORSDOF 5
ENDMDL
