MODEL 1
REMARK VINA RESULT: -8.590711408      0.000      0.000
REMARK  3 active torsions:
REMARK  status: ('A' for Active; 'I' for Inactive)
REMARK    1  A    between atoms: O1_2  and  C2_3 
REMARK    2  A    between atoms: C7_8  and  O2_9 
REMARK    3  A    between atoms: C9_11  and  C10_12 
ROOT
HETATM    1  C2  UNL     1       8.381   0.773 -26.293  1.00  0.00     0.102 A 
HETATM    2  C3  UNL     1       8.433   1.966 -26.988  1.00  0.00     0.047 A 
HETATM    3  C4  UNL     1       7.586   2.217 -28.026  1.00  0.00    -0.041 A 
HETATM    4  C5  UNL     1       6.635   1.295 -28.436  1.00  0.00     0.000 A 
HETATM    5  C6  UNL     1       6.575   0.088 -27.734  1.00  0.00     0.054 A 
HETATM    6  C7  UNL     1       7.429  -0.155 -26.698  1.00  0.00     0.102 A 
HETATM    7  C9  UNL     1       5.591   1.648 -29.338  1.00  0.00     0.051 C 
HETATM    8  N2  UNL     1       5.573   2.915 -29.711  1.00  0.00    -0.384 N 
ATOM      9  H2  UNL     1       4.827   3.172 -30.356  1.00  0.00     0.160 HD
HETATM   10  C15 UNL     1       6.442   3.960 -29.341  1.00  0.00     0.082 C 
HETATM   11  C16 UNL     1       6.688   4.948 -30.486  1.00  0.00     0.032 C 
HETATM   12  C17 UNL     1       7.722   3.497 -28.732  1.00  0.00     0.064 C 
ENDROOT
BRANCH   7  13
HETATM   13  C10 UNL     1       4.500   0.810 -29.824  1.00  0.00     0.014 A 
HETATM   14  C11 UNL     1       4.447   0.363 -31.184  1.00  0.00     0.101 A 
HETATM   15  N1  UNL     1       3.525  -0.569 -31.313  1.00  0.00    -0.374 N 
HETATM   16  C12 UNL     1       2.928  -0.815 -30.153  1.00  0.00     0.095 A 
ATOM     17  H1  UNL     1       3.299  -1.040 -32.190  1.00  0.00     0.164 HD
HETATM   18  C13 UNL     1       3.555   0.055 -29.220  1.00  0.00    -0.033 A 
HETATM   19  C14 UNL     1       3.241  -0.149 -27.769  1.00  0.00     0.050 C 
ENDBRANCH   7  13
BRANCH   6  20
HETATM   20  O2  UNL     1       7.389  -1.351 -25.988  1.00  0.00    -0.353 OA
HETATM   21  C8  UNL     1       8.053  -2.517 -26.474  1.00  0.00     0.210 C 
ENDBRANCH   6  20
BRANCH   1  22
HETATM   22  O1  UNL     1       9.246   0.525 -25.243  1.00  0.00    -0.353 OA
HETATM   23  C1  UNL     1       9.976   1.612 -24.712  1.00  0.00     0.210 C 
ENDBRANCH   1  22
TORSDOF 3
ENDMDL
MODEL 2
REMARK VINA RESULT: -8.137935201      1.111      1.151
REMARK  3 active torsions:
REMARK  status: ('A' for Active; 'I' for Inactive)
REMARK    1  A    between atoms: O1_2  and  C2_3 
REMARK    2  A    between atoms: C7_8  and  O2_9 
REMARK    3  A    between atoms: C9_11  and  C10_12 
ROOT
HETATM    1  C2  UNL     1       7.823  -0.084 -26.901  1.00  0.00     0.102 A 
HETATM    2  C3  UNL     1       7.923   1.199 -27.405  1.00  0.00     0.047 A 
HETATM    3  C4  UNL     1       7.046   1.662 -28.340  1.00  0.00    -0.041 A 
HETATM    4  C5  UNL     1       6.014   0.877 -28.831  1.00  0.00     0.000 A 
HETATM    5  C6  UNL     1       5.905  -0.420 -28.321  1.00  0.00     0.054 A 
HETATM    6  C7  UNL     1       6.790  -0.876 -27.388  1.00  0.00     0.102 A 
HETATM    7  C9  UNL     1       4.955   1.431 -29.603  1.00  0.00     0.051 C 
HETATM    8  N2  UNL     1       5.007   2.740 -29.774  1.00  0.00    -0.384 N 
ATOM      9  H2  UNL     1       4.249   3.141 -30.326  1.00  0.00     0.160 HD
HETATM   10  C15 UNL     1       5.963   3.658 -29.299  1.00  0.00     0.082 C 
HETATM   11  C16 UNL     1       6.220   4.798 -30.290  1.00  0.00     0.032 C 
HETATM   12  C17 UNL     1       7.236   3.027 -28.846  1.00  0.00     0.064 C 
ENDROOT
BRANCH   7  13
HETATM   13  C10 UNL     1       3.786   0.748 -30.148  1.00  0.00     0.014 A 
HETATM   14  C11 UNL     1       3.907  -0.237 -31.181  1.00  0.00     0.101 A 
HETATM   15  N1  UNL     1       2.765  -0.879 -31.323  1.00  0.00    -0.374 N 
HETATM   16  C12 UNL     1       1.853  -0.427 -30.471  1.00  0.00     0.095 A 
ATOM     17  H1  UNL     1       2.604  -1.626 -31.999  1.00  0.00     0.164 HD
HETATM   18  C13 UNL     1       2.509   0.594 -29.731  1.00  0.00    -0.033 A 
HETATM   19  C14 UNL     1       1.793   1.146 -28.536  1.00  0.00     0.050 C 
ENDBRANCH   7  13
BRANCH   6  20
HETATM   20  O2  UNL     1       6.702  -2.165 -26.871  1.00  0.00    -0.353 OA
HETATM   21  C8  UNL     1       6.788  -3.307 -27.722  1.00  0.00     0.210 C 
ENDBRANCH   6  20
BRANCH   1  22
HETATM   22  O1  UNL     1       8.718  -0.547 -25.955  1.00  0.00    -0.353 OA
HETATM   23  C1  UNL     1       9.066   0.314 -24.891  1.00  0.00     0.210 C 
ENDBRANCH   1  22
TORSDOF 3
ENDMDL
MODEL 3
REMARK VINA RESULT: -7.691379958      4.210      7.068
REMARK  3 active torsions:
REMARK  status: ('A' for Active; 'I' for Inactive)
REMARK    1  A    between atoms: O1_2  and  C2_3 
REMARK    2  A    between atoms: C7_8  and  O2_9 
REMARK    3  A    between atoms: C9_11  and  C10_12 
ROOT
HETATM    1  C2  UNL     1       1.509  -4.959 -26.233  1.00  0.00     0.102 A 
HETATM    2  C3  UNL     1       0.586  -3.942 -26.081  1.00  0.00     0.047 A 
HETATM    3  C4  UNL     1       0.725  -2.756 -26.737  1.00  0.00    -0.041 A 
HETATM    4  C5  UNL     1       1.793  -2.508 -27.586  1.00  0.00     0.000 A 
HETATM    5  C6  UNL     1       2.728  -3.535 -27.747  1.00  0.00     0.054 A 
HETATM    6  C7  UNL     1       2.581  -4.718 -27.084  1.00  0.00     0.102 A 
HETATM    7  C9  UNL     1       1.808  -1.386 -28.461  1.00  0.00     0.051 C 
HETATM    8  N2  UNL     1       0.721  -0.636 -28.435  1.00  0.00    -0.384 N 
ATOM      9  H2  UNL     1       0.728   0.169 -29.061  1.00  0.00     0.160 HD
HETATM   10  C15 UNL     1      -0.445  -0.794 -27.663  1.00  0.00     0.082 C 
HETATM   11  C16 UNL     1      -1.051   0.548 -27.237  1.00  0.00     0.032 C 
HETATM   12  C17 UNL     1      -0.283  -1.716 -26.502  1.00  0.00     0.064 C 
ENDROOT
BRANCH   7  13
HETATM   13  C10 UNL     1       2.831  -1.018 -29.435  1.00  0.00     0.014 A 
HETATM   14  C11 UNL     1       2.497  -0.724 -30.797  1.00  0.00     0.101 A 
HETATM   15  N1  UNL     1       3.533  -0.182 -31.405  1.00  0.00    -0.374 N 
HETATM   16  C12 UNL     1       4.567  -0.071 -30.579  1.00  0.00     0.095 A 
ATOM     17  H1  UNL     1       3.541   0.112 -32.382  1.00  0.00     0.164 HD
HETATM   18  C13 UNL     1       4.111  -0.595 -29.339  1.00  0.00    -0.033 A 
HETATM   19  C14 UNL     1       4.993  -0.401 -28.144  1.00  0.00     0.050 C 
ENDBRANCH   7  13
BRANCH   6  20
HETATM   20  O2  UNL     1       3.503  -5.751 -27.227  1.00  0.00    -0.353 OA
HETATM   21  C8  UNL     1       3.644  -6.445 -28.465  1.00  0.00     0.210 C 
ENDBRANCH   6  20
BRANCH   1  22
HETATM   22  O1  UNL     1       1.361  -6.158 -25.562  1.00  0.00    -0.353 OA
HETATM   23  C1  UNL     1       0.055  -6.568 -25.212  1.00  0.00     0.210 C 
ENDBRANCH   1  22
TORSDOF 3
ENDMDL
MODEL 4
REMARK VINA RESULT: -7.684673142      4.364      7.755
REMARK  3 active torsions:
REMARK  status: ('A' for Active; 'I' for Inactive)
REMARK    1  A    between atoms: O1_2  and  C2_3 
REMARK    2  A    between atoms: C7_8  and  O2_9 
REMARK    3  A    between atoms: C9_11  and  C10_12 
ROOT
HETATM    1  C2  UNL     1      -0.425  -2.723 -26.569  1.00  0.00     0.102 A 
HETATM    2  C3  UNL     1       0.455  -3.779 -26.718  1.00  0.00     0.047 A 
HETATM    3  C4  UNL     1       1.656  -3.616 -27.341  1.00  0.00    -0.041 A 
HETATM    4  C5  UNL     1       2.055  -2.392 -27.856  1.00  0.00     0.000 A 
HETATM    5  C6  UNL     1       1.171  -1.320 -27.705  1.00  0.00     0.054 A 
HETATM    6  C7  UNL     1      -0.030  -1.493 -27.081  1.00  0.00     0.102 A 
HETATM    7  C9  UNL     1       3.396  -2.157 -28.273  1.00  0.00     0.051 C 
HETATM    8  N2  UNL     1       4.228  -3.167 -28.090  1.00  0.00    -0.384 N 
ATOM      9  H2  UNL     1       5.190  -3.003 -28.387  1.00  0.00     0.160 HD
HETATM   10  C15 UNL     1       3.971  -4.439 -27.543  1.00  0.00     0.082 C 
HETATM   11  C16 UNL     1       4.793  -5.542 -28.217  1.00  0.00     0.032 C 
HETATM   12  C17 UNL     1       2.523  -4.792 -27.484  1.00  0.00     0.064 C 
ENDROOT
BRANCH   7  13
HETATM   13  C10 UNL     1       3.975  -0.921 -28.789  1.00  0.00     0.014 A 
HETATM   14  C11 UNL     1       5.162  -0.354 -28.221  1.00  0.00     0.101 A 
HETATM   15  N1  UNL     1       5.621   0.600 -29.005  1.00  0.00    -0.374 N 
HETATM   16  C12 UNL     1       4.854   0.748 -30.079  1.00  0.00     0.095 A 
ATOM     17  H1  UNL     1       6.456   1.153 -28.812  1.00  0.00     0.164 HD
HETATM   18  C13 UNL     1       3.823  -0.220 -29.936  1.00  0.00    -0.033 A 
HETATM   19  C14 UNL     1       2.920  -0.444 -31.111  1.00  0.00     0.050 C 
ENDBRANCH   7  13
BRANCH   6  20
HETATM   20  O2  UNL     1      -0.926  -0.441 -26.924  1.00  0.00    -0.353 OA
HETATM   21  C8  UNL     1      -0.761   0.780 -27.643  1.00  0.00     0.210 C 
ENDBRANCH   6  20
BRANCH   1  22
HETATM   22  O1  UNL     1      -1.642  -2.898 -25.937  1.00  0.00    -0.353 OA
HETATM   23  C1  UNL     1      -2.702  -3.461 -26.680  1.00  0.00     0.210 C 
ENDBRANCH   1  22
TORSDOF 3
ENDMDL
MODEL 5
REMARK VINA RESULT: -7.680792543      2.708      5.444
REMARK  3 active torsions:
REMARK  status: ('A' for Active; 'I' for Inactive)
REMARK    1  A    between atoms: O1_2  and  C2_3 
REMARK    2  A    between atoms: C7_8  and  O2_9 
REMARK    3  A    between atoms: C9_11  and  C10_12 
ROOT
HETATM    1  C2  UNL     1       3.600  -0.298 -29.895  1.00  0.00     0.102 A 
HETATM    2  C3  UNL     1       4.215   0.929 -30.057  1.00  0.00     0.047 A 
HETATM    3  C4  UNL     1       5.262   1.304 -29.268  1.00  0.00    -0.041 A 
HETATM    4  C5  UNL     1       5.760   0.481 -28.270  1.00  0.00     0.000 A 
HETATM    5  C6  UNL     1       5.145  -0.763 -28.105  1.00  0.00     0.054 A 
HETATM    6  C7  UNL     1       4.096  -1.128 -28.897  1.00  0.00     0.102 A 
HETATM    7  C9  UNL     1       6.999   0.755 -27.624  1.00  0.00     0.051 C 
HETATM    8  N2  UNL     1       7.648   1.813 -28.076  1.00  0.00    -0.384 N 
ATOM      9  H2  UNL     1       8.537   2.012 -27.617  1.00  0.00     0.160 HD
HETATM   10  C15 UNL     1       7.284   2.703 -29.104  1.00  0.00     0.082 C 
HETATM   11  C16 UNL     1       7.722   4.143 -28.813  1.00  0.00     0.032 C 
HETATM   12  C17 UNL     1       5.844   2.634 -29.484  1.00  0.00     0.064 C 
ENDROOT
BRANCH   7  13
HETATM   13  C10 UNL     1       7.671  -0.032 -26.596  1.00  0.00     0.014 A 
HETATM   14  C11 UNL     1       7.851  -1.447 -26.734  1.00  0.00     0.101 A 
HETATM   15  N1  UNL     1       8.691  -1.883 -25.817  1.00  0.00    -0.374 N 
HETATM   16  C12 UNL     1       9.119  -0.888 -25.048  1.00  0.00     0.095 A 
ATOM     17  H1  UNL     1       8.976  -2.857 -25.712  1.00  0.00     0.164 HD
HETATM   18  C13 UNL     1       8.474   0.275 -25.553  1.00  0.00    -0.033 A 
HETATM   19  C14 UNL     1       8.931   1.600 -25.022  1.00  0.00     0.050 C 
ENDBRANCH   7  13
BRANCH   6  20
HETATM   20  O2  UNL     1       3.466  -2.360 -28.747  1.00  0.00    -0.353 OA
HETATM   21  C8  UNL     1       2.563  -2.598 -27.668  1.00  0.00     0.210 C 
ENDBRANCH   6  20
BRANCH   1  22
HETATM   22  O1  UNL     1       2.537  -0.670 -30.698  1.00  0.00    -0.353 OA
HETATM   23  C1  UNL     1       1.239  -0.276 -30.308  1.00  0.00     0.210 C 
ENDBRANCH   1  22
TORSDOF 3
ENDMDL
