MODEL 1
REMARK VINA RESULT: -7.602831821      0.000      0.000
REMARK  9 active torsions:
REMARK  status: ('A' for Active; 'I' for Inactive)
REMARK    1  A    between atoms: C3_3  and  C5_5 
REMARK    2  A    between atoms: C5_5  and  N1_6 
REMARK       I    between atoms: N1_6  and  C6_8 
REMARK       I    between atoms: C6_8  and  N3_10 
REMARK    3  A    between atoms: N3_10  and  C7_12 
REMARK    4  A    between atoms: C7_12  and  O1_13 
REMARK    5  A    between atoms: C7_12  and  C8_15 
REMARK       I    between atoms: C8_15  and  N4_17 
REMARK    6  A    between atoms: N4_17  and  N5_19 
REMARK    7  A    between atoms: N5_19  and  C9_21 
REMARK    8  A    between atoms: C9_21  and  N6_23 
REMARK    9  A    between atoms: N6_23  and  N7_25 
ROOT
HETATM    1  C1  UNL     1      -6.798  34.207   8.680  1.00  0.00     0.012 C 
HETATM    2  C2  UNL     1      -6.413  34.424   9.799  1.00  0.00    -0.111 C 
HETATM    3  C3  UNL     1      -5.967  34.709  11.159  1.00  0.00     0.078 C 
HETATM    4  C4  UNL     1      -5.253  36.038  11.170  1.00  0.00     0.025 C 
ENDROOT
BRANCH   3   5
HETATM    5  C5  UNL     1      -5.194  33.607  11.787  1.00  0.00     0.139 C 
BRANCH   5   6
HETATM    6  N1  UNL     1      -4.492  32.728  10.907  1.00  0.00    -0.363 N 
HETATM    7  C6  UNL     1      -4.895  31.325  11.005  1.00  0.00     0.190 C 
HETATM    8  N2  UNL     1      -5.057  30.717   9.725  1.00  0.00    -0.063 NA
HETATM    9  N3  UNL     1      -5.066  30.788  12.087  1.00  0.00    -0.307 N 
ATOM     10  H3  UNL     1      -4.887  31.457  12.837  1.00  0.00     0.170 HD
ATOM     11  H1  UNL     1      -3.770  33.052  10.264  1.00  0.00     0.162 HD
BRANCH   9  12
HETATM   12  C7  UNL     1      -5.415  29.599  12.613  1.00  0.00     0.213 C 
BRANCH  12  13
HETATM   13  O1  UNL     1      -5.320  28.549  11.819  1.00  0.00    -0.342 OA
ATOM     14  H1  UNL     1      -6.017  27.908  11.876  1.00  0.00     0.219 HD
ENDBRANCH  12  13
BRANCH  12  15
HETATM   15  C8  UNL     1      -5.901  29.257  13.955  1.00  0.00     0.310 C 
HETATM   16  O2  UNL     1      -5.708  28.125  14.409  1.00  0.00    -0.262 OA
HETATM   17  N4  UNL     1      -6.590  30.234  14.729  1.00  0.00    -0.261 N 
ATOM     18  H4  UNL     1      -6.719  31.155  14.309  1.00  0.00     0.190 HD
BRANCH  17  19
HETATM   19  N5  UNL     1      -7.102  30.044  16.004  1.00  0.00    -0.272 N 
ATOM     20  H5  UNL     1      -6.653  30.478  16.811  1.00  0.00     0.189 HD
BRANCH  19  21
HETATM   21  C9  UNL     1      -8.271  29.226  16.172  1.00  0.00     0.205 C 
HETATM   22  S1  UNL     1      -9.425  29.291  15.032  1.00  0.00    -0.038 SA
BRANCH  21  23
HETATM   23  N6  UNL     1      -8.390  28.397  17.308  1.00  0.00    -0.282 N 
ATOM     24  H6  UNL     1      -9.289  28.268  17.773  1.00  0.00     0.189 HD
BRANCH  23  25
HETATM   25  N7  UNL     1      -7.223  27.750  17.783  1.00  0.00    -0.343 N 
ATOM     26  H72 UNL     1      -6.669  28.175  18.527  1.00  0.00     0.176 HD
ATOM     27  H71 UNL     1      -6.965  26.858  17.361  1.00  0.00     0.176 HD
ENDBRANCH  23  25
ENDBRANCH  21  23
ENDBRANCH  19  21
ENDBRANCH  17  19
ENDBRANCH  12  15
ENDBRANCH   9  12
ENDBRANCH   5   6
ENDBRANCH   3   5
TORSDOF 9
ENDMDL
MODEL 2
REMARK VINA RESULT: -7.579817835      1.804      1.882
REMARK  9 active torsions:
REMARK  status: ('A' for Active; 'I' for Inactive)
REMARK    1  A    between atoms: C3_3  and  C5_5 
REMARK    2  A    between atoms: C5_5  and  N1_6 
REMARK       I    between atoms: N1_6  and  C6_8 
REMARK       I    between atoms: C6_8  and  N3_10 
REMARK    3  A    between atoms: N3_10  and  C7_12 
REMARK    4  A    between atoms: C7_12  and  O1_13 
REMARK    5  A    between atoms: C7_12  and  C8_15 
REMARK       I    between atoms: C8_15  and  N4_17 
REMARK    6  A    between atoms: N4_17  and  N5_19 
REMARK    7  A    between atoms: N5_19  and  C9_21 
REMARK    8  A    between atoms: C9_21  and  N6_23 
REMARK    9  A    between atoms: N6_23  and  N7_25 
ROOT
HETATM    1  C1  UNL     1      -6.704  33.991   8.674  1.00  0.00     0.012 C 
HETATM    2  C2  UNL     1      -6.417  34.499   9.727  1.00  0.00    -0.111 C 
HETATM    3  C3  UNL     1      -6.090  35.137  10.998  1.00  0.00     0.078 C 
HETATM    4  C4  UNL     1      -5.277  36.379  10.725  1.00  0.00     0.025 C 
ENDROOT
BRANCH   3   5
HETATM    5  C5  UNL     1      -5.476  34.224  11.994  1.00  0.00     0.139 C 
BRANCH   5   6
HETATM    6  N1  UNL     1      -4.622  33.197  11.489  1.00  0.00    -0.363 N 
HETATM    7  C6  UNL     1      -5.145  31.840  11.653  1.00  0.00     0.190 C 
HETATM    8  N2  UNL     1      -4.980  31.050  10.477  1.00  0.00    -0.063 NA
HETATM    9  N3  UNL     1      -5.661  31.482  12.699  1.00  0.00    -0.307 N 
ATOM     10  H3  UNL     1      -5.651  32.250  13.370  1.00  0.00     0.170 HD
ATOM     11  H1  UNL     1      -3.723  33.393  11.050  1.00  0.00     0.162 HD
BRANCH   9  12
HETATM   12  C7  UNL     1      -6.238  30.400  13.254  1.00  0.00     0.213 C 
BRANCH  12  13
HETATM   13  O1  UNL     1      -7.263  29.878  12.609  1.00  0.00    -0.342 OA
ATOM     14  H1  UNL     1      -7.699  30.437  11.977  1.00  0.00     0.219 HD
ENDBRANCH  12  13
BRANCH  12  15
HETATM   15  C8  UNL     1      -5.917  29.679  14.492  1.00  0.00     0.310 C 
HETATM   16  O2  UNL     1      -5.745  30.305  15.543  1.00  0.00    -0.262 OA
HETATM   17  N4  UNL     1      -5.809  28.259  14.476  1.00  0.00    -0.261 N 
ATOM     18  H4  UNL     1      -5.964  27.790  13.584  1.00  0.00     0.190 HD
BRANCH  17  19
HETATM   19  N5  UNL     1      -5.510  27.457  15.568  1.00  0.00    -0.272 N 
ATOM     20  H5  UNL     1      -4.559  27.123  15.719  1.00  0.00     0.189 HD
BRANCH  19  21
HETATM   21  C9  UNL     1      -6.561  27.104  16.483  1.00  0.00     0.205 C 
HETATM   22  S1  UNL     1      -7.004  25.546  16.580  1.00  0.00    -0.038 SA
BRANCH  21  23
HETATM   23  N6  UNL     1      -7.175  28.104  17.266  1.00  0.00    -0.282 N 
ATOM     24  H6  UNL     1      -6.786  28.378  18.169  1.00  0.00     0.189 HD
BRANCH  23  25
HETATM   25  N7  UNL     1      -8.348  28.717  16.762  1.00  0.00    -0.343 N 
ATOM     26  H72 UNL     1      -9.075  29.035  17.403  1.00  0.00     0.176 HD
ATOM     27  H71 UNL     1      -8.435  28.826  15.752  1.00  0.00     0.176 HD
ENDBRANCH  23  25
ENDBRANCH  21  23
ENDBRANCH  19  21
ENDBRANCH  17  19
ENDBRANCH  12  15
ENDBRANCH   9  12
ENDBRANCH   5   6
ENDBRANCH   3   5
TORSDOF 9
ENDMDL
MODEL 3
REMARK VINA RESULT: -7.314299238      2.629      6.568
REMARK  9 active torsions:
REMARK  status: ('A' for Active; 'I' for Inactive)
REMARK    1  A    between atoms: C3_3  and  C5_5 
REMARK    2  A    between atoms: C5_5  and  N1_6 
REMARK       I    between atoms: N1_6  and  C6_8 
REMARK       I    between atoms: C6_8  and  N3_10 
REMARK    3  A    between atoms: N3_10  and  C7_12 
REMARK    4  A    between atoms: C7_12  and  O1_13 
REMARK    5  A    between atoms: C7_12  and  C8_15 
REMARK       I    between atoms: C8_15  and  N4_17 
REMARK    6  A    between atoms: N4_17  and  N5_19 
REMARK    7  A    between atoms: N5_19  and  C9_21 
REMARK    8  A    between atoms: C9_21  and  N6_23 
REMARK    9  A    between atoms: N6_23  and  N7_25 
ROOT
HETATM    1  C1  UNL     1      -9.411  29.617  14.850  1.00  0.00     0.012 C 
HETATM    2  C2  UNL     1      -8.702  28.779  15.345  1.00  0.00    -0.111 C 
HETATM    3  C3  UNL     1      -7.868  27.749  15.955  1.00  0.00     0.078 C 
HETATM    4  C4  UNL     1      -7.897  27.921  17.453  1.00  0.00     0.025 C 
ENDROOT
BRANCH   3   5
HETATM    5  C5  UNL     1      -6.499  27.663  15.387  1.00  0.00     0.139 C 
BRANCH   5   6
HETATM    6  N1  UNL     1      -5.761  28.882  15.294  1.00  0.00    -0.363 N 
HETATM    7  C6  UNL     1      -5.764  29.492  13.964  1.00  0.00     0.190 C 
HETATM    8  N2  UNL     1      -5.987  30.900  14.014  1.00  0.00    -0.063 NA
HETATM    9  N3  UNL     1      -5.596  28.822  12.959  1.00  0.00    -0.307 N 
ATOM     10  H3  UNL     1      -5.465  27.843  13.214  1.00  0.00     0.170 HD
ATOM     11  H1  UNL     1      -5.273  29.294  16.090  1.00  0.00     0.162 HD
BRANCH   9  12
HETATM   12  C7  UNL     1      -5.527  28.956  11.621  1.00  0.00     0.213 C 
BRANCH  12  13
HETATM   13  O1  UNL     1      -5.510  27.842  10.914  1.00  0.00    -0.342 OA
ATOM     14  H1  UNL     1      -6.268  27.276  10.990  1.00  0.00     0.219 HD
ENDBRANCH  12  13
BRANCH  12  15
HETATM   15  C8  UNL     1      -5.464  30.162  10.787  1.00  0.00     0.310 C 
HETATM   16  O2  UNL     1      -6.133  30.230   9.751  1.00  0.00    -0.262 OA
HETATM   17  N4  UNL     1      -4.631  31.250  11.178  1.00  0.00    -0.261 N 
ATOM     18  H4  UNL     1      -4.102  31.144  12.044  1.00  0.00     0.190 HD
BRANCH  17  19
HETATM   19  N5  UNL     1      -4.476  32.440  10.484  1.00  0.00    -0.272 N 
ATOM     20  H5  UNL     1      -3.810  32.508   9.714  1.00  0.00     0.189 HD
BRANCH  19  21
HETATM   21  C9  UNL     1      -5.267  33.579  10.865  1.00  0.00     0.205 C 
HETATM   22  S1  UNL     1      -6.161  34.309   9.725  1.00  0.00    -0.038 SA
BRANCH  21  23
HETATM   23  N6  UNL     1      -5.249  34.029  12.202  1.00  0.00    -0.282 N 
ATOM     24  H6  UNL     1      -5.964  33.732  12.866  1.00  0.00     0.189 HD
BRANCH  23  25
HETATM   25  N7  UNL     1      -4.209  34.907  12.594  1.00  0.00    -0.343 N 
ATOM     26  H72 UNL     1      -3.426  34.557  13.147  1.00  0.00     0.176 HD
ATOM     27  H71 UNL     1      -4.272  35.883  12.307  1.00  0.00     0.176 HD
ENDBRANCH  23  25
ENDBRANCH  21  23
ENDBRANCH  19  21
ENDBRANCH  17  19
ENDBRANCH  12  15
ENDBRANCH   9  12
ENDBRANCH   5   6
ENDBRANCH   3   5
TORSDOF 9
ENDMDL
MODEL 4
REMARK VINA RESULT: -7.215332333      2.015      2.824
REMARK  9 active torsions:
REMARK  status: ('A' for Active; 'I' for Inactive)
REMARK    1  A    between atoms: C3_3  and  C5_5 
REMARK    2  A    between atoms: C5_5  and  N1_6 
REMARK       I    between atoms: N1_6  and  C6_8 
REMARK       I    between atoms: C6_8  and  N3_10 
REMARK    3  A    between atoms: N3_10  and  C7_12 
REMARK    4  A    between atoms: C7_12  and  O1_13 
REMARK    5  A    between atoms: C7_12  and  C8_15 
REMARK       I    between atoms: C8_15  and  N4_17 
REMARK    6  A    between atoms: N4_17  and  N5_19 
REMARK    7  A    between atoms: N5_19  and  C9_21 
REMARK    8  A    between atoms: C9_21  and  N6_23 
REMARK    9  A    between atoms: N6_23  and  N7_25 
ROOT
HETATM    1  C1  UNL     1      -6.288  34.835  10.361  1.00  0.00     0.012 C 
HETATM    2  C2  UNL     1      -6.111  34.193   9.358  1.00  0.00    -0.111 C 
HETATM    3  C3  UNL     1      -5.903  33.441   8.125  1.00  0.00     0.078 C 
HETATM    4  C4  UNL     1      -7.230  33.263   7.430  1.00  0.00     0.025 C 
ENDROOT
BRANCH   3   5
HETATM    5  C5  UNL     1      -5.146  32.176   8.308  1.00  0.00     0.139 C 
BRANCH   5   6
HETATM    6  N1  UNL     1      -5.748  30.985   7.801  1.00  0.00    -0.363 N 
HETATM    7  C6  UNL     1      -6.265  30.082   8.831  1.00  0.00     0.190 C 
HETATM    8  N2  UNL     1      -7.558  29.575   8.507  1.00  0.00    -0.063 NA
HETATM    9  N3  UNL     1      -5.621  29.832   9.836  1.00  0.00    -0.307 N 
ATOM     10  H3  UNL     1      -4.733  30.335   9.811  1.00  0.00     0.170 HD
ATOM     11  H1  UNL     1      -5.813  30.781   6.804  1.00  0.00     0.162 HD
BRANCH   9  12
HETATM   12  C7  UNL     1      -5.702  29.108  10.967  1.00  0.00     0.213 C 
BRANCH  12  13
HETATM   13  O1  UNL     1      -6.124  27.864  10.846  1.00  0.00    -0.342 OA
ATOM     14  H1  UNL     1      -7.008  27.682  11.141  1.00  0.00     0.219 HD
ENDBRANCH  12  13
BRANCH  12  15
HETATM   15  C8  UNL     1      -5.397  29.473  12.356  1.00  0.00     0.310 C 
HETATM   16  O2  UNL     1      -4.969  30.602  12.616  1.00  0.00    -0.262 OA
HETATM   17  N4  UNL     1      -5.599  28.523  13.398  1.00  0.00    -0.261 N 
ATOM     18  H4  UNL     1      -5.959  27.607  13.130  1.00  0.00     0.190 HD
BRANCH  17  19
HETATM   19  N5  UNL     1      -5.351  28.735  14.746  1.00  0.00    -0.272 N 
ATOM     20  H5  UNL     1      -4.397  28.874  15.080  1.00  0.00     0.189 HD
BRANCH  19  21
HETATM   21  C9  UNL     1      -6.455  28.755  15.665  1.00  0.00     0.205 C 
HETATM   22  S1  UNL     1      -6.969  27.344  16.280  1.00  0.00    -0.038 SA
BRANCH  21  23
HETATM   23  N6  UNL     1      -7.059  29.983  16.010  1.00  0.00    -0.282 N 
ATOM     24  H6  UNL     1      -6.528  30.854  15.987  1.00  0.00     0.189 HD
BRANCH  23  25
HETATM   25  N7  UNL     1      -8.424  29.970  16.388  1.00  0.00    -0.343 N 
ATOM     26  H72 UNL     1      -8.834  30.781  16.850  1.00  0.00     0.176 HD
ATOM     27  H71 UNL     1      -8.969  29.133  16.183  1.00  0.00     0.176 HD
ENDBRANCH  23  25
ENDBRANCH  21  23
ENDBRANCH  19  21
ENDBRANCH  17  19
ENDBRANCH  12  15
ENDBRANCH   9  12
ENDBRANCH   5   6
ENDBRANCH   3   5
TORSDOF 9
ENDMDL
MODEL 5
REMARK VINA RESULT: -7.206339408      1.893      2.343
REMARK  9 active torsions:
REMARK  status: ('A' for Active; 'I' for Inactive)
REMARK    1  A    between atoms: C3_3  and  C5_5 
REMARK    2  A    between atoms: C5_5  and  N1_6 
REMARK       I    between atoms: N1_6  and  C6_8 
REMARK       I    between atoms: C6_8  and  N3_10 
REMARK    3  A    between atoms: N3_10  and  C7_12 
REMARK    4  A    between atoms: C7_12  and  O1_13 
REMARK    5  A    between atoms: C7_12  and  C8_15 
REMARK       I    between atoms: C8_15  and  N4_17 
REMARK    6  A    between atoms: N4_17  and  N5_19 
REMARK    7  A    between atoms: N5_19  and  C9_21 
REMARK    8  A    between atoms: C9_21  and  N6_23 
REMARK    9  A    between atoms: N6_23  and  N7_25 
ROOT
HETATM    1  C1  UNL     1      -7.927  34.386   7.156  1.00  0.00     0.012 C 
HETATM    2  C2  UNL     1      -7.256  34.101   8.114  1.00  0.00    -0.111 C 
HETATM    3  C3  UNL     1      -6.466  33.764   9.293  1.00  0.00     0.078 C 
HETATM    4  C4  UNL     1      -6.101  35.036  10.017  1.00  0.00     0.025 C 
ENDROOT
BRANCH   3   5
HETATM    5  C5  UNL     1      -5.308  32.878   9.014  1.00  0.00     0.139 C 
BRANCH   5   6
HETATM    6  N1  UNL     1      -5.573  31.680   8.285  1.00  0.00    -0.363 N 
HETATM    7  C6  UNL     1      -6.061  30.569   9.103  1.00  0.00     0.190 C 
HETATM    8  N2  UNL     1      -7.159  29.891   8.496  1.00  0.00    -0.063 NA
HETATM    9  N3  UNL     1      -5.553  30.303  10.179  1.00  0.00    -0.307 N 
ATOM     10  H3  UNL     1      -4.790  30.952  10.371  1.00  0.00     0.170 HD
ATOM     11  H1  UNL     1      -5.433  31.604   7.278  1.00  0.00     0.162 HD
BRANCH   9  12
HETATM   12  C7  UNL     1      -5.673  29.429  11.196  1.00  0.00     0.213 C 
BRANCH  12  13
HETATM   13  O1  UNL     1      -5.961  28.182  10.876  1.00  0.00    -0.342 OA
ATOM     14  H1  UNL     1      -5.625  27.505  11.451  1.00  0.00     0.219 HD
ENDBRANCH  12  13
BRANCH  12  15
HETATM   15  C8  UNL     1      -5.538  29.628  12.644  1.00  0.00     0.310 C 
HETATM   16  O2  UNL     1      -5.504  30.772  13.108  1.00  0.00    -0.262 OA
HETATM   17  N4  UNL     1      -5.450  28.499  13.508  1.00  0.00    -0.261 N 
ATOM     18  H4  UNL     1      -5.488  27.576  13.075  1.00  0.00     0.190 HD
BRANCH  17  19
HETATM   19  N5  UNL     1      -5.319  28.544  14.888  1.00  0.00    -0.272 N 
ATOM     20  H5  UNL     1      -4.397  28.489  15.321  1.00  0.00     0.189 HD
BRANCH  19  21
HETATM   21  C9  UNL     1      -6.498  28.669  15.699  1.00  0.00     0.205 C 
HETATM   22  S1  UNL     1      -7.171  27.316  16.291  1.00  0.00    -0.038 SA
BRANCH  21  23
HETATM   23  N6  UNL     1      -7.038  29.947  15.960  1.00  0.00    -0.282 N 
ATOM     24  H6  UNL     1      -6.464  30.786  15.880  1.00  0.00     0.189 HD
BRANCH  23  25
HETATM   25  N7  UNL     1      -8.401  30.028  16.337  1.00  0.00    -0.343 N 
ATOM     26  H72 UNL     1      -8.799  29.333  16.968  1.00  0.00     0.176 HD
ATOM     27  H71 UNL     1      -8.957  30.795  15.960  1.00  0.00     0.176 HD
ENDBRANCH  23  25
ENDBRANCH  21  23
ENDBRANCH  19  21
ENDBRANCH  17  19
ENDBRANCH  12  15
ENDBRANCH   9  12
ENDBRANCH   5   6
ENDBRANCH   3   5
TORSDOF 9
ENDMDL
