MODEL 1
REMARK VINA RESULT: -6.717714736      0.000      0.000
REMARK  10 active torsions:
REMARK  status: ('A' for Active; 'I' for Inactive)
REMARK    1  A    between atoms: C2_2  and  C3_4 
REMARK    2  A    between atoms: C3_4  and  N1_5 
REMARK    3  A    between atoms: N1_5  and  C4_7 
REMARK    4  A    between atoms: C4_7  and  N2_8 
REMARK    5  A    between atoms: C4_7  and  S2_19 
REMARK    6  A    between atoms: N2_8  and  N3_10 
REMARK    7  A    between atoms: N3_10  and  C5_12 
REMARK    8  A    between atoms: C5_12  and  N4_14 
REMARK    9  A    between atoms: S2_19  and  N7_20 
REMARK   10  A    between atoms: N7_20  and  C7_22 
ROOT
HETATM    1  C4  UNL     1      -5.755  30.047  13.649  1.00  0.00     0.176 C 
ENDROOT
BRANCH   1   2
HETATM    2  N1  UNL     1      -5.650  28.839  12.972  1.00  0.00    -0.361 N 
ATOM      3  H1  UNL     1      -5.547  27.991  13.529  1.00  0.00     0.162 HD
BRANCH   2   4
HETATM    4  C3  UNL     1      -5.676  28.703  11.556  1.00  0.00     0.199 C 
BRANCH   4   5
HETATM    5  C2  UNL     1      -7.042  28.281  11.147  1.00  0.00     0.140 C 
HETATM    6  C1  UNL     1      -7.688  28.847   9.912  1.00  0.00     0.092 C 
HETATM    7  O1  UNL     1      -7.685  27.475  11.784  1.00  0.00    -0.297 OA
ENDBRANCH   4   5
ENDBRANCH   2   4
ENDBRANCH   1   2
BRANCH   1   8
HETATM    8  N2  UNL     1      -5.650  30.004  15.104  1.00  0.00    -0.277 N 
ATOM      9  H2  UNL     1      -4.728  29.980  15.540  1.00  0.00     0.189 HD
BRANCH   8  10
HETATM   10  N3  UNL     1      -6.784  29.994  15.905  1.00  0.00    -0.274 N 
ATOM     11  H3  UNL     1      -6.957  30.799  16.508  1.00  0.00     0.189 HD
BRANCH  10  12
HETATM   12  C5  UNL     1      -7.713  28.926  15.928  1.00  0.00     0.192 C 
HETATM   13  S1  UNL     1      -8.979  28.872  14.904  1.00  0.00    -0.039 SA
BRANCH  12  14
HETATM   14  N4  UNL     1      -7.566  27.849  16.859  1.00  0.00    -0.309 N 
HETATM   15  C6  UNL     1      -6.629  26.961  16.682  1.00  0.00     0.203 C 
HETATM   16  N5  UNL     1      -5.754  27.059  15.570  1.00  0.00    -0.066 NA
HETATM   17  N6  UNL     1      -6.485  25.893  17.608  1.00  0.00    -0.066 NA
ATOM     18  H4  UNL     1      -8.193  27.776  17.660  1.00  0.00     0.170 HD
ENDBRANCH  12  14
ENDBRANCH  10  12
ENDBRANCH   8  10
ENDBRANCH   1   8
BRANCH   1  19
HETATM   19  S2  UNL     1      -6.063  31.466  13.003  1.00  0.00     0.026 SA
BRANCH  19  20
HETATM   20  N7  UNL     1      -4.916  32.317  11.968  1.00  0.00    -0.301 N 
ATOM     21  H7  UNL     1      -4.256  32.969  12.391  1.00  0.00     0.176 HD
BRANCH  20  22
HETATM   22  C7  UNL     1      -4.889  32.141  10.714  1.00  0.00     0.359 C 
HETATM   23  O2  UNL     1      -4.466  31.780   9.585  1.00  0.00    -0.283 OA
ENDBRANCH  20  22
ENDBRANCH  19  20
ENDBRANCH   1  19
TORSDOF 10
ENDMDL
MODEL 2
REMARK VINA RESULT: -6.666577260      1.136      1.314
REMARK  10 active torsions:
REMARK  status: ('A' for Active; 'I' for Inactive)
REMARK    1  A    between atoms: C2_2  and  C3_4 
REMARK    2  A    between atoms: C3_4  and  N1_5 
REMARK    3  A    between atoms: N1_5  and  C4_7 
REMARK    4  A    between atoms: C4_7  and  N2_8 
REMARK    5  A    between atoms: C4_7  and  S2_19 
REMARK    6  A    between atoms: N2_8  and  N3_10 
REMARK    7  A    between atoms: N3_10  and  C5_12 
REMARK    8  A    between atoms: C5_12  and  N4_14 
REMARK    9  A    between atoms: S2_19  and  N7_20 
REMARK   10  A    between atoms: N7_20  and  C7_22 
ROOT
HETATM    1  C4  UNL     1      -5.552  29.629  13.058  1.00  0.00     0.176 C 
ENDROOT
BRANCH   1   2
HETATM    2  N1  UNL     1      -5.758  28.606  12.141  1.00  0.00    -0.361 N 
ATOM      3  H1  UNL     1      -5.062  27.861  12.098  1.00  0.00     0.162 HD
BRANCH   2   4
HETATM    4  C3  UNL     1      -6.871  28.525  11.258  1.00  0.00     0.199 C 
BRANCH   4   5
HETATM    5  C2  UNL     1      -8.053  28.060  12.030  1.00  0.00     0.140 C 
HETATM    6  C1  UNL     1      -9.193  28.993  12.333  1.00  0.00     0.092 C 
HETATM    7  O1  UNL     1      -8.146  26.925  12.444  1.00  0.00    -0.297 OA
ENDBRANCH   4   5
ENDBRANCH   2   4
ENDBRANCH   1   2
BRANCH   1   8
HETATM    8  N2  UNL     1      -5.180  29.239  14.414  1.00  0.00    -0.277 N 
ATOM      9  H2  UNL     1      -4.248  28.865  14.591  1.00  0.00     0.189 HD
BRANCH   8  10
HETATM   10  N3  UNL     1      -6.075  29.369  15.469  1.00  0.00    -0.274 N 
ATOM     11  H3  UNL     1      -5.894  30.087  16.171  1.00  0.00     0.189 HD
BRANCH  10  12
HETATM   12  C5  UNL     1      -7.225  28.557  15.618  1.00  0.00     0.192 C 
HETATM   13  S1  UNL     1      -8.651  29.176  16.106  1.00  0.00    -0.039 SA
BRANCH  12  14
HETATM   14  N4  UNL     1      -7.170  27.153  15.342  1.00  0.00    -0.309 N 
HETATM   15  C6  UNL     1      -6.777  26.325  16.267  1.00  0.00     0.203 C 
HETATM   16  N5  UNL     1      -6.404  26.808  17.546  1.00  0.00    -0.066 NA
HETATM   17  N6  UNL     1      -6.725  24.932  15.989  1.00  0.00    -0.066 NA
ATOM     18  H4  UNL     1      -7.439  26.803  14.422  1.00  0.00     0.170 HD
ENDBRANCH  12  14
ENDBRANCH  10  12
ENDBRANCH   8  10
ENDBRANCH   1   8
BRANCH   1  19
HETATM   19  S2  UNL     1      -5.764  31.183  12.799  1.00  0.00     0.026 SA
BRANCH  19  20
HETATM   20  N7  UNL     1      -4.820  32.096  11.622  1.00  0.00    -0.301 N 
ATOM     21  H7  UNL     1      -4.249  32.877  11.944  1.00  0.00     0.176 HD
BRANCH  20  22
HETATM   22  C7  UNL     1      -4.831  31.809  10.389  1.00  0.00     0.359 C 
HETATM   23  O2  UNL     1      -4.836  31.108   9.344  1.00  0.00    -0.283 OA
ENDBRANCH  20  22
ENDBRANCH  19  20
ENDBRANCH   1  19
TORSDOF 10
ENDMDL
MODEL 3
REMARK VINA RESULT: -6.592385114      1.090      1.090
REMARK  10 active torsions:
REMARK  status: ('A' for Active; 'I' for Inactive)
REMARK    1  A    between atoms: C2_2  and  C3_4 
REMARK    2  A    between atoms: C3_4  and  N1_5 
REMARK    3  A    between atoms: N1_5  and  C4_7 
REMARK    4  A    between atoms: C4_7  and  N2_8 
REMARK    5  A    between atoms: C4_7  and  S2_19 
REMARK    6  A    between atoms: N2_8  and  N3_10 
REMARK    7  A    between atoms: N3_10  and  C5_12 
REMARK    8  A    between atoms: C5_12  and  N4_14 
REMARK    9  A    between atoms: S2_19  and  N7_20 
REMARK   10  A    between atoms: N7_20  and  C7_22 
ROOT
HETATM    1  C4  UNL     1      -5.766  30.006  13.646  1.00  0.00     0.176 C 
ENDROOT
BRANCH   1   2
HETATM    2  N1  UNL     1      -5.659  28.808  12.953  1.00  0.00    -0.361 N 
ATOM      3  H1  UNL     1      -5.538  27.954  13.498  1.00  0.00     0.162 HD
BRANCH   2   4
HETATM    4  C3  UNL     1      -5.706  28.689  11.536  1.00  0.00     0.199 C 
BRANCH   4   5
HETATM    5  C2  UNL     1      -7.071  28.248  11.144  1.00  0.00     0.140 C 
HETATM    6  C1  UNL     1      -7.734  28.793   9.908  1.00  0.00     0.092 C 
HETATM    7  O1  UNL     1      -7.699  27.443  11.796  1.00  0.00    -0.297 OA
ENDBRANCH   4   5
ENDBRANCH   2   4
ENDBRANCH   1   2
BRANCH   1   8
HETATM    8  N2  UNL     1      -5.643  29.945  15.100  1.00  0.00    -0.277 N 
ATOM      9  H2  UNL     1      -4.715  29.900  15.523  1.00  0.00     0.189 HD
BRANCH   8  10
HETATM   10  N3  UNL     1      -6.766  29.947  15.916  1.00  0.00    -0.274 N 
ATOM     11  H3  UNL     1      -6.914  30.745  16.533  1.00  0.00     0.189 HD
BRANCH  10  12
HETATM   12  C5  UNL     1      -7.717  28.898  15.934  1.00  0.00     0.192 C 
HETATM   13  S1  UNL     1      -8.994  28.884  14.923  1.00  0.00    -0.039 SA
BRANCH  12  14
HETATM   14  N4  UNL     1      -7.583  27.806  16.851  1.00  0.00    -0.309 N 
HETATM   15  C6  UNL     1      -6.645  26.921  16.673  1.00  0.00     0.203 C 
HETATM   16  N5  UNL     1      -5.754  27.035  15.575  1.00  0.00    -0.066 NA
HETATM   17  N6  UNL     1      -6.514  25.838  17.584  1.00  0.00    -0.066 NA
ATOM     18  H4  UNL     1      -8.222  27.721  17.641  1.00  0.00     0.170 HD
ENDBRANCH  12  14
ENDBRANCH  10  12
ENDBRANCH   8  10
ENDBRANCH   1   8
BRANCH   1  19
HETATM   19  S2  UNL     1      -6.095  31.431  13.023  1.00  0.00     0.026 SA
BRANCH  19  20
HETATM   20  N7  UNL     1      -4.967  32.305  11.986  1.00  0.00    -0.301 N 
ATOM     21  H7  UNL     1      -4.409  31.784  11.310  1.00  0.00     0.176 HD
BRANCH  20  22
HETATM   22  C7  UNL     1      -4.832  33.563  12.057  1.00  0.00     0.359 C 
HETATM   23  O2  UNL     1      -4.890  34.728  12.528  1.00  0.00    -0.283 OA
ENDBRANCH  20  22
ENDBRANCH  19  20
ENDBRANCH   1  19
TORSDOF 10
ENDMDL
MODEL 4
REMARK VINA RESULT: -6.582076804      1.578      3.531
REMARK  10 active torsions:
REMARK  status: ('A' for Active; 'I' for Inactive)
REMARK    1  A    between atoms: C2_2  and  C3_4 
REMARK    2  A    between atoms: C3_4  and  N1_5 
REMARK    3  A    between atoms: N1_5  and  C4_7 
REMARK    4  A    between atoms: C4_7  and  N2_8 
REMARK    5  A    between atoms: C4_7  and  S2_19 
REMARK    6  A    between atoms: N2_8  and  N3_10 
REMARK    7  A    between atoms: N3_10  and  C5_12 
REMARK    8  A    between atoms: C5_12  and  N4_14 
REMARK    9  A    between atoms: S2_19  and  N7_20 
REMARK   10  A    between atoms: N7_20  and  C7_22 
ROOT
HETATM    1  C4  UNL     1      -5.313  29.614  12.067  1.00  0.00     0.176 C 
ENDROOT
BRANCH   1   2
HETATM    2  N1  UNL     1      -4.694  30.852  11.952  1.00  0.00    -0.361 N 
ATOM      3  H1  UNL     1      -3.677  30.881  12.013  1.00  0.00     0.162 HD
BRANCH   2   4
HETATM    4  C3  UNL     1      -5.382  32.082  11.754  1.00  0.00     0.199 C 
BRANCH   4   5
HETATM    5  C2  UNL     1      -5.183  32.513  10.345  1.00  0.00     0.140 C 
HETATM    6  C1  UNL     1      -5.941  33.683   9.780  1.00  0.00     0.092 C 
HETATM    7  O1  UNL     1      -4.412  31.946   9.601  1.00  0.00    -0.297 OA
ENDBRANCH   4   5
ENDBRANCH   2   4
ENDBRANCH   1   2
BRANCH   1   8
HETATM    8  N2  UNL     1      -5.322  28.998  13.391  1.00  0.00    -0.277 N 
ATOM      9  H2  UNL     1      -4.976  28.045  13.503  1.00  0.00     0.189 HD
BRANCH   8  10
HETATM   10  N3  UNL     1      -5.792  29.689  14.500  1.00  0.00    -0.274 N 
ATOM     11  H3  UNL     1      -5.198  30.410  14.909  1.00  0.00     0.189 HD
BRANCH  10  12
HETATM   12  C5  UNL     1      -7.055  29.443  15.092  1.00  0.00     0.192 C 
HETATM   13  S1  UNL     1      -8.444  29.777  14.310  1.00  0.00    -0.039 SA
BRANCH  12  14
HETATM   14  N4  UNL     1      -7.150  28.888  16.408  1.00  0.00    -0.309 N 
HETATM   15  C6  UNL     1      -6.619  27.726  16.662  1.00  0.00     0.203 C 
HETATM   16  N5  UNL     1      -5.947  27.009  15.640  1.00  0.00    -0.066 NA
HETATM   17  N6  UNL     1      -6.714  27.178  17.970  1.00  0.00    -0.066 NA
ATOM     18  H4  UNL     1      -7.632  29.402  17.146  1.00  0.00     0.170 HD
ENDBRANCH  12  14
ENDBRANCH  10  12
ENDBRANCH   8  10
ENDBRANCH   1   8
BRANCH   1  19
HETATM   19  S2  UNL     1      -5.941  28.759  10.884  1.00  0.00     0.026 SA
BRANCH  19  20
HETATM   20  N7  UNL     1      -7.296  27.654  11.115  1.00  0.00    -0.301 N 
ATOM     21  H7  UNL     1      -7.126  26.745  11.544  1.00  0.00     0.176 HD
BRANCH  20  22
HETATM   22  C7  UNL     1      -8.474  27.958  10.762  1.00  0.00     0.359 C 
HETATM   23  O2  UNL     1      -9.489  28.666  10.536  1.00  0.00    -0.283 OA
ENDBRANCH  20  22
ENDBRANCH  19  20
ENDBRANCH   1  19
TORSDOF 10
ENDMDL
MODEL 5
REMARK VINA RESULT: -6.502434885      1.646      3.674
REMARK  10 active torsions:
REMARK  status: ('A' for Active; 'I' for Inactive)
REMARK    1  A    between atoms: C2_2  and  C3_4 
REMARK    2  A    between atoms: C3_4  and  N1_5 
REMARK    3  A    between atoms: N1_5  and  C4_7 
REMARK    4  A    between atoms: C4_7  and  N2_8 
REMARK    5  A    between atoms: C4_7  and  S2_19 
REMARK    6  A    between atoms: N2_8  and  N3_10 
REMARK    7  A    between atoms: N3_10  and  C5_12 
REMARK    8  A    between atoms: C5_12  and  N4_14 
REMARK    9  A    between atoms: S2_19  and  N7_20 
REMARK   10  A    between atoms: N7_20  and  C7_22 
ROOT
HETATM    1  C4  UNL     1      -5.729  29.509  12.599  1.00  0.00     0.176 C 
ENDROOT
BRANCH   1   2
HETATM    2  N1  UNL     1      -4.857  30.500  12.168  1.00  0.00    -0.361 N 
ATOM      3  H1  UNL     1      -3.890  30.233  11.984  1.00  0.00     0.162 HD
BRANCH   2   4
HETATM    4  C3  UNL     1      -5.219  31.861  11.965  1.00  0.00     0.199 C 
BRANCH   4   5
HETATM    5  C2  UNL     1      -5.129  32.162  10.512  1.00  0.00     0.140 C 
HETATM    6  C1  UNL     1      -5.760  33.402   9.939  1.00  0.00     0.092 C 
HETATM    7  O1  UNL     1      -4.552  31.430   9.738  1.00  0.00    -0.297 OA
ENDBRANCH   4   5
ENDBRANCH   2   4
ENDBRANCH   1   2
BRANCH   1   8
HETATM    8  N2  UNL     1      -5.484  28.938  13.921  1.00  0.00    -0.277 N 
ATOM      9  H2  UNL     1      -5.011  28.037  13.998  1.00  0.00     0.189 HD
BRANCH   8  10
HETATM   10  N3  UNL     1      -5.883  29.601  15.074  1.00  0.00    -0.274 N 
ATOM     11  H3  UNL     1      -5.380  30.447  15.344  1.00  0.00     0.189 HD
BRANCH  10  12
HETATM   12  C5  UNL     1      -6.952  29.164  15.893  1.00  0.00     0.192 C 
HETATM   13  S1  UNL     1      -8.459  29.758  15.721  1.00  0.00    -0.039 SA
BRANCH  12  14
HETATM   14  N4  UNL     1      -6.739  28.176  16.907  1.00  0.00    -0.309 N 
HETATM   15  C6  UNL     1      -6.846  26.912  16.613  1.00  0.00     0.203 C 
HETATM   16  N5  UNL     1      -7.172  26.511  15.292  1.00  0.00    -0.066 NA
HETATM   17  N6  UNL     1      -6.634  25.933  17.621  1.00  0.00    -0.066 NA
ATOM     18  H4  UNL     1      -6.504  28.462  17.858  1.00  0.00     0.170 HD
ENDBRANCH  12  14
ENDBRANCH  10  12
ENDBRANCH   8  10
ENDBRANCH   1   8
BRANCH   1  19
HETATM   19  S2  UNL     1      -6.921  28.872  11.763  1.00  0.00     0.026 SA
BRANCH  19  20
HETATM   20  N7  UNL     1      -8.030  27.676  12.434  1.00  0.00    -0.301 N 
ATOM     21  H7  UNL     1      -7.657  26.789  12.772  1.00  0.00     0.176 HD
BRANCH  20  22
HETATM   22  C7  UNL     1      -9.277  27.887  12.506  1.00  0.00     0.359 C 
HETATM   23  O2  UNL     1     -10.477  27.740  12.855  1.00  0.00    -0.283 OA
ENDBRANCH  20  22
ENDBRANCH  19  20
ENDBRANCH   1  19
TORSDOF 10
ENDMDL
