MODEL 1
REMARK VINA RESULT: -6.262384585      0.000      0.000
REMARK  8 active torsions:
REMARK  status: ('A' for Active; 'I' for Inactive)
REMARK    1  A    between atoms: S1_2  and  C2_4 
REMARK    2  A    between atoms: C2_4  and  C3_5 
REMARK    3  A    between atoms: C3_5  and  N2_9 
REMARK    4  A    between atoms: N2_9  and  N3_11 
REMARK    5  A    between atoms: N3_11  and  C4_13 
REMARK    6  A    between atoms: C4_13  and  N4_15 
REMARK    7  A    between atoms: N4_15  and  N5_17 
REMARK    8  A    between atoms: N5_17  and  C5_19 
ROOT
HETATM    1  N3  UNL     1      -7.142  30.233  16.039  1.00  0.00    -0.274 N 
ATOM      2  H3  UNL     1      -7.276  31.149  16.466  1.00  0.00     0.189 HD
ENDROOT
BRANCH   1   3
HETATM    3  N2  UNL     1      -5.963  29.961  15.351  1.00  0.00    -0.286 N 
ATOM      4  H2  UNL     1      -5.108  29.773  15.874  1.00  0.00     0.188 HD
BRANCH   3   5
HETATM    5  C3  UNL     1      -5.933  29.941  13.924  1.00  0.00     0.101 C 
HETATM    6  N1  UNL     1      -5.514  28.857  13.366  1.00  0.00    -0.387 N 
ATOM      7  H12 UNL     1      -5.493  28.843  12.347  1.00  0.00     0.157 HD
ATOM      8  H11 UNL     1      -5.216  28.049  13.913  1.00  0.00     0.157 HD
BRANCH   5   9
HETATM    9  C2  UNL     1      -6.364  31.108  13.135  1.00  0.00     0.185 C 
BRANCH   9  10
HETATM   10  S1  UNL     1      -5.190  31.543  11.883  1.00  0.00     0.018 S 
HETATM   11  C1  UNL     1      -5.720  31.067  10.275  1.00  0.00     0.127 C 
HETATM   12  O1  UNL     1      -4.795  33.172  11.935  1.00  0.00    -0.258 OA
ENDBRANCH   9  10
ENDBRANCH   5   9
ENDBRANCH   3   5
ENDBRANCH   1   3
BRANCH   1  13
HETATM   13  C4  UNL     1      -8.156  29.251  16.154  1.00  0.00     0.205 C 
HETATM   14  S2  UNL     1      -9.256  29.132  14.957  1.00  0.00    -0.038 SA
BRANCH  13  15
HETATM   15  N4  UNL     1      -8.233  28.384  17.269  1.00  0.00    -0.273 N 
ATOM     16  H4  UNL     1      -9.101  28.305  17.800  1.00  0.00     0.189 HD
BRANCH  15  17
HETATM   17  N5  UNL     1      -7.122  27.644  17.635  1.00  0.00    -0.276 N 
ATOM     18  H5  UNL     1      -6.685  27.799  18.543  1.00  0.00     0.189 HD
BRANCH  17  19
HETATM   19  C5  UNL     1      -6.590  26.673  16.753  1.00  0.00     0.199 C 
HETATM   20  N6  UNL     1      -5.591  27.032  15.834  1.00  0.00    -0.068 NA
HETATM   21  S3  UNL     1      -7.103  25.120  16.763  1.00  0.00    -0.043 SA
ENDBRANCH  17  19
ENDBRANCH  15  17
ENDBRANCH  13  15
ENDBRANCH   1  13
TORSDOF 8
ENDMDL
MODEL 2
REMARK VINA RESULT: -6.218258023      3.147      5.788
REMARK  8 active torsions:
REMARK  status: ('A' for Active; 'I' for Inactive)
REMARK    1  A    between atoms: S1_2  and  C2_4 
REMARK    2  A    between atoms: C2_4  and  C3_5 
REMARK    3  A    between atoms: C3_5  and  N2_9 
REMARK    4  A    between atoms: N2_9  and  N3_11 
REMARK    5  A    between atoms: N3_11  and  C4_13 
REMARK    6  A    between atoms: C4_13  and  N4_15 
REMARK    7  A    between atoms: N4_15  and  N5_17 
REMARK    8  A    between atoms: N5_17  and  C5_19 
ROOT
HETATM    1  N3  UNL     1      -5.807  28.674  13.519  1.00  0.00    -0.274 N 
ATOM      2  H3  UNL     1      -4.956  28.537  14.064  1.00  0.00     0.189 HD
ENDROOT
BRANCH   1   3
HETATM    3  N2  UNL     1      -7.048  28.551  14.137  1.00  0.00    -0.286 N 
ATOM      4  H2  UNL     1      -7.844  28.206  13.601  1.00  0.00     0.188 HD
BRANCH   3   5
HETATM    5  C3  UNL     1      -7.223  28.900  15.510  1.00  0.00     0.101 C 
HETATM    6  N1  UNL     1      -6.865  30.089  15.858  1.00  0.00    -0.387 N 
ATOM      7  H12 UNL     1      -6.989  30.338  16.839  1.00  0.00     0.157 HD
ATOM      8  H11 UNL     1      -6.474  30.752  15.189  1.00  0.00     0.157 HD
BRANCH   5   9
HETATM    9  C2  UNL     1      -7.787  27.941  16.476  1.00  0.00     0.185 C 
BRANCH   9  10
HETATM   10  S1  UNL     1      -6.659  26.630  16.858  1.00  0.00     0.018 S 
HETATM   11  C1  UNL     1      -7.428  25.049  16.798  1.00  0.00     0.127 C 
HETATM   12  O1  UNL     1      -5.292  26.678  15.889  1.00  0.00    -0.258 OA
ENDBRANCH   9  10
ENDBRANCH   5   9
ENDBRANCH   3   5
ENDBRANCH   1   3
BRANCH   1  13
HETATM   13  C4  UNL     1      -5.713  28.987  12.140  1.00  0.00     0.205 C 
HETATM   14  S2  UNL     1      -5.282  30.502  11.719  1.00  0.00    -0.038 SA
BRANCH  13  15
HETATM   15  N4  UNL     1      -5.982  28.027  11.137  1.00  0.00    -0.273 N 
ATOM     16  H4  UNL     1      -5.301  27.297  10.928  1.00  0.00     0.189 HD
BRANCH  15  17
HETATM   17  N5  UNL     1      -7.178  28.086  10.441  1.00  0.00    -0.276 N 
ATOM     18  H5  UNL     1      -7.197  28.469   9.495  1.00  0.00     0.189 HD
BRANCH  17  19
HETATM   19  C5  UNL     1      -8.374  27.618  11.036  1.00  0.00     0.199 C 
HETATM   20  N6  UNL     1      -8.315  26.764  12.149  1.00  0.00    -0.068 NA
HETATM   21  S3  UNL     1      -9.847  28.040  10.466  1.00  0.00    -0.043 SA
ENDBRANCH  17  19
ENDBRANCH  15  17
ENDBRANCH  13  15
ENDBRANCH   1  13
TORSDOF 8
ENDMDL
MODEL 3
REMARK VINA RESULT: -6.186838023      3.547      4.755
REMARK  8 active torsions:
REMARK  status: ('A' for Active; 'I' for Inactive)
REMARK    1  A    between atoms: S1_2  and  C2_4 
REMARK    2  A    between atoms: C2_4  and  C3_5 
REMARK    3  A    between atoms: C3_5  and  N2_9 
REMARK    4  A    between atoms: N2_9  and  N3_11 
REMARK    5  A    between atoms: N3_11  and  C4_13 
REMARK    6  A    between atoms: C4_13  and  N4_15 
REMARK    7  A    between atoms: N4_15  and  N5_17 
REMARK    8  A    between atoms: N5_17  and  C5_19 
ROOT
HETATM    1  N3  UNL     1      -5.667  28.300  11.352  1.00  0.00    -0.274 N 
ATOM      2  H3  UNL     1      -4.737  28.065  11.010  1.00  0.00     0.189 HD
ENDROOT
BRANCH   1   3
HETATM    3  N2  UNL     1      -6.785  27.703  10.776  1.00  0.00    -0.286 N 
ATOM      4  H2  UNL     1      -6.871  26.687  10.782  1.00  0.00     0.188 HD
BRANCH   3   5
HETATM    5  C3  UNL     1      -7.812  28.491  10.177  1.00  0.00     0.101 C 
HETATM    6  N1  UNL     1      -7.490  29.166   9.127  1.00  0.00    -0.387 N 
ATOM      7  H12 UNL     1      -8.224  29.730   8.699  1.00  0.00     0.157 HD
ATOM      8  H11 UNL     1      -6.547  29.142   8.738  1.00  0.00     0.157 HD
BRANCH   5   9
HETATM    9  C2  UNL     1      -9.174  28.526  10.738  1.00  0.00     0.185 C 
BRANCH   9  10
HETATM   10  S1  UNL     1      -9.507  27.133  11.779  1.00  0.00     0.018 S 
HETATM   11  C1  UNL     1      -9.713  25.646  10.861  1.00  0.00     0.127 C 
HETATM   12  O1  UNL     1      -8.345  26.952  12.974  1.00  0.00    -0.258 OA
ENDBRANCH   9  10
ENDBRANCH   5   9
ENDBRANCH   3   5
ENDBRANCH   1   3
BRANCH   1  13
HETATM   13  C4  UNL     1      -5.810  29.232  12.410  1.00  0.00     0.205 C 
HETATM   14  S2  UNL     1      -5.247  30.746  12.188  1.00  0.00    -0.038 SA
BRANCH  13  15
HETATM   15  N4  UNL     1      -6.421  28.882  13.636  1.00  0.00    -0.273 N 
ATOM     16  H4  UNL     1      -7.418  29.043  13.779  1.00  0.00     0.189 HD
BRANCH  15  17
HETATM   17  N5  UNL     1      -5.655  28.317  14.642  1.00  0.00    -0.276 N 
ATOM     18  H5  UNL     1      -4.638  28.397  14.612  1.00  0.00     0.189 HD
BRANCH  17  19
HETATM   19  C5  UNL     1      -6.277  27.631  15.712  1.00  0.00     0.199 C 
HETATM   20  N6  UNL     1      -5.693  26.464  16.231  1.00  0.00    -0.068 NA
HETATM   21  S3  UNL     1      -7.676  28.153  16.379  1.00  0.00    -0.043 SA
ENDBRANCH  17  19
ENDBRANCH  15  17
ENDBRANCH  13  15
ENDBRANCH   1  13
TORSDOF 8
ENDMDL
MODEL 4
REMARK VINA RESULT: -6.076048136      1.820      2.035
REMARK  8 active torsions:
REMARK  status: ('A' for Active; 'I' for Inactive)
REMARK    1  A    between atoms: S1_2  and  C2_4 
REMARK    2  A    between atoms: C2_4  and  C3_5 
REMARK    3  A    between atoms: C3_5  and  N2_9 
REMARK    4  A    between atoms: N2_9  and  N3_11 
REMARK    5  A    between atoms: N3_11  and  C4_13 
REMARK    6  A    between atoms: C4_13  and  N4_15 
REMARK    7  A    between atoms: N4_15  and  N5_17 
REMARK    8  A    between atoms: N5_17  and  C5_19 
ROOT
HETATM    1  N3  UNL     1      -6.893  29.741  13.876  1.00  0.00    -0.274 N 
ATOM      2  H3  UNL     1      -6.531  30.680  13.714  1.00  0.00     0.189 HD
ENDROOT
BRANCH   1   3
HETATM    3  N2  UNL     1      -6.537  28.707  13.015  1.00  0.00    -0.286 N 
ATOM      4  H2  UNL     1      -6.779  27.746  13.257  1.00  0.00     0.188 HD
BRANCH   3   5
HETATM    5  C3  UNL     1      -5.840  28.972  11.798  1.00  0.00     0.101 C 
HETATM    6  N1  UNL     1      -5.813  28.024  10.925  1.00  0.00    -0.387 N 
ATOM      7  H12 UNL     1      -5.314  28.214  10.056  1.00  0.00     0.157 HD
ATOM      8  H11 UNL     1      -6.267  27.126  11.089  1.00  0.00     0.157 HD
BRANCH   5   9
HETATM    9  C2  UNL     1      -5.185  30.270  11.561  1.00  0.00     0.185 C 
BRANCH   9  10
HETATM   10  S1  UNL     1      -5.652  30.985  10.010  1.00  0.00     0.018 S 
HETATM   11  C1  UNL     1      -5.229  32.690   9.905  1.00  0.00     0.127 C 
HETATM   12  O1  UNL     1      -5.033  30.125   8.711  1.00  0.00    -0.258 OA
ENDBRANCH   9  10
ENDBRANCH   5   9
ENDBRANCH   3   5
ENDBRANCH   1   3
BRANCH   1  13
HETATM   13  C4  UNL     1      -7.754  29.502  14.976  1.00  0.00     0.205 C 
HETATM   14  S2  UNL     1      -9.345  29.305  14.684  1.00  0.00    -0.038 SA
BRANCH  13  15
HETATM   15  N4  UNL     1      -7.268  29.433  16.302  1.00  0.00    -0.273 N 
ATOM     16  H4  UNL     1      -6.927  30.274  16.770  1.00  0.00     0.189 HD
BRANCH  15  17
HETATM   17  N5  UNL     1      -7.258  28.216  16.962  1.00  0.00    -0.276 N 
ATOM     18  H5  UNL     1      -7.767  28.110  17.840  1.00  0.00     0.189 HD
BRANCH  17  19
HETATM   19  C5  UNL     1      -6.544  27.119  16.424  1.00  0.00     0.199 C 
HETATM   20  N6  UNL     1      -5.459  27.343  15.561  1.00  0.00    -0.068 NA
HETATM   21  S3  UNL     1      -6.942  25.572  16.774  1.00  0.00    -0.043 SA
ENDBRANCH  17  19
ENDBRANCH  15  17
ENDBRANCH  13  15
ENDBRANCH   1  13
TORSDOF 8
ENDMDL
MODEL 5
REMARK VINA RESULT: -6.021132229      3.462      6.552
REMARK  8 active torsions:
REMARK  status: ('A' for Active; 'I' for Inactive)
REMARK    1  A    between atoms: S1_2  and  C2_4 
REMARK    2  A    between atoms: C2_4  and  C3_5 
REMARK    3  A    between atoms: C3_5  and  N2_9 
REMARK    4  A    between atoms: N2_9  and  N3_11 
REMARK    5  A    between atoms: N3_11  and  C4_13 
REMARK    6  A    between atoms: C4_13  and  N4_15 
REMARK    7  A    between atoms: N4_15  and  N5_17 
REMARK    8  A    between atoms: N5_17  and  C5_19 
ROOT
HETATM    1  N3  UNL     1      -5.786  32.296  12.902  1.00  0.00    -0.274 N 
ATOM      2  H3  UNL     1      -5.802  32.706  13.835  1.00  0.00     0.189 HD
ENDROOT
BRANCH   1   3
HETATM    3  N2  UNL     1      -6.301  31.018  12.702  1.00  0.00    -0.286 N 
ATOM      4  H2  UNL     1      -6.999  30.866  11.975  1.00  0.00     0.188 HD
BRANCH   3   5
HETATM    5  C3  UNL     1      -5.866  29.918  13.500  1.00  0.00     0.101 C 
HETATM    6  N1  UNL     1      -5.480  28.860  12.873  1.00  0.00    -0.387 N 
ATOM      7  H12 UNL     1      -5.170  28.073  13.443  1.00  0.00     0.157 HD
ATOM      8  H11 UNL     1      -5.484  28.805  11.854  1.00  0.00     0.157 HD
BRANCH   5   9
HETATM    9  C2  UNL     1      -5.861  29.997  14.972  1.00  0.00     0.185 C 
BRANCH   9  10
HETATM   10  S1  UNL     1      -6.615  28.582  15.723  1.00  0.00     0.018 S 
HETATM   11  C1  UNL     1      -8.257  28.314  15.148  1.00  0.00     0.127 C 
HETATM   12  O1  UNL     1      -5.677  27.203  15.545  1.00  0.00    -0.258 OA
ENDBRANCH   9  10
ENDBRANCH   5   9
ENDBRANCH   3   5
ENDBRANCH   1   3
BRANCH   1  13
HETATM   13  C4  UNL     1      -5.239  33.033  11.822  1.00  0.00     0.205 C 
HETATM   14  S2  UNL     1      -5.765  34.556  11.581  1.00  0.00    -0.038 SA
BRANCH  13  15
HETATM   15  N4  UNL     1      -4.261  32.481  10.962  1.00  0.00    -0.273 N 
ATOM     16  H4  UNL     1      -3.350  32.205  11.329  1.00  0.00     0.189 HD
BRANCH  15  17
HETATM   17  N5  UNL     1      -4.550  32.320   9.618  1.00  0.00    -0.276 N 
ATOM     18  H5  UNL     1      -4.189  32.989   8.937  1.00  0.00     0.189 HD
BRANCH  17  19
HETATM   19  C5  UNL     1      -5.343  31.231   9.184  1.00  0.00     0.199 C 
HETATM   20  N6  UNL     1      -5.261  29.996   9.847  1.00  0.00    -0.068 NA
HETATM   21  S3  UNL     1      -6.368  31.357   7.916  1.00  0.00    -0.043 SA
ENDBRANCH  17  19
ENDBRANCH  15  17
ENDBRANCH  13  15
ENDBRANCH   1  13
TORSDOF 8
ENDMDL
