MODEL 1
REMARK VINA RESULT: -7.494736161      0.000      0.000
REMARK  6 active torsions:
REMARK  status: ('A' for Active; 'I' for Inactive)
REMARK    1  A    between atoms: C4_4  and  C5_5 
REMARK    2  A    between atoms: C5_5  and  N1_6 
REMARK       I    between atoms: N1_6  and  C6_8 
REMARK       I    between atoms: C6_8  and  N3_12 
REMARK    3  A    between atoms: N3_12  and  N4_14 
REMARK       I    between atoms: N4_14  and  C7_16 
REMARK    4  A    between atoms: C7_16  and  C8_18 
REMARK    5  A    between atoms: C8_18  and  N5_19 
REMARK       I    between atoms: N5_19  and  C9_21 
REMARK    6  A    between atoms: C9_21  and  C10_23 
REMARK       I    between atoms: C10_23  and  N6_25 
ROOT
HETATM    1  C1  UNL     1     -11.893  24.921   7.171  1.00  0.00     0.027 C 
HETATM    2  C2  UNL     1     -11.090  25.821   6.994  1.00  0.00    -0.026 C 
HETATM    3  C3  UNL     1     -10.150  26.864   6.799  1.00  0.00    -0.014 C 
HETATM    4  C4  UNL     1      -9.353  27.757   6.618  1.00  0.00    -0.072 C 
ENDROOT
BRANCH   4   5
HETATM    5  C5  UNL     1      -8.379  28.835   6.388  1.00  0.00     0.233 C 
BRANCH   5   6
HETATM    6  N1  UNL     1      -7.408  28.811   7.468  1.00  0.00    -0.215 N 
HETATM    7  C6  UNL     1      -6.756  29.974   7.959  1.00  0.00     0.687 C 
HETATM    8  N2  UNL     1      -7.199  31.109   7.612  1.00  0.00    -0.234 N 
HETATM    9  N3  UNL     1      -5.650  29.812   8.813  1.00  0.00    -0.130 N 
ATOM     10  H22 UNL     1      -8.001  31.227   6.993  1.00  0.00     0.174 HD
ATOM     11  H21 UNL     1      -6.730  31.943   7.965  1.00  0.00     0.174 HD
ATOM     12  H3  UNL     1      -4.855  29.288   8.447  1.00  0.00     0.205 HD
ATOM     13  H1  UNL     1      -7.183  27.913   7.895  1.00  0.00     0.178 HD
BRANCH   9  14
HETATM   14  N4  UNL     1      -5.541  30.301  10.114  1.00  0.00    -0.254 N 
HETATM   15  C7  UNL     1      -5.449  29.383  11.190  1.00  0.00     0.254 C 
HETATM   16  O1  UNL     1      -5.468  28.158  10.959  1.00  0.00    -0.270 OA
ATOM     17  H4  UNL     1      -5.526  31.306  10.289  1.00  0.00     0.190 HD
BRANCH  15  18
HETATM   18  C8  UNL     1      -5.333  29.851  12.597  1.00  0.00     0.227 C 
BRANCH  18  19
HETATM   19  N5  UNL     1      -5.674  28.834  13.557  1.00  0.00    -0.344 N 
HETATM   20  C9  UNL     1      -5.855  29.142  14.915  1.00  0.00     0.309 C 
HETATM   21  O2  UNL     1      -5.734  30.311  15.337  1.00  0.00    -0.262 OA
ATOM     22  H5  UNL     1      -5.787  27.869  13.244  1.00  0.00     0.163 HD
BRANCH  20  23
HETATM   23  C10 UNL     1      -6.192  28.078  15.885  1.00  0.00     0.308 C 
HETATM   24  O3  UNL     1      -5.586  26.980  15.734  1.00  0.00    -0.262 OA
HETATM   25  N6  UNL     1      -7.136  28.327  16.894  1.00  0.00    -0.357 N 
HETATM   26  C11 UNL     1      -7.472  27.299  17.843  1.00  0.00     0.149 C 
ATOM     27  H6  UNL     1      -7.586  29.241  16.954  1.00  0.00     0.162 HD
ENDBRANCH  20  23
ENDBRANCH  18  19
ENDBRANCH  15  18
ENDBRANCH   9  14
ENDBRANCH   5   6
ENDBRANCH   4   5
TORSDOF 6
ENDMDL
MODEL 2
REMARK VINA RESULT: -7.447100303      3.055      4.276
REMARK  6 active torsions:
REMARK  status: ('A' for Active; 'I' for Inactive)
REMARK    1  A    between atoms: C4_4  and  C5_5 
REMARK    2  A    between atoms: C5_5  and  N1_6 
REMARK       I    between atoms: N1_6  and  C6_8 
REMARK       I    between atoms: C6_8  and  N3_12 
REMARK    3  A    between atoms: N3_12  and  N4_14 
REMARK       I    between atoms: N4_14  and  C7_16 
REMARK    4  A    between atoms: C7_16  and  C8_18 
REMARK    5  A    between atoms: C8_18  and  N5_19 
REMARK       I    between atoms: N5_19  and  C9_21 
REMARK    6  A    between atoms: C9_21  and  C10_23 
REMARK       I    between atoms: C10_23  and  N6_25 
ROOT
HETATM    1  C1  UNL     1     -10.098  36.226   6.189  1.00  0.00     0.027 C 
HETATM    2  C2  UNL     1      -9.294  35.315   6.291  1.00  0.00    -0.026 C 
HETATM    3  C3  UNL     1      -8.368  34.250   6.421  1.00  0.00    -0.014 C 
HETATM    4  C4  UNL     1      -7.569  33.345   6.518  1.00  0.00    -0.072 C 
ENDROOT
BRANCH   4   5
HETATM    5  C5  UNL     1      -6.602  32.241   6.625  1.00  0.00     0.233 C 
BRANCH   5   6
HETATM    6  N1  UNL     1      -6.881  31.508   7.847  1.00  0.00    -0.215 N 
HETATM    7  C6  UNL     1      -6.263  30.271   8.175  1.00  0.00     0.687 C 
HETATM    8  N2  UNL     1      -5.257  29.899   7.499  1.00  0.00    -0.234 N 
HETATM    9  N3  UNL     1      -6.792  29.519   9.238  1.00  0.00    -0.130 N 
ATOM     10  H22 UNL     1      -4.873  30.445   6.728  1.00  0.00     0.174 HD
ATOM     11  H21 UNL     1      -4.813  29.012   7.735  1.00  0.00     0.174 HD
ATOM     12  H3  UNL     1      -7.766  29.229   9.161  1.00  0.00     0.205 HD
ATOM     13  H1  UNL     1      -7.556  31.900   8.503  1.00  0.00     0.178 HD
BRANCH   9  14
HETATM   14  N4  UNL     1      -6.106  29.132  10.390  1.00  0.00    -0.254 N 
HETATM   15  C7  UNL     1      -5.657  30.129  11.292  1.00  0.00     0.254 C 
HETATM   16  O1  UNL     1      -5.881  31.331  11.046  1.00  0.00    -0.270 OA
ATOM     17  H4  UNL     1      -5.930  28.146  10.580  1.00  0.00     0.190 HD
BRANCH  15  18
HETATM   18  C8  UNL     1      -4.920  29.772  12.533  1.00  0.00     0.227 C 
BRANCH  18  19
HETATM   19  N5  UNL     1      -5.635  28.839  13.363  1.00  0.00    -0.344 N 
HETATM   20  C9  UNL     1      -6.046  29.182  14.662  1.00  0.00     0.309 C 
HETATM   21  O2  UNL     1      -5.814  30.313  15.139  1.00  0.00    -0.262 OA
ATOM     22  H5  UNL     1      -5.847  27.909  13.001  1.00  0.00     0.163 HD
BRANCH  20  23
HETATM   23  C10 UNL     1      -6.769  28.202  15.501  1.00  0.00     0.308 C 
HETATM   24  O3  UNL     1      -7.418  27.314  14.879  1.00  0.00    -0.262 OA
HETATM   25  N6  UNL     1      -6.702  28.299  16.900  1.00  0.00    -0.357 N 
HETATM   26  C11 UNL     1      -7.401  27.350  17.726  1.00  0.00     0.149 C 
ATOM     27  H6  UNL     1      -6.156  29.044  17.332  1.00  0.00     0.162 HD
ENDBRANCH  20  23
ENDBRANCH  18  19
ENDBRANCH  15  18
ENDBRANCH   9  14
ENDBRANCH   5   6
ENDBRANCH   4   5
TORSDOF 6
ENDMDL
MODEL 3
REMARK VINA RESULT: -7.440178743      2.971      4.748
REMARK  6 active torsions:
REMARK  status: ('A' for Active; 'I' for Inactive)
REMARK    1  A    between atoms: C4_4  and  C5_5 
REMARK    2  A    between atoms: C5_5  and  N1_6 
REMARK       I    between atoms: N1_6  and  C6_8 
REMARK       I    between atoms: C6_8  and  N3_12 
REMARK    3  A    between atoms: N3_12  and  N4_14 
REMARK       I    between atoms: N4_14  and  C7_16 
REMARK    4  A    between atoms: C7_16  and  C8_18 
REMARK    5  A    between atoms: C8_18  and  N5_19 
REMARK       I    between atoms: N5_19  and  C9_21 
REMARK    6  A    between atoms: C9_21  and  C10_23 
REMARK       I    between atoms: C10_23  and  N6_25 
ROOT
HETATM    1  C1  UNL     1      -6.036  37.015   7.850  1.00  0.00     0.027 C 
HETATM    2  C2  UNL     1      -6.284  35.854   7.575  1.00  0.00    -0.026 C 
HETATM    3  C3  UNL     1      -6.570  34.506   7.242  1.00  0.00    -0.014 C 
HETATM    4  C4  UNL     1      -6.813  33.351   6.972  1.00  0.00    -0.072 C 
ENDROOT
BRANCH   4   5
HETATM    5  C5  UNL     1      -7.099  31.944   6.651  1.00  0.00     0.233 C 
BRANCH   5   6
HETATM    6  N1  UNL     1      -7.137  31.192   7.892  1.00  0.00    -0.215 N 
HETATM    7  C6  UNL     1      -6.247  30.124   8.187  1.00  0.00     0.687 C 
HETATM    8  N2  UNL     1      -5.229  29.963   7.450  1.00  0.00    -0.234 N 
HETATM    9  N3  UNL     1      -6.535  29.296   9.286  1.00  0.00    -0.130 N 
ATOM     10  H22 UNL     1      -5.020  30.564   6.653  1.00  0.00     0.174 HD
ATOM     11  H21 UNL     1      -4.590  29.197   7.662  1.00  0.00     0.174 HD
ATOM     12  H3  UNL     1      -7.427  28.801   9.273  1.00  0.00     0.205 HD
ATOM     13  H1  UNL     1      -7.839  31.442   8.589  1.00  0.00     0.178 HD
BRANCH   9  14
HETATM   14  N4  UNL     1      -5.712  29.087  10.393  1.00  0.00    -0.254 N 
HETATM   15  C7  UNL     1      -5.704  30.048  11.436  1.00  0.00     0.254 C 
HETATM   16  O1  UNL     1      -6.429  31.059  11.349  1.00  0.00    -0.270 OA
ATOM     17  H4  UNL     1      -5.125  28.256  10.452  1.00  0.00     0.190 HD
BRANCH  15  18
HETATM   18  C8  UNL     1      -4.845  29.877  12.637  1.00  0.00     0.227 C 
BRANCH  18  19
HETATM   19  N5  UNL     1      -5.343  28.879  13.547  1.00  0.00    -0.344 N 
HETATM   20  C9  UNL     1      -5.746  29.214  14.850  1.00  0.00     0.309 C 
HETATM   21  O2  UNL     1      -5.696  30.392  15.263  1.00  0.00    -0.262 OA
ATOM     22  H5  UNL     1      -5.404  27.908  13.239  1.00  0.00     0.163 HD
BRANCH  20  23
HETATM   23  C10 UNL     1      -6.243  28.170  15.771  1.00  0.00     0.308 C 
HETATM   24  O3  UNL     1      -5.737  27.020  15.628  1.00  0.00    -0.262 OA
HETATM   25  N6  UNL     1      -7.218  28.490  16.729  1.00  0.00    -0.357 N 
HETATM   26  C11 UNL     1      -7.708  27.481  17.631  1.00  0.00     0.149 C 
ATOM     27  H6  UNL     1      -7.580  29.442  16.786  1.00  0.00     0.162 HD
ENDBRANCH  20  23
ENDBRANCH  18  19
ENDBRANCH  15  18
ENDBRANCH   9  14
ENDBRANCH   5   6
ENDBRANCH   4   5
TORSDOF 6
ENDMDL
MODEL 4
REMARK VINA RESULT: -7.310525362      4.077      4.562
REMARK  6 active torsions:
REMARK  status: ('A' for Active; 'I' for Inactive)
REMARK    1  A    between atoms: C4_4  and  C5_5 
REMARK    2  A    between atoms: C5_5  and  N1_6 
REMARK       I    between atoms: N1_6  and  C6_8 
REMARK       I    between atoms: C6_8  and  N3_12 
REMARK    3  A    between atoms: N3_12  and  N4_14 
REMARK       I    between atoms: N4_14  and  C7_16 
REMARK    4  A    between atoms: C7_16  and  C8_18 
REMARK    5  A    between atoms: C8_18  and  N5_19 
REMARK       I    between atoms: N5_19  and  C9_21 
REMARK    6  A    between atoms: C9_21  and  C10_23 
REMARK       I    between atoms: C10_23  and  N6_25 
ROOT
HETATM    1  C1  UNL     1     -11.068  34.888   5.075  1.00  0.00     0.027 C 
HETATM    2  C2  UNL     1     -10.012  34.882   5.683  1.00  0.00    -0.026 C 
HETATM    3  C3  UNL     1      -8.785  34.889   6.394  1.00  0.00    -0.014 C 
HETATM    4  C4  UNL     1      -7.738  34.879   7.001  1.00  0.00    -0.072 C 
ENDROOT
BRANCH   4   5
HETATM    5  C5  UNL     1      -6.469  34.859   7.746  1.00  0.00     0.233 C 
BRANCH   5   6
HETATM    6  N1  UNL     1      -6.495  33.731   8.660  1.00  0.00    -0.215 N 
HETATM    7  C6  UNL     1      -5.437  32.789   8.769  1.00  0.00     0.687 C 
HETATM    8  N2  UNL     1      -4.325  33.063   8.227  1.00  0.00    -0.234 N 
HETATM    9  N3  UNL     1      -5.670  31.599   9.480  1.00  0.00    -0.130 N 
ATOM     10  H22 UNL     1      -4.155  33.926   7.711  1.00  0.00     0.174 HD
ATOM     11  H21 UNL     1      -3.565  32.387   8.306  1.00  0.00     0.174 HD
ATOM     12  H3  UNL     1      -6.423  30.999   9.145  1.00  0.00     0.205 HD
ATOM     13  H1  UNL     1      -7.315  33.607   9.253  1.00  0.00     0.178 HD
BRANCH   9  14
HETATM   14  N4  UNL     1      -4.965  31.162  10.602  1.00  0.00    -0.254 N 
HETATM   15  C7  UNL     1      -5.581  30.243  11.488  1.00  0.00     0.254 C 
HETATM   16  O1  UNL     1      -6.738  29.840  11.253  1.00  0.00    -0.270 OA
ATOM     17  H4  UNL     1      -4.020  31.498  10.782  1.00  0.00     0.190 HD
BRANCH  15  18
HETATM   18  C8  UNL     1      -4.877  29.747  12.700  1.00  0.00     0.227 C 
BRANCH  18  19
HETATM   19  N5  UNL     1      -5.675  28.839  13.481  1.00  0.00    -0.344 N 
HETATM   20  C9  UNL     1      -6.068  29.155  14.792  1.00  0.00     0.309 C 
HETATM   21  O2  UNL     1      -5.747  30.239  15.323  1.00  0.00    -0.262 OA
ATOM     22  H5  UNL     1      -5.960  27.948  13.075  1.00  0.00     0.163 HD
BRANCH  20  23
HETATM   23  C10 UNL     1      -6.877  28.201  15.580  1.00  0.00     0.308 C 
HETATM   24  O3  UNL     1      -7.532  27.349  14.915  1.00  0.00    -0.262 OA
HETATM   25  N6  UNL     1      -6.880  28.281  16.982  1.00  0.00    -0.357 N 
HETATM   26  C11 UNL     1      -7.664  27.357  17.759  1.00  0.00     0.149 C 
ATOM     27  H6  UNL     1      -6.325  28.996  17.452  1.00  0.00     0.162 HD
ENDBRANCH  20  23
ENDBRANCH  18  19
ENDBRANCH  15  18
ENDBRANCH   9  14
ENDBRANCH   5   6
ENDBRANCH   4   5
TORSDOF 6
ENDMDL
MODEL 5
REMARK VINA RESULT: -7.308518814      2.127      2.359
REMARK  6 active torsions:
REMARK  status: ('A' for Active; 'I' for Inactive)
REMARK    1  A    between atoms: C4_4  and  C5_5 
REMARK    2  A    between atoms: C5_5  and  N1_6 
REMARK       I    between atoms: N1_6  and  C6_8 
REMARK       I    between atoms: C6_8  and  N3_12 
REMARK    3  A    between atoms: N3_12  and  N4_14 
REMARK       I    between atoms: N4_14  and  C7_16 
REMARK    4  A    between atoms: C7_16  and  C8_18 
REMARK    5  A    between atoms: C8_18  and  N5_19 
REMARK       I    between atoms: N5_19  and  C9_21 
REMARK    6  A    between atoms: C9_21  and  C10_23 
REMARK       I    between atoms: C10_23  and  N6_25 
ROOT
HETATM    1  C1  UNL     1      -7.938  23.378   4.141  1.00  0.00     0.027 C 
HETATM    2  C2  UNL     1      -8.361  24.121   5.009  1.00  0.00    -0.026 C 
HETATM    3  C3  UNL     1      -8.849  24.975   6.029  1.00  0.00    -0.014 C 
HETATM    4  C4  UNL     1      -9.268  25.717   6.890  1.00  0.00    -0.072 C 
ENDROOT
BRANCH   4   5
HETATM    5  C5  UNL     1      -9.767  26.626   7.933  1.00  0.00     0.233 C 
BRANCH   5   6
HETATM    6  N1  UNL     1      -8.630  27.302   8.532  1.00  0.00    -0.215 N 
HETATM    7  C6  UNL     1      -8.752  28.286   9.549  1.00  0.00     0.687 C 
HETATM    8  N2  UNL     1      -9.870  28.422  10.130  1.00  0.00    -0.234 N 
HETATM    9  N3  UNL     1      -7.624  29.063   9.869  1.00  0.00    -0.130 N 
ATOM     10  H22 UNL     1     -10.688  27.859   9.898  1.00  0.00     0.174 HD
ATOM     11  H21 UNL     1      -9.957  29.128  10.860  1.00  0.00     0.174 HD
ATOM     12  H3  UNL     1      -7.214  29.616   9.117  1.00  0.00     0.205 HD
ATOM     13  H1  UNL     1      -7.695  27.057   8.206  1.00  0.00     0.178 HD
BRANCH   9  14
HETATM   14  N4  UNL     1      -7.014  29.146  11.121  1.00  0.00    -0.254 N 
HETATM   15  C7  UNL     1      -5.745  29.770  11.229  1.00  0.00     0.254 C 
HETATM   16  O1  UNL     1      -5.197  30.233  10.209  1.00  0.00    -0.270 OA
ATOM     17  H4  UNL     1      -7.473  28.763  11.946  1.00  0.00     0.190 HD
BRANCH  15  18
HETATM   18  C8  UNL     1      -5.049  29.883  12.538  1.00  0.00     0.227 C 
BRANCH  18  19
HETATM   19  N5  UNL     1      -5.465  28.881  13.483  1.00  0.00    -0.344 N 
HETATM   20  C9  UNL     1      -5.783  29.215  14.810  1.00  0.00     0.309 C 
HETATM   21  O2  UNL     1      -5.724  30.396  15.214  1.00  0.00    -0.262 OA
ATOM     22  H5  UNL     1      -5.530  27.908  13.184  1.00  0.00     0.163 HD
BRANCH  20  23
HETATM   23  C10 UNL     1      -6.195  28.167  15.767  1.00  0.00     0.308 C 
HETATM   24  O3  UNL     1      -5.642  27.040  15.626  1.00  0.00    -0.262 OA
HETATM   25  N6  UNL     1      -7.149  28.460  16.755  1.00  0.00    -0.357 N 
HETATM   26  C11 UNL     1      -7.557  27.448  17.692  1.00  0.00     0.149 C 
ATOM     27  H6  UNL     1      -7.553  29.396  16.810  1.00  0.00     0.162 HD
ENDBRANCH  20  23
ENDBRANCH  18  19
ENDBRANCH  15  18
ENDBRANCH   9  14
ENDBRANCH   5   6
ENDBRANCH   4   5
TORSDOF 6
ENDMDL
