MODEL 1
REMARK VINA RESULT: -7.725283247      0.000      0.000
REMARK  6 active torsions:
REMARK  status: ('A' for Active; 'I' for Inactive)
REMARK    1  A    between atoms: N2_5  and  S1_7 
REMARK    2  A    between atoms: S1_7  and  N3_10 
REMARK    3  A    between atoms: N3_10  and  N4_12 
REMARK    4  A    between atoms: N4_12  and  C4_14 
REMARK    5  A    between atoms: C4_14  and  N5_16 
REMARK    6  A    between atoms: N5_16  and  N6_18 
ROOT
HETATM    1  C1  UNL     1      -6.423  30.333   9.093  1.00  0.00     0.020 C 
HETATM    2  C2  UNL     1      -5.949  30.809  10.094  1.00  0.00    -0.044 C 
HETATM    3  C3  UNL     1      -5.372  31.392  11.271  1.00  0.00     0.180 C 
HETATM    4  N1  UNL     1      -4.815  32.690  11.227  1.00  0.00    -0.072 NA
HETATM    5  N2  UNL     1      -5.366  30.734  12.355  1.00  0.00    -0.247 N 
ATOM      6  H2  UNL     1      -4.951  31.169  13.180  1.00  0.00     0.182 HD
ENDROOT
BRANCH   5   7
HETATM    7  S1  UNL     1      -6.018  29.148  12.512  1.00  0.00     0.338 S 
HETATM    8  O1  UNL     1      -7.501  29.221  12.263  1.00  0.00    -0.181 OA
HETATM    9  O2  UNL     1      -5.373  28.252  11.476  1.00  0.00    -0.181 OA
BRANCH   7  10
HETATM   10  N3  UNL     1      -5.720  28.549  14.036  1.00  0.00    -0.207 N 
ATOM     11  H3  UNL     1      -5.331  27.614  14.159  1.00  0.00     0.201 HD
BRANCH  10  12
HETATM   12  N4  UNL     1      -6.005  29.325  15.109  1.00  0.00    -0.264 N 
ATOM     13  H4  UNL     1      -5.407  30.123  15.321  1.00  0.00     0.190 HD
BRANCH  12  14
HETATM   14  C4  UNL     1      -7.119  29.049  15.946  1.00  0.00     0.206 C 
HETATM   15  S2  UNL     1      -8.585  29.671  15.588  1.00  0.00    -0.038 SA
BRANCH  14  16
HETATM   16  N5  UNL     1      -6.986  28.233  17.101  1.00  0.00    -0.273 N 
ATOM     17  H5  UNL     1      -6.432  28.589  17.880  1.00  0.00     0.189 HD
BRANCH  16  18
HETATM   18  N6  UNL     1      -7.564  26.987  17.231  1.00  0.00    -0.274 N 
HETATM   19  C5  UNL     1      -6.968  25.967  16.721  1.00  0.00     0.215 C 
HETATM   20  N7  UNL     1      -5.736  26.094  16.030  1.00  0.00    -0.065 NA
HETATM   21  N8  UNL     1      -7.548  24.683  16.846  1.00  0.00    -0.065 NA
ATOM     22  H6  UNL     1      -8.450  26.876  17.723  1.00  0.00     0.189 HD
ENDBRANCH  16  18
ENDBRANCH  14  16
ENDBRANCH  12  14
ENDBRANCH  10  12
ENDBRANCH   7  10
ENDBRANCH   5   7
TORSDOF 6
ENDMDL
MODEL 2
REMARK VINA RESULT: -7.412916408      1.930      2.722
REMARK  6 active torsions:
REMARK  status: ('A' for Active; 'I' for Inactive)
REMARK    1  A    between atoms: N2_5  and  S1_7 
REMARK    2  A    between atoms: S1_7  and  N3_10 
REMARK    3  A    between atoms: N3_10  and  N4_12 
REMARK    4  A    between atoms: N4_12  and  C4_14 
REMARK    5  A    between atoms: C4_14  and  N5_16 
REMARK    6  A    between atoms: N5_16  and  N6_18 
ROOT
HETATM    1  C1  UNL     1      -7.852  28.826   9.451  1.00  0.00     0.020 C 
HETATM    2  C2  UNL     1      -8.094  28.248  10.482  1.00  0.00    -0.044 C 
HETATM    3  C3  UNL     1      -8.405  27.557  11.699  1.00  0.00     0.180 C 
HETATM    4  N1  UNL     1      -9.497  26.660  11.754  1.00  0.00    -0.072 NA
HETATM    5  N2  UNL     1      -7.694  27.755  12.730  1.00  0.00    -0.247 N 
ATOM      6  H2  UNL     1      -7.933  27.251  13.584  1.00  0.00     0.182 HD
ENDROOT
BRANCH   5   7
HETATM    7  S1  UNL     1      -6.346  28.826  12.766  1.00  0.00     0.338 S 
HETATM    8  O1  UNL     1      -5.379  28.405  11.691  1.00  0.00    -0.181 OA
HETATM    9  O2  UNL     1      -6.833  30.231  12.488  1.00  0.00    -0.181 OA
BRANCH   7  10
HETATM   10  N3  UNL     1      -5.605  28.773  14.256  1.00  0.00    -0.207 N 
ATOM     11  H3  UNL     1      -4.793  28.176  14.411  1.00  0.00     0.201 HD
BRANCH  10  12
HETATM   12  N4  UNL     1      -6.101  29.537  15.258  1.00  0.00    -0.264 N 
ATOM     13  H4  UNL     1      -5.662  30.434  15.467  1.00  0.00     0.190 HD
BRANCH  12  14
HETATM   14  C4  UNL     1      -7.219  29.114  16.025  1.00  0.00     0.206 C 
HETATM   15  S2  UNL     1      -8.722  29.603  15.619  1.00  0.00    -0.038 SA
BRANCH  14  16
HETATM   16  N5  UNL     1      -7.058  28.265  17.152  1.00  0.00    -0.273 N 
ATOM     17  H5  UNL     1      -6.507  28.609  17.939  1.00  0.00     0.189 HD
BRANCH  16  18
HETATM   18  N6  UNL     1      -7.604  27.002  17.245  1.00  0.00    -0.274 N 
HETATM   19  C5  UNL     1      -6.970  26.008  16.729  1.00  0.00     0.215 C 
HETATM   20  N7  UNL     1      -5.726  26.182  16.069  1.00  0.00    -0.065 NA
HETATM   21  N8  UNL     1      -7.517  24.706  16.816  1.00  0.00    -0.065 NA
ATOM     22  H6  UNL     1      -8.498  26.857  17.714  1.00  0.00     0.189 HD
ENDBRANCH  16  18
ENDBRANCH  14  16
ENDBRANCH  12  14
ENDBRANCH  10  12
ENDBRANCH   7  10
ENDBRANCH   5   7
TORSDOF 6
ENDMDL
MODEL 3
REMARK VINA RESULT: -7.403565071      2.559      2.820
REMARK  6 active torsions:
REMARK  status: ('A' for Active; 'I' for Inactive)
REMARK    1  A    between atoms: N2_5  and  S1_7 
REMARK    2  A    between atoms: S1_7  and  N3_10 
REMARK    3  A    between atoms: N3_10  and  N4_12 
REMARK    4  A    between atoms: N4_12  and  C4_14 
REMARK    5  A    between atoms: C4_14  and  N5_16 
REMARK    6  A    between atoms: N5_16  and  N6_18 
ROOT
HETATM    1  C1  UNL     1      -5.656  28.821  11.749  1.00  0.00     0.020 C 
HETATM    2  C2  UNL     1      -6.697  28.796  11.140  1.00  0.00    -0.044 C 
HETATM    3  C3  UNL     1      -7.924  28.780  10.398  1.00  0.00     0.180 C 
HETATM    4  N1  UNL     1      -7.930  29.091   9.018  1.00  0.00    -0.072 NA
HETATM    5  N2  UNL     1      -9.007  28.484  10.987  1.00  0.00    -0.247 N 
ATOM      6  H2  UNL     1      -9.867  28.478  10.439  1.00  0.00     0.182 HD
ENDROOT
BRANCH   5   7
HETATM    7  S1  UNL     1      -9.104  28.091  12.661  1.00  0.00     0.338 S 
HETATM    8  O1  UNL     1     -10.536  27.756  12.984  1.00  0.00    -0.181 OA
HETATM    9  O2  UNL     1      -8.228  26.888  12.931  1.00  0.00    -0.181 OA
BRANCH   7  10
HETATM   10  N3  UNL     1      -8.593  29.377  13.587  1.00  0.00    -0.207 N 
ATOM     11  H3  UNL     1      -8.318  30.255  13.148  1.00  0.00     0.201 HD
BRANCH  10  12
HETATM   12  N4  UNL     1      -8.551  29.235  14.933  1.00  0.00    -0.264 N 
ATOM     13  H4  UNL     1      -9.423  29.162  15.456  1.00  0.00     0.190 HD
BRANCH  12  14
HETATM   14  C4  UNL     1      -7.314  29.186  15.632  1.00  0.00     0.206 C 
HETATM   15  S2  UNL     1      -6.038  30.051  15.098  1.00  0.00    -0.038 SA
BRANCH  14  16
HETATM   16  N5  UNL     1      -7.161  28.392  16.799  1.00  0.00    -0.273 N 
ATOM     17  H5  UNL     1      -6.633  28.781  17.580  1.00  0.00     0.189 HD
BRANCH  16  18
HETATM   18  N6  UNL     1      -7.686  27.123  16.937  1.00  0.00    -0.274 N 
HETATM   19  C5  UNL     1      -6.943  26.108  16.669  1.00  0.00     0.215 C 
HETATM   20  N7  UNL     1      -5.602  26.261  16.235  1.00  0.00    -0.065 NA
HETATM   21  N8  UNL     1      -7.467  24.801  16.807  1.00  0.00    -0.065 NA
ATOM     22  H6  UNL     1      -8.649  26.993  17.247  1.00  0.00     0.189 HD
ENDBRANCH  16  18
ENDBRANCH  14  16
ENDBRANCH  12  14
ENDBRANCH  10  12
ENDBRANCH   7  10
ENDBRANCH   5   7
TORSDOF 6
ENDMDL
MODEL 4
REMARK VINA RESULT: -7.365719985      1.409      1.777
REMARK  6 active torsions:
REMARK  status: ('A' for Active; 'I' for Inactive)
REMARK    1  A    between atoms: N2_5  and  S1_7 
REMARK    2  A    between atoms: S1_7  and  N3_10 
REMARK    3  A    between atoms: N3_10  and  N4_12 
REMARK    4  A    between atoms: N4_12  and  C4_14 
REMARK    5  A    between atoms: C4_14  and  N5_16 
REMARK    6  A    between atoms: N5_16  and  N6_18 
ROOT
HETATM    1  C1  UNL     1      -5.351  32.390  12.245  1.00  0.00     0.020 C 
HETATM    2  C2  UNL     1      -5.406  31.585  11.348  1.00  0.00    -0.044 C 
HETATM    3  C3  UNL     1      -5.468  30.646  10.266  1.00  0.00     0.180 C 
HETATM    4  N1  UNL     1      -4.968  30.991   8.989  1.00  0.00    -0.072 NA
HETATM    5  N2  UNL     1      -5.975  29.500  10.461  1.00  0.00    -0.247 N 
ATOM      6  H2  UNL     1      -6.008  28.848   9.677  1.00  0.00     0.182 HD
ENDROOT
BRANCH   5   7
HETATM    7  S1  UNL     1      -6.611  28.985  11.976  1.00  0.00     0.338 S 
HETATM    8  O1  UNL     1      -7.583  30.028  12.460  1.00  0.00    -0.181 OA
HETATM    9  O2  UNL     1      -7.333  27.670  11.780  1.00  0.00    -0.181 OA
BRANCH   7  10
HETATM   10  N3  UNL     1      -5.382  28.790  13.083  1.00  0.00    -0.207 N 
ATOM     11  H3  UNL     1      -4.496  28.367  12.805  1.00  0.00     0.201 HD
BRANCH  10  12
HETATM   12  N4  UNL     1      -5.580  29.203  14.357  1.00  0.00    -0.264 N 
ATOM     13  H4  UNL     1      -5.119  30.052  14.684  1.00  0.00     0.190 HD
BRANCH  12  14
HETATM   14  C4  UNL     1      -6.416  28.477  15.247  1.00  0.00     0.206 C 
HETATM   15  S2  UNL     1      -7.741  29.183  15.885  1.00  0.00    -0.038 SA
BRANCH  14  16
HETATM   16  N5  UNL     1      -6.122  27.133  15.600  1.00  0.00    -0.273 N 
ATOM     17  H5  UNL     1      -5.145  26.877  15.747  1.00  0.00     0.189 HD
BRANCH  16  18
HETATM   18  N6  UNL     1      -7.081  26.153  15.754  1.00  0.00    -0.274 N 
HETATM   19  C5  UNL     1      -6.946  25.291  16.700  1.00  0.00     0.215 C 
HETATM   20  N7  UNL     1      -5.836  25.324  17.584  1.00  0.00    -0.065 NA
HETATM   21  N8  UNL     1      -7.921  24.281  16.871  1.00  0.00    -0.065 NA
ATOM     22  H6  UNL     1      -7.885  26.112  15.128  1.00  0.00     0.189 HD
ENDBRANCH  16  18
ENDBRANCH  14  16
ENDBRANCH  12  14
ENDBRANCH  10  12
ENDBRANCH   7  10
ENDBRANCH   5   7
TORSDOF 6
ENDMDL
MODEL 5
REMARK VINA RESULT: -7.307996729      1.741      2.129
REMARK  6 active torsions:
REMARK  status: ('A' for Active; 'I' for Inactive)
REMARK    1  A    between atoms: N2_5  and  S1_7 
REMARK    2  A    between atoms: S1_7  and  N3_10 
REMARK    3  A    between atoms: N3_10  and  N4_12 
REMARK    4  A    between atoms: N4_12  and  C4_14 
REMARK    5  A    between atoms: C4_14  and  N5_16 
REMARK    6  A    between atoms: N5_16  and  N6_18 
ROOT
HETATM    1  C1  UNL     1      -4.968  31.475  10.673  1.00  0.00     0.020 C 
HETATM    2  C2  UNL     1      -5.790  30.713  10.227  1.00  0.00    -0.044 C 
HETATM    3  C3  UNL     1      -6.771  29.822   9.678  1.00  0.00     0.180 C 
HETATM    4  N1  UNL     1      -7.101  29.881   8.304  1.00  0.00    -0.072 NA
HETATM    5  N2  UNL     1      -7.342  28.979  10.432  1.00  0.00    -0.247 N 
ATOM      6  H2  UNL     1      -8.035  28.355  10.020  1.00  0.00     0.182 HD
ENDROOT
BRANCH   5   7
HETATM    7  S1  UNL     1      -7.011  28.829  12.116  1.00  0.00     0.338 S 
HETATM    8  O1  UNL     1      -7.845  27.701  12.662  1.00  0.00    -0.181 OA
HETATM    9  O2  UNL     1      -5.543  28.507  12.297  1.00  0.00    -0.181 OA
BRANCH   7  10
HETATM   10  N3  UNL     1      -7.377  30.248  12.906  1.00  0.00    -0.207 N 
ATOM     11  H3  UNL     1      -8.015  30.924  12.488  1.00  0.00     0.201 HD
BRANCH  10  12
HETATM   12  N4  UNL     1      -6.811  30.487  14.113  1.00  0.00    -0.264 N 
ATOM     13  H4  UNL     1      -6.198  31.294  14.226  1.00  0.00     0.190 HD
BRANCH  12  14
HETATM   14  C4  UNL     1      -7.054  29.636  15.224  1.00  0.00     0.206 C 
HETATM   15  S2  UNL     1      -8.484  29.699  16.007  1.00  0.00    -0.038 SA
BRANCH  14  16
HETATM   16  N5  UNL     1      -6.068  28.719  15.676  1.00  0.00    -0.273 N 
ATOM     17  H5  UNL     1      -5.310  29.076  16.258  1.00  0.00     0.189 HD
BRANCH  16  18
HETATM   18  N6  UNL     1      -6.076  27.373  15.373  1.00  0.00    -0.274 N 
HETATM   19  C5  UNL     1      -6.321  26.524  16.309  1.00  0.00     0.215 C 
HETATM   20  N7  UNL     1      -6.580  26.939  17.640  1.00  0.00    -0.065 NA
HETATM   21  N8  UNL     1      -6.333  25.141  16.013  1.00  0.00    -0.065 NA
ATOM     22  H6  UNL     1      -5.891  27.055  14.422  1.00  0.00     0.189 HD
ENDBRANCH  16  18
ENDBRANCH  14  16
ENDBRANCH  12  14
ENDBRANCH  10  12
ENDBRANCH   7  10
ENDBRANCH   5   7
TORSDOF 6
ENDMDL
