MODEL 1
REMARK VINA RESULT: -8.105698547      0.000      0.000
REMARK  6 active torsions:
REMARK  status: ('A' for Active; 'I' for Inactive)
REMARK       I    between atoms: N1_2  and  C3_4 
REMARK       I    between atoms: C3_4  and  N2_6 
REMARK    1  A    between atoms: N2_6  and  N3_8 
REMARK    2  A    between atoms: N3_8  and  C4_10 
REMARK    3  A    between atoms: C4_10  and  N4_12 
REMARK    4  A    between atoms: N4_12  and  N5_14 
REMARK       I    between atoms: N5_14  and  C5_16 
REMARK    5  A    between atoms: C5_16  and  C6_18 
REMARK    6  A    between atoms: C6_18  and  N6_19 
REMARK       I    between atoms: N6_19  and  C7_21 
ROOT
HETATM    1  N4  UNL     1      -5.162  29.345  12.849  1.00  0.00    -0.272 N 
ATOM      2  H4  UNL     1      -4.409  29.993  13.081  1.00  0.00     0.189 HD
ENDROOT
BRANCH   1   3
HETATM    3  C4  UNL     1      -5.604  29.166  11.485  1.00  0.00     0.205 C 
HETATM    4  S1  UNL     1      -5.590  30.410  10.446  1.00  0.00    -0.038 SA
BRANCH   3   5
HETATM    5  N3  UNL     1      -6.057  27.898  11.069  1.00  0.00    -0.271 N 
ATOM      6  H3  UNL     1      -5.466  27.071  11.158  1.00  0.00     0.189 HD
BRANCH   5   7
HETATM    7  N2  UNL     1      -7.351  27.812  10.527  1.00  0.00    -0.249 N 
HETATM    8  C3  UNL     1      -8.402  27.396  11.384  1.00  0.00     0.336 C 
HETATM    9  N1  UNL     1      -9.708  27.304  10.847  1.00  0.00    -0.342 N 
HETATM   10  O1  UNL     1      -8.152  27.120  12.593  1.00  0.00    -0.245 OA
HETATM   11  C1  UNL     1     -10.790  26.879  11.699  1.00  0.00     0.154 C 
HETATM   12  C2  UNL     1      -9.957  27.632   9.461  1.00  0.00     0.154 C 
ATOM     13  H2  UNL     1      -7.529  28.043   9.549  1.00  0.00     0.192 HD
ENDBRANCH   5   7
ENDBRANCH   3   5
ENDBRANCH   1   3
BRANCH   1  14
HETATM   14  N5  UNL     1      -5.800  28.598  13.836  1.00  0.00    -0.263 N 
HETATM   15  C5  UNL     1      -6.074  29.159  15.107  1.00  0.00     0.275 C 
HETATM   16  O2  UNL     1      -5.719  30.338  15.305  1.00  0.00    -0.265 OA
ATOM     17  H5  UNL     1      -6.073  27.635  13.641  1.00  0.00     0.190 HD
BRANCH  15  18
HETATM   18  C6  UNL     1      -6.763  28.364  16.169  1.00  0.00     0.166 C 
BRANCH  18  19
HETATM   19  N6  UNL     1      -6.840  27.023  16.026  1.00  0.00    -0.338 N 
HETATM   20  C7  UNL     1      -6.677  25.875  16.360  1.00  0.00     0.201 C 
HETATM   21  N7  UNL     1      -7.125  24.803  15.472  1.00  0.00    -0.067 NA
HETATM   22  N8  UNL     1      -6.080  25.393  17.550  1.00  0.00    -0.067 NA
ATOM     23  H6  UNL     1      -7.296  26.925  15.119  1.00  0.00     0.167 HD
ENDBRANCH  18  19
ENDBRANCH  15  18
ENDBRANCH   1  14
TORSDOF 6
ENDMDL
MODEL 2
REMARK VINA RESULT: -7.557248800      1.958      5.123
REMARK  6 active torsions:
REMARK  status: ('A' for Active; 'I' for Inactive)
REMARK       I    between atoms: N1_2  and  C3_4 
REMARK       I    between atoms: C3_4  and  N2_6 
REMARK    1  A    between atoms: N2_6  and  N3_8 
REMARK    2  A    between atoms: N3_8  and  C4_10 
REMARK    3  A    between atoms: C4_10  and  N4_12 
REMARK    4  A    between atoms: N4_12  and  N5_14 
REMARK       I    between atoms: N5_14  and  C5_16 
REMARK    5  A    between atoms: C5_16  and  C6_18 
REMARK    6  A    between atoms: C6_18  and  N6_19 
REMARK       I    between atoms: N6_19  and  C7_21 
ROOT
HETATM    1  N4  UNL     1      -5.631  28.484  10.896  1.00  0.00    -0.272 N 
ATOM      2  H4  UNL     1      -4.868  28.347  10.232  1.00  0.00     0.189 HD
ENDROOT
BRANCH   1   3
HETATM    3  C4  UNL     1      -5.455  29.290  12.082  1.00  0.00     0.205 C 
HETATM    4  S1  UNL     1      -5.352  30.904  11.974  1.00  0.00    -0.038 SA
BRANCH   3   5
HETATM    5  N3  UNL     1      -5.367  28.655  13.338  1.00  0.00    -0.271 N 
ATOM      6  H3  UNL     1      -4.564  28.076  13.581  1.00  0.00     0.189 HD
BRANCH   5   7
HETATM    7  N2  UNL     1      -6.425  28.849  14.243  1.00  0.00    -0.249 N 
HETATM    8  C3  UNL     1      -6.445  28.058  15.420  1.00  0.00     0.336 C 
HETATM    9  N1  UNL     1      -7.507  28.244  16.336  1.00  0.00    -0.342 N 
HETATM   10  O1  UNL     1      -5.523  27.215  15.622  1.00  0.00    -0.245 OA
HETATM   11  C1  UNL     1      -7.548  27.447  17.536  1.00  0.00     0.154 C 
HETATM   12  C2  UNL     1      -8.541  29.221  16.073  1.00  0.00     0.154 C 
ATOM     13  H2  UNL     1      -7.155  29.538  14.059  1.00  0.00     0.192 HD
ENDBRANCH   5   7
ENDBRANCH   3   5
ENDBRANCH   1   3
BRANCH   1  14
HETATM   14  N5  UNL     1      -6.879  27.903  10.691  1.00  0.00    -0.263 N 
HETATM   15  C5  UNL     1      -7.817  28.488   9.806  1.00  0.00     0.275 C 
HETATM   16  O2  UNL     1      -7.481  29.540   9.225  1.00  0.00    -0.265 OA
ATOM     17  H5  UNL     1      -7.122  27.044  11.186  1.00  0.00     0.190 HD
BRANCH  15  18
HETATM   18  C6  UNL     1      -9.156  27.866   9.579  1.00  0.00     0.166 C 
BRANCH  18  19
HETATM   19  N6  UNL     1      -9.912  27.546  10.652  1.00  0.00    -0.338 N 
HETATM   20  C7  UNL     1     -10.139  27.409  11.829  1.00  0.00     0.201 C 
HETATM   21  N7  UNL     1     -11.451  26.918  12.250  1.00  0.00    -0.067 NA
HETATM   22  N8  UNL     1      -9.272  27.666  12.918  1.00  0.00    -0.067 NA
ATOM     23  H6  UNL     1     -10.789  27.253  10.223  1.00  0.00     0.167 HD
ENDBRANCH  18  19
ENDBRANCH  15  18
ENDBRANCH   1  14
TORSDOF 6
ENDMDL
MODEL 3
REMARK VINA RESULT: -7.495009619      3.053      4.559
REMARK  6 active torsions:
REMARK  status: ('A' for Active; 'I' for Inactive)
REMARK       I    between atoms: N1_2  and  C3_4 
REMARK       I    between atoms: C3_4  and  N2_6 
REMARK    1  A    between atoms: N2_6  and  N3_8 
REMARK    2  A    between atoms: N3_8  and  C4_10 
REMARK    3  A    between atoms: C4_10  and  N4_12 
REMARK    4  A    between atoms: N4_12  and  N5_14 
REMARK       I    between atoms: N5_14  and  C5_16 
REMARK    5  A    between atoms: C5_16  and  C6_18 
REMARK    6  A    between atoms: C6_18  and  N6_19 
REMARK       I    between atoms: N6_19  and  C7_21 
ROOT
HETATM    1  N4  UNL     1      -4.946  29.177  13.358  1.00  0.00    -0.272 N 
ATOM      2  H4  UNL     1      -3.968  29.353  13.589  1.00  0.00     0.189 HD
ENDROOT
BRANCH   1   3
HETATM    3  C4  UNL     1      -5.529  29.679  12.135  1.00  0.00     0.205 C 
HETATM    4  S1  UNL     1      -6.974  29.144  11.632  1.00  0.00    -0.038 SA
BRANCH   3   5
HETATM    5  N3  UNL     1      -4.823  30.636  11.378  1.00  0.00    -0.271 N 
ATOM      6  H3  UNL     1      -4.240  30.359  10.589  1.00  0.00     0.189 HD
BRANCH   5   7
HETATM    7  N2  UNL     1      -4.952  31.986  11.750  1.00  0.00    -0.249 N 
HETATM    8  C3  UNL     1      -5.473  32.891  10.789  1.00  0.00     0.336 C 
HETATM    9  N1  UNL     1      -5.605  34.252  11.152  1.00  0.00    -0.342 N 
HETATM   10  O1  UNL     1      -5.804  32.466   9.645  1.00  0.00    -0.245 OA
HETATM   11  C1  UNL     1      -6.128  35.189  10.190  1.00  0.00     0.154 C 
HETATM   12  C2  UNL     1      -5.219  34.700  12.472  1.00  0.00     0.154 C 
ATOM     13  H2  UNL     1      -4.681  32.304  12.680  1.00  0.00     0.192 HD
ENDBRANCH   5   7
ENDBRANCH   3   5
ENDBRANCH   1   3
BRANCH   1  14
HETATM   14  N5  UNL     1      -5.768  28.445  14.211  1.00  0.00    -0.263 N 
HETATM   15  C5  UNL     1      -6.245  29.007  15.420  1.00  0.00     0.275 C 
HETATM   16  O2  UNL     1      -5.896  30.174  15.690  1.00  0.00    -0.265 OA
ATOM     17  H5  UNL     1      -6.031  27.492  13.961  1.00  0.00     0.190 HD
BRANCH  15  18
HETATM   18  C6  UNL     1      -7.131  28.228  16.337  1.00  0.00     0.166 C 
BRANCH  18  19
HETATM   19  N6  UNL     1      -6.727  27.004  16.742  1.00  0.00    -0.338 N 
HETATM   20  C7  UNL     1      -6.551  25.816  16.629  1.00  0.00     0.201 C 
HETATM   21  N7  UNL     1      -5.942  25.076  17.734  1.00  0.00    -0.067 NA
HETATM   22  N8  UNL     1      -6.869  24.992  15.523  1.00  0.00    -0.067 NA
ATOM     23  H6  UNL     1      -6.363  27.192  17.676  1.00  0.00     0.167 HD
ENDBRANCH  18  19
ENDBRANCH  15  18
ENDBRANCH   1  14
TORSDOF 6
ENDMDL
MODEL 4
REMARK VINA RESULT: -7.461255420      1.456      1.589
REMARK  6 active torsions:
REMARK  status: ('A' for Active; 'I' for Inactive)
REMARK       I    between atoms: N1_2  and  C3_4 
REMARK       I    between atoms: C3_4  and  N2_6 
REMARK    1  A    between atoms: N2_6  and  N3_8 
REMARK    2  A    between atoms: N3_8  and  C4_10 
REMARK    3  A    between atoms: C4_10  and  N4_12 
REMARK    4  A    between atoms: N4_12  and  N5_14 
REMARK       I    between atoms: N5_14  and  C5_16 
REMARK    5  A    between atoms: C5_16  and  C6_18 
REMARK    6  A    between atoms: C6_18  and  N6_19 
REMARK       I    between atoms: N6_19  and  C7_21 
ROOT
HETATM    1  N4  UNL     1      -5.621  28.741  13.812  1.00  0.00    -0.272 N 
ATOM      2  H4  UNL     1      -4.822  29.376  13.800  1.00  0.00     0.189 HD
ENDROOT
BRANCH   1   3
HETATM    3  C4  UNL     1      -6.464  28.576  12.650  1.00  0.00     0.205 C 
HETATM    4  S1  UNL     1      -5.865  28.795  11.160  1.00  0.00    -0.038 SA
BRANCH   3   5
HETATM    5  N3  UNL     1      -7.819  28.229  12.827  1.00  0.00    -0.271 N 
ATOM      6  H3  UNL     1      -8.264  28.289  13.742  1.00  0.00     0.189 HD
BRANCH   5   7
HETATM    7  N2  UNL     1      -8.534  27.797  11.696  1.00  0.00    -0.249 N 
HETATM    8  C3  UNL     1      -9.924  27.556  11.844  1.00  0.00     0.336 C 
HETATM    9  N1  UNL     1     -10.653  27.119  10.713  1.00  0.00    -0.342 N 
HETATM   10  O1  UNL     1     -10.475  27.736  12.969  1.00  0.00    -0.245 OA
HETATM   11  C1  UNL     1     -12.065  26.864  10.841  1.00  0.00     0.154 C 
HETATM   12  C2  UNL     1      -9.990  26.928   9.441  1.00  0.00     0.154 C 
ATOM     13  H2  UNL     1      -8.069  27.662  10.798  1.00  0.00     0.192 HD
ENDBRANCH   5   7
ENDBRANCH   3   5
ENDBRANCH   1   3
BRANCH   1  14
HETATM   14  N5  UNL     1      -5.939  28.002  14.948  1.00  0.00    -0.263 N 
HETATM   15  C5  UNL     1      -6.771  28.544  15.958  1.00  0.00     0.275 C 
HETATM   16  O2  UNL     1      -7.200  29.703  15.790  1.00  0.00    -0.265 OA
ATOM     17  H5  UNL     1      -5.567  27.058  15.055  1.00  0.00     0.190 HD
BRANCH  15  18
HETATM   18  C6  UNL     1      -7.119  27.753  17.177  1.00  0.00     0.166 C 
BRANCH  18  19
HETATM   19  N6  UNL     1      -7.350  26.428  17.046  1.00  0.00    -0.338 N 
HETATM   20  C7  UNL     1      -7.142  25.318  16.623  1.00  0.00     0.201 C 
HETATM   21  N7  UNL     1      -8.014  24.220  17.043  1.00  0.00    -0.067 NA
HETATM   22  N8  UNL     1      -6.124  24.903  15.731  1.00  0.00    -0.067 NA
ATOM     23  H6  UNL     1      -8.162  26.287  17.647  1.00  0.00     0.167 HD
ENDBRANCH  18  19
ENDBRANCH  15  18
ENDBRANCH   1  14
TORSDOF 6
ENDMDL
MODEL 5
REMARK VINA RESULT: -7.419403877      2.453      3.526
REMARK  6 active torsions:
REMARK  status: ('A' for Active; 'I' for Inactive)
REMARK       I    between atoms: N1_2  and  C3_4 
REMARK       I    between atoms: C3_4  and  N2_6 
REMARK    1  A    between atoms: N2_6  and  N3_8 
REMARK    2  A    between atoms: N3_8  and  C4_10 
REMARK    3  A    between atoms: C4_10  and  N4_12 
REMARK    4  A    between atoms: N4_12  and  N5_14 
REMARK       I    between atoms: N5_14  and  C5_16 
REMARK    5  A    between atoms: C5_16  and  C6_18 
REMARK    6  A    between atoms: C6_18  and  N6_19 
REMARK       I    between atoms: N6_19  and  C7_21 
ROOT
HETATM    1  N4  UNL     1      -5.726  28.811  13.307  1.00  0.00    -0.272 N 
ATOM      2  H4  UNL     1      -4.905  29.411  13.385  1.00  0.00     0.189 HD
ENDROOT
BRANCH   1   3
HETATM    3  C4  UNL     1      -6.408  28.637  12.045  1.00  0.00     0.205 C 
HETATM    4  S1  UNL     1      -8.023  28.748  11.961  1.00  0.00    -0.038 SA
BRANCH   3   5
HETATM    5  N3  UNL     1      -5.654  28.361  10.887  1.00  0.00    -0.271 N 
ATOM      6  H3  UNL     1      -4.933  27.640  10.886  1.00  0.00     0.189 HD
BRANCH   5   7
HETATM    7  N2  UNL     1      -5.931  29.116   9.733  1.00  0.00    -0.249 N 
HETATM    8  C3  UNL     1      -5.355  30.408   9.633  1.00  0.00     0.336 C 
HETATM    9  N1  UNL     1      -5.629  31.177   8.477  1.00  0.00    -0.342 N 
HETATM   10  O1  UNL     1      -4.618  30.839  10.566  1.00  0.00    -0.245 OA
HETATM   11  C1  UNL     1      -5.058  32.494   8.356  1.00  0.00     0.154 C 
HETATM   12  C2  UNL     1      -6.474  30.649   7.428  1.00  0.00     0.154 C 
ATOM     13  H2  UNL     1      -6.526  28.746   8.992  1.00  0.00     0.192 HD
ENDBRANCH   5   7
ENDBRANCH   3   5
ENDBRANCH   1   3
BRANCH   1  14
HETATM   14  N5  UNL     1      -6.229  28.129  14.411  1.00  0.00    -0.263 N 
HETATM   15  C5  UNL     1      -6.760  28.833  15.519  1.00  0.00     0.275 C 
HETATM   16  O2  UNL     1      -6.754  30.080  15.466  1.00  0.00    -0.265 OA
ATOM     17  H5  UNL     1      -6.215  27.110  14.423  1.00  0.00     0.190 HD
BRANCH  15  18
HETATM   18  C6  UNL     1      -7.307  28.107  16.705  1.00  0.00     0.166 C 
BRANCH  18  19
HETATM   19  N6  UNL     1      -6.811  26.885  17.000  1.00  0.00    -0.338 N 
HETATM   20  C7  UNL     1      -6.536  25.732  16.776  1.00  0.00     0.201 C 
HETATM   21  N7  UNL     1      -5.891  24.936  17.821  1.00  0.00    -0.067 NA
HETATM   22  N8  UNL     1      -6.760  25.000  15.585  1.00  0.00    -0.067 NA
ATOM     23  H6  UNL     1      -6.484  27.006  17.959  1.00  0.00     0.167 HD
ENDBRANCH  18  19
ENDBRANCH  15  18
ENDBRANCH   1  14
TORSDOF 6
ENDMDL
