MODEL 1
REMARK VINA RESULT: -7.701831505      0.000      0.000
REMARK  11 active torsions:
REMARK  status: ('A' for Active; 'I' for Inactive)
REMARK    1  A    between atoms: C2_2  and  C4_4 
REMARK    2  A    between atoms: C4_4  and  N1_5 
REMARK    3  A    between atoms: C4_4  and  C11_28 
REMARK       I    between atoms: N1_5  and  C5_6 
REMARK    4  A    between atoms: C5_6  and  C6_8 
REMARK    5  A    between atoms: C6_8  and  N2_9 
REMARK    6  A    between atoms: C6_8  and  C7_13 
REMARK    7  A    between atoms: C7_13  and  C8_14 
REMARK    8  A    between atoms: C8_14  and  C9_15 
REMARK    9  A    between atoms: C9_15  and  N3_16 
REMARK       I    between atoms: N3_16  and  C10_19 
REMARK       I    between atoms: C10_19  and  N4_20 
REMARK       I    between atoms: C10_19  and  N5_24 
REMARK   10  A    between atoms: C11_28  and  C13_30 
REMARK   11  A    between atoms: C18_39  and  O3_40 
ROOT
HETATM    1  O3  UNL     1      -7.610 -25.370 -95.087  1.00  0.00    -0.273 OA
HETATM    2  C19 UNL     1      -8.342 -25.538 -93.969  1.00  0.00     0.229 C 
HETATM    3  N7  UNL     1      -8.979 -25.676 -93.002  1.00  0.00    -0.164 NA
ENDROOT
BRANCH   1   4
HETATM    4  C18 UNL     1      -7.625 -24.152 -95.838  1.00  0.00     0.203 C 
HETATM    5  C16 UNL     1      -7.674 -24.458 -97.357  1.00  0.00     0.153 C 
HETATM    6  O2  UNL     1      -6.451 -24.117 -97.890  1.00  0.00    -0.349 OA
HETATM    7  C17 UNL     1      -8.833 -23.735 -97.991  1.00  0.00     0.042 C 
HETATM    8  C15 UNL     1      -5.570 -24.302 -96.863  1.00  0.00     0.353 C 
HETATM    9  N6  UNL     1      -4.327 -23.635 -96.972  1.00  0.00    -0.044 N 
HETATM   10  C20 UNL     1      -6.272 -23.513 -95.735  1.00  0.00     0.211 C 
HETATM   11  C14 UNL     1      -3.578 -24.092 -95.818  1.00  0.00     0.267 C 
ATOM     12  H62 UNL     1      -4.401 -22.620 -97.047  1.00  0.00     0.280 HD
ATOM     13  H61 UNL     1      -3.852 -23.777 -97.863  1.00  0.00     0.280 HD
HETATM   14  C13 UNL     1      -4.276 -23.648 -94.517  1.00  0.00     0.154 C 
HETATM   15  O4  UNL     1      -5.611 -23.561 -94.585  1.00  0.00    -0.371 OA
BRANCH  14  16
HETATM   16  C11 UNL     1      -3.455 -22.512 -94.064  1.00  0.00     0.048 C 
HETATM   17  C12 UNL     1      -1.989 -23.042 -94.108  1.00  0.00     0.016 C 
BRANCH  16  18
HETATM   18  C4  UNL     1      -3.623 -21.908 -92.713  1.00  0.00     0.176 C 
BRANCH  18  19
HETATM   19  C2  UNL     1      -4.604 -20.783 -92.954  1.00  0.00     0.014 C 
HETATM   20  C1  UNL     1      -4.627 -20.178 -94.304  1.00  0.00     0.012 C 
HETATM   21  C3  UNL     1      -4.333 -19.636 -91.990  1.00  0.00     0.012 C 
ENDBRANCH  18  19
BRANCH  18  22
HETATM   22  N1  UNL     1      -3.828 -22.644 -91.560  1.00  0.00    -0.407 NA
HETATM   23  C5  UNL     1      -4.022 -23.385 -90.419  1.00  0.00     0.317 C 
HETATM   24  O1  UNL     1      -3.411 -24.442 -90.174  1.00  0.00    -0.255 OA
BRANCH  23  25
HETATM   25  C6  UNL     1      -5.016 -22.954 -89.354  1.00  0.00     0.289 C 
BRANCH  25  26
HETATM   26  N2  UNL     1      -4.413 -22.052 -88.428  1.00  0.00    -0.065 N 
ATOM     27  H23 UNL     1      -3.747 -22.528 -87.820  1.00  0.00     0.275 HD
ATOM     28  H22 UNL     1      -3.770 -21.411 -88.892  1.00  0.00     0.275 HD
ATOM     29  H21 UNL     1      -5.122 -21.552 -87.892  1.00  0.00     0.275 HD
ENDBRANCH  25  26
BRANCH  25  30
HETATM   30  C7  UNL     1      -6.221 -22.416 -90.038  1.00  0.00     0.045 C 
BRANCH  30  31
HETATM   31  C8  UNL     1      -7.069 -23.517 -90.667  1.00  0.00     0.030 C 
BRANCH  31  32
HETATM   32  C9  UNL     1      -7.642 -24.317 -89.487  1.00  0.00     0.237 C 
BRANCH  32  33
HETATM   33  N3  UNL     1      -8.332 -25.491 -89.842  1.00  0.00    -0.022 N 
HETATM   34  C10 UNL     1      -9.665 -25.567 -89.244  1.00  0.00     0.575 C 
HETATM   35  N4  UNL     1     -10.445 -24.415 -89.703  1.00  0.00    -0.026 N 
HETATM   36  N5  UNL     1     -10.309 -26.750 -89.754  1.00  0.00    -0.026 N 
ATOM     37  H43 UNL     1      -9.981 -23.527 -89.513  1.00  0.00     0.278 HD
ATOM     38  H42 UNL     1     -10.475 -24.342 -90.720  1.00  0.00     0.278 HD
ATOM     39  H41 UNL     1     -11.375 -24.468 -89.287  1.00  0.00     0.278 HD
ATOM     40  H53 UNL     1     -10.330 -26.781 -90.773  1.00  0.00     0.278 HD
ATOM     41  H52 UNL     1      -9.759 -27.596 -89.604  1.00  0.00     0.278 HD
ATOM     42  H51 UNL     1     -11.239 -26.802 -89.338  1.00  0.00     0.278 HD
ATOM     43  H32 UNL     1      -8.379 -25.595 -90.855  1.00  0.00     0.281 HD
ATOM     44  H31 UNL     1      -7.783 -26.320 -89.615  1.00  0.00     0.281 HD
ENDBRANCH  32  33
ENDBRANCH  31  32
ENDBRANCH  30  31
ENDBRANCH  25  30
ENDBRANCH  23  25
ENDBRANCH  18  22
ENDBRANCH  16  18
ENDBRANCH  14  16
ENDBRANCH   1   4
TORSDOF 11
ENDMDL
MODEL 2
REMARK VINA RESULT: -7.508321841      2.208      5.859
REMARK  11 active torsions:
REMARK  status: ('A' for Active; 'I' for Inactive)
REMARK    1  A    between atoms: C2_2  and  C4_4 
REMARK    2  A    between atoms: C4_4  and  N1_5 
REMARK    3  A    between atoms: C4_4  and  C11_28 
REMARK       I    between atoms: N1_5  and  C5_6 
REMARK    4  A    between atoms: C5_6  and  C6_8 
REMARK    5  A    between atoms: C6_8  and  N2_9 
REMARK    6  A    between atoms: C6_8  and  C7_13 
REMARK    7  A    between atoms: C7_13  and  C8_14 
REMARK    8  A    between atoms: C8_14  and  C9_15 
REMARK    9  A    between atoms: C9_15  and  N3_16 
REMARK       I    between atoms: N3_16  and  C10_19 
REMARK       I    between atoms: C10_19  and  N4_20 
REMARK       I    between atoms: C10_19  and  N5_24 
REMARK   10  A    between atoms: C11_28  and  C13_30 
REMARK   11  A    between atoms: C18_39  and  O3_40 
ROOT
HETATM    1  O3  UNL     1      -7.886 -24.106 -87.927  1.00  0.00    -0.273 OA
HETATM    2  C19 UNL     1      -8.316 -24.824 -86.872  1.00  0.00     0.229 C 
HETATM    3  N7  UNL     1      -8.691 -25.452 -85.964  1.00  0.00    -0.164 NA
ENDROOT
BRANCH   1   4
HETATM    4  C18 UNL     1      -7.988 -24.582 -89.273  1.00  0.00     0.203 C 
HETATM    5  C16 UNL     1      -7.846 -26.125 -89.310  1.00  0.00     0.153 C 
HETATM    6  O2  UNL     1      -6.633 -26.418 -89.890  1.00  0.00    -0.349 OA
HETATM    7  C17 UNL     1      -9.022 -26.734 -90.026  1.00  0.00     0.042 C 
HETATM    8  C15 UNL     1      -5.840 -25.350 -89.577  1.00  0.00     0.353 C 
HETATM    9  N6  UNL     1      -4.691 -25.161 -90.381  1.00  0.00    -0.044 N 
HETATM   10  C20 UNL     1      -6.748 -24.179 -90.015  1.00  0.00     0.211 C 
HETATM   11  C14 UNL     1      -4.006 -24.044 -89.761  1.00  0.00     0.267 C 
ATOM     12  H62 UNL     1      -4.892 -25.032 -91.373  1.00  0.00     0.280 HD
ATOM     13  H61 UNL     1      -4.116 -25.996 -90.492  1.00  0.00     0.280 HD
HETATM   14  C13 UNL     1      -4.881 -22.777 -89.827  1.00  0.00     0.154 C 
HETATM   15  O4  UNL     1      -6.203 -22.992 -89.784  1.00  0.00    -0.371 OA
BRANCH  14  16
HETATM   16  C11 UNL     1      -4.266 -21.997 -90.916  1.00  0.00     0.048 C 
HETATM   17  C12 UNL     1      -4.391 -20.513 -90.456  1.00  0.00     0.016 C 
BRANCH  16  18
HETATM   18  C4  UNL     1      -4.797 -22.033 -92.306  1.00  0.00     0.176 C 
BRANCH  18  19
HETATM   19  C2  UNL     1      -3.935 -21.025 -93.034  1.00  0.00     0.014 C 
HETATM   20  C1  UNL     1      -4.528 -20.340 -94.202  1.00  0.00     0.012 C 
HETATM   21  C3  UNL     1      -2.666 -21.693 -93.544  1.00  0.00     0.012 C 
ENDBRANCH  18  19
BRANCH  18  22
HETATM   22  N1  UNL     1      -5.067 -23.199 -92.999  1.00  0.00    -0.407 NA
HETATM   23  C5  UNL     1      -5.342 -24.364 -93.674  1.00  0.00     0.317 C 
HETATM   24  O1  UNL     1      -5.899 -25.347 -93.151  1.00  0.00    -0.255 OA
BRANCH  23  25
HETATM   25  C6  UNL     1      -4.979 -24.534 -95.140  1.00  0.00     0.289 C 
BRANCH  25  26
HETATM   26  N2  UNL     1      -5.138 -25.890 -95.551  1.00  0.00    -0.065 N 
ATOM     27  H23 UNL     1      -4.468 -26.504 -95.087  1.00  0.00     0.275 HD
ATOM     28  H22 UNL     1      -5.999 -26.295 -95.186  1.00  0.00     0.275 HD
ATOM     29  H21 UNL     1      -5.084 -25.972 -96.566  1.00  0.00     0.275 HD
ENDBRANCH  25  26
BRANCH  25  30
HETATM   30  C7  UNL     1      -5.774 -23.557 -95.928  1.00  0.00     0.045 C 
BRANCH  30  31
HETATM   31  C8  UNL     1      -6.461 -24.203 -97.127  1.00  0.00     0.030 C 
BRANCH  31  32
HETATM   32  C9  UNL     1      -7.968 -24.071 -96.857  1.00  0.00     0.237 C 
BRANCH  32  33
HETATM   33  N3  UNL     1      -8.303 -23.440 -95.646  1.00  0.00    -0.022 N 
HETATM   34  C10 UNL     1      -9.210 -24.241 -94.823  1.00  0.00     0.575 C 
HETATM   35  N4  UNL     1      -8.556 -25.516 -94.516  1.00  0.00    -0.026 N 
HETATM   36  N5  UNL     1      -9.402 -23.548 -93.575  1.00  0.00    -0.026 N 
ATOM     37  H43 UNL     1      -8.249 -26.009 -95.354  1.00  0.00     0.278 HD
ATOM     38  H42 UNL     1      -7.642 -25.391 -94.083  1.00  0.00     0.278 HD
ATOM     39  H41 UNL     1      -9.188 -26.074 -93.943  1.00  0.00     0.278 HD
ATOM     40  H53 UNL     1      -8.523 -23.334 -93.102  1.00  0.00     0.278 HD
ATOM     41  H52 UNL     1      -9.724 -22.588 -93.702  1.00  0.00     0.278 HD
ATOM     42  H51 UNL     1     -10.033 -24.106 -93.002  1.00  0.00     0.278 HD
ATOM     43  H32 UNL     1      -7.466 -23.184 -95.123  1.00  0.00     0.281 HD
ATOM     44  H31 UNL     1      -8.686 -22.510 -95.811  1.00  0.00     0.281 HD
ENDBRANCH  32  33
ENDBRANCH  31  32
ENDBRANCH  30  31
ENDBRANCH  25  30
ENDBRANCH  23  25
ENDBRANCH  18  22
ENDBRANCH  16  18
ENDBRANCH  14  16
ENDBRANCH   1   4
TORSDOF 11
ENDMDL
MODEL 3
REMARK VINA RESULT: -7.416421242      1.239      1.884
REMARK  11 active torsions:
REMARK  status: ('A' for Active; 'I' for Inactive)
REMARK    1  A    between atoms: C2_2  and  C4_4 
REMARK    2  A    between atoms: C4_4  and  N1_5 
REMARK    3  A    between atoms: C4_4  and  C11_28 
REMARK       I    between atoms: N1_5  and  C5_6 
REMARK    4  A    between atoms: C5_6  and  C6_8 
REMARK    5  A    between atoms: C6_8  and  N2_9 
REMARK    6  A    between atoms: C6_8  and  C7_13 
REMARK    7  A    between atoms: C7_13  and  C8_14 
REMARK    8  A    between atoms: C8_14  and  C9_15 
REMARK    9  A    between atoms: C9_15  and  N3_16 
REMARK       I    between atoms: N3_16  and  C10_19 
REMARK       I    between atoms: C10_19  and  N4_20 
REMARK       I    between atoms: C10_19  and  N5_24 
REMARK   10  A    between atoms: C11_28  and  C13_30 
REMARK   11  A    between atoms: C18_39  and  O3_40 
ROOT
HETATM    1  O3  UNL     1      -7.733 -25.494 -95.094  1.00  0.00    -0.273 OA
HETATM    2  C19 UNL     1      -8.445 -25.721 -93.973  1.00  0.00     0.229 C 
HETATM    3  N7  UNL     1      -9.063 -25.911 -93.004  1.00  0.00    -0.164 NA
ENDROOT
BRANCH   1   4
HETATM    4  C18 UNL     1      -7.735 -24.227 -95.761  1.00  0.00     0.203 C 
HETATM    5  C16 UNL     1      -7.573 -24.425 -97.289  1.00  0.00     0.153 C 
HETATM    6  O2  UNL     1      -6.318 -23.976 -97.636  1.00  0.00    -0.349 OA
HETATM    7  C17 UNL     1      -8.688 -23.727 -98.021  1.00  0.00     0.042 C 
HETATM    8  C15 UNL     1      -5.562 -24.183 -96.517  1.00  0.00     0.353 C 
HETATM    9  N6  UNL     1      -4.363 -23.438 -96.421  1.00  0.00    -0.044 N 
HETATM   10  C20 UNL     1      -6.451 -23.519 -95.442  1.00  0.00     0.211 C 
HETATM   11  C14 UNL     1      -3.736 -23.933 -95.211  1.00  0.00     0.267 C 
ATOM     12  H62 UNL     1      -4.495 -22.426 -96.440  1.00  0.00     0.280 HD
ATOM     13  H61 UNL     1      -3.771 -23.487 -97.250  1.00  0.00     0.280 HD
HETATM   14  C13 UNL     1      -4.620 -23.626 -93.987  1.00  0.00     0.154 C 
HETATM   15  O4  UNL     1      -5.938 -23.612 -94.222  1.00  0.00    -0.371 OA
BRANCH  14  16
HETATM   16  C11 UNL     1      -3.940 -22.479 -93.358  1.00  0.00     0.048 C 
HETATM   17  C12 UNL     1      -2.432 -22.872 -93.348  1.00  0.00     0.016 C 
BRANCH  16  18
HETATM   18  C4  UNL     1      -4.252 -22.044 -91.969  1.00  0.00     0.176 C 
BRANCH  18  19
HETATM   19  C2  UNL     1      -4.702 -20.611 -92.145  1.00  0.00     0.014 C 
HETATM   20  C1  UNL     1      -4.256 -19.904 -93.365  1.00  0.00     0.012 C 
HETATM   21  C3  UNL     1      -4.221 -19.764 -90.975  1.00  0.00     0.012 C 
ENDBRANCH  18  19
BRANCH  18  22
HETATM   22  N1  UNL     1      -4.988 -22.797 -91.072  1.00  0.00    -0.407 NA
HETATM   23  C5  UNL     1      -5.707 -23.549 -90.174  1.00  0.00     0.317 C 
HETATM   24  O1  UNL     1      -5.184 -24.217 -89.263  1.00  0.00    -0.255 OA
BRANCH  23  25
HETATM   25  C6  UNL     1      -7.224 -23.616 -90.233  1.00  0.00     0.289 C 
BRANCH  25  26
HETATM   26  N2  UNL     1      -7.699 -23.287 -91.536  1.00  0.00    -0.065 N 
ATOM     27  H23 UNL     1      -6.955 -22.911 -92.124  1.00  0.00     0.275 HD
ATOM     28  H22 UNL     1      -7.919 -24.122 -92.078  1.00  0.00     0.275 HD
ATOM     29  H21 UNL     1      -8.496 -22.652 -91.484  1.00  0.00     0.275 HD
ENDBRANCH  25  26
BRANCH  25  30
HETATM   30  C7  UNL     1      -7.645 -24.957 -89.747  1.00  0.00     0.045 C 
BRANCH  30  31
HETATM   31  C8  UNL     1      -8.910 -24.891 -88.896  1.00  0.00     0.030 C 
BRANCH  31  32
HETATM   32  C9  UNL     1      -9.497 -26.312 -88.924  1.00  0.00     0.237 C 
BRANCH  32  33
HETATM   33  N3  UNL     1      -9.609 -26.885 -90.203  1.00  0.00    -0.022 N 
HETATM   34  C10 UNL     1      -9.315 -28.318 -90.209  1.00  0.00     0.575 C 
HETATM   35  N4  UNL     1     -10.263 -28.990 -89.316  1.00  0.00    -0.026 N 
HETATM   36  N5  UNL     1      -9.558 -28.812 -91.540  1.00  0.00    -0.026 N 
ATOM     37  H43 UNL     1     -10.264 -28.594 -88.376  1.00  0.00     0.278 HD
ATOM     38  H42 UNL     1     -11.234 -28.788 -89.553  1.00  0.00     0.278 HD
ATOM     39  H41 UNL     1     -10.059 -29.989 -89.320  1.00  0.00     0.278 HD
ATOM     40  H53 UNL     1     -10.498 -28.599 -91.876  1.00  0.00     0.278 HD
ATOM     41  H52 UNL     1      -9.040 -28.299 -92.253  1.00  0.00     0.278 HD
ATOM     42  H51 UNL     1      -9.354 -29.811 -91.544  1.00  0.00     0.278 HD
ATOM     43  H32 UNL     1     -10.525 -26.698 -90.609  1.00  0.00     0.281 HD
ATOM     44  H31 UNL     1      -9.025 -26.390 -90.878  1.00  0.00     0.281 HD
ENDBRANCH  32  33
ENDBRANCH  31  32
ENDBRANCH  30  31
ENDBRANCH  25  30
ENDBRANCH  23  25
ENDBRANCH  18  22
ENDBRANCH  16  18
ENDBRANCH  14  16
ENDBRANCH   1   4
TORSDOF 11
ENDMDL
MODEL 4
REMARK VINA RESULT: -7.361239882      1.191      1.590
REMARK  11 active torsions:
REMARK  status: ('A' for Active; 'I' for Inactive)
REMARK    1  A    between atoms: C2_2  and  C4_4 
REMARK    2  A    between atoms: C4_4  and  N1_5 
REMARK    3  A    between atoms: C4_4  and  C11_28 
REMARK       I    between atoms: N1_5  and  C5_6 
REMARK    4  A    between atoms: C5_6  and  C6_8 
REMARK    5  A    between atoms: C6_8  and  N2_9 
REMARK    6  A    between atoms: C6_8  and  C7_13 
REMARK    7  A    between atoms: C7_13  and  C8_14 
REMARK    8  A    between atoms: C8_14  and  C9_15 
REMARK    9  A    between atoms: C9_15  and  N3_16 
REMARK       I    between atoms: N3_16  and  C10_19 
REMARK       I    between atoms: C10_19  and  N4_20 
REMARK       I    between atoms: C10_19  and  N5_24 
REMARK   10  A    between atoms: C11_28  and  C13_30 
REMARK   11  A    between atoms: C18_39  and  O3_40 
ROOT
HETATM    1  O3  UNL     1      -7.405 -25.452 -95.137  1.00  0.00    -0.273 OA
HETATM    2  C19 UNL     1      -8.173 -25.699 -94.059  1.00  0.00     0.229 C 
HETATM    3  N7  UNL     1      -8.842 -25.905 -93.126  1.00  0.00    -0.164 NA
ENDROOT
BRANCH   1   4
HETATM    4  C18 UNL     1      -7.493 -24.232 -95.880  1.00  0.00     0.203 C 
HETATM    5  C16 UNL     1      -7.575 -24.531 -97.398  1.00  0.00     0.153 C 
HETATM    6  O2  UNL     1      -6.384 -24.137 -97.966  1.00  0.00    -0.349 OA
HETATM    7  C17 UNL     1      -8.781 -23.854 -97.992  1.00  0.00     0.042 C 
HETATM    8  C15 UNL     1      -5.465 -24.291 -96.967  1.00  0.00     0.353 C 
HETATM    9  N6  UNL     1      -4.254 -23.573 -97.108  1.00  0.00    -0.044 N 
HETATM   10  C20 UNL     1      -6.164 -23.538 -95.813  1.00  0.00     0.211 C 
HETATM   11  C14 UNL     1      -3.453 -24.005 -95.980  1.00  0.00     0.267 C 
ATOM     12  H62 UNL     1      -4.373 -22.562 -97.175  1.00  0.00     0.280 HD
ATOM     13  H61 UNL     1      -3.801 -23.691 -98.014  1.00  0.00     0.280 HD
HETATM   14  C13 UNL     1      -4.129 -23.598 -94.657  1.00  0.00     0.154 C 
HETATM   15  O4  UNL     1      -5.468 -23.565 -94.684  1.00  0.00    -0.371 OA
BRANCH  14  16
HETATM   16  C11 UNL     1      -3.342 -22.431 -94.220  1.00  0.00     0.048 C 
HETATM   17  C12 UNL     1      -1.859 -22.837 -94.477  1.00  0.00     0.016 C 
BRANCH  16  18
HETATM   18  C4  UNL     1      -3.385 -21.932 -92.818  1.00  0.00     0.176 C 
BRANCH  18  19
HETATM   19  C2  UNL     1      -3.726 -20.467 -92.980  1.00  0.00     0.014 C 
HETATM   20  C1  UNL     1      -4.497 -19.825 -91.894  1.00  0.00     0.012 C 
HETATM   21  C3  UNL     1      -4.541 -20.256 -94.248  1.00  0.00     0.012 C 
ENDBRANCH  18  19
BRANCH  18  22
HETATM   22  N1  UNL     1      -4.032 -22.586 -91.786  1.00  0.00    -0.407 NA
HETATM   23  C5  UNL     1      -4.689 -23.228 -90.763  1.00  0.00     0.317 C 
HETATM   24  O1  UNL     1      -5.868 -22.989 -90.446  1.00  0.00    -0.255 OA
BRANCH  23  25
HETATM   25  C6  UNL     1      -4.003 -24.300 -89.933  1.00  0.00     0.289 C 
BRANCH  25  26
HETATM   26  N2  UNL     1      -3.799 -23.856 -88.593  1.00  0.00    -0.065 N 
ATOM     27  H23 UNL     1      -2.879 -24.125 -88.244  1.00  0.00     0.275 HD
ATOM     28  H22 UNL     1      -3.693 -22.843 -88.545  1.00  0.00     0.275 HD
ATOM     29  H21 UNL     1      -4.545 -24.186 -87.982  1.00  0.00     0.275 HD
ENDBRANCH  25  26
BRANCH  25  30
HETATM   30  C7  UNL     1      -4.797 -25.552 -90.049  1.00  0.00     0.045 C 
BRANCH  30  31
HETATM   31  C8  UNL     1      -5.372 -25.998 -88.709  1.00  0.00     0.030 C 
BRANCH  31  32
HETATM   32  C9  UNL     1      -6.868 -26.239 -88.965  1.00  0.00     0.237 C 
BRANCH  32  33
HETATM   33  N3  UNL     1      -7.403 -25.548 -90.067  1.00  0.00    -0.022 N 
HETATM   34  C10 UNL     1      -8.571 -24.741 -89.717  1.00  0.00     0.575 C 
HETATM   35  N4  UNL     1      -8.171 -23.760 -88.705  1.00  0.00    -0.026 N 
HETATM   36  N5  UNL     1      -8.968 -24.007 -90.890  1.00  0.00    -0.026 N 
ATOM     37  H43 UNL     1      -7.736 -24.192 -87.891  1.00  0.00     0.278 HD
ATOM     38  H42 UNL     1      -7.378 -23.192 -89.003  1.00  0.00     0.278 HD
ATOM     39  H41 UNL     1      -8.985 -23.197 -88.461  1.00  0.00     0.278 HD
ATOM     40  H53 UNL     1      -8.209 -23.452 -91.286  1.00  0.00     0.278 HD
ATOM     41  H52 UNL     1      -9.131 -24.609 -91.698  1.00  0.00     0.278 HD
ATOM     42  H51 UNL     1      -9.782 -23.444 -90.646  1.00  0.00     0.278 HD
ATOM     43  H32 UNL     1      -6.690 -24.980 -90.524  1.00  0.00     0.281 HD
ATOM     44  H31 UNL     1      -7.618 -26.189 -90.831  1.00  0.00     0.281 HD
ENDBRANCH  32  33
ENDBRANCH  31  32
ENDBRANCH  30  31
ENDBRANCH  25  30
ENDBRANCH  23  25
ENDBRANCH  18  22
ENDBRANCH  16  18
ENDBRANCH  14  16
ENDBRANCH   1   4
TORSDOF 11
ENDMDL
MODEL 5
REMARK VINA RESULT: -7.314905943      1.115      1.352
REMARK  11 active torsions:
REMARK  status: ('A' for Active; 'I' for Inactive)
REMARK    1  A    between atoms: C2_2  and  C4_4 
REMARK    2  A    between atoms: C4_4  and  N1_5 
REMARK    3  A    between atoms: C4_4  and  C11_28 
REMARK       I    between atoms: N1_5  and  C5_6 
REMARK    4  A    between atoms: C5_6  and  C6_8 
REMARK    5  A    between atoms: C6_8  and  N2_9 
REMARK    6  A    between atoms: C6_8  and  C7_13 
REMARK    7  A    between atoms: C7_13  and  C8_14 
REMARK    8  A    between atoms: C8_14  and  C9_15 
REMARK    9  A    between atoms: C9_15  and  N3_16 
REMARK       I    between atoms: N3_16  and  C10_19 
REMARK       I    between atoms: C10_19  and  N4_20 
REMARK       I    between atoms: C10_19  and  N5_24 
REMARK   10  A    between atoms: C11_28  and  C13_30 
REMARK   11  A    between atoms: C18_39  and  O3_40 
ROOT
HETATM    1  O3  UNL     1      -7.610 -25.347 -95.000  1.00  0.00    -0.273 OA
HETATM    2  C19 UNL     1      -8.374 -25.509 -93.903  1.00  0.00     0.229 C 
HETATM    3  N7  UNL     1      -9.038 -25.641 -92.954  1.00  0.00    -0.164 NA
ENDROOT
BRANCH   1   4
HETATM    4  C18 UNL     1      -7.570 -24.119 -95.734  1.00  0.00     0.203 C 
HETATM    5  C16 UNL     1      -7.545 -24.403 -97.257  1.00  0.00     0.153 C 
HETATM    6  O2  UNL     1      -6.292 -24.073 -97.722  1.00  0.00    -0.349 OA
HETATM    7  C17 UNL     1      -8.660 -23.655 -97.938  1.00  0.00     0.042 C 
HETATM    8  C15 UNL     1      -5.467 -24.285 -96.654  1.00  0.00     0.353 C 
HETATM    9  N6  UNL     1      -4.211 -23.635 -96.690  1.00  0.00    -0.044 N 
HETATM   10  C20 UNL     1      -6.214 -23.501 -95.552  1.00  0.00     0.211 C 
HETATM   11  C14 UNL     1      -3.528 -24.119 -95.506  1.00  0.00     0.267 C 
ATOM     12  H62 UNL     1      -4.267 -22.618 -96.755  1.00  0.00     0.280 HD
ATOM     13  H61 UNL     1      -3.693 -23.772 -97.558  1.00  0.00     0.280 HD
HETATM   14  C13 UNL     1      -4.285 -23.683 -94.237  1.00  0.00     0.154 C 
HETATM   15  O4  UNL     1      -5.614 -23.574 -94.371  1.00  0.00    -0.371 OA
BRANCH  14  16
HETATM   16  C11 UNL     1      -3.473 -22.565 -93.725  1.00  0.00     0.048 C 
HETATM   17  C12 UNL     1      -2.059 -23.180 -93.491  1.00  0.00     0.016 C 
BRANCH  16  18
HETATM   18  C4  UNL     1      -3.816 -21.855 -92.463  1.00  0.00     0.176 C 
BRANCH  18  19
HETATM   19  C2  UNL     1      -4.730 -20.742 -92.926  1.00  0.00     0.014 C 
HETATM   20  C1  UNL     1      -4.509 -20.202 -94.285  1.00  0.00     0.012 C 
HETATM   21  C3  UNL     1      -4.625 -19.552 -91.984  1.00  0.00     0.012 C 
ENDBRANCH  18  19
BRANCH  18  22
HETATM   22  N1  UNL     1      -4.196 -22.495 -91.297  1.00  0.00    -0.407 NA
HETATM   23  C5  UNL     1      -4.571 -23.145 -90.146  1.00  0.00     0.317 C 
HETATM   24  O1  UNL     1      -4.556 -24.382 -90.019  1.00  0.00    -0.255 OA
BRANCH  23  25
HETATM   25  C6  UNL     1      -5.037 -22.377 -88.920  1.00  0.00     0.289 C 
BRANCH  25  26
HETATM   26  N2  UNL     1      -4.235 -21.218 -88.707  1.00  0.00    -0.065 N 
ATOM     27  H23 UNL     1      -4.360 -20.841 -87.767  1.00  0.00     0.275 HD
ATOM     28  H22 UNL     1      -3.244 -21.452 -88.649  1.00  0.00     0.275 HD
ATOM     29  H21 UNL     1      -4.414 -20.514 -89.422  1.00  0.00     0.275 HD
ENDBRANCH  25  26
BRANCH  25  30
HETATM   30  C7  UNL     1      -6.489 -22.098 -89.075  1.00  0.00     0.045 C 
BRANCH  30  31
HETATM   31  C8  UNL     1      -7.252 -22.256 -87.764  1.00  0.00     0.030 C 
BRANCH  31  32
HETATM   32  C9  UNL     1      -7.856 -23.668 -87.808  1.00  0.00     0.237 C 
BRANCH  32  33
HETATM   33  N3  UNL     1      -6.921 -24.713 -87.918  1.00  0.00    -0.022 N 
HETATM   34  C10 UNL     1      -7.368 -25.780 -88.814  1.00  0.00     0.575 C 
HETATM   35  N4  UNL     1      -7.582 -25.209 -90.146  1.00  0.00    -0.026 N 
HETATM   36  N5  UNL     1      -6.298 -26.737 -88.927  1.00  0.00    -0.026 N 
ATOM     37  H43 UNL     1      -8.222 -24.415 -90.133  1.00  0.00     0.278 HD
ATOM     38  H42 UNL     1      -6.760 -24.720 -90.499  1.00  0.00     0.278 HD
ATOM     39  H41 UNL     1      -7.893 -25.952 -90.771  1.00  0.00     0.278 HD
ATOM     40  H53 UNL     1      -5.418 -26.314 -89.223  1.00  0.00     0.278 HD
ATOM     41  H52 UNL     1      -5.982 -27.086 -88.022  1.00  0.00     0.278 HD
ATOM     42  H51 UNL     1      -6.608 -27.481 -89.552  1.00  0.00     0.278 HD
ATOM     43  H32 UNL     1      -6.008 -24.358 -88.200  1.00  0.00     0.281 HD
ATOM     44  H31 UNL     1      -6.679 -25.085 -87.000  1.00  0.00     0.281 HD
ENDBRANCH  32  33
ENDBRANCH  31  32
ENDBRANCH  30  31
ENDBRANCH  25  30
ENDBRANCH  23  25
ENDBRANCH  18  22
ENDBRANCH  16  18
ENDBRANCH  14  16
ENDBRANCH   1   4
TORSDOF 11
ENDMDL
