MODEL 1
REMARK VINA RESULT: -7.459504820      0.000      0.000
REMARK  15 active torsions:
REMARK  status: ('A' for Active; 'I' for Inactive)
REMARK    1  A    between atoms: C2_2  and  C3_3 
REMARK    2  A    between atoms: C3_3  and  C5_5 
REMARK    3  A    between atoms: C5_5  and  C6_6 
REMARK    4  A    between atoms: C5_5  and  C20_33 
REMARK       I    between atoms: C6_6  and  N1_8 
REMARK    5  A    between atoms: N1_8  and  C7_10 
REMARK    6  A    between atoms: C7_10  and  C8_11 
REMARK    7  A    between atoms: C9_13  and  O3_14 
REMARK    8  A    between atoms: O3_14  and  C10_15 
REMARK    9  A    between atoms: C10_15  and  C11_16 
REMARK   10  A    between atoms: C14_19  and  O4_20 
REMARK   11  A    between atoms: C17_24  and  O5_25 
REMARK   12  A    between atoms: C18_27  and  O6_28 
REMARK   13  A    between atoms: C19_30  and  O7_31 
REMARK   14  A    between atoms: C20_33  and  O8_34 
REMARK   15  A    between atoms: C20_33  and  O9_36 
ROOT
HETATM    1  C8  UNL     1      -7.706 -24.162 -91.869  1.00  0.00     0.096 C 
HETATM    2  O2  UNL     1      -6.420 -24.591 -92.068  1.00  0.00    -0.318 OA
HETATM    3  C9  UNL     1      -5.627 -24.688 -90.967  1.00  0.00     0.297 C 
HETATM    4  C17 UNL     1      -6.284 -24.946 -89.667  1.00  0.00     0.205 C 
HETATM    5  C18 UNL     1      -7.645 -24.386 -89.493  1.00  0.00     0.187 C 
HETATM    6  C19 UNL     1      -8.441 -24.808 -90.767  1.00  0.00     0.207 C 
ENDROOT
BRANCH   1   7
HETATM    7  C7  UNL     1      -8.458 -23.966 -93.124  1.00  0.00     0.126 C 
BRANCH   7   8
HETATM    8  N1  UNL     1      -7.883 -24.282 -94.366  1.00  0.00    -0.334 N 
HETATM    9  C6  UNL     1      -7.232 -23.523 -95.344  1.00  0.00     0.230 C 
HETATM   10  O1  UNL     1      -7.051 -22.302 -95.208  1.00  0.00    -0.273 OA
ATOM     11  H1  UNL     1      -7.956 -25.270 -94.605  1.00  0.00     0.168 HD
BRANCH   9  12
HETATM   12  C5  UNL     1      -6.714 -24.139 -96.619  1.00  0.00     0.137 C 
BRANCH  12  13
HETATM   13  C3  UNL     1      -5.863 -25.343 -96.308  1.00  0.00    -0.001 C 
HETATM   14  C4  UNL     1      -5.714 -26.274 -97.462  1.00  0.00     0.011 C 
BRANCH  13  15
HETATM   15  C2  UNL     1      -4.566 -24.918 -95.705  1.00  0.00     0.001 C 
HETATM   16  C1  UNL     1      -3.826 -23.956 -96.647  1.00  0.00     0.005 C 
ENDBRANCH  13  15
ENDBRANCH  12  13
BRANCH  12  17
HETATM   17  C20 UNL     1      -7.883 -24.402 -97.505  1.00  0.00     0.269 C 
BRANCH  17  18
HETATM   18  O8  UNL     1      -7.617 -23.652 -98.694  1.00  0.00    -0.370 OA
ATOM     19  H8  UNL     1      -6.769 -23.959 -98.993  1.00  0.00     0.212 HD
ENDBRANCH  17  18
BRANCH  17  20
HETATM   20  O9  UNL     1      -9.099 -23.979 -96.980  1.00  0.00    -0.365 OA
HETATM   21  C21 UNL     1     -10.067 -23.696 -97.908  1.00  0.00     0.204 C 
ENDBRANCH  17  20
ENDBRANCH  12  17
ENDBRANCH   9  12
ENDBRANCH   7   8
ENDBRANCH   1   7
BRANCH   6  22
HETATM   22  O7  UNL     1      -9.746 -24.337 -90.639  1.00  0.00    -0.386 OA
ATOM     23  H7  UNL     1     -10.397 -25.006 -90.812  1.00  0.00     0.210 HD
ENDBRANCH   6  22
BRANCH   3  24
HETATM   24  O3  UNL     1      -4.829 -23.547 -90.894  1.00  0.00    -0.357 OA
BRANCH  24  25
HETATM   25  C10 UNL     1      -4.101 -23.333 -92.065  1.00  0.00     0.179 C 
BRANCH  25  26
HETATM   26  C11 UNL     1      -3.714 -21.878 -92.140  1.00  0.00     0.032 C 
HETATM   27  C12 UNL     1      -4.269 -21.262 -93.375  1.00  0.00    -0.021 C 
HETATM   28  C13 UNL     1      -4.106 -19.946 -93.508  1.00  0.00     0.001 C 
HETATM   29  C14 UNL     1      -3.379 -19.269 -92.376  1.00  0.00     0.140 C 
HETATM   30  C15 UNL     1      -4.095 -19.654 -91.097  1.00  0.00     0.036 C 
HETATM   31  C16 UNL     1      -4.313 -21.127 -90.967  1.00  0.00     0.013 C 
BRANCH  29  32
HETATM   32  O4  UNL     1      -3.464 -17.913 -92.598  1.00  0.00    -0.392 OA
ATOM     33  H4  UNL     1      -3.460 -17.785 -93.539  1.00  0.00     0.210 HD
ENDBRANCH  29  32
ENDBRANCH  25  26
ENDBRANCH  24  25
ENDBRANCH   3  24
BRANCH   5  34
HETATM   34  O6  UNL     1      -7.652 -23.010 -89.470  1.00  0.00    -0.390 OA
ATOM     35  H6  UNL     1      -8.528 -22.651 -89.386  1.00  0.00     0.210 HD
ENDBRANCH   5  34
BRANCH   4  36
HETATM   36  O5  UNL     1      -5.489 -24.461 -88.610  1.00  0.00    -0.388 OA
ATOM     37  H5  UNL     1      -6.022 -23.981 -87.988  1.00  0.00     0.210 HD
ENDBRANCH   4  36
TORSDOF 15
ENDMDL
MODEL 2
REMARK VINA RESULT: -7.252295563      2.013      3.156
REMARK  15 active torsions:
REMARK  status: ('A' for Active; 'I' for Inactive)
REMARK    1  A    between atoms: C2_2  and  C3_3 
REMARK    2  A    between atoms: C3_3  and  C5_5 
REMARK    3  A    between atoms: C5_5  and  C6_6 
REMARK    4  A    between atoms: C5_5  and  C20_33 
REMARK       I    between atoms: C6_6  and  N1_8 
REMARK    5  A    between atoms: N1_8  and  C7_10 
REMARK    6  A    between atoms: C7_10  and  C8_11 
REMARK    7  A    between atoms: C9_13  and  O3_14 
REMARK    8  A    between atoms: O3_14  and  C10_15 
REMARK    9  A    between atoms: C10_15  and  C11_16 
REMARK   10  A    between atoms: C14_19  and  O4_20 
REMARK   11  A    between atoms: C17_24  and  O5_25 
REMARK   12  A    between atoms: C18_27  and  O6_28 
REMARK   13  A    between atoms: C19_30  and  O7_31 
REMARK   14  A    between atoms: C20_33  and  O8_34 
REMARK   15  A    between atoms: C20_33  and  O9_36 
ROOT
HETATM    1  C8  UNL     1      -8.306 -25.920 -90.435  1.00  0.00     0.096 C 
HETATM    2  O2  UNL     1      -7.044 -25.387 -90.448  1.00  0.00    -0.318 OA
HETATM    3  C9  UNL     1      -6.740 -24.501 -89.461  1.00  0.00     0.297 C 
HETATM    4  C17 UNL     1      -7.458 -24.632 -88.174  1.00  0.00     0.205 C 
HETATM    5  C18 UNL     1      -8.848 -25.143 -88.243  1.00  0.00     0.187 C 
HETATM    6  C19 UNL     1      -8.783 -26.423 -89.134  1.00  0.00     0.207 C 
ENDROOT
BRANCH   1   7
HETATM    7  C7  UNL     1      -8.593 -26.772 -91.605  1.00  0.00     0.126 C 
BRANCH   7   8
HETATM    8  N1  UNL     1      -8.222 -26.370 -92.899  1.00  0.00    -0.334 N 
HETATM    9  C6  UNL     1      -8.445 -25.209 -93.646  1.00  0.00     0.230 C 
HETATM   10  O1  UNL     1      -9.087 -24.251 -93.184  1.00  0.00    -0.273 OA
ATOM     11  H1  UNL     1      -7.675 -27.071 -93.398  1.00  0.00     0.168 HD
BRANCH   9  12
HETATM   12  C5  UNL     1      -7.924 -25.051 -95.052  1.00  0.00     0.137 C 
BRANCH  12  13
HETATM   13  C3  UNL     1      -8.233 -23.671 -95.571  1.00  0.00    -0.001 C 
HETATM   14  C4  UNL     1      -7.028 -22.802 -95.688  1.00  0.00     0.011 C 
BRANCH  13  15
HETATM   15  C2  UNL     1      -9.038 -23.758 -96.823  1.00  0.00     0.001 C 
HETATM   16  C1  UNL     1      -8.145 -24.143 -98.011  1.00  0.00     0.005 C 
ENDBRANCH  13  15
ENDBRANCH  12  13
BRANCH  12  17
HETATM   17  C20 UNL     1      -6.480 -25.417 -95.045  1.00  0.00     0.269 C 
BRANCH  17  18
HETATM   18  O8  UNL     1      -6.453 -26.815 -95.352  1.00  0.00    -0.370 OA
ATOM     19  H8  UNL     1      -5.690 -26.929 -95.906  1.00  0.00     0.212 HD
ENDBRANCH  17  18
BRANCH  17  20
HETATM   20  O9  UNL     1      -5.851 -25.223 -93.820  1.00  0.00    -0.365 OA
HETATM   21  C21 UNL     1      -4.491 -25.060 -93.883  1.00  0.00     0.204 C 
ENDBRANCH  17  20
ENDBRANCH  12  17
ENDBRANCH   9  12
ENDBRANCH   7   8
ENDBRANCH   1   7
BRANCH   6  22
HETATM   22  O7  UNL     1     -10.063 -26.968 -89.203  1.00  0.00    -0.386 OA
ATOM     23  H7  UNL     1     -10.264 -27.529 -88.464  1.00  0.00     0.210 HD
ENDBRANCH   6  22
BRANCH   3  24
HETATM   24  O3  UNL     1      -6.877 -23.210 -89.968  1.00  0.00    -0.357 OA
BRANCH  24  25
HETATM   25  C10 UNL     1      -6.221 -23.046 -91.188  1.00  0.00     0.179 C 
BRANCH  25  26
HETATM   26  C11 UNL     1      -5.608 -21.669 -91.232  1.00  0.00     0.032 C 
HETATM   27  C12 UNL     1      -4.862 -21.398 -89.975  1.00  0.00    -0.021 C 
HETATM   28  C13 UNL     1      -4.166 -20.262 -89.929  1.00  0.00     0.001 C 
HETATM   29  C14 UNL     1      -4.237 -19.413 -91.171  1.00  0.00     0.140 C 
HETATM   30  C15 UNL     1      -3.852 -20.301 -92.338  1.00  0.00     0.036 C 
HETATM   31  C16 UNL     1      -4.605 -21.593 -92.366  1.00  0.00     0.013 C 
BRANCH  29  32
HETATM   32  O4  UNL     1      -3.329 -18.391 -91.011  1.00  0.00    -0.392 OA
ATOM     33  H4  UNL     1      -3.796 -17.578 -91.166  1.00  0.00     0.210 HD
ENDBRANCH  29  32
ENDBRANCH  25  26
ENDBRANCH  24  25
ENDBRANCH   3  24
BRANCH   5  34
HETATM   34  O6  UNL     1      -9.701 -24.272 -88.879  1.00  0.00    -0.390 OA
ATOM     35  H6  UNL     1      -9.570 -24.253 -89.820  1.00  0.00     0.210 HD
ENDBRANCH   5  34
BRANCH   4  36
HETATM   36  O5  UNL     1      -7.496 -23.394 -87.504  1.00  0.00    -0.388 OA
ATOM     37  H5  UNL     1      -6.741 -23.302 -86.934  1.00  0.00     0.210 HD
ENDBRANCH   4  36
TORSDOF 15
ENDMDL
MODEL 3
REMARK VINA RESULT: -7.218282284      2.128      3.025
REMARK  15 active torsions:
REMARK  status: ('A' for Active; 'I' for Inactive)
REMARK    1  A    between atoms: C2_2  and  C3_3 
REMARK    2  A    between atoms: C3_3  and  C5_5 
REMARK    3  A    between atoms: C5_5  and  C6_6 
REMARK    4  A    between atoms: C5_5  and  C20_33 
REMARK       I    between atoms: C6_6  and  N1_8 
REMARK    5  A    between atoms: N1_8  and  C7_10 
REMARK    6  A    between atoms: C7_10  and  C8_11 
REMARK    7  A    between atoms: C9_13  and  O3_14 
REMARK    8  A    between atoms: O3_14  and  C10_15 
REMARK    9  A    between atoms: C10_15  and  C11_16 
REMARK   10  A    between atoms: C14_19  and  O4_20 
REMARK   11  A    between atoms: C17_24  and  O5_25 
REMARK   12  A    between atoms: C18_27  and  O6_28 
REMARK   13  A    between atoms: C19_30  and  O7_31 
REMARK   14  A    between atoms: C20_33  and  O8_34 
REMARK   15  A    between atoms: C20_33  and  O9_36 
ROOT
HETATM    1  C8  UNL     1      -8.572 -26.342 -92.355  1.00  0.00     0.096 C 
HETATM    2  O2  UNL     1      -7.369 -25.928 -91.849  1.00  0.00    -0.318 OA
HETATM    3  C9  UNL     1      -7.265 -25.851 -90.495  1.00  0.00     0.297 C 
HETATM    4  C17 UNL     1      -8.119 -26.748 -89.687  1.00  0.00     0.205 C 
HETATM    5  C18 UNL     1      -9.442 -27.092 -90.262  1.00  0.00     0.187 C 
HETATM    6  C19 UNL     1      -9.160 -27.540 -91.730  1.00  0.00     0.207 C 
ENDROOT
BRANCH   1   7
HETATM    7  C7  UNL     1      -8.640 -26.279 -93.828  1.00  0.00     0.126 C 
BRANCH   7   8
HETATM    8  N1  UNL     1      -7.776 -25.444 -94.555  1.00  0.00    -0.334 N 
HETATM    9  C6  UNL     1      -7.985 -24.419 -95.483  1.00  0.00     0.230 C 
HETATM   10  O1  UNL     1      -9.128 -24.068 -95.819  1.00  0.00    -0.273 OA
ATOM     11  H1  UNL     1      -6.790 -25.622 -94.366  1.00  0.00     0.168 HD
BRANCH   9  12
HETATM   12  C5  UNL     1      -6.840 -23.681 -96.130  1.00  0.00     0.137 C 
BRANCH  12  13
HETATM   13  C3  UNL     1      -5.674 -23.593 -95.181  1.00  0.00    -0.001 C 
HETATM   14  C4  UNL     1      -4.351 -23.680 -95.862  1.00  0.00     0.011 C 
BRANCH  13  15
HETATM   15  C2  UNL     1      -5.818 -22.402 -94.293  1.00  0.00     0.001 C 
HETATM   16  C1  UNL     1      -4.691 -21.394 -94.559  1.00  0.00     0.005 C 
ENDBRANCH  13  15
ENDBRANCH  12  13
BRANCH  12  17
HETATM   17  C20 UNL     1      -6.549 -24.346 -97.432  1.00  0.00     0.269 C 
BRANCH  17  18
HETATM   18  O8  UNL     1      -7.380 -23.673 -98.382  1.00  0.00    -0.370 OA
ATOM     19  H8  UNL     1      -8.158 -24.213 -98.450  1.00  0.00     0.212 HD
ENDBRANCH  17  18
BRANCH  17  20
HETATM   20  O9  UNL     1      -6.857 -25.702 -97.458  1.00  0.00    -0.365 OA
HETATM   21  C21 UNL     1      -5.778 -26.543 -97.524  1.00  0.00     0.204 C 
ENDBRANCH  17  20
ENDBRANCH  12  17
ENDBRANCH   9  12
ENDBRANCH   7   8
ENDBRANCH   1   7
BRANCH   6  22
HETATM   22  O7  UNL     1     -10.370 -27.913 -92.310  1.00  0.00    -0.386 OA
ATOM     23  H7  UNL     1     -11.097 -27.373 -92.023  1.00  0.00     0.210 HD
ENDBRANCH   6  22
BRANCH   3  24
HETATM   24  O3  UNL     1      -7.449 -24.523 -90.111  1.00  0.00    -0.357 OA
BRANCH  24  25
HETATM   25  C10 UNL     1      -6.814 -23.629 -90.973  1.00  0.00     0.179 C 
BRANCH  25  26
HETATM   26  C11 UNL     1      -5.867 -22.770 -90.176  1.00  0.00     0.032 C 
HETATM   27  C12 UNL     1      -5.577 -21.509 -90.908  1.00  0.00    -0.021 C 
HETATM   28  C13 UNL     1      -4.847 -20.599 -90.262  1.00  0.00     0.001 C 
HETATM   29  C14 UNL     1      -4.421 -20.986 -88.870  1.00  0.00     0.140 C 
HETATM   30  C15 UNL     1      -5.675 -21.387 -88.119  1.00  0.00     0.036 C 
HETATM   31  C16 UNL     1      -6.514 -22.377 -88.863  1.00  0.00     0.013 C 
BRANCH  29  32
HETATM   32  O4  UNL     1      -3.843 -19.873 -88.303  1.00  0.00    -0.392 OA
ATOM     33  H4  UNL     1      -3.026 -20.154 -87.910  1.00  0.00     0.210 HD
ENDBRANCH  29  32
ENDBRANCH  25  26
ENDBRANCH  24  25
ENDBRANCH   3  24
BRANCH   5  34
HETATM   34  O6  UNL     1     -10.283 -26.007 -90.344  1.00  0.00    -0.390 OA
ATOM     35  H6  UNL     1     -11.014 -26.065 -89.740  1.00  0.00     0.210 HD
ENDBRANCH   5  34
BRANCH   4  36
HETATM   36  O5  UNL     1      -8.345 -26.195 -88.411  1.00  0.00    -0.388 OA
ATOM     37  H5  UNL     1      -9.054 -25.564 -88.444  1.00  0.00     0.210 HD
ENDBRANCH   4  36
TORSDOF 15
ENDMDL
MODEL 4
REMARK VINA RESULT: -7.180080533      3.964      6.892
REMARK  15 active torsions:
REMARK  status: ('A' for Active; 'I' for Inactive)
REMARK    1  A    between atoms: C2_2  and  C3_3 
REMARK    2  A    between atoms: C3_3  and  C5_5 
REMARK    3  A    between atoms: C5_5  and  C6_6 
REMARK    4  A    between atoms: C5_5  and  C20_33 
REMARK       I    between atoms: C6_6  and  N1_8 
REMARK    5  A    between atoms: N1_8  and  C7_10 
REMARK    6  A    between atoms: C7_10  and  C8_11 
REMARK    7  A    between atoms: C9_13  and  O3_14 
REMARK    8  A    between atoms: O3_14  and  C10_15 
REMARK    9  A    between atoms: C10_15  and  C11_16 
REMARK   10  A    between atoms: C14_19  and  O4_20 
REMARK   11  A    between atoms: C17_24  and  O5_25 
REMARK   12  A    between atoms: C18_27  and  O6_28 
REMARK   13  A    between atoms: C19_30  and  O7_31 
REMARK   14  A    between atoms: C20_33  and  O8_34 
REMARK   15  A    between atoms: C20_33  and  O9_36 
ROOT
HETATM    1  C8  UNL     1      -7.224 -25.808 -88.785  1.00  0.00     0.096 C 
HETATM    2  O2  UNL     1      -6.786 -27.096 -88.619  1.00  0.00    -0.318 OA
HETATM    3  C9  UNL     1      -6.972 -27.655 -87.393  1.00  0.00     0.297 C 
HETATM    4  C17 UNL     1      -8.103 -27.165 -86.577  1.00  0.00     0.205 C 
HETATM    5  C18 UNL     1      -8.473 -25.740 -86.751  1.00  0.00     0.187 C 
HETATM    6  C19 UNL     1      -8.582 -25.518 -88.292  1.00  0.00     0.207 C 
ENDROOT
BRANCH   1   7
HETATM    7  C7  UNL     1      -6.874 -25.236 -90.100  1.00  0.00     0.126 C 
BRANCH   7   8
HETATM    8  N1  UNL     1      -6.262 -23.975 -90.198  1.00  0.00    -0.334 N 
HETATM    9  C6  UNL     1      -4.965 -23.515 -89.952  1.00  0.00     0.230 C 
HETATM   10  O1  UNL     1      -4.064 -24.279 -89.568  1.00  0.00    -0.273 OA
ATOM     11  H1  UNL     1      -6.897 -23.243 -90.516  1.00  0.00     0.168 HD
BRANCH   9  12
HETATM   12  C5  UNL     1      -4.583 -22.069 -90.137  1.00  0.00     0.137 C 
BRANCH  12  13
HETATM   13  C3  UNL     1      -4.969 -21.599 -91.516  1.00  0.00    -0.001 C 
HETATM   14  C4  UNL     1      -4.983 -20.115 -91.651  1.00  0.00     0.011 C 
BRANCH  13  15
HETATM   15  C2  UNL     1      -4.143 -22.291 -92.548  1.00  0.00     0.001 C 
HETATM   16  C1  UNL     1      -5.001 -22.652 -93.769  1.00  0.00     0.005 C 
ENDBRANCH  13  15
ENDBRANCH  12  13
BRANCH  12  17
HETATM   17  C20 UNL     1      -5.180 -21.293 -89.014  1.00  0.00     0.269 C 
BRANCH  17  18
HETATM   18  O8  UNL     1      -4.432 -21.685 -87.858  1.00  0.00    -0.370 OA
ATOM     19  H8  UNL     1      -4.999 -22.291 -87.396  1.00  0.00     0.212 HD
ENDBRANCH  17  18
BRANCH  17  20
HETATM   20  O9  UNL     1      -6.524 -21.570 -88.784  1.00  0.00    -0.365 OA
HETATM   21  C21 UNL     1      -6.879 -21.679 -87.466  1.00  0.00     0.204 C 
ENDBRANCH  17  20
ENDBRANCH  12  17
ENDBRANCH   9  12
ENDBRANCH   7   8
ENDBRANCH   1   7
BRANCH   6  22
HETATM   22  O7  UNL     1      -8.965 -24.197 -88.514  1.00  0.00    -0.386 OA
ATOM     23  H7  UNL     1      -9.517 -24.097 -89.281  1.00  0.00     0.210 HD
ENDBRANCH   6  22
BRANCH   3  24
HETATM   24  O3  UNL     1      -5.778 -27.563 -86.679  1.00  0.00    -0.357 OA
BRANCH  24  25
HETATM   25  C10 UNL     1      -4.674 -27.952 -87.439  1.00  0.00     0.179 C 
BRANCH  25  26
HETATM   26  C11 UNL     1      -3.556 -26.965 -87.217  1.00  0.00     0.032 C 
HETATM   27  C12 UNL     1      -2.893 -27.225 -85.912  1.00  0.00    -0.021 C 
HETATM   28  C13 UNL     1      -1.805 -26.503 -85.642  1.00  0.00     0.001 C 
HETATM   29  C14 UNL     1      -1.403 -25.521 -86.711  1.00  0.00     0.140 C 
HETATM   30  C15 UNL     1      -1.296 -26.297 -88.008  1.00  0.00     0.036 C 
HETATM   31  C16 UNL     1      -2.499 -27.139 -88.290  1.00  0.00     0.013 C 
BRANCH  29  32
HETATM   32  O4  UNL     1      -0.181 -25.005 -86.344  1.00  0.00    -0.392 OA
ATOM     33  H4  UNL     1       0.427 -25.207 -87.045  1.00  0.00     0.210 HD
ENDBRANCH  29  32
ENDBRANCH  25  26
ENDBRANCH  24  25
ENDBRANCH   3  24
BRANCH   5  34
HETATM   34  O6  UNL     1      -7.495 -24.881 -86.305  1.00  0.00    -0.390 OA
ATOM     35  H6  UNL     1      -7.838 -24.024 -86.079  1.00  0.00     0.210 HD
ENDBRANCH   5  34
BRANCH   4  36
HETATM   36  O5  UNL     1      -7.847 -27.370 -85.207  1.00  0.00    -0.388 OA
ATOM     37  H5  UNL     1      -8.625 -27.186 -84.693  1.00  0.00     0.210 HD
ENDBRANCH   4  36
TORSDOF 15
ENDMDL
MODEL 5
REMARK VINA RESULT: -7.149795059      1.399      1.803
REMARK  15 active torsions:
REMARK  status: ('A' for Active; 'I' for Inactive)
REMARK    1  A    between atoms: C2_2  and  C3_3 
REMARK    2  A    between atoms: C3_3  and  C5_5 
REMARK    3  A    between atoms: C5_5  and  C6_6 
REMARK    4  A    between atoms: C5_5  and  C20_33 
REMARK       I    between atoms: C6_6  and  N1_8 
REMARK    5  A    between atoms: N1_8  and  C7_10 
REMARK    6  A    between atoms: C7_10  and  C8_11 
REMARK    7  A    between atoms: C9_13  and  O3_14 
REMARK    8  A    between atoms: O3_14  and  C10_15 
REMARK    9  A    between atoms: C10_15  and  C11_16 
REMARK   10  A    between atoms: C14_19  and  O4_20 
REMARK   11  A    between atoms: C17_24  and  O5_25 
REMARK   12  A    between atoms: C18_27  and  O6_28 
REMARK   13  A    between atoms: C19_30  and  O7_31 
REMARK   14  A    between atoms: C20_33  and  O8_34 
REMARK   15  A    between atoms: C20_33  and  O9_36 
ROOT
HETATM    1  C8  UNL     1      -8.270 -24.598 -90.977  1.00  0.00     0.096 C 
HETATM    2  O2  UNL     1      -7.061 -25.242 -90.993  1.00  0.00    -0.318 OA
HETATM    3  C9  UNL     1      -6.455 -25.444 -89.792  1.00  0.00     0.297 C 
HETATM    4  C17 UNL     1      -7.318 -25.554 -88.596  1.00  0.00     0.205 C 
HETATM    5  C18 UNL     1      -8.575 -24.768 -88.615  1.00  0.00     0.187 C 
HETATM    6  C19 UNL     1      -9.249 -25.083 -89.987  1.00  0.00     0.207 C 
ENDROOT
BRANCH   1   7
HETATM    7  C7  UNL     1      -8.798 -24.311 -92.324  1.00  0.00     0.126 C 
BRANCH   7   8
HETATM    8  N1  UNL     1      -7.953 -23.850 -93.347  1.00  0.00    -0.334 N 
HETATM    9  C6  UNL     1      -7.085 -24.489 -94.238  1.00  0.00     0.230 C 
HETATM   10  O1  UNL     1      -6.942 -25.723 -94.237  1.00  0.00    -0.273 OA
ATOM     11  H1  UNL     1      -7.977 -22.837 -93.465  1.00  0.00     0.168 HD
BRANCH   9  12
HETATM   12  C5  UNL     1      -6.272 -23.722 -95.250  1.00  0.00     0.137 C 
BRANCH  12  13
HETATM   13  C3  UNL     1      -5.027 -24.490 -95.609  1.00  0.00    -0.001 C 
HETATM   14  C4  UNL     1      -4.731 -24.485 -97.069  1.00  0.00     0.011 C 
BRANCH  13  15
HETATM   15  C2  UNL     1      -3.883 -24.046 -94.760  1.00  0.00     0.001 C 
HETATM   16  C1  UNL     1      -3.649 -22.537 -94.921  1.00  0.00     0.005 C 
ENDBRANCH  13  15
ENDBRANCH  12  13
BRANCH  12  17
HETATM   17  C20 UNL     1      -7.166 -23.393 -96.397  1.00  0.00     0.269 C 
BRANCH  17  18
HETATM   18  O8  UNL     1      -7.796 -22.162 -96.029  1.00  0.00    -0.370 OA
ATOM     19  H8  UNL     1      -8.716 -22.291 -96.227  1.00  0.00     0.212 HD
ENDBRANCH  17  18
BRANCH  17  20
HETATM   20  O9  UNL     1      -8.155 -24.341 -96.635  1.00  0.00    -0.365 OA
HETATM   21  C21 UNL     1      -8.946 -24.095 -97.727  1.00  0.00     0.204 C 
ENDBRANCH  17  20
ENDBRANCH  12  17
ENDBRANCH   9  12
ENDBRANCH   7   8
ENDBRANCH   1   7
BRANCH   6  22
HETATM   22  O7  UNL     1     -10.459 -24.395 -90.043  1.00  0.00    -0.386 OA
ATOM     23  H7  UNL     1     -11.088 -24.705 -89.402  1.00  0.00     0.210 HD
ENDBRANCH   6  22
BRANCH   3  24
HETATM   24  O3  UNL     1      -5.492 -24.452 -89.610  1.00  0.00    -0.357 OA
BRANCH  24  25
HETATM   25  C10 UNL     1      -4.893 -24.067 -90.810  1.00  0.00     0.179 C 
BRANCH  25  26
HETATM   26  C11 UNL     1      -4.475 -22.623 -90.707  1.00  0.00     0.032 C 
HETATM   27  C12 UNL     1      -5.263 -21.791 -91.654  1.00  0.00    -0.021 C 
HETATM   28  C13 UNL     1      -5.082 -20.472 -91.581  1.00  0.00     0.001 C 
HETATM   29  C14 UNL     1      -4.097 -20.014 -90.538  1.00  0.00     0.140 C 
HETATM   30  C15 UNL     1      -4.528 -20.630 -89.222  1.00  0.00     0.036 C 
HETATM   31  C16 UNL     1      -4.770 -22.103 -89.314  1.00  0.00     0.013 C 
BRANCH  29  32
HETATM   32  O4  UNL     1      -4.175 -18.641 -90.487  1.00  0.00    -0.392 OA
ATOM     33  H4  UNL     1      -3.508 -18.347 -89.879  1.00  0.00     0.210 HD
ENDBRANCH  29  32
ENDBRANCH  25  26
ENDBRANCH  24  25
ENDBRANCH   3  24
BRANCH   5  34
HETATM   34  O6  UNL     1      -8.351 -23.411 -88.596  1.00  0.00    -0.390 OA
ATOM     35  H6  UNL     1      -7.748 -23.150 -87.910  1.00  0.00     0.210 HD
ENDBRANCH   5  34
BRANCH   4  36
HETATM   36  O5  UNL     1      -6.605 -25.183 -87.439  1.00  0.00    -0.388 OA
ATOM     37  H5  UNL     1      -6.998 -25.574 -86.668  1.00  0.00     0.210 HD
ENDBRANCH   4  36
TORSDOF 15
ENDMDL
