MODEL 1
REMARK VINA RESULT: -7.488236658      0.000      0.000
REMARK  5 active torsions:
REMARK  status: ('A' for Active; 'I' for Inactive)
REMARK    1  A    between atoms: C3_7  and  N3_8 
REMARK    2  A    between atoms: N4_11  and  C6_12 
REMARK    3  A    between atoms: C7_15  and  N6_16 
REMARK    4  A    between atoms: C8_21  and  C9_22 
REMARK    5  A    between atoms: C9_22  and  O1_23 
ROOT
HETATM    1  C6  UNL     1      21.955  17.092  16.605  1.00  0.00     0.142 A 
HETATM    2  N5  UNL     1      20.698  17.624  16.684  1.00  0.00    -0.175 N 
ATOM      3  H5  UNL     1      20.229  17.882  15.815  1.00  0.00     0.186 HD
HETATM    4  C7  UNL     1      20.047  17.827  17.836  1.00  0.00     0.677 A 
HETATM    5  N7  UNL     1      20.654  17.491  18.988  1.00  0.00    -0.192 N 
ATOM      6  H7  UNL     1      20.170  17.638  19.874  1.00  0.00     0.184 HD
HETATM    7  C8  UNL     1      21.894  16.961  18.985  1.00  0.00     0.074 A 
HETATM    8  C10 UNL     1      22.565  16.753  17.794  1.00  0.00     0.114 A 
HETATM    9  C11 UNL     1      23.888  16.178  17.762  1.00  0.00     0.105 C 
HETATM   10  N8  UNL     1      24.948  15.702  17.754  1.00  0.00    -0.191 NA
ENDROOT
BRANCH   1  11
HETATM   11  N4  UNL     1      22.550  16.934  15.326  1.00  0.00    -0.362 N 
HETATM   12  C5  UNL     1      23.720  17.646  14.916  1.00  0.00     0.145 C 
HETATM   13  C4  UNL     1      24.194  17.072  13.577  1.00  0.00     0.161 C 
HETATM   14  N3  UNL     1      23.124  17.114  12.624  1.00  0.00    -0.213 N 
HETATM   15  C13 UNL     1      21.770  16.779  13.076  1.00  0.00     0.161 C 
HETATM   16  C12 UNL     1      21.930  16.002  14.386  1.00  0.00     0.145 C 
BRANCH  14  17
HETATM   17  C3  UNL     1      23.311  17.465  11.245  1.00  0.00     0.696 A 
HETATM   18  N2  UNL     1      24.502  17.405  10.635  1.00  0.00    -0.131 N 
HETATM   19  N1  UNL     1      24.358  17.789   9.360  1.00  0.00    -0.275 N 
ATOM     20  H2  UNL     1      25.377  17.113  11.071  1.00  0.00     0.205 HD
HETATM   21  C2  UNL     1      23.061  18.100   9.149  1.00  0.00     0.108 A 
ATOM     22  H1  UNL     1      25.104  17.838   8.665  1.00  0.00     0.189 HD
HETATM   23  C1  UNL     1      22.447  18.572   7.882  1.00  0.00     0.091 C 
HETATM   24  N9  UNL     1      22.433  17.893  10.328  1.00  0.00    -0.178 N 
ATOM     25  H9  UNL     1      21.437  18.040  10.495  1.00  0.00     0.185 HD
ENDBRANCH  14  17
ENDBRANCH   1  11
BRANCH   7  26
HETATM   26  C9  UNL     1      22.573  16.585  20.251  1.00  0.00     0.223 C 
BRANCH  26  27
HETATM   27  O1  UNL     1      23.785  17.301  20.324  1.00  0.00    -0.395 OA
ATOM     28  H1  UNL     1      23.840  17.697  21.186  1.00  0.00     0.209 HD
ENDBRANCH  26  27
ENDBRANCH   7  26
BRANCH   4  29
HETATM   29  N6  UNL     1      18.845  18.340  17.866  1.00  0.00    -0.234 N 
ATOM     30  H62 UNL     1      18.043  17.757  17.626  1.00  0.00     0.174 HD
ATOM     31  H61 UNL     1      18.683  19.312  18.125  1.00  0.00     0.174 HD
ENDBRANCH   4  29
TORSDOF 5
ENDMDL
MODEL 2
REMARK VINA RESULT: -7.307306686      3.041      7.988
REMARK  5 active torsions:
REMARK  status: ('A' for Active; 'I' for Inactive)
REMARK    1  A    between atoms: C3_7  and  N3_8 
REMARK    2  A    between atoms: N4_11  and  C6_12 
REMARK    3  A    between atoms: C7_15  and  N6_16 
REMARK    4  A    between atoms: C8_21  and  C9_22 
REMARK    5  A    between atoms: C9_22  and  O1_23 
ROOT
HETATM    1  C6  UNL     1      23.257  17.224  12.353  1.00  0.00     0.142 A 
HETATM    2  N5  UNL     1      24.540  17.587  12.047  1.00  0.00    -0.175 N 
ATOM      3  H5  UNL     1      25.232  17.584  12.797  1.00  0.00     0.186 HD
HETATM    4  C7  UNL     1      24.940  17.946  10.822  1.00  0.00     0.677 A 
HETATM    5  N7  UNL     1      24.037  17.953   9.825  1.00  0.00    -0.192 N 
ATOM      6  H7  UNL     1      24.327  18.223   8.885  1.00  0.00     0.184 HD
HETATM    7  C8  UNL     1      22.754  17.607  10.054  1.00  0.00     0.074 A 
HETATM    8  C10 UNL     1      22.343  17.237  11.321  1.00  0.00     0.114 A 
HETATM    9  C11 UNL     1      20.979  16.852  11.591  1.00  0.00     0.105 C 
HETATM   10  N8  UNL     1      19.879  16.532  11.788  1.00  0.00    -0.191 NA
ENDROOT
BRANCH   1  11
HETATM   11  N4  UNL     1      22.949  16.874  13.693  1.00  0.00    -0.362 N 
HETATM   12  C5  UNL     1      22.098  15.778  14.037  1.00  0.00     0.145 C 
HETATM   13  C4  UNL     1      22.165  15.567  15.553  1.00  0.00     0.161 C 
HETATM   14  N3  UNL     1      21.841  16.790  16.229  1.00  0.00    -0.213 N 
HETATM   15  C13 UNL     1      22.359  18.049  15.685  1.00  0.00     0.161 C 
HETATM   16  C12 UNL     1      23.529  17.677  14.768  1.00  0.00     0.145 C 
BRANCH  14  17
HETATM   17  C3  UNL     1      21.036  16.843  17.415  1.00  0.00     0.696 A 
HETATM   18  N2  UNL     1      20.384  15.778  17.900  1.00  0.00    -0.131 N 
HETATM   19  N1  UNL     1      19.726  16.139  19.009  1.00  0.00    -0.275 N 
ATOM     20  H2  UNL     1      20.389  14.844  17.491  1.00  0.00     0.205 HD
HETATM   21  C2  UNL     1      19.957  17.450  19.240  1.00  0.00     0.108 A 
ATOM     22  H1  UNL     1      19.148  15.526  19.584  1.00  0.00     0.189 HD
HETATM   23  C1  UNL     1      19.430  18.270  20.359  1.00  0.00     0.091 C 
HETATM   24  N9  UNL     1      20.769  17.864  18.241  1.00  0.00    -0.178 N 
ATOM     25  H9  UNL     1      21.126  18.814  18.132  1.00  0.00     0.185 HD
ENDBRANCH  14  17
ENDBRANCH   1  11
BRANCH   7  26
HETATM   26  C9  UNL     1      21.749  17.610   8.960  1.00  0.00     0.223 C 
BRANCH  26  27
HETATM   27  O1  UNL     1      21.792  18.872   8.334  1.00  0.00    -0.395 OA
ATOM     28  H1  UNL     1      21.422  19.509   8.933  1.00  0.00     0.209 HD
ENDBRANCH  26  27
ENDBRANCH   7  26
BRANCH   4  29
HETATM   29  N6  UNL     1      26.177  18.287  10.573  1.00  0.00    -0.234 N 
ATOM     30  H62 UNL     1      26.657  18.931  11.202  1.00  0.00     0.174 HD
ATOM     31  H61 UNL     1      26.681  17.926   9.764  1.00  0.00     0.174 HD
ENDBRANCH   4  29
TORSDOF 5
ENDMDL
MODEL 3
REMARK VINA RESULT: -6.883500121      2.825      7.537
REMARK  5 active torsions:
REMARK  status: ('A' for Active; 'I' for Inactive)
REMARK    1  A    between atoms: C3_7  and  N3_8 
REMARK    2  A    between atoms: N4_11  and  C6_12 
REMARK    3  A    between atoms: C7_15  and  N6_16 
REMARK    4  A    between atoms: C8_21  and  C9_22 
REMARK    5  A    between atoms: C9_22  and  O1_23 
ROOT
HETATM    1  C6  UNL     1      22.667  17.255  12.533  1.00  0.00     0.142 A 
HETATM    2  N5  UNL     1      21.761  17.893  11.731  1.00  0.00    -0.175 N 
ATOM      3  H5  UNL     1      20.822  18.052  12.099  1.00  0.00     0.186 HD
HETATM    4  C7  UNL     1      22.033  18.320  10.493  1.00  0.00     0.677 A 
HETATM    5  N7  UNL     1      23.266  18.117   9.997  1.00  0.00    -0.192 N 
ATOM      6  H7  UNL     1      23.490  18.438   9.055  1.00  0.00     0.184 HD
HETATM    7  C8  UNL     1      24.211  17.494  10.731  1.00  0.00     0.074 A 
HETATM    8  C10 UNL     1      23.928  17.053  12.011  1.00  0.00     0.114 A 
HETATM    9  C11 UNL     1      24.922  16.393  12.821  1.00  0.00     0.105 C 
HETATM   10  N8  UNL     1      25.739  15.876  13.465  1.00  0.00    -0.191 NA
ENDROOT
BRANCH   1  11
HETATM   11  N4  UNL     1      22.259  16.837  13.826  1.00  0.00    -0.362 N 
HETATM   12  C5  UNL     1      21.039  16.132  14.070  1.00  0.00     0.145 C 
HETATM   13  C4  UNL     1      21.032  15.660  15.526  1.00  0.00     0.161 C 
HETATM   14  N3  UNL     1      21.243  16.778  16.401  1.00  0.00    -0.213 N 
HETATM   15  C13 UNL     1      22.224  17.796  16.011  1.00  0.00     0.161 C 
HETATM   16  C12 UNL     1      23.128  17.147  14.959  1.00  0.00     0.145 C 
BRANCH  14  17
HETATM   17  C3  UNL     1      20.544  16.949  17.642  1.00  0.00     0.696 A 
HETATM   18  N2  UNL     1      20.148  15.919  18.401  1.00  0.00    -0.131 N 
HETATM   19  N1  UNL     1      19.529  16.393  19.490  1.00  0.00    -0.275 N 
ATOM     20  H2  UNL     1      20.295  14.933  18.185  1.00  0.00     0.205 HD
HETATM   21  C2  UNL     1      19.527  17.742  19.430  1.00  0.00     0.108 A 
ATOM     22  H1  UNL     1      19.127  15.829  20.239  1.00  0.00     0.189 HD
HETATM   23  C1  UNL     1      18.950  18.684  20.422  1.00  0.00     0.091 C 
HETATM   24  N9  UNL     1      20.159  18.063  18.278  1.00  0.00    -0.178 N 
ATOM     25  H9  UNL     1      20.320  19.013  17.943  1.00  0.00     0.185 HD
ENDBRANCH  14  17
ENDBRANCH   1  11
BRANCH   7  26
HETATM   26  C9  UNL     1      25.577  17.266  10.194  1.00  0.00     0.223 C 
BRANCH  26  27
HETATM   27  O1  UNL     1      26.288  18.479  10.285  1.00  0.00    -0.395 OA
ATOM     28  H1  UNL     1      25.775  19.153   9.856  1.00  0.00     0.209 HD
ENDBRANCH  26  27
ENDBRANCH   7  26
BRANCH   4  29
HETATM   29  N6  UNL     1      21.135  18.926   9.760  1.00  0.00    -0.234 N 
ATOM     30  H62 UNL     1      20.508  19.603  10.192  1.00  0.00     0.174 HD
ATOM     31  H61 UNL     1      21.043  18.739   8.762  1.00  0.00     0.174 HD
ENDBRANCH   4  29
TORSDOF 5
ENDMDL
MODEL 4
REMARK VINA RESULT: -6.835784930      1.925      2.019
REMARK  5 active torsions:
REMARK  status: ('A' for Active; 'I' for Inactive)
REMARK    1  A    between atoms: C3_7  and  N3_8 
REMARK    2  A    between atoms: N4_11  and  C6_12 
REMARK    3  A    between atoms: C7_15  and  N6_16 
REMARK    4  A    between atoms: C8_21  and  C9_22 
REMARK    5  A    between atoms: C9_22  and  O1_23 
ROOT
HETATM    1  C6  UNL     1      21.289  15.883  16.203  1.00  0.00     0.142 A 
HETATM    2  N5  UNL     1      20.297  14.948  16.096  1.00  0.00    -0.175 N 
ATOM      3  H5  UNL     1      20.179  14.473  15.201  1.00  0.00     0.186 HD
HETATM    4  C7  UNL     1      19.473  14.620  17.098  1.00  0.00     0.677 A 
HETATM    5  N7  UNL     1      19.618  15.238  18.283  1.00  0.00    -0.192 N 
ATOM      6  H7  UNL     1      18.998  14.999  19.056  1.00  0.00     0.184 HD
HETATM    7  C8  UNL     1      20.575  16.172  18.460  1.00  0.00     0.074 A 
HETATM    8  C10 UNL     1      21.426  16.510  17.424  1.00  0.00     0.114 A 
HETATM    9  C11 UNL     1      22.465  17.497  17.590  1.00  0.00     0.105 C 
HETATM   10  N8  UNL     1      23.305  18.285  17.745  1.00  0.00    -0.191 NA
ENDROOT
BRANCH   1  11
HETATM   11  N4  UNL     1      22.095  16.155  15.068  1.00  0.00    -0.362 N 
HETATM   12  C5  UNL     1      22.894  17.334  14.941  1.00  0.00     0.145 C 
HETATM   13  C4  UNL     1      23.783  17.189  13.703  1.00  0.00     0.161 C 
HETATM   14  N3  UNL     1      22.974  16.909  12.553  1.00  0.00    -0.213 N 
HETATM   15  C13 UNL     1      21.843  15.987  12.701  1.00  0.00     0.161 C 
HETATM   16  C12 UNL     1      22.103  15.182  13.977  1.00  0.00     0.145 C 
BRANCH  14  17
HETATM   17  C3  UNL     1      23.216  17.484  11.261  1.00  0.00     0.696 A 
HETATM   18  N2  UNL     1      24.419  17.933  10.879  1.00  0.00    -0.131 N 
HETATM   19  N1  UNL     1      24.330  18.407   9.630  1.00  0.00    -0.275 N 
ATOM     20  H2  UNL     1      25.265  17.917  11.448  1.00  0.00     0.205 HD
HETATM   21  C2  UNL     1      23.057  18.261   9.203  1.00  0.00     0.108 A 
ATOM     22  H1  UNL     1      25.096  18.810   9.090  1.00  0.00     0.189 HD
HETATM   23  C1  UNL     1      22.503  18.648   7.881  1.00  0.00     0.091 C 
HETATM   24  N9  UNL     1      22.386  17.689  10.229  1.00  0.00    -0.178 N 
ATOM     25  H9  UNL     1      21.395  17.449  10.219  1.00  0.00     0.185 HD
ENDBRANCH  14  17
ENDBRANCH   1  11
BRANCH   7  26
HETATM   26  C9  UNL     1      20.746  16.860  19.765  1.00  0.00     0.223 C 
BRANCH  26  27
HETATM   27  O1  UNL     1      19.480  17.315  20.186  1.00  0.00    -0.395 OA
ATOM     28  H1  UNL     1      19.257  18.081  19.671  1.00  0.00     0.209 HD
ENDBRANCH  26  27
ENDBRANCH   7  26
BRANCH   4  29
HETATM   29  N6  UNL     1      18.536  13.719  16.951  1.00  0.00    -0.234 N 
ATOM     30  H62 UNL     1      17.648  13.983  16.523  1.00  0.00     0.174 HD
ATOM     31  H61 UNL     1      18.666  12.755  17.255  1.00  0.00     0.174 HD
ENDBRANCH   4  29
TORSDOF 5
ENDMDL
MODEL 5
REMARK VINA RESULT: -6.131609673      1.822      2.022
REMARK  5 active torsions:
REMARK  status: ('A' for Active; 'I' for Inactive)
REMARK    1  A    between atoms: C3_7  and  N3_8 
REMARK    2  A    between atoms: N4_11  and  C6_12 
REMARK    3  A    between atoms: C7_15  and  N6_16 
REMARK    4  A    between atoms: C8_21  and  C9_22 
REMARK    5  A    between atoms: C9_22  and  O1_23 
ROOT
HETATM    1  C6  UNL     1      21.518  15.656  15.890  1.00  0.00     0.142 A 
HETATM    2  N5  UNL     1      20.278  15.079  15.918  1.00  0.00    -0.175 N 
ATOM      3  H5  UNL     1      19.773  14.983  15.036  1.00  0.00     0.186 HD
HETATM    4  C7  UNL     1      19.689  14.634  17.034  1.00  0.00     0.677 A 
HETATM    5  N7  UNL     1      20.344  14.754  18.202  1.00  0.00    -0.192 N 
ATOM      6  H7  UNL     1      19.909  14.419  19.061  1.00  0.00     0.184 HD
HETATM    7  C8  UNL     1      21.571  15.313  18.250  1.00  0.00     0.074 A 
HETATM    8  C10 UNL     1      22.178  15.773  17.096  1.00  0.00     0.114 A 
HETATM    9  C11 UNL     1      23.493  16.366  17.117  1.00  0.00     0.105 C 
HETATM   10  N8  UNL     1      24.559  16.828  17.151  1.00  0.00    -0.191 NA
ENDROOT
BRANCH   1  11
HETATM   11  N4  UNL     1      22.036  16.101  14.646  1.00  0.00    -0.362 N 
HETATM   12  C5  UNL     1      22.700  17.356  14.481  1.00  0.00     0.145 C 
HETATM   13  C4  UNL     1      23.307  17.404  13.076  1.00  0.00     0.161 C 
HETATM   14  N3  UNL     1      22.289  17.152  12.098  1.00  0.00    -0.213 N 
HETATM   15  C13 UNL     1      21.287  16.118  12.380  1.00  0.00     0.161 C 
HETATM   16  C12 UNL     1      21.877  15.232  13.482  1.00  0.00     0.145 C 
BRANCH  14  17
HETATM   17  C3  UNL     1      22.201  17.858  10.852  1.00  0.00     0.696 A 
HETATM   18  N2  UNL     1      21.461  18.963  10.693  1.00  0.00    -0.131 N 
HETATM   19  N1  UNL     1      21.583  19.391   9.430  1.00  0.00    -0.275 N 
ATOM     20  H2  UNL     1      20.896  19.406  11.417  1.00  0.00     0.205 HD
HETATM   21  C2  UNL     1      22.411  18.552   8.770  1.00  0.00     0.108 A 
ATOM     22  H1  UNL     1      21.128  20.213   9.033  1.00  0.00     0.189 HD
HETATM   23  C1  UNL     1      22.832  18.641   7.349  1.00  0.00     0.091 C 
HETATM   24  N9  UNL     1      22.780  17.612   9.669  1.00  0.00    -0.178 N 
ATOM     25  H9  UNL     1      23.407  16.831   9.475  1.00  0.00     0.185 HD
ENDBRANCH  14  17
ENDBRANCH   1  11
BRANCH   7  26
HETATM   26  C9  UNL     1      22.304  15.450  19.534  1.00  0.00     0.223 C 
BRANCH  26  27
HETATM   27  O1  UNL     1      21.901  16.657  20.139  1.00  0.00    -0.395 OA
ATOM     28  H1  UNL     1      22.263  16.682  21.016  1.00  0.00     0.209 HD
ENDBRANCH  26  27
ENDBRANCH   7  26
BRANCH   4  29
HETATM   29  N6  UNL     1      18.500  14.089  17.015  1.00  0.00    -0.234 N 
ATOM     30  H62 UNL     1      17.958  14.098  16.151  1.00  0.00     0.174 HD
ATOM     31  H61 UNL     1      18.096  13.654  17.843  1.00  0.00     0.174 HD
ENDBRANCH   4  29
TORSDOF 5
ENDMDL
