MODEL 1
REMARK VINA RESULT: -7.307853303      0.000      0.000
REMARK  6 active torsions:
REMARK  status: ('A' for Active; 'I' for Inactive)
REMARK    1  A    between atoms: C4_6  and  N2_7 
REMARK    2  A    between atoms: N2_7  and  C5_9 
REMARK    3  A    between atoms: C5_9  and  C6_10 
REMARK    4  A    between atoms: C6_10  and  N3_11 
REMARK    5  A    between atoms: N3_11  and  C7_13 
REMARK    6  A    between atoms: C9_19  and  N6_20 
ROOT
HETATM    1  C1  UNL     1      18.400  15.917  12.462  1.00  0.00     0.021 C 
HETATM    2  C2  UNL     1      19.566  16.184  12.304  1.00  0.00    -0.041 C 
HETATM    3  C3  UNL     1      20.975  16.490  12.095  1.00  0.00     0.163 A 
HETATM    4  N1  UNL     1      21.902  16.168  13.003  1.00  0.00    -0.320 N 
ATOM      5  H1  UNL     1      21.589  15.698  13.853  1.00  0.00     0.169 HD
HETATM    6  C4  UNL     1      23.214  16.419  12.877  1.00  0.00     0.134 A 
HETATM    7  C10 UNL     1      23.630  17.051  11.734  1.00  0.00     0.122 A 
HETATM    8  N8  UNL     1      24.818  17.448  11.280  1.00  0.00    -0.346 N 
ATOM      9  H8  UNL     1      25.703  17.330  11.772  1.00  0.00     0.167 HD
HETATM   10  C11 UNL     1      24.674  18.029  10.077  1.00  0.00     0.184 A 
HETATM   11  N9  UNL     1      23.368  17.998   9.764  1.00  0.00    -0.332 N 
HETATM   12  C12 UNL     1      22.748  18.510   8.563  1.00  0.00     0.158 C 
HETATM   13  C13 UNL     1      22.690  17.397  10.775  1.00  0.00     0.141 A 
HETATM   14  N10 UNL     1      21.390  17.110  10.976  1.00  0.00    -0.319 N 
ATOM     15  H10 UNL     1      20.706  17.367  10.265  1.00  0.00     0.169 HD
ENDROOT
BRANCH   6  16
HETATM   16  N2  UNL     1      24.170  16.065  13.861  1.00  0.00    -0.373 N 
ATOM     17  H2  UNL     1      24.503  15.103  13.933  1.00  0.00     0.161 HD
BRANCH  16  18
HETATM   18  C5  UNL     1      24.675  17.094  14.771  1.00  0.00     0.141 C 
BRANCH  18  19
HETATM   19  C6  UNL     1      23.513  17.763  15.495  1.00  0.00     0.157 C 
BRANCH  19  20
HETATM   20  N3  UNL     1      23.285  17.133  16.755  1.00  0.00    -0.224 N 
ATOM     21  H3  UNL     1      24.065  17.102  17.411  1.00  0.00     0.177 HD
BRANCH  20  22
HETATM   22  C7  UNL     1      22.183  16.605  17.126  1.00  0.00     0.693 A 
HETATM   23  N4  UNL     1      21.735  15.491  16.526  1.00  0.00    -0.187 N 
HETATM   24  C8  UNL     1      20.581  14.891  16.876  1.00  0.00     0.215 A 
ATOM     25  H4  UNL     1      22.292  15.082  15.776  1.00  0.00     0.185 HD
HETATM   26  N5  UNL     1      19.844  15.427  17.865  1.00  0.00    -0.187 N 
HETATM   27  C9  UNL     1      20.264  16.538  18.481  1.00  0.00     0.691 A 
ATOM     28  H5  UNL     1      18.967  14.988  18.144  1.00  0.00     0.185 HD
HETATM   29  N7  UNL     1      21.437  17.129  18.111  1.00  0.00    -0.023 N 
ATOM     30  H7  UNL     1      21.750  17.975  18.587  1.00  0.00     0.203 HD
BRANCH  27  31
HETATM   31  N6  UNL     1      19.571  17.051  19.419  1.00  0.00    -0.234 N 
ATOM     32  H62 UNL     1      19.015  16.445  20.022  1.00  0.00     0.174 HD
ATOM     33  H61 UNL     1      19.574  18.060  19.564  1.00  0.00     0.174 HD
ENDBRANCH  27  31
ENDBRANCH  20  22
ENDBRANCH  19  20
ENDBRANCH  18  19
ENDBRANCH  16  18
ENDBRANCH   6  16
TORSDOF 6
ENDMDL
MODEL 2
REMARK VINA RESULT: -7.068310843      0.496      1.238
REMARK  6 active torsions:
REMARK  status: ('A' for Active; 'I' for Inactive)
REMARK    1  A    between atoms: C4_6  and  N2_7 
REMARK    2  A    between atoms: N2_7  and  C5_9 
REMARK    3  A    between atoms: C5_9  and  C6_10 
REMARK    4  A    between atoms: C6_10  and  N3_11 
REMARK    5  A    between atoms: N3_11  and  C7_13 
REMARK    6  A    between atoms: C9_19  and  N6_20 
ROOT
HETATM    1  C1  UNL     1      18.444  15.906  12.444  1.00  0.00     0.021 C 
HETATM    2  C2  UNL     1      19.610  16.173  12.286  1.00  0.00    -0.041 C 
HETATM    3  C3  UNL     1      21.019  16.479  12.079  1.00  0.00     0.163 A 
HETATM    4  N1  UNL     1      21.947  16.148  12.983  1.00  0.00    -0.320 N 
ATOM      5  H1  UNL     1      21.635  15.671  13.828  1.00  0.00     0.169 HD
HETATM    6  C4  UNL     1      23.259  16.399  12.857  1.00  0.00     0.134 A 
HETATM    7  C10 UNL     1      23.674  17.040  11.719  1.00  0.00     0.122 A 
HETATM    8  N8  UNL     1      24.862  17.440  11.267  1.00  0.00    -0.346 N 
ATOM      9  H8  UNL     1      25.748  17.316  11.756  1.00  0.00     0.167 HD
HETATM   10  C11 UNL     1      24.717  18.031  10.069  1.00  0.00     0.184 A 
HETATM   11  N9  UNL     1      23.410  18.005   9.757  1.00  0.00    -0.332 N 
HETATM   12  C12 UNL     1      22.790  18.528   8.562  1.00  0.00     0.158 C 
HETATM   13  C13 UNL     1      22.733  17.395  10.764  1.00  0.00     0.141 A 
HETATM   14  N10 UNL     1      21.433  17.108  10.965  1.00  0.00    -0.319 N 
ATOM     15  H10 UNL     1      20.749  17.372  10.257  1.00  0.00     0.169 HD
ENDROOT
BRANCH   6  16
HETATM   16  N2  UNL     1      24.216  16.035  13.836  1.00  0.00    -0.373 N 
ATOM     17  H2  UNL     1      24.547  15.072  13.900  1.00  0.00     0.161 HD
BRANCH  16  18
HETATM   18  C5  UNL     1      24.723  17.056  14.755  1.00  0.00     0.141 C 
BRANCH  18  19
HETATM   19  C6  UNL     1      23.589  17.580  15.627  1.00  0.00     0.157 C 
BRANCH  19  20
HETATM   20  N3  UNL     1      23.397  16.728  16.755  1.00  0.00    -0.224 N 
ATOM     21  H3  UNL     1      24.213  16.232  17.112  1.00  0.00     0.177 HD
BRANCH  20  22
HETATM   22  C7  UNL     1      22.284  16.538  17.354  1.00  0.00     0.693 A 
HETATM   23  N4  UNL     1      21.962  17.279  18.425  1.00  0.00    -0.187 N 
HETATM   24  C8  UNL     1      20.803  17.122  19.095  1.00  0.00     0.215 A 
ATOM     25  H4  UNL     1      22.620  17.989  18.745  1.00  0.00     0.185 HD
HETATM   26  N5  UNL     1      19.933  16.187  18.676  1.00  0.00    -0.187 N 
HETATM   27  C9  UNL     1      20.226  15.433  17.610  1.00  0.00     0.691 A 
ATOM     28  H5  UNL     1      19.050  16.053  19.170  1.00  0.00     0.185 HD
HETATM   29  N7  UNL     1      21.405  15.609  16.946  1.00  0.00    -0.023 N 
ATOM     30  H7  UNL     1      21.621  15.030  16.135  1.00  0.00     0.203 HD
BRANCH  27  31
HETATM   31  N6  UNL     1      19.406  14.546  17.208  1.00  0.00    -0.234 N 
ATOM     32  H62 UNL     1      18.440  14.569  17.535  1.00  0.00     0.174 HD
ATOM     33  H61 UNL     1      19.714  13.817  16.564  1.00  0.00     0.174 HD
ENDBRANCH  27  31
ENDBRANCH  20  22
ENDBRANCH  19  20
ENDBRANCH  18  19
ENDBRANCH  16  18
ENDBRANCH   6  16
TORSDOF 6
ENDMDL
MODEL 3
REMARK VINA RESULT: -6.836588867      1.577      3.711
REMARK  6 active torsions:
REMARK  status: ('A' for Active; 'I' for Inactive)
REMARK    1  A    between atoms: C4_6  and  N2_7 
REMARK    2  A    between atoms: N2_7  and  C5_9 
REMARK    3  A    between atoms: C5_9  and  C6_10 
REMARK    4  A    between atoms: C6_10  and  N3_11 
REMARK    5  A    between atoms: N3_11  and  C7_13 
REMARK    6  A    between atoms: C9_19  and  N6_20 
ROOT
HETATM    1  C1  UNL     1      25.709  17.928   9.845  1.00  0.00     0.021 C 
HETATM    2  C2  UNL     1      25.072  17.602  10.816  1.00  0.00    -0.041 C 
HETATM    3  C3  UNL     1      24.290  17.229  11.988  1.00  0.00     0.163 A 
HETATM    4  N1  UNL     1      24.841  17.170  13.205  1.00  0.00    -0.320 N 
ATOM      5  H1  UNL     1      25.831  17.396  13.288  1.00  0.00     0.169 HD
HETATM    6  C4  UNL     1      24.181  16.835  14.325  1.00  0.00     0.134 A 
HETATM    7  C10 UNL     1      22.851  16.532  14.209  1.00  0.00     0.122 A 
HETATM    8  N8  UNL     1      21.908  16.168  15.078  1.00  0.00    -0.346 N 
ATOM      9  H8  UNL     1      22.051  16.043  16.080  1.00  0.00     0.167 HD
HETATM   10  C11 UNL     1      20.741  15.988  14.436  1.00  0.00     0.184 A 
HETATM   11  N9  UNL     1      20.951  16.244  13.133  1.00  0.00    -0.332 N 
HETATM   12  C12 UNL     1      19.978  16.178  12.066  1.00  0.00     0.158 C 
HETATM   13  C13 UNL     1      22.253  16.585  12.958  1.00  0.00     0.141 A 
HETATM   14  N10 UNL     1      22.983  16.931  11.882  1.00  0.00    -0.319 N 
ATOM     15  H10 UNL     1      22.536  16.968  10.966  1.00  0.00     0.169 HD
ENDROOT
BRANCH   6  16
HETATM   16  N2  UNL     1      24.797  16.781  15.600  1.00  0.00    -0.373 N 
ATOM     17  H2  UNL     1      25.810  16.691  15.680  1.00  0.00     0.161 HD
BRANCH  16  18
HETATM   18  C5  UNL     1      23.962  16.858  16.800  1.00  0.00     0.141 C 
BRANCH  18  19
HETATM   19  C6  UNL     1      24.427  15.830  17.824  1.00  0.00     0.157 C 
BRANCH  19  20
HETATM   20  N3  UNL     1      23.511  15.767  18.915  1.00  0.00    -0.224 N 
ATOM     21  H3  UNL     1      23.890  15.539  19.834  1.00  0.00     0.177 HD
BRANCH  20  22
HETATM   22  C7  UNL     1      22.253  15.975  18.833  1.00  0.00     0.693 A 
HETATM   23  N4  UNL     1      21.711  17.059  19.408  1.00  0.00    -0.187 N 
HETATM   24  C8  UNL     1      20.392  17.329  19.354  1.00  0.00     0.215 A 
ATOM     25  H4  UNL     1      22.323  17.706  19.907  1.00  0.00     0.185 HD
HETATM   26  N5  UNL     1      19.583  16.479  18.698  1.00  0.00    -0.187 N 
HETATM   27  C9  UNL     1      20.094  15.389  18.114  1.00  0.00     0.691 A 
ATOM     28  H5  UNL     1      18.581  16.665  18.646  1.00  0.00     0.185 HD
HETATM   29  N7  UNL     1      21.433  15.136  18.182  1.00  0.00    -0.023 N 
ATOM     30  H7  UNL     1      21.814  14.303  17.733  1.00  0.00     0.203 HD
BRANCH  27  31
HETATM   31  N6  UNL     1      19.332  14.580  17.491  1.00  0.00    -0.234 N 
ATOM     32  H62 UNL     1      19.057  14.787  16.531  1.00  0.00     0.174 HD
ATOM     33  H61 UNL     1      19.001  13.732  17.950  1.00  0.00     0.174 HD
ENDBRANCH  27  31
ENDBRANCH  20  22
ENDBRANCH  19  20
ENDBRANCH  18  19
ENDBRANCH  16  18
ENDBRANCH   6  16
TORSDOF 6
ENDMDL
MODEL 4
REMARK VINA RESULT: -6.608962892      0.967      1.008
REMARK  6 active torsions:
REMARK  status: ('A' for Active; 'I' for Inactive)
REMARK    1  A    between atoms: C4_6  and  N2_7 
REMARK    2  A    between atoms: N2_7  and  C5_9 
REMARK    3  A    between atoms: C5_9  and  C6_10 
REMARK    4  A    between atoms: C6_10  and  N3_11 
REMARK    5  A    between atoms: N3_11  and  C7_13 
REMARK    6  A    between atoms: C9_19  and  N6_20 
ROOT
HETATM    1  C1  UNL     1      18.576  15.987  12.575  1.00  0.00     0.021 C 
HETATM    2  C2  UNL     1      19.739  16.257  12.397  1.00  0.00    -0.041 C 
HETATM    3  C3  UNL     1      21.145  16.565  12.166  1.00  0.00     0.163 A 
HETATM    4  N1  UNL     1      22.079  16.291  13.082  1.00  0.00    -0.320 N 
ATOM      5  H1  UNL     1      21.776  15.857  13.953  1.00  0.00     0.169 HD
HETATM    6  C4  UNL     1      23.389  16.547  12.936  1.00  0.00     0.134 A 
HETATM    7  C10 UNL     1      23.792  17.130  11.764  1.00  0.00     0.122 A 
HETATM    8  N8  UNL     1      24.974  17.517  11.285  1.00  0.00    -0.346 N 
ATOM      9  H8  UNL     1      25.863  17.428  11.776  1.00  0.00     0.167 HD
HETATM   10  C11 UNL     1      24.818  18.042  10.058  1.00  0.00     0.184 A 
HETATM   11  N9  UNL     1      23.510  17.987   9.755  1.00  0.00    -0.332 N 
HETATM   12  C12 UNL     1      22.878  18.439   8.536  1.00  0.00     0.158 C 
HETATM   13  C13 UNL     1      22.843  17.426  10.796  1.00  0.00     0.141 A 
HETATM   14  N10 UNL     1      21.548  17.137  11.018  1.00  0.00    -0.319 N 
ATOM     15  H10 UNL     1      20.857  17.356  10.301  1.00  0.00     0.169 HD
ENDROOT
BRANCH   6  16
HETATM   16  N2  UNL     1      24.353  16.245  13.928  1.00  0.00    -0.373 N 
ATOM     17  H2  UNL     1      24.938  15.414  13.842  1.00  0.00     0.161 HD
BRANCH  16  18
HETATM   18  C5  UNL     1      24.501  17.139  15.078  1.00  0.00     0.141 C 
BRANCH  18  19
HETATM   19  C6  UNL     1      24.326  16.355  16.373  1.00  0.00     0.157 C 
BRANCH  19  20
HETATM   20  N3  UNL     1      23.646  17.148  17.344  1.00  0.00    -0.224 N 
ATOM     21  H3  UNL     1      24.217  17.651  18.022  1.00  0.00     0.177 HD
BRANCH  20  22
HETATM   22  C7  UNL     1      22.378  17.277  17.432  1.00  0.00     0.693 A 
HETATM   23  N4  UNL     1      21.652  17.550  16.337  1.00  0.00    -0.187 N 
HETATM   24  C8  UNL     1      20.313  17.696  16.370  1.00  0.00     0.215 A 
ATOM     25  H4  UNL     1      22.133  17.649  15.443  1.00  0.00     0.185 HD
HETATM   26  N5  UNL     1      19.675  17.565  17.546  1.00  0.00    -0.187 N 
HETATM   27  C9  UNL     1      20.372  17.294  18.656  1.00  0.00     0.691 A 
ATOM     28  H5  UNL     1      18.661  17.674  17.593  1.00  0.00     0.185 HD
HETATM   29  N7  UNL     1      21.727  17.149  18.599  1.00  0.00    -0.023 N 
ATOM     30  H7  UNL     1      22.250  16.941  19.450  1.00  0.00     0.203 HD
BRANCH  27  31
HETATM   31  N6  UNL     1      19.773  17.168  19.773  1.00  0.00    -0.234 N 
ATOM     32  H62 UNL     1      18.834  17.550  19.886  1.00  0.00     0.174 HD
ATOM     33  H61 UNL     1      20.230  16.689  20.548  1.00  0.00     0.174 HD
ENDBRANCH  27  31
ENDBRANCH  20  22
ENDBRANCH  19  20
ENDBRANCH  18  19
ENDBRANCH  16  18
ENDBRANCH   6  16
TORSDOF 6
ENDMDL
MODEL 5
REMARK VINA RESULT: -6.531380412      1.511      7.176
REMARK  6 active torsions:
REMARK  status: ('A' for Active; 'I' for Inactive)
REMARK    1  A    between atoms: C4_6  and  N2_7 
REMARK    2  A    between atoms: N2_7  and  C5_9 
REMARK    3  A    between atoms: C5_9  and  C6_10 
REMARK    4  A    between atoms: C6_10  and  N3_11 
REMARK    5  A    between atoms: N3_11  and  C7_13 
REMARK    6  A    between atoms: C9_19  and  N6_20 
ROOT
HETATM    1  C1  UNL     1      17.864  12.966  16.948  1.00  0.00     0.021 C 
HETATM    2  C2  UNL     1      18.773  13.759  16.971  1.00  0.00    -0.041 C 
HETATM    3  C3  UNL     1      19.855  14.734  16.996  1.00  0.00     0.163 A 
HETATM    4  N1  UNL     1      20.697  14.871  15.966  1.00  0.00    -0.320 N 
ATOM      5  H1  UNL     1      20.556  14.268  15.157  1.00  0.00     0.169 HD
HETATM    6  C4  UNL     1      21.713  15.747  15.923  1.00  0.00     0.134 A 
HETATM    7  C10 UNL     1      21.898  16.556  17.012  1.00  0.00     0.122 A 
HETATM    8  N8  UNL     1      22.776  17.512  17.313  1.00  0.00    -0.346 N 
ATOM      9  H8  UNL     1      23.534  17.824  16.706  1.00  0.00     0.167 HD
HETATM   10  C11 UNL     1      22.513  18.004  18.535  1.00  0.00     0.184 A 
HETATM   11  N9  UNL     1      21.447  17.344  19.018  1.00  0.00    -0.332 N 
HETATM   12  C12 UNL     1      20.810  17.539  20.301  1.00  0.00     0.158 C 
HETATM   13  C13 UNL     1      21.040  16.435  18.096  1.00  0.00     0.141 A 
HETATM   14  N10 UNL     1      20.043  15.532  18.062  1.00  0.00    -0.319 N 
ATOM     15  H10 UNL     1      19.416  15.451  18.863  1.00  0.00     0.169 HD
ENDROOT
BRANCH   6  16
HETATM   16  N2  UNL     1      22.587  15.865  14.814  1.00  0.00    -0.373 N 
ATOM     17  H2  UNL     1      23.443  16.414  14.889  1.00  0.00     0.161 HD
BRANCH  16  18
HETATM   18  C5  UNL     1      22.248  15.189  13.560  1.00  0.00     0.141 C 
BRANCH  18  19
HETATM   19  C6  UNL     1      21.285  16.048  12.750  1.00  0.00     0.157 C 
BRANCH  19  20
HETATM   20  N3  UNL     1      21.877  17.313  12.459  1.00  0.00    -0.224 N 
ATOM     21  H3  UNL     1      21.832  18.030  13.183  1.00  0.00     0.177 HD
BRANCH  20  22
HETATM   22  C7  UNL     1      22.457  17.620  11.363  1.00  0.00     0.693 A 
HETATM   23  N4  UNL     1      23.784  17.466  11.239  1.00  0.00    -0.187 N 
HETATM   24  C8  UNL     1      24.449  17.772  10.108  1.00  0.00     0.215 A 
ATOM     25  H4  UNL     1      24.311  17.102  12.033  1.00  0.00     0.185 HD
HETATM   26  N5  UNL     1      23.759  18.251   9.059  1.00  0.00    -0.187 N 
HETATM   27  C9  UNL     1      22.434  18.416   9.152  1.00  0.00     0.691 A 
ATOM     28  H5  UNL     1      24.244  18.490   8.194  1.00  0.00     0.185 HD
HETATM   29  N7  UNL     1      21.781  18.099  10.307  1.00  0.00    -0.023 N 
ATOM     30  H7  UNL     1      20.771  18.227  10.369  1.00  0.00     0.203 HD
BRANCH  27  31
HETATM   31  N6  UNL     1      21.774  18.869   8.162  1.00  0.00    -0.234 N 
ATOM     32  H62 UNL     1      22.165  19.626   7.601  1.00  0.00     0.174 HD
ATOM     33  H61 UNL     1      20.861  18.478   7.932  1.00  0.00     0.174 HD
ENDBRANCH  27  31
ENDBRANCH  20  22
ENDBRANCH  19  20
ENDBRANCH  18  19
ENDBRANCH  16  18
ENDBRANCH   6  16
TORSDOF 6
ENDMDL
