MODEL 1
REMARK VINA RESULT: -7.140474254      0.000      0.000
REMARK  7 active torsions:
REMARK  status: ('A' for Active; 'I' for Inactive)
REMARK    1  A    between atoms: N1_2  and  C2_4 
REMARK    2  A    between atoms: C4_10  and  N4_11 
REMARK    3  A    between atoms: N4_11  and  C5_13 
REMARK    4  A    between atoms: C7_17  and  N6_18 
REMARK    5  A    between atoms: N6_18  and  C9_20 
REMARK    6  A    between atoms: C9_20  and  C10_21 
REMARK    7  A    between atoms: C10_21  and  O1_22 
ROOT
HETATM    1  C5  UNL     1      21.921  16.598  13.912  1.00  0.00     0.699 A 
HETATM    2  N5  UNL     1      21.286  16.585  15.097  1.00  0.00    -0.183 N 
ATOM      3  H5  UNL     1      20.272  16.594  15.204  1.00  0.00     0.184 HD
HETATM    4  C6  UNL     1      22.156  16.557  16.125  1.00  0.00     0.137 A 
HETATM    5  C7  UNL     1      21.987  16.533  17.517  1.00  0.00     0.135 A 
HETATM    6  N7  UNL     1      23.109  16.509  18.221  1.00  0.00    -0.337 N 
ATOM      7  H7  UNL     1      23.026  16.493  19.238  1.00  0.00     0.168 HD
HETATM    8  C11 UNL     1      24.349  16.505  17.699  1.00  0.00     0.183 A 
HETATM    9  N8  UNL     1      24.475  16.527  16.371  1.00  0.00    -0.336 N 
ATOM     10  H8  UNL     1      25.410  16.525  15.963  1.00  0.00     0.168 HD
HETATM   11  C12 UNL     1      23.414  16.553  15.561  1.00  0.00     0.153 A 
HETATM   12  N9  UNL     1      23.231  16.579  14.219  1.00  0.00    -0.173 N 
ATOM     13  H9  UNL     1      23.986  16.583  13.534  1.00  0.00     0.186 HD
ENDROOT
BRANCH   1  14
HETATM   14  N4  UNL     1      21.406  16.627  12.608  1.00  0.00    -0.021 N 
ATOM     15  H4  UNL     1      20.560  16.084  12.435  1.00  0.00     0.203 HD
BRANCH  14  16
HETATM   16  C4  UNL     1      21.890  17.264  11.623  1.00  0.00     0.712 A 
HETATM   17  N3  UNL     1      21.122  18.145  10.959  1.00  0.00    -0.186 N 
HETATM   18  C3  UNL     1      21.605  18.848   9.895  1.00  0.00     0.215 A 
ATOM     19  H3  UNL     1      20.157  18.290  11.255  1.00  0.00     0.185 HD
HETATM   20  N2  UNL     1      22.892  18.646   9.510  1.00  0.00    -0.187 N 
HETATM   21  C2  UNL     1      23.680  17.770  10.159  1.00  0.00     0.693 A 
ATOM     22  H2  UNL     1      23.267  19.165   8.716  1.00  0.00     0.185 HD
HETATM   23  N10 UNL     1      23.155  17.102  11.199  1.00  0.00    -0.022 N 
ATOM     24  H10 UNL     1      23.749  16.437  11.695  1.00  0.00     0.203 HD
BRANCH  21  25
HETATM   25  N1  UNL     1      24.902  17.578   9.791  1.00  0.00    -0.230 N 
HETATM   26  C1  UNL     1      25.970  18.236  10.524  1.00  0.00     0.165 C 
ATOM     27  H1  UNL     1      25.116  16.974   8.997  1.00  0.00     0.177 HD
ENDBRANCH  21  25
ENDBRANCH  14  16
ENDBRANCH   1  14
BRANCH   5  28
HETATM   28  N6  UNL     1      20.665  16.555  18.009  1.00  0.00    -0.368 N 
HETATM   29  C8  UNL     1      20.025  15.229  18.111  1.00  0.00     0.151 C 
BRANCH  28  30
HETATM   30  C9  UNL     1      19.885  17.657  18.426  1.00  0.00     0.150 C 
BRANCH  30  31
HETATM   31  C10 UNL     1      19.681  17.859  19.879  1.00  0.00     0.183 C 
BRANCH  31  32
HETATM   32  O1  UNL     1      18.413  18.267  20.259  1.00  0.00    -0.399 OA
ATOM     33  H1  UNL     1      17.785  17.572  20.419  1.00  0.00     0.209 HD
ENDBRANCH  31  32
ENDBRANCH  30  31
ENDBRANCH  28  30
ENDBRANCH   5  28
TORSDOF 7
ENDMDL
MODEL 2
REMARK VINA RESULT: -6.964100620      0.784      1.615
REMARK  7 active torsions:
REMARK  status: ('A' for Active; 'I' for Inactive)
REMARK    1  A    between atoms: N1_2  and  C2_4 
REMARK    2  A    between atoms: C4_10  and  N4_11 
REMARK    3  A    between atoms: N4_11  and  C5_13 
REMARK    4  A    between atoms: C7_17  and  N6_18 
REMARK    5  A    between atoms: N6_18  and  C9_20 
REMARK    6  A    between atoms: C9_20  and  C10_21 
REMARK    7  A    between atoms: C10_21  and  O1_22 
ROOT
HETATM    1  C5  UNL     1      22.197  16.515  14.097  1.00  0.00     0.699 A 
HETATM    2  N5  UNL     1      21.467  16.529  15.226  1.00  0.00    -0.183 N 
ATOM      3  H5  UNL     1      20.448  16.550  15.250  1.00  0.00     0.184 HD
HETATM    4  C6  UNL     1      22.250  16.511  16.322  1.00  0.00     0.137 A 
HETATM    5  C7  UNL     1      21.968  16.513  17.696  1.00  0.00     0.135 A 
HETATM    6  N7  UNL     1      23.028  16.491  18.490  1.00  0.00    -0.337 N 
ATOM      7  H7  UNL     1      22.863  16.494  19.496  1.00  0.00     0.168 HD
HETATM    8  C11 UNL     1      24.307  16.465  18.070  1.00  0.00     0.183 A 
HETATM    9  N8  UNL     1      24.541  16.463  16.757  1.00  0.00    -0.336 N 
ATOM     10  H8  UNL     1      25.506  16.445  16.427  1.00  0.00     0.168 HD
HETATM   11  C12 UNL     1      23.550  16.484  15.863  1.00  0.00     0.153 A 
HETATM   12  N9  UNL     1      23.477  16.489  14.511  1.00  0.00    -0.173 N 
ATOM     13  H9  UNL     1      24.285  16.474  13.889  1.00  0.00     0.186 HD
ENDROOT
BRANCH   1  14
HETATM   14  N4  UNL     1      21.790  16.526  12.755  1.00  0.00    -0.021 N 
ATOM     15  H4  UNL     1      20.915  16.050  12.535  1.00  0.00     0.203 HD
BRANCH  14  16
HETATM   16  C4  UNL     1      22.405  17.071  11.788  1.00  0.00     0.712 A 
HETATM   17  N3  UNL     1      23.750  17.094  11.785  1.00  0.00    -0.186 N 
HETATM   18  C3  UNL     1      24.447  17.671  10.765  1.00  0.00     0.215 A 
ATOM     19  H3  UNL     1      24.259  16.673  12.562  1.00  0.00     0.185 HD
HETATM   20  N2  UNL     1      23.757  18.230   9.737  1.00  0.00    -0.187 N 
HETATM   21  C2  UNL     1      22.412  18.218   9.719  1.00  0.00     0.693 A 
ATOM     22  H2  UNL     1      24.266  18.664   8.967  1.00  0.00     0.185 HD
HETATM   23  N10 UNL     1      21.773  17.638  10.747  1.00  0.00    -0.022 N 
ATOM     24  H10 UNL     1      20.753  17.628  10.738  1.00  0.00     0.203 HD
BRANCH  21  25
HETATM   25  N1  UNL     1      21.758  18.751   8.741  1.00  0.00    -0.230 N 
HETATM   26  C1  UNL     1      22.481  19.149   7.545  1.00  0.00     0.165 C 
ATOM     27  H1  UNL     1      20.750  18.890   8.806  1.00  0.00     0.177 HD
ENDBRANCH  21  25
ENDBRANCH  14  16
ENDBRANCH   1  14
BRANCH   5  28
HETATM   28  N6  UNL     1      20.611  16.556  18.078  1.00  0.00    -0.368 N 
HETATM   29  C8  UNL     1      19.935  15.244  18.094  1.00  0.00     0.151 C 
BRANCH  28  30
HETATM   30  C9  UNL     1      19.823  17.667  18.457  1.00  0.00     0.150 C 
BRANCH  30  31
HETATM   31  C10 UNL     1      19.617  17.916  19.902  1.00  0.00     0.183 C 
BRANCH  31  32
HETATM   32  O1  UNL     1      18.330  18.273  20.274  1.00  0.00    -0.399 OA
ATOM     33  H1  UNL     1      17.981  19.053  19.859  1.00  0.00     0.209 HD
ENDBRANCH  31  32
ENDBRANCH  30  31
ENDBRANCH  28  30
ENDBRANCH   5  28
TORSDOF 7
ENDMDL
MODEL 3
REMARK VINA RESULT: -6.863454640      3.162      7.717
REMARK  7 active torsions:
REMARK  status: ('A' for Active; 'I' for Inactive)
REMARK    1  A    between atoms: N1_2  and  C2_4 
REMARK    2  A    between atoms: C4_10  and  N4_11 
REMARK    3  A    between atoms: N4_11  and  C5_13 
REMARK    4  A    between atoms: C7_17  and  N6_18 
REMARK    5  A    between atoms: N6_18  and  C9_20 
REMARK    6  A    between atoms: C9_20  and  C10_21 
REMARK    7  A    between atoms: C10_21  and  O1_22 
ROOT
HETATM    1  C5  UNL     1      21.671  16.158  14.119  1.00  0.00     0.699 A 
HETATM    2  N5  UNL     1      21.545  16.757  12.922  1.00  0.00    -0.183 N 
ATOM      3  H5  UNL     1      20.658  17.070  12.528  1.00  0.00     0.184 HD
HETATM    4  C6  UNL     1      22.737  16.893  12.309  1.00  0.00     0.137 A 
HETATM    5  C7  UNL     1      23.119  17.443  11.076  1.00  0.00     0.135 A 
HETATM    6  N7  UNL     1      24.416  17.393  10.814  1.00  0.00    -0.337 N 
ATOM      7  H7  UNL     1      24.731  17.782   9.925  1.00  0.00     0.168 HD
HETATM    8  C11 UNL     1      25.350  16.869  11.629  1.00  0.00     0.183 A 
HETATM    9  N8  UNL     1      24.954  16.355  12.795  1.00  0.00    -0.336 N 
ATOM     10  H8  UNL     1      25.652  15.954  13.421  1.00  0.00     0.168 HD
HETATM   11  C12 UNL     1      23.671  16.350  13.166  1.00  0.00     0.153 A 
HETATM   12  N9  UNL     1      22.988  15.915  14.250  1.00  0.00    -0.173 N 
ATOM     13  H9  UNL     1      23.414  15.462  15.058  1.00  0.00     0.186 HD
ENDROOT
BRANCH   1  14
HETATM   14  N4  UNL     1      20.697  15.827  15.072  1.00  0.00    -0.021 N 
ATOM     15  H4  UNL     1      19.849  15.377  14.728  1.00  0.00     0.203 HD
BRANCH  14  16
HETATM   16  C4  UNL     1      20.771  16.032  16.323  1.00  0.00     0.712 A 
HETATM   17  N3  UNL     1      21.604  15.288  17.071  1.00  0.00    -0.186 N 
HETATM   18  C3  UNL     1      21.711  15.478  18.417  1.00  0.00     0.215 A 
ATOM     19  H3  UNL     1      22.169  14.566  16.623  1.00  0.00     0.185 HD
HETATM   20  N2  UNL     1      20.954  16.443  19.002  1.00  0.00    -0.187 N 
HETATM   21  C2  UNL     1      20.112  17.199  18.274  1.00  0.00     0.693 A 
ATOM     22  H2  UNL     1      21.024  16.596  20.008  1.00  0.00     0.185 HD
HETATM   23  N10 UNL     1      20.045  16.972  16.952  1.00  0.00    -0.022 N 
ATOM     24  H10 UNL     1      19.408  17.543  16.396  1.00  0.00     0.203 HD
BRANCH  21  25
HETATM   25  N1  UNL     1      19.393  18.115  18.832  1.00  0.00    -0.230 N 
HETATM   26  C1  UNL     1      19.373  18.208  20.281  1.00  0.00     0.165 C 
ATOM     27  H1  UNL     1      18.847  18.763  18.264  1.00  0.00     0.177 HD
ENDBRANCH  21  25
ENDBRANCH  14  16
ENDBRANCH   1  14
BRANCH   5  28
HETATM   28  N6  UNL     1      22.096  17.964  10.256  1.00  0.00    -0.368 N 
HETATM   29  C8  UNL     1      21.194  18.918  10.930  1.00  0.00     0.151 C 
BRANCH  28  30
HETATM   30  C9  UNL     1      21.830  17.712   8.891  1.00  0.00     0.150 C 
BRANCH  30  31
HETATM   31  C10 UNL     1      22.620  18.447   7.878  1.00  0.00     0.183 C 
BRANCH  31  32
HETATM   32  O1  UNL     1      22.075  19.644   7.440  1.00  0.00    -0.399 OA
ATOM     33  H1  UNL     1      22.405  20.428   7.864  1.00  0.00     0.209 HD
ENDBRANCH  31  32
ENDBRANCH  30  31
ENDBRANCH  28  30
ENDBRANCH   5  28
TORSDOF 7
ENDMDL
MODEL 4
REMARK VINA RESULT: -6.696065734      1.213      1.666
REMARK  7 active torsions:
REMARK  status: ('A' for Active; 'I' for Inactive)
REMARK    1  A    between atoms: N1_2  and  C2_4 
REMARK    2  A    between atoms: C4_10  and  N4_11 
REMARK    3  A    between atoms: N4_11  and  C5_13 
REMARK    4  A    between atoms: C7_17  and  N6_18 
REMARK    5  A    between atoms: N6_18  and  C9_20 
REMARK    6  A    between atoms: C9_20  and  C10_21 
REMARK    7  A    between atoms: C10_21  and  O1_22 
ROOT
HETATM    1  C5  UNL     1      21.905  16.670  13.823  1.00  0.00     0.699 A 
HETATM    2  N5  UNL     1      21.299  16.510  15.012  1.00  0.00    -0.183 N 
ATOM      3  H5  UNL     1      20.290  16.430  15.136  1.00  0.00     0.184 HD
HETATM    4  C6  UNL     1      22.191  16.469  16.021  1.00  0.00     0.137 A 
HETATM    5  C7  UNL     1      22.056  16.319  17.409  1.00  0.00     0.135 A 
HETATM    6  N7  UNL     1      23.191  16.328  18.091  1.00  0.00    -0.337 N 
ATOM      7  H7  UNL     1      23.133  16.223  19.104  1.00  0.00     0.168 HD
HETATM    8  C11 UNL     1      24.416  16.465  17.550  1.00  0.00     0.183 A 
HETATM    9  N8  UNL     1      24.511  16.605  16.227  1.00  0.00    -0.336 N 
ATOM     10  H8  UNL     1      25.433  16.711  15.805  1.00  0.00     0.168 HD
HETATM   11  C12 UNL     1      23.433  16.611  15.438  1.00  0.00     0.153 A 
HETATM   12  N9  UNL     1      23.219  16.731  14.107  1.00  0.00    -0.173 N 
ATOM     13  H9  UNL     1      23.955  16.851  13.412  1.00  0.00     0.186 HD
ENDROOT
BRANCH   1  14
HETATM   14  N4  UNL     1      21.360  16.763  12.534  1.00  0.00    -0.021 N 
ATOM     15  H4  UNL     1      20.459  16.309  12.381  1.00  0.00     0.203 HD
BRANCH  14  16
HETATM   16  C4  UNL     1      21.879  17.358  11.540  1.00  0.00     0.712 A 
HETATM   17  N3  UNL     1      21.142  18.228  10.827  1.00  0.00    -0.186 N 
HETATM   18  C3  UNL     1      21.664  18.886   9.753  1.00  0.00     0.215 A 
ATOM     19  H3  UNL     1      20.173  18.399  11.094  1.00  0.00     0.185 HD
HETATM   20  N2  UNL     1      22.956  18.649   9.407  1.00  0.00    -0.187 N 
HETATM   21  C2  UNL     1      23.712  17.783  10.105  1.00  0.00     0.693 A 
ATOM     22  H2  UNL     1      23.359  19.134   8.606  1.00  0.00     0.185 HD
HETATM   23  N10 UNL     1      23.151  17.161  11.154  1.00  0.00    -0.022 N 
ATOM     24  H10 UNL     1      23.721  16.503  11.687  1.00  0.00     0.203 HD
BRANCH  21  25
HETATM   25  N1  UNL     1      24.940  17.558   9.774  1.00  0.00    -0.230 N 
HETATM   26  C1  UNL     1      25.999  18.246  10.492  1.00  0.00     0.165 C 
ATOM     27  H1  UNL     1      25.163  16.909   9.020  1.00  0.00     0.177 HD
ENDBRANCH  21  25
ENDBRANCH  14  16
ENDBRANCH   1  14
BRANCH   5  28
HETATM   28  N6  UNL     1      20.748  16.195  17.922  1.00  0.00    -0.368 N 
HETATM   29  C8  UNL     1      20.073  17.477  18.201  1.00  0.00     0.151 C 
BRANCH  28  30
HETATM   30  C9  UNL     1      19.999  15.026  18.186  1.00  0.00     0.150 C 
BRANCH  30  31
HETATM   31  C10 UNL     1      19.504  14.237  17.035  1.00  0.00     0.183 C 
BRANCH  31  32
HETATM   32  O1  UNL     1      18.206  13.763  17.142  1.00  0.00    -0.399 OA
ATOM     33  H1  UNL     1      18.118  12.830  17.294  1.00  0.00     0.209 HD
ENDBRANCH  31  32
ENDBRANCH  30  31
ENDBRANCH  28  30
ENDBRANCH   5  28
TORSDOF 7
ENDMDL
MODEL 5
REMARK VINA RESULT: -6.611792899      2.320      6.933
REMARK  7 active torsions:
REMARK  status: ('A' for Active; 'I' for Inactive)
REMARK    1  A    between atoms: N1_2  and  C2_4 
REMARK    2  A    between atoms: C4_10  and  N4_11 
REMARK    3  A    between atoms: N4_11  and  C5_13 
REMARK    4  A    between atoms: C7_17  and  N6_18 
REMARK    5  A    between atoms: N6_18  and  C9_20 
REMARK    6  A    between atoms: C9_20  and  C10_21 
REMARK    7  A    between atoms: C10_21  and  O1_22 
ROOT
HETATM    1  C5  UNL     1      23.565  16.755  15.014  1.00  0.00     0.699 A 
HETATM    2  N5  UNL     1      22.720  16.910  13.980  1.00  0.00    -0.183 N 
ATOM      3  H5  UNL     1      21.704  16.938  14.068  1.00  0.00     0.184 HD
HETATM    4  C6  UNL     1      23.383  17.025  12.812  1.00  0.00     0.137 A 
HETATM    5  C7  UNL     1      22.957  17.200  11.487  1.00  0.00     0.135 A 
HETATM    6  N7  UNL     1      23.927  17.271  10.588  1.00  0.00    -0.337 N 
ATOM      7  H7  UNL     1      23.656  17.396   9.613  1.00  0.00     0.168 HD
HETATM    8  C11 UNL     1      25.242  17.189  10.862  1.00  0.00     0.183 A 
HETATM    9  N8  UNL     1      25.613  17.023  12.133  1.00  0.00    -0.336 N 
ATOM     10  H8  UNL     1      26.607  16.958  12.353  1.00  0.00     0.168 HD
HETATM   11  C12 UNL     1      24.723  16.938  13.124  1.00  0.00     0.153 A 
HETATM   12  N9  UNL     1      24.793  16.775  14.466  1.00  0.00    -0.173 N 
ATOM     13  H9  UNL     1      25.662  16.679  14.991  1.00  0.00     0.186 HD
ENDROOT
BRANCH   1  14
HETATM   14  N4  UNL     1      23.302  16.602  16.383  1.00  0.00    -0.021 N 
ATOM     15  H4  UNL     1      24.092  16.711  17.019  1.00  0.00     0.203 HD
BRANCH  14  16
HETATM   16  C4  UNL     1      22.175  16.340  16.906  1.00  0.00     0.712 A 
HETATM   17  N3  UNL     1      21.683  15.090  16.834  1.00  0.00    -0.186 N 
HETATM   18  C3  UNL     1      20.477  14.770  17.383  1.00  0.00     0.215 A 
ATOM     19  H3  UNL     1      22.223  14.367  16.359  1.00  0.00     0.185 HD
HETATM   20  N2  UNL     1      19.768  15.742  18.014  1.00  0.00    -0.187 N 
HETATM   21  C2  UNL     1      20.240  16.999  18.098  1.00  0.00     0.693 A 
ATOM     22  H2  UNL     1      18.865  15.516  18.429  1.00  0.00     0.185 HD
HETATM   23  N10 UNL     1      21.433  17.263  17.541  1.00  0.00    -0.022 N 
ATOM     24  H10 UNL     1      21.794  18.215  17.602  1.00  0.00     0.203 HD
BRANCH  21  25
HETATM   25  N1  UNL     1      19.564  17.922  18.697  1.00  0.00    -0.230 N 
HETATM   26  C1  UNL     1      19.604  17.994  20.147  1.00  0.00     0.165 C 
ATOM     27  H1  UNL     1      19.010  18.590  18.161  1.00  0.00     0.177 HD
ENDBRANCH  21  25
ENDBRANCH  14  16
ENDBRANCH   1  14
BRANCH   5  28
HETATM   28  N6  UNL     1      21.567  17.264  11.257  1.00  0.00    -0.368 N 
HETATM   29  C8  UNL     1      21.064  18.604  10.897  1.00  0.00     0.151 C 
BRANCH  28  30
HETATM   30  C9  UNL     1      20.604  16.231  11.309  1.00  0.00     0.150 C 
BRANCH  30  31
HETATM   31  C10 UNL     1      19.630  16.237  12.424  1.00  0.00     0.183 C 
BRANCH  31  32
HETATM   32  O1  UNL     1      18.354  15.795  12.113  1.00  0.00    -0.399 OA
ATOM     33  H1  UNL     1      18.211  14.859  12.188  1.00  0.00     0.209 HD
ENDBRANCH  31  32
ENDBRANCH  30  31
ENDBRANCH  28  30
ENDBRANCH   5  28
TORSDOF 7
ENDMDL
