MODEL 1
REMARK VINA RESULT: -6.272382229      0.000      0.000
REMARK  7 active torsions:
REMARK  status: ('A' for Active; 'I' for Inactive)
REMARK    1  A    between atoms: C2_2  and  N1_4 
REMARK    2  A    between atoms: C5_8  and  C6_9 
REMARK    3  A    between atoms: C6_9  and  N3_10 
REMARK    4  A    between atoms: N3_10  and  C7_12 
REMARK    5  A    between atoms: C8_15  and  N5_16 
REMARK    6  A    between atoms: C11_21  and  N7_22 
REMARK    7  A    between atoms: C13_28  and  O1_29 
ROOT
HETATM    1  N7  UNL     1      19.797  15.786  11.694  1.00  0.00    -0.125 N 
ATOM      2  H7  UNL     1      19.717  15.119  10.927  1.00  0.00     0.197 HD
HETATM    3  C12 UNL     1      18.706  15.974  12.523  1.00  0.00     0.196 C 
HETATM    4  N8  UNL     1      17.758  16.175  13.201  1.00  0.00    -0.171 NA
ENDROOT
BRANCH   1   5
HETATM    5  C11 UNL     1      20.929  16.428  11.852  1.00  0.00     0.720 A 
HETATM    6  N6  UNL     1      21.599  16.865  10.757  1.00  0.00    -0.021 N 
HETATM    7  C8  UNL     1      22.881  17.329  10.968  1.00  0.00     0.708 A 
ATOM      8  H6  UNL     1      21.179  16.853   9.829  1.00  0.00     0.203 HD
HETATM    9  N4  UNL     1      23.344  17.316  12.205  1.00  0.00    -0.021 N 
HETATM   10  C7  UNL     1      22.737  16.909  13.280  1.00  0.00     0.707 A 
ATOM     11  H4  UNL     1      24.293  17.669  12.332  1.00  0.00     0.203 HD
HETATM   12  N9  UNL     1      21.454  16.445  13.089  1.00  0.00    -0.021 N 
ATOM     13  H9  UNL     1      20.906  16.115  13.883  1.00  0.00     0.203 HD
BRANCH   7  14
HETATM   14  N5  UNL     1      23.634  17.913   9.875  1.00  0.00    -0.225 N 
HETATM   15  C9  UNL     1      25.098  17.940   9.974  1.00  0.00     0.168 C 
HETATM   16  C10 UNL     1      22.968  18.437   8.741  1.00  0.00     0.168 C 
ENDBRANCH   7  14
BRANCH  10  17
HETATM   17  N3  UNL     1      23.235  16.801  14.372  1.00  0.00    -0.219 N 
ATOM     18  H3  UNL     1      22.987  15.903  14.786  1.00  0.00     0.178 HD
BRANCH  17  19
HETATM   19  C6  UNL     1      24.058  17.536  15.255  1.00  0.00     0.199 C 
BRANCH  19  20
HETATM   20  C5  UNL     1      23.600  16.922  16.613  1.00  0.00     0.080 A 
HETATM   21  N2  UNL     1      24.289  16.368  17.558  1.00  0.00    -0.351 N 
HETATM   22  C4  UNL     1      23.412  16.024  18.541  1.00  0.00     0.185 A 
ATOM     23  H2  UNL     1      25.298  16.217  17.566  1.00  0.00     0.166 HD
HETATM   24  N1  UNL     1      22.137  16.387  18.171  1.00  0.00    -0.318 N 
HETATM   25  C13 UNL     1      22.284  16.950  16.969  1.00  0.00     0.168 A 
BRANCH  24  26
HETATM   26  C2  UNL     1      20.875  16.124  18.832  1.00  0.00     0.084 C 
HETATM   27  C1  UNL     1      20.260  17.407  19.246  1.00  0.00     0.032 C 
HETATM   28  C3  UNL     1      20.052  15.230  17.963  1.00  0.00     0.032 C 
ENDBRANCH  24  26
BRANCH  25  29
HETATM   29  O1  UNL     1      21.232  17.486  16.204  1.00  0.00    -0.344 OA
ATOM     30  H1  UNL     1      21.032  17.234  15.310  1.00  0.00     0.219 HD
ENDBRANCH  25  29
ENDBRANCH  19  20
ENDBRANCH  17  19
ENDBRANCH  10  17
ENDBRANCH   1   5
TORSDOF 7
ENDMDL
MODEL 2
REMARK VINA RESULT: -6.119661357      2.181      7.018
REMARK  7 active torsions:
REMARK  status: ('A' for Active; 'I' for Inactive)
REMARK    1  A    between atoms: C2_2  and  N1_4 
REMARK    2  A    between atoms: C5_8  and  C6_9 
REMARK    3  A    between atoms: C6_9  and  N3_10 
REMARK    4  A    between atoms: N3_10  and  C7_12 
REMARK    5  A    between atoms: C8_15  and  N5_16 
REMARK    6  A    between atoms: C11_21  and  N7_22 
REMARK    7  A    between atoms: C13_28  and  O1_29 
ROOT
HETATM    1  N7  UNL     1      19.091  18.267  18.302  1.00  0.00    -0.125 N 
ATOM      2  H7  UNL     1      18.369  18.649  17.691  1.00  0.00     0.197 HD
HETATM    3  C12 UNL     1      18.984  18.478  19.664  1.00  0.00     0.196 C 
HETATM    4  N8  UNL     1      18.923  18.700  20.824  1.00  0.00    -0.171 NA
ENDROOT
BRANCH   1   5
HETATM    5  C11 UNL     1      20.080  17.597  17.761  1.00  0.00     0.720 A 
HETATM    6  N6  UNL     1      21.160  17.282  18.519  1.00  0.00    -0.021 N 
HETATM    7  C8  UNL     1      22.255  16.782  17.848  1.00  0.00     0.708 A 
ATOM      8  H6  UNL     1      21.161  17.409  19.531  1.00  0.00     0.203 HD
HETATM    9  N4  UNL     1      22.164  16.644  16.537  1.00  0.00    -0.021 N 
HETATM   10  C7  UNL     1      21.151  16.931  15.774  1.00  0.00     0.707 A 
ATOM     11  H4  UNL     1      22.987  16.268  16.067  1.00  0.00     0.203 HD
HETATM   12  N9  UNL     1      20.046  17.430  16.427  1.00  0.00    -0.021 N 
ATOM     13  H9  UNL     1      19.206  17.671  15.902  1.00  0.00     0.203 HD
BRANCH   7  14
HETATM   14  N5  UNL     1      23.414  16.321  18.586  1.00  0.00    -0.225 N 
HETATM   15  C9  UNL     1      24.533  15.737  17.835  1.00  0.00     0.168 C 
HETATM   16  C10 UNL     1      23.463  16.438  19.996  1.00  0.00     0.168 C 
ENDBRANCH   7  14
BRANCH  10  17
HETATM   17  N3  UNL     1      21.148  16.905  14.569  1.00  0.00    -0.219 N 
ATOM     18  H3  UNL     1      21.111  17.853  14.196  1.00  0.00     0.178 HD
BRANCH  17  19
HETATM   19  C6  UNL     1      21.181  15.965  13.515  1.00  0.00     0.199 C 
BRANCH  19  20
HETATM   20  C5  UNL     1      22.559  16.328  12.882  1.00  0.00     0.080 A 
HETATM   21  N2  UNL     1      23.758  15.983  13.226  1.00  0.00    -0.351 N 
HETATM   22  C4  UNL     1      24.609  16.548  12.326  1.00  0.00     0.185 A 
ATOM     23  H2  UNL     1      24.016  15.398  14.021  1.00  0.00     0.166 HD
HETATM   24  N1  UNL     1      23.891  17.267  11.398  1.00  0.00    -0.318 N 
HETATM   25  C13 UNL     1      22.616  17.107  11.763  1.00  0.00     0.168 A 
BRANCH  24  26
HETATM   26  C2  UNL     1      24.362  18.125  10.331  1.00  0.00     0.084 C 
HETATM   27  C1  UNL     1      25.834  18.266  10.426  1.00  0.00     0.032 C 
HETATM   28  C3  UNL     1      23.814  17.625   9.033  1.00  0.00     0.032 C 
ENDBRANCH  24  26
BRANCH  25  29
HETATM   29  O1  UNL     1      21.515  17.663  11.086  1.00  0.00    -0.344 OA
ATOM     30  H1  UNL     1      20.897  18.272  11.471  1.00  0.00     0.219 HD
ENDBRANCH  25  29
ENDBRANCH  19  20
ENDBRANCH  17  19
ENDBRANCH  10  17
ENDBRANCH   1   5
TORSDOF 7
ENDMDL
MODEL 3
REMARK VINA RESULT: -6.088887725      2.333      6.752
REMARK  7 active torsions:
REMARK  status: ('A' for Active; 'I' for Inactive)
REMARK    1  A    between atoms: C2_2  and  N1_4 
REMARK    2  A    between atoms: C5_8  and  C6_9 
REMARK    3  A    between atoms: C6_9  and  N3_10 
REMARK    4  A    between atoms: N3_10  and  C7_12 
REMARK    5  A    between atoms: C8_15  and  N5_16 
REMARK    6  A    between atoms: C11_21  and  N7_22 
REMARK    7  A    between atoms: C13_28  and  O1_29 
ROOT
HETATM    1  N7  UNL     1      18.812  14.225  17.671  1.00  0.00    -0.125 N 
ATOM      2  H7  UNL     1      18.451  14.520  18.578  1.00  0.00     0.197 HD
HETATM    3  C12 UNL     1      18.141  13.230  16.984  1.00  0.00     0.196 C 
HETATM    4  N8  UNL     1      17.600  12.343  16.419  1.00  0.00    -0.171 NA
ENDROOT
BRANCH   1   5
HETATM    5  C11 UNL     1      19.891  14.807  17.206  1.00  0.00     0.720 A 
HETATM    6  N6  UNL     1      20.904  15.099  18.058  1.00  0.00    -0.021 N 
HETATM    7  C8  UNL     1      21.908  15.905  17.564  1.00  0.00     0.708 A 
ATOM      8  H6  UNL     1      20.923  14.742  19.013  1.00  0.00     0.203 HD
HETATM    9  N4  UNL     1      21.807  16.317  16.313  1.00  0.00    -0.021 N 
HETATM   10  C7  UNL     1      20.856  16.060  15.463  1.00  0.00     0.707 A 
ATOM     11  H4  UNL     1      22.565  16.907  15.972  1.00  0.00     0.203 HD
HETATM   12  N9  UNL     1      19.846  15.254  15.939  1.00  0.00    -0.021 N 
ATOM     13  H9  UNL     1      19.068  14.997  15.332  1.00  0.00     0.203 HD
BRANCH   7  14
HETATM   14  N5  UNL     1      23.082  16.184  18.368  1.00  0.00    -0.225 N 
HETATM   15  C9  UNL     1      24.401  16.087  17.732  1.00  0.00     0.168 C 
HETATM   16  C10 UNL     1      22.952  16.545  19.731  1.00  0.00     0.168 C 
ENDBRANCH   7  14
BRANCH  10  17
HETATM   17  N3  UNL     1      20.739  16.552  14.369  1.00  0.00    -0.219 N 
ATOM     18  H3  UNL     1      20.661  17.566  14.446  1.00  0.00     0.178 HD
BRANCH  17  19
HETATM   19  C6  UNL     1      20.675  16.157  13.014  1.00  0.00     0.199 C 
BRANCH  19  20
HETATM   20  C5  UNL     1      22.143  16.457  12.584  1.00  0.00     0.080 A 
HETATM   21  N2  UNL     1      23.266  16.075  13.103  1.00  0.00    -0.351 N 
HETATM   22  C4  UNL     1      24.259  16.591  12.330  1.00  0.00     0.185 A 
ATOM     23  H2  UNL     1      23.383  15.496  13.934  1.00  0.00     0.166 HD
HETATM   24  N1  UNL     1      23.711  17.319  11.298  1.00  0.00    -0.318 N 
HETATM   25  C13 UNL     1      22.392  17.213  11.476  1.00  0.00     0.168 A 
BRANCH  24  26
HETATM   26  C2  UNL     1      24.365  18.139  10.299  1.00  0.00     0.084 C 
HETATM   27  C1  UNL     1      25.835  18.023  10.451  1.00  0.00     0.032 C 
HETATM   28  C3  UNL     1      23.797  17.808   8.957  1.00  0.00     0.032 C 
ENDBRANCH  24  26
BRANCH  25  29
HETATM   29  O1  UNL     1      21.423  17.796  10.638  1.00  0.00    -0.344 OA
ATOM     30  H1  UNL     1      20.517  17.943  10.883  1.00  0.00     0.219 HD
ENDBRANCH  25  29
ENDBRANCH  19  20
ENDBRANCH  17  19
ENDBRANCH  10  17
ENDBRANCH   1   5
TORSDOF 7
ENDMDL
MODEL 4
REMARK VINA RESULT: -6.064115571      2.468      7.108
REMARK  7 active torsions:
REMARK  status: ('A' for Active; 'I' for Inactive)
REMARK    1  A    between atoms: C2_2  and  N1_4 
REMARK    2  A    between atoms: C5_8  and  C6_9 
REMARK    3  A    between atoms: C6_9  and  N3_10 
REMARK    4  A    between atoms: N3_10  and  C7_12 
REMARK    5  A    between atoms: C8_15  and  N5_16 
REMARK    6  A    between atoms: C11_21  and  N7_22 
REMARK    7  A    between atoms: C13_28  and  O1_29 
ROOT
HETATM    1  N7  UNL     1      18.263  13.785  17.321  1.00  0.00    -0.125 N 
ATOM      2  H7  UNL     1      17.469  14.150  17.847  1.00  0.00     0.197 HD
HETATM    3  C12 UNL     1      18.130  12.566  16.682  1.00  0.00     0.196 C 
HETATM    4  N8  UNL     1      18.036  11.501  16.178  1.00  0.00    -0.171 NA
ENDROOT
BRANCH   1   5
HETATM    5  C11 UNL     1      19.366  14.493  17.281  1.00  0.00     0.720 A 
HETATM    6  N6  UNL     1      19.641  15.348  18.296  1.00  0.00    -0.021 N 
HETATM    7  C8  UNL     1      20.688  16.223  18.095  1.00  0.00     0.708 A 
ATOM      8  H6  UNL     1      19.103  15.345  19.162  1.00  0.00     0.203 HD
HETATM    9  N4  UNL     1      21.336  16.153  16.946  1.00  0.00    -0.021 N 
HETATM   10  C7  UNL     1      21.108  15.349  15.949  1.00  0.00     0.707 A 
ATOM     11  H4  UNL     1      22.108  16.808  16.826  1.00  0.00     0.203 HD
HETATM   12  N9  UNL     1      20.067  14.467  16.133  1.00  0.00    -0.021 N 
ATOM     13  H9  UNL     1      19.829  13.796  15.403  1.00  0.00     0.203 HD
BRANCH   7  14
HETATM   14  N5  UNL     1      21.120  17.102  19.164  1.00  0.00    -0.225 N 
HETATM   15  C9  UNL     1      20.096  17.822  19.931  1.00  0.00     0.168 C 
HETATM   16  C10 UNL     1      22.496  17.253  19.460  1.00  0.00     0.168 C 
ENDBRANCH   7  14
BRANCH  10  17
HETATM   17  N3  UNL     1      21.643  15.397  14.870  1.00  0.00    -0.219 N 
ATOM     18  H3  UNL     1      21.013  15.047  14.148  1.00  0.00     0.178 HD
BRANCH  17  19
HETATM   19  C6  UNL     1      22.874  15.787  14.298  1.00  0.00     0.199 C 
BRANCH  19  20
HETATM   20  C5  UNL     1      22.367  16.323  12.924  1.00  0.00     0.080 A 
HETATM   21  N2  UNL     1      21.217  16.191  12.344  1.00  0.00    -0.351 N 
HETATM   22  C4  UNL     1      21.283  16.875  11.169  1.00  0.00     0.185 A 
ATOM     23  H2  UNL     1      20.414  15.674  12.701  1.00  0.00     0.166 HD
HETATM   24  N1  UNL     1      22.529  17.443  11.034  1.00  0.00    -0.318 N 
HETATM   25  C13 UNL     1      23.182  17.090  12.144  1.00  0.00     0.168 A 
BRANCH  24  26
HETATM   26  C2  UNL     1      23.099  18.158   9.910  1.00  0.00     0.084 C 
HETATM   27  C1  UNL     1      24.420  17.576   9.575  1.00  0.00     0.032 C 
HETATM   28  C3  UNL     1      22.087  18.215   8.812  1.00  0.00     0.032 C 
ENDBRANCH  24  26
BRANCH  25  29
HETATM   29  O1  UNL     1      24.504  17.462  12.446  1.00  0.00    -0.344 OA
ATOM     30  H1  UNL     1      24.783  17.839  13.272  1.00  0.00     0.219 HD
ENDBRANCH  25  29
ENDBRANCH  19  20
ENDBRANCH  17  19
ENDBRANCH  10  17
ENDBRANCH   1   5
TORSDOF 7
ENDMDL
MODEL 5
REMARK VINA RESULT: -6.035879734      1.502      3.479
REMARK  7 active torsions:
REMARK  status: ('A' for Active; 'I' for Inactive)
REMARK    1  A    between atoms: C2_2  and  N1_4 
REMARK    2  A    between atoms: C5_8  and  C6_9 
REMARK    3  A    between atoms: C6_9  and  N3_10 
REMARK    4  A    between atoms: N3_10  and  C7_12 
REMARK    5  A    between atoms: C8_15  and  N5_16 
REMARK    6  A    between atoms: C11_21  and  N7_22 
REMARK    7  A    between atoms: C13_28  and  O1_29 
ROOT
HETATM    1  N7  UNL     1      25.132  16.769  15.058  1.00  0.00    -0.125 N 
ATOM      2  H7  UNL     1      26.085  17.062  14.842  1.00  0.00     0.197 HD
HETATM    3  C12 UNL     1      24.791  16.546  16.379  1.00  0.00     0.196 C 
HETATM    4  N8  UNL     1      24.512  16.306  17.503  1.00  0.00    -0.171 NA
ENDROOT
BRANCH   1   5
HETATM    5  C11 UNL     1      24.283  16.621  14.070  1.00  0.00     0.720 A 
HETATM    6  N6  UNL     1      24.562  17.183  12.868  1.00  0.00    -0.021 N 
HETATM    7  C8  UNL     1      23.540  17.187  11.941  1.00  0.00     0.708 A 
ATOM      8  H6  UNL     1      25.477  17.581  12.660  1.00  0.00     0.203 HD
HETATM    9  N4  UNL     1      22.389  16.644  12.292  1.00  0.00    -0.021 N 
HETATM   10  C7  UNL     1      22.080  16.094  13.430  1.00  0.00     0.707 A 
ATOM     11  H4  UNL     1      21.653  16.657  11.586  1.00  0.00     0.203 HD
HETATM   12  N9  UNL     1      23.089  16.078  14.366  1.00  0.00    -0.021 N 
ATOM     13  H9  UNL     1      22.931  15.657  15.282  1.00  0.00     0.203 HD
BRANCH   7  14
HETATM   14  N5  UNL     1      23.779  17.672  10.596  1.00  0.00    -0.225 N 
HETATM   15  C9  UNL     1      25.167  17.800  10.137  1.00  0.00     0.168 C 
HETATM   16  C10 UNL     1      22.695  18.008   9.749  1.00  0.00     0.168 C 
ENDBRANCH   7  14
BRANCH  10  17
HETATM   17  N3  UNL     1      20.982  15.717  13.754  1.00  0.00    -0.219 N 
ATOM     18  H3  UNL     1      20.814  14.776  13.398  1.00  0.00     0.178 HD
BRANCH  17  19
HETATM   19  C6  UNL     1      19.857  16.177  14.474  1.00  0.00     0.199 C 
BRANCH  19  20
HETATM   20  C5  UNL     1      20.351  15.912  15.929  1.00  0.00     0.080 A 
HETATM   21  N2  UNL     1      20.595  14.799  16.543  1.00  0.00    -0.351 N 
HETATM   22  C4  UNL     1      21.029  15.121  17.792  1.00  0.00     0.185 A 
ATOM     23  H2  UNL     1      20.485  13.860  16.162  1.00  0.00     0.166 HD
HETATM   24  N1  UNL     1      21.045  16.489  17.939  1.00  0.00    -0.318 N 
HETATM   25  C13 UNL     1      20.625  16.958  16.761  1.00  0.00     0.168 A 
BRANCH  24  26
HETATM   26  C2  UNL     1      21.319  17.287  19.116  1.00  0.00     0.084 C 
HETATM   27  C1  UNL     1      20.045  17.603  19.805  1.00  0.00     0.032 C 
HETATM   28  C3  UNL     1      22.373  16.606  19.926  1.00  0.00     0.032 C 
ENDBRANCH  24  26
BRANCH  25  29
HETATM   29  O1  UNL     1      20.494  18.323  16.445  1.00  0.00    -0.344 OA
ATOM     30  H1  UNL     1      19.680  18.810  16.489  1.00  0.00     0.219 HD
ENDBRANCH  25  29
ENDBRANCH  19  20
ENDBRANCH  17  19
ENDBRANCH  10  17
ENDBRANCH   1   5
TORSDOF 7
ENDMDL
