MODEL 1
REMARK VINA RESULT: -6.083727935      0.000      0.000
REMARK  6 active torsions:
REMARK  status: ('A' for Active; 'I' for Inactive)
REMARK    1  A    between atoms: N2_5  and  C4_6 
REMARK    2  A    between atoms: C5_9  and  S1_10 
REMARK    3  A    between atoms: S1_10  and  C6_11 
REMARK    4  A    between atoms: C8_21  and  N8_22 
REMARK    5  A    between atoms: C9_25  and  C10_26 
REMARK    6  A    between atoms: C10_26  and  N9_27 
ROOT
HETATM    1  C4  UNL     1      22.279  16.992  15.462  1.00  0.00     0.117 A 
HETATM    2  N3  UNL     1      21.554  17.010  14.317  1.00  0.00    -0.322 N 
ATOM      3  H3  UNL     1      20.563  17.246  14.374  1.00  0.00     0.169 HD
HETATM    4  C5  UNL     1      22.072  16.736  13.121  1.00  0.00     0.155 A 
HETATM    5  N7  UNL     1      23.378  16.428  13.051  1.00  0.00    -0.322 N 
ATOM      6  H7  UNL     1      23.787  16.215  12.141  1.00  0.00     0.169 HD
HETATM    7  C8  UNL     1      24.168  16.390  14.148  1.00  0.00     0.112 A 
HETATM    8  C9  UNL     1      23.598  16.682  15.398  1.00  0.00     0.055 A 
ENDROOT
BRANCH   4   9
HETATM    9  S1  UNL     1      21.036  16.777  11.656  1.00  0.00    -0.016 SA
BRANCH   9  10
HETATM   10  C6  UNL     1      21.790  17.804  10.404  1.00  0.00     0.167 A 
HETATM   11  N4  UNL     1      22.716  17.437   9.509  1.00  0.00    -0.331 N 
HETATM   12  C7  UNL     1      23.007  18.512   8.763  1.00  0.00     0.199 A 
ATOM     13  H4  UNL     1      23.126  16.507   9.412  1.00  0.00     0.168 HD
HETATM   14  N5  UNL     1      22.252  19.544   9.206  1.00  0.00    -0.294 N 
HETATM   15  N6  UNL     1      21.525  19.100  10.194  1.00  0.00    -0.279 N 
ATOM     16  H5  UNL     1      22.251  20.494   8.836  1.00  0.00     0.187 HD
ATOM     17  H6  UNL     1      20.855  19.655  10.726  1.00  0.00     0.189 HD
ENDBRANCH   9  10
ENDBRANCH   4   9
BRANCH   1  18
HETATM   18  N2  UNL     1      21.678  17.285  16.725  1.00  0.00    -0.364 N 
HETATM   19  C3  UNL     1      20.363  16.733  16.989  1.00  0.00     0.143 C 
HETATM   20  C2  UNL     1      20.356  16.148  18.368  1.00  0.00     0.136 C 
HETATM   21  N1  UNL     1      20.758  17.061  19.371  1.00  0.00    -0.414 N 
HETATM   22  C1  UNL     1      19.723  17.742  20.073  1.00  0.00     0.143 C 
HETATM   23  C12 UNL     1      21.955  17.775  19.133  1.00  0.00     0.136 C 
HETATM   24  C11 UNL     1      22.286  18.099  17.726  1.00  0.00     0.143 C 
ENDBRANCH   1  18
BRANCH   7  25
HETATM   25  N8  UNL     1      25.421  16.093  14.096  1.00  0.00    -0.385 N 
ATOM     26  H82 UNL     1      25.733  15.418  13.398  1.00  0.00     0.157 HD
ATOM     27  H81 UNL     1      26.113  16.506  14.721  1.00  0.00     0.157 HD
ENDBRANCH   7  25
BRANCH   8  28
HETATM   28  C10 UNL     1      24.448  16.648  16.584  1.00  0.00     0.275 C 
BRANCH  28  29
HETATM   29  N9  UNL     1      24.234  15.458  17.395  1.00  0.00    -0.075 N 
ATOM     30  H93 UNL     1      24.312  15.674  18.389  1.00  0.00     0.274 HD
ATOM     31  H92 UNL     1      23.257  15.165  17.365  1.00  0.00     0.274 HD
ATOM     32  H91 UNL     1      24.854  14.688  17.139  1.00  0.00     0.274 HD
ENDBRANCH  28  29
ENDBRANCH   8  28
TORSDOF 6
ENDMDL
MODEL 2
REMARK VINA RESULT: -5.922910095      1.685      2.687
REMARK  6 active torsions:
REMARK  status: ('A' for Active; 'I' for Inactive)
REMARK    1  A    between atoms: N2_5  and  C4_6 
REMARK    2  A    between atoms: C5_9  and  S1_10 
REMARK    3  A    between atoms: S1_10  and  C6_11 
REMARK    4  A    between atoms: C8_21  and  N8_22 
REMARK    5  A    between atoms: C9_25  and  C10_26 
REMARK    6  A    between atoms: C10_26  and  N9_27 
ROOT
HETATM    1  C4  UNL     1      22.549  16.808  14.901  1.00  0.00     0.117 A 
HETATM    2  N3  UNL     1      23.372  17.149  13.880  1.00  0.00    -0.322 N 
ATOM      3  H3  UNL     1      24.313  17.476  14.104  1.00  0.00     0.169 HD
HETATM    4  C5  UNL     1      23.015  17.080  12.598  1.00  0.00     0.155 A 
HETATM    5  N7  UNL     1      21.775  16.647  12.309  1.00  0.00    -0.322 N 
ATOM      6  H7  UNL     1      21.489  16.589  11.332  1.00  0.00     0.169 HD
HETATM    7  C8  UNL     1      20.896  16.287  13.271  1.00  0.00     0.112 A 
HETATM    8  C9  UNL     1      21.297  16.370  14.614  1.00  0.00     0.055 A 
ENDROOT
BRANCH   4   9
HETATM    9  S1  UNL     1      24.168  17.559  11.310  1.00  0.00    -0.016 SA
BRANCH   9  10
HETATM   10  C6  UNL     1      23.274  18.079   9.853  1.00  0.00     0.167 A 
HETATM   11  N4  UNL     1      23.519  17.722   8.586  1.00  0.00    -0.331 N 
HETATM   12  C7  UNL     1      22.618  18.341   7.810  1.00  0.00     0.199 A 
ATOM     13  H4  UNL     1      24.257  17.093   8.269  1.00  0.00     0.168 HD
HETATM   14  N5  UNL     1      21.817  19.082   8.611  1.00  0.00    -0.294 N 
HETATM   15  N6  UNL     1      22.226  18.912   9.838  1.00  0.00    -0.279 N 
ATOM     16  H5  UNL     1      21.036  19.666   8.311  1.00  0.00     0.187 HD
ATOM     17  H6  UNL     1      21.811  19.348  10.661  1.00  0.00     0.189 HD
ENDBRANCH   9  10
ENDBRANCH   4   9
BRANCH   1  18
HETATM   18  N2  UNL     1      22.974  16.907  16.261  1.00  0.00    -0.364 N 
HETATM   19  C3  UNL     1      22.338  17.910  17.094  1.00  0.00     0.143 C 
HETATM   20  C2  UNL     1      21.980  17.287  18.408  1.00  0.00     0.136 C 
HETATM   21  N1  UNL     1      23.076  16.674  19.060  1.00  0.00    -0.414 N 
HETATM   22  C1  UNL     1      23.749  17.447  20.049  1.00  0.00     0.143 C 
HETATM   23  C12 UNL     1      23.863  15.793  18.282  1.00  0.00     0.136 C 
HETATM   24  C11 UNL     1      23.993  16.093  16.837  1.00  0.00     0.143 C 
ENDBRANCH   1  18
BRANCH   7  25
HETATM   25  N8  UNL     1      19.704  15.874  13.008  1.00  0.00    -0.385 N 
ATOM     26  H82 UNL     1      19.446  15.718  12.033  1.00  0.00     0.157 HD
ATOM     27  H81 UNL     1      19.010  15.694  13.733  1.00  0.00     0.157 HD
ENDBRANCH   7  25
BRANCH   8  28
HETATM   28  C10 UNL     1      20.353  15.977  15.656  1.00  0.00     0.275 C 
BRANCH  28  29
HETATM   29  N9  UNL     1      20.671  14.684  16.245  1.00  0.00    -0.075 N 
ATOM     30  H93 UNL     1      19.829  14.222  16.589  1.00  0.00     0.274 HD
ATOM     31  H92 UNL     1      20.947  14.013  15.527  1.00  0.00     0.274 HD
ATOM     32  H91 UNL     1      21.379  14.747  16.977  1.00  0.00     0.274 HD
ENDBRANCH  28  29
ENDBRANCH   8  28
TORSDOF 6
ENDMDL
MODEL 3
REMARK VINA RESULT: -5.465689717      0.734      1.025
REMARK  6 active torsions:
REMARK  status: ('A' for Active; 'I' for Inactive)
REMARK    1  A    between atoms: N2_5  and  C4_6 
REMARK    2  A    between atoms: C5_9  and  S1_10 
REMARK    3  A    between atoms: S1_10  and  C6_11 
REMARK    4  A    between atoms: C8_21  and  N8_22 
REMARK    5  A    between atoms: C9_25  and  C10_26 
REMARK    6  A    between atoms: C10_26  and  N9_27 
ROOT
HETATM    1  C4  UNL     1      22.281  16.745  15.461  1.00  0.00     0.117 A 
HETATM    2  N3  UNL     1      21.579  16.696  14.303  1.00  0.00    -0.322 N 
ATOM      3  H3  UNL     1      20.565  16.796  14.346  1.00  0.00     0.169 HD
HETATM    4  C5  UNL     1      22.148  16.525  13.110  1.00  0.00     0.155 A 
HETATM    5  N7  UNL     1      23.485  16.396  13.059  1.00  0.00    -0.322 N 
ATOM      6  H7  UNL     1      23.934  16.264  12.152  1.00  0.00     0.169 HD
HETATM    7  C8  UNL     1      24.255  16.436  14.170  1.00  0.00     0.112 A 
HETATM    8  C9  UNL     1      23.631  16.617  15.415  1.00  0.00     0.055 A 
ENDROOT
BRANCH   4   9
HETATM    9  S1  UNL     1      21.140  16.465  11.627  1.00  0.00    -0.016 SA
BRANCH   9  10
HETATM   10  C6  UNL     1      21.756  17.632  10.423  1.00  0.00     0.167 A 
HETATM   11  N4  UNL     1      22.538  17.366   9.368  1.00  0.00    -0.331 N 
HETATM   12  C7  UNL     1      22.766  18.524   8.732  1.00  0.00     0.199 A 
ATOM     13  H4  UNL     1      22.895  16.450   9.098  1.00  0.00     0.168 HD
HETATM   14  N5  UNL     1      22.118  19.504   9.403  1.00  0.00    -0.294 N 
HETATM   15  N6  UNL     1      21.515  18.949  10.418  1.00  0.00    -0.279 N 
ATOM     16  H5  UNL     1      22.103  20.494   9.161  1.00  0.00     0.187 HD
ATOM     17  H6  UNL     1      20.946  19.443  11.105  1.00  0.00     0.189 HD
ENDBRANCH   9  10
ENDBRANCH   4   9
BRANCH   1  18
HETATM   18  N2  UNL     1      21.626  16.923  16.718  1.00  0.00    -0.364 N 
HETATM   19  C3  UNL     1      21.176  18.259  17.060  1.00  0.00     0.143 C 
HETATM   20  C2  UNL     1      19.779  18.174  17.596  1.00  0.00     0.136 C 
HETATM   21  N1  UNL     1      19.645  17.275  18.680  1.00  0.00    -0.414 N 
HETATM   22  C1  UNL     1      19.699  17.835  19.989  1.00  0.00     0.143 C 
HETATM   23  C12 UNL     1      20.197  15.985  18.505  1.00  0.00     0.136 C 
HETATM   24  C11 UNL     1      21.405  15.871  17.655  1.00  0.00     0.143 C 
ENDBRANCH   1  18
BRANCH   7  25
HETATM   25  N8  UNL     1      25.537  16.310  14.135  1.00  0.00    -0.385 N 
ATOM     26  H82 UNL     1      26.036  16.152  15.011  1.00  0.00     0.157 HD
ATOM     27  H81 UNL     1      26.073  16.359  13.269  1.00  0.00     0.157 HD
ENDBRANCH   7  25
BRANCH   8  28
HETATM   28  C10 UNL     1      24.458  16.666  16.616  1.00  0.00     0.275 C 
BRANCH  28  29
HETATM   29  N9  UNL     1      24.463  15.407  17.348  1.00  0.00    -0.075 N 
ATOM     30  H93 UNL     1      23.625  14.862  17.145  1.00  0.00     0.274 HD
ATOM     31  H92 UNL     1      25.168  14.771  16.976  1.00  0.00     0.274 HD
ATOM     32  H91 UNL     1      24.581  15.536  18.354  1.00  0.00     0.274 HD
ENDBRANCH  28  29
ENDBRANCH   8  28
TORSDOF 6
ENDMDL
MODEL 4
REMARK VINA RESULT: -5.106610952      3.635      7.191
REMARK  6 active torsions:
REMARK  status: ('A' for Active; 'I' for Inactive)
REMARK    1  A    between atoms: N2_5  and  C4_6 
REMARK    2  A    between atoms: C5_9  and  S1_10 
REMARK    3  A    between atoms: S1_10  and  C6_11 
REMARK    4  A    between atoms: C8_21  and  N8_22 
REMARK    5  A    between atoms: C9_25  and  C10_26 
REMARK    6  A    between atoms: C10_26  and  N9_27 
ROOT
HETATM    1  C4  UNL     1      21.187  15.612  16.297  1.00  0.00     0.117 A 
HETATM    2  N3  UNL     1      20.384  14.530  16.152  1.00  0.00    -0.322 N 
ATOM      3  H3  UNL     1      20.520  13.930  15.339  1.00  0.00     0.169 HD
HETATM    4  C5  UNL     1      19.425  14.211  17.021  1.00  0.00     0.155 A 
HETATM    5  N7  UNL     1      19.252  15.004  18.092  1.00  0.00    -0.322 N 
ATOM      6  H7  UNL     1      18.521  14.771  18.765  1.00  0.00     0.169 HD
HETATM    7  C8  UNL     1      20.014  16.100  18.307  1.00  0.00     0.112 A 
HETATM    8  C9  UNL     1      21.017  16.416  17.377  1.00  0.00     0.055 A 
ENDROOT
BRANCH   4   9
HETATM    9  S1  UNL     1      18.403  12.762  16.748  1.00  0.00    -0.016 SA
BRANCH   9  10
HETATM   10  C6  UNL     1      16.703  13.130  17.155  1.00  0.00     0.167 A 
HETATM   11  N4  UNL     1      15.673  13.232  16.305  1.00  0.00    -0.331 N 
HETATM   12  C7  UNL     1      14.580  13.522  17.026  1.00  0.00     0.199 A 
ATOM     13  H4  UNL     1      15.713  13.112  15.293  1.00  0.00     0.168 HD
HETATM   14  N5  UNL     1      14.946  13.597  18.326  1.00  0.00    -0.294 N 
HETATM   15  N6  UNL     1      16.227  13.358  18.386  1.00  0.00    -0.279 N 
ATOM     16  H5  UNL     1      14.333  13.802  19.115  1.00  0.00     0.187 HD
ATOM     17  H6  UNL     1      16.783  13.345  19.242  1.00  0.00     0.189 HD
ENDBRANCH   9  10
ENDBRANCH   4   9
BRANCH   1  18
HETATM   18  N2  UNL     1      22.198  15.919  15.333  1.00  0.00    -0.364 N 
HETATM   19  C3  UNL     1      21.825  15.884  13.933  1.00  0.00     0.143 C 
HETATM   20  C2  UNL     1      22.370  17.106  13.259  1.00  0.00     0.136 C 
HETATM   21  N1  UNL     1      23.765  17.272  13.433  1.00  0.00    -0.414 N 
HETATM   22  C1  UNL     1      24.603  16.793  12.386  1.00  0.00     0.143 C 
HETATM   23  C12 UNL     1      24.255  17.163  14.755  1.00  0.00     0.136 C 
HETATM   24  C11 UNL     1      23.546  16.238  15.670  1.00  0.00     0.143 C 
ENDBRANCH   1  18
BRANCH   7  25
HETATM   25  N8  UNL     1      19.855  16.871  19.328  1.00  0.00    -0.385 N 
ATOM     26  H82 UNL     1      19.752  16.445  20.249  1.00  0.00     0.157 HD
ATOM     27  H81 UNL     1      19.832  17.888  19.253  1.00  0.00     0.157 HD
ENDBRANCH   7  25
BRANCH   8  28
HETATM   28  C10 UNL     1      21.845  17.594  17.607  1.00  0.00     0.275 C 
BRANCH  28  29
HETATM   29  N9  UNL     1      22.844  17.387  18.647  1.00  0.00    -0.075 N 
ATOM     30  H93 UNL     1      23.699  16.990  18.258  1.00  0.00     0.274 HD
ATOM     31  H92 UNL     1      23.212  18.277  18.982  1.00  0.00     0.274 HD
ATOM     32  H91 UNL     1      22.495  16.820  19.421  1.00  0.00     0.274 HD
ENDBRANCH  28  29
ENDBRANCH   8  28
TORSDOF 6
ENDMDL
MODEL 5
REMARK VINA RESULT: -4.870502873      8.117      8.963
REMARK  6 active torsions:
REMARK  status: ('A' for Active; 'I' for Inactive)
REMARK    1  A    between atoms: N2_5  and  C4_6 
REMARK    2  A    between atoms: C5_9  and  S1_10 
REMARK    3  A    between atoms: S1_10  and  C6_11 
REMARK    4  A    between atoms: C8_21  and  N8_22 
REMARK    5  A    between atoms: C9_25  and  C10_26 
REMARK    6  A    between atoms: C10_26  and  N9_27 
ROOT
HETATM    1  C4  UNL     1      14.951  11.491  15.246  1.00  0.00     0.117 A 
HETATM    2  N3  UNL     1      14.285  11.992  14.177  1.00  0.00    -0.322 N 
ATOM      3  H3  UNL     1      13.636  12.765  14.328  1.00  0.00     0.169 HD
HETATM    4  C5  UNL     1      14.436  11.526  12.938  1.00  0.00     0.155 A 
HETATM    5  N7  UNL     1      15.293  10.509  12.744  1.00  0.00    -0.322 N 
ATOM      6  H7  UNL     1      15.419  10.142  11.800  1.00  0.00     0.169 HD
HETATM    7  C8  UNL     1      15.995   9.956  13.759  1.00  0.00     0.112 A 
HETATM    8  C9  UNL     1      15.818  10.465  15.056  1.00  0.00     0.055 A 
ENDROOT
BRANCH   4   9
HETATM    9  S1  UNL     1      13.509  12.245  11.581  1.00  0.00    -0.016 SA
BRANCH   9  10
HETATM   10  C6  UNL     1      14.629  12.851  10.329  1.00  0.00     0.167 A 
HETATM   11  N4  UNL     1      14.619  12.552   9.023  1.00  0.00    -0.331 N 
HETATM   12  C7  UNL     1      15.630  13.218   8.448  1.00  0.00     0.199 A 
ATOM     13  H4  UNL     1      13.961  11.930   8.553  1.00  0.00     0.168 HD
HETATM   14  N5  UNL     1      16.262  13.929   9.409  1.00  0.00    -0.294 N 
HETATM   15  N6  UNL     1      15.646  13.697  10.536  1.00  0.00    -0.279 N 
ATOM     16  H5  UNL     1      17.071  14.536   9.278  1.00  0.00     0.187 HD
ATOM     17  H6  UNL     1      15.900  14.099  11.438  1.00  0.00     0.189 HD
ENDBRANCH   9  10
ENDBRANCH   4   9
BRANCH   1  18
HETATM   18  N2  UNL     1      14.749  12.019  16.558  1.00  0.00    -0.364 N 
HETATM   19  C3  UNL     1      13.707  11.423  17.371  1.00  0.00     0.143 C 
HETATM   20  C2  UNL     1      14.247  11.187  18.749  1.00  0.00     0.136 C 
HETATM   21  N1  UNL     1      14.789  12.347  19.349  1.00  0.00    -0.414 N 
HETATM   22  C1  UNL     1      13.936  13.074  20.228  1.00  0.00     0.143 C 
HETATM   23  C12 UNL     1      15.703  13.095  18.571  1.00  0.00     0.136 C 
HETATM   24  C11 UNL     1      15.500  13.103  17.103  1.00  0.00     0.143 C 
ENDBRANCH   1  18
BRANCH   7  25
HETATM   25  N8  UNL     1      16.818   8.979  13.588  1.00  0.00    -0.385 N 
ATOM     26  H82 UNL     1      17.471   8.754  14.338  1.00  0.00     0.157 HD
ATOM     27  H81 UNL     1      16.840   8.420  12.735  1.00  0.00     0.157 HD
ENDBRANCH   7  25
BRANCH   8  28
HETATM   28  C10 UNL     1      16.577   9.876  16.154  1.00  0.00     0.275 C 
BRANCH  28  29
HETATM   29  N9  UNL     1      17.860  10.531  16.367  1.00  0.00    -0.075 N 
ATOM     30  H93 UNL     1      18.443  10.475  15.532  1.00  0.00     0.274 HD
ATOM     31  H92 UNL     1      17.748  11.544  16.423  1.00  0.00     0.274 HD
ATOM     32  H91 UNL     1      18.355  10.173  17.184  1.00  0.00     0.274 HD
ENDBRANCH  28  29
ENDBRANCH   8  28
TORSDOF 6
ENDMDL
