MODEL 1
REMARK VINA RESULT: -7.308595738      0.000      0.000
REMARK  7 active torsions:
REMARK  status: ('A' for Active; 'I' for Inactive)
REMARK    1  A    between atoms: C2_3  and  N2_4 
REMARK    2  A    between atoms: N2_4  and  C3_6 
REMARK    3  A    between atoms: C4_9  and  C5_10 
REMARK    4  A    between atoms: C6_13  and  C7_14 
REMARK    5  A    between atoms: C7_14  and  C8_15 
REMARK    6  A    between atoms: C8_15  and  O1_16 
REMARK    7  A    between atoms: C11_21  and  C12_22 
ROOT
HETATM    1  N1  UNL     1      59.227  36.953 163.232  1.00  0.00    -0.196 NA
HETATM    2  C1  UNL     1      58.510  37.576 163.915  1.00  0.00     0.078 C 
HETATM    3  C2  UNL     1      57.611  38.366 164.753  1.00  0.00     0.246 C 
ENDROOT
BRANCH   3   4
HETATM    4  N2  UNL     1      56.487  37.535 165.143  1.00  0.00    -0.358 N 
ATOM      5  H2  UNL     1      56.467  36.545 164.896  1.00  0.00     0.162 HD
BRANCH   4   6
HETATM    6  C3  UNL     1      55.490  38.075 165.820  1.00  0.00     0.145 A 
HETATM    7  N3  UNL     1      55.179  39.364 165.907  1.00  0.00    -0.333 N 
HETATM    8  C4  UNL     1      54.151  39.713 166.629  1.00  0.00     0.085 A 
ATOM      9  H3  UNL     1      55.733  40.067 165.418  1.00  0.00     0.168 HD
HETATM   10  C13 UNL     1      53.450  38.715 167.261  1.00  0.00     0.086 A 
HETATM   11  S1  UNL     1      54.306  37.318 166.783  1.00  0.00    -0.064 SA
BRANCH   8  12
HETATM   12  C5  UNL     1      53.733  41.137 166.785  1.00  0.00     0.134 A 
HETATM   13  N4  UNL     1      54.012  42.047 165.815  1.00  0.00    -0.343 N 
HETATM   14  C6  UNL     1      53.659  43.337 165.908  1.00  0.00     0.036 A 
ATOM     15  H4  UNL     1      54.511  41.735 164.981  1.00  0.00     0.167 HD
HETATM   16  C9  UNL     1      52.977  43.703 167.076  1.00  0.00     0.097 A 
HETATM   17  C10 UNL     1      52.589  45.073 167.187  1.00  0.00     0.104 C 
HETATM   18  C11 UNL     1      52.691  42.788 168.061  1.00  0.00     0.098 A 
HETATM   19  N5  UNL     1      52.276  46.184 167.251  1.00  0.00    -0.191 NA
HETATM   20  N8  UNL     1      53.081  41.519 167.885  1.00  0.00    -0.337 N 
ATOM     21  H8  UNL     1      52.875  40.829 168.608  1.00  0.00     0.168 HD
BRANCH  14  22
HETATM   22  C7  UNL     1      53.976  44.332 164.851  1.00  0.00     0.084 C 
BRANCH  22  23
HETATM   23  C8  UNL     1      52.734  44.784 164.118  1.00  0.00     0.170 C 
BRANCH  23  24
HETATM   24  O1  UNL     1      52.597  46.165 164.241  1.00  0.00    -0.400 OA
ATOM     25  H1  UNL     1      51.810  46.363 164.736  1.00  0.00     0.209 HD
ENDBRANCH  23  24
ENDBRANCH  22  23
ENDBRANCH  14  22
BRANCH  18  26
HETATM   26  C12 UNL     1      51.984  43.149 169.284  1.00  0.00     0.138 C 
HETATM   27  N6  UNL     1      50.928  43.916 169.148  1.00  0.00    -0.386 N 
ATOM     28  H62 UNL     1      50.668  44.212 168.207  1.00  0.00     0.157 HD
ATOM     29  H61 UNL     1      50.433  44.169 170.003  1.00  0.00     0.157 HD
HETATM   30  N7  UNL     1      52.340  42.744 170.577  1.00  0.00    -0.081 NA
ENDBRANCH  18  26
ENDBRANCH   8  12
ENDBRANCH   4   6
ENDBRANCH   3   4
TORSDOF 7
ENDMDL
MODEL 2
REMARK VINA RESULT: -7.297186932      1.956      3.388
REMARK  7 active torsions:
REMARK  status: ('A' for Active; 'I' for Inactive)
REMARK    1  A    between atoms: C2_3  and  N2_4 
REMARK    2  A    between atoms: N2_4  and  C3_6 
REMARK    3  A    between atoms: C4_9  and  C5_10 
REMARK    4  A    between atoms: C6_13  and  C7_14 
REMARK    5  A    between atoms: C7_14  and  C8_15 
REMARK    6  A    between atoms: C8_15  and  O1_16 
REMARK    7  A    between atoms: C11_21  and  C12_22 
ROOT
HETATM    1  N1  UNL     1      59.383  36.900 163.174  1.00  0.00    -0.196 NA
HETATM    2  C1  UNL     1      58.619  37.532 163.795  1.00  0.00     0.078 C 
HETATM    3  C2  UNL     1      57.658  38.329 164.554  1.00  0.00     0.246 C 
ENDROOT
BRANCH   3   4
HETATM    4  N2  UNL     1      56.787  37.431 165.289  1.00  0.00    -0.358 N 
ATOM      5  H2  UNL     1      57.026  36.444 165.386  1.00  0.00     0.162 HD
BRANCH   4   6
HETATM    6  C3  UNL     1      55.681  37.907 165.832  1.00  0.00     0.145 A 
HETATM    7  N3  UNL     1      55.314  39.180 165.932  1.00  0.00    -0.333 N 
HETATM    8  C4  UNL     1      54.177  39.462 166.505  1.00  0.00     0.085 A 
ATOM      9  H3  UNL     1      55.910  39.923 165.566  1.00  0.00     0.168 HD
HETATM   10  C13 UNL     1      53.425  38.413 166.974  1.00  0.00     0.086 A 
HETATM   11  S1  UNL     1      54.392  37.067 166.567  1.00  0.00    -0.064 SA
BRANCH   8  12
HETATM   12  C5  UNL     1      53.690  40.864 166.662  1.00  0.00     0.134 A 
HETATM   13  N4  UNL     1      52.853  41.192 167.681  1.00  0.00    -0.343 N 
HETATM   14  C6  UNL     1      52.387  42.436 167.865  1.00  0.00     0.036 A 
ATOM     15  H4  UNL     1      52.566  40.461 168.333  1.00  0.00     0.167 HD
HETATM   16  C9  UNL     1      52.816  43.393 166.937  1.00  0.00     0.097 A 
HETATM   17  C10 UNL     1      52.334  44.725 167.124  1.00  0.00     0.104 C 
HETATM   18  C11 UNL     1      53.664  43.069 165.904  1.00  0.00     0.098 A 
HETATM   19  N5  UNL     1      51.939  45.797 167.299  1.00  0.00    -0.191 NA
HETATM   20  N8  UNL     1      54.081  41.801 165.796  1.00  0.00    -0.337 N 
ATOM     21  H8  UNL     1      54.710  41.546 165.035  1.00  0.00     0.168 HD
BRANCH  14  22
HETATM   22  C7  UNL     1      51.462  42.788 168.973  1.00  0.00     0.084 C 
BRANCH  22  23
HETATM   23  C8  UNL     1      52.213  43.143 170.236  1.00  0.00     0.170 C 
BRANCH  23  24
HETATM   24  O1  UNL     1      51.453  42.781 171.346  1.00  0.00    -0.400 OA
ATOM     25  H1  UNL     1      51.866  43.114 172.135  1.00  0.00     0.209 HD
ENDBRANCH  23  24
ENDBRANCH  22  23
ENDBRANCH  14  22
BRANCH  18  26
HETATM   26  C12 UNL     1      54.121  44.052 164.929  1.00  0.00     0.138 C 
HETATM   27  N6  UNL     1      55.406  44.070 164.669  1.00  0.00    -0.386 N 
ATOM     28  H62 UNL     1      56.004  43.405 165.161  1.00  0.00     0.157 HD
ATOM     29  H61 UNL     1      55.725  44.757 163.987  1.00  0.00     0.157 HD
HETATM   30  N7  UNL     1      53.300  44.966 164.253  1.00  0.00    -0.081 NA
ENDBRANCH  18  26
ENDBRANCH   8  12
ENDBRANCH   4   6
ENDBRANCH   3   4
TORSDOF 7
ENDMDL
MODEL 3
REMARK VINA RESULT: -7.075214189      2.532      4.100
REMARK  7 active torsions:
REMARK  status: ('A' for Active; 'I' for Inactive)
REMARK    1  A    between atoms: C2_3  and  N2_4 
REMARK    2  A    between atoms: N2_4  and  C3_6 
REMARK    3  A    between atoms: C4_9  and  C5_10 
REMARK    4  A    between atoms: C6_13  and  C7_14 
REMARK    5  A    between atoms: C7_14  and  C8_15 
REMARK    6  A    between atoms: C8_15  and  O1_16 
REMARK    7  A    between atoms: C11_21  and  C12_22 
ROOT
HETATM    1  N1  UNL     1      52.987  37.464 166.535  1.00  0.00    -0.196 NA
HETATM    2  C1  UNL     1      53.985  36.883 166.351  1.00  0.00     0.078 C 
HETATM    3  C2  UNL     1      55.223  36.143 166.113  1.00  0.00     0.246 C 
ENDROOT
BRANCH   3   4
HETATM    4  N2  UNL     1      56.041  36.891 165.178  1.00  0.00    -0.358 N 
ATOM      5  H2  UNL     1      56.500  36.417 164.399  1.00  0.00     0.162 HD
BRANCH   4   6
HETATM    6  C3  UNL     1      56.186  38.193 165.346  1.00  0.00     0.145 A 
HETATM    7  N3  UNL     1      55.241  39.077 165.647  1.00  0.00    -0.333 N 
HETATM    8  C4  UNL     1      55.575  40.332 165.775  1.00  0.00     0.085 A 
ATOM      9  H3  UNL     1      54.274  38.781 165.777  1.00  0.00     0.168 HD
HETATM   10  C13 UNL     1      56.895  40.660 165.586  1.00  0.00     0.086 A 
HETATM   11  S1  UNL     1      57.596  39.145 165.234  1.00  0.00    -0.064 SA
BRANCH   8  12
HETATM   12  C5  UNL     1      54.578  41.392 166.107  1.00  0.00     0.134 A 
HETATM   13  N4  UNL     1      53.604  41.157 167.026  1.00  0.00    -0.343 N 
HETATM   14  C6  UNL     1      52.686  42.076 167.358  1.00  0.00     0.036 A 
ATOM     15  H4  UNL     1      53.571  40.245 167.482  1.00  0.00     0.167 HD
HETATM   16  C9  UNL     1      52.784  43.307 166.698  1.00  0.00     0.097 A 
HETATM   17  C10 UNL     1      51.816  44.298 167.047  1.00  0.00     0.104 C 
HETATM   18  C11 UNL     1      53.767  43.551 165.768  1.00  0.00     0.098 A 
HETATM   19  N5  UNL     1      51.028  45.088 167.351  1.00  0.00    -0.191 NA
HETATM   20  N8  UNL     1      54.644  42.576 165.497  1.00  0.00    -0.337 N 
ATOM     21  H8  UNL     1      55.378  42.743 164.809  1.00  0.00     0.168 HD
BRANCH  14  22
HETATM   22  C7  UNL     1      51.615  41.813 168.355  1.00  0.00     0.084 C 
BRANCH  22  23
HETATM   23  C8  UNL     1      50.867  40.536 168.048  1.00  0.00     0.170 C 
BRANCH  23  24
HETATM   24  O1  UNL     1      51.720  39.446 168.203  1.00  0.00    -0.400 OA
ATOM     25  H1  UNL     1      51.314  38.804 168.774  1.00  0.00     0.209 HD
ENDBRANCH  23  24
ENDBRANCH  22  23
ENDBRANCH  14  22
BRANCH  18  26
HETATM   26  C12 UNL     1      53.884  44.826 165.070  1.00  0.00     0.138 C 
HETATM   27  N6  UNL     1      54.862  45.615 165.447  1.00  0.00    -0.386 N 
ATOM     28  H62 UNL     1      55.473  45.295 166.198  1.00  0.00     0.157 HD
ATOM     29  H61 UNL     1      54.944  46.506 164.958  1.00  0.00     0.157 HD
HETATM   30  N7  UNL     1      53.044  45.266 164.038  1.00  0.00    -0.081 NA
ENDBRANCH  18  26
ENDBRANCH   8  12
ENDBRANCH   4   6
ENDBRANCH   3   4
TORSDOF 7
ENDMDL
MODEL 4
REMARK VINA RESULT: -6.749304959      1.815      2.640
REMARK  7 active torsions:
REMARK  status: ('A' for Active; 'I' for Inactive)
REMARK    1  A    between atoms: C2_3  and  N2_4 
REMARK    2  A    between atoms: N2_4  and  C3_6 
REMARK    3  A    between atoms: C4_9  and  C5_10 
REMARK    4  A    between atoms: C6_13  and  C7_14 
REMARK    5  A    between atoms: C7_14  and  C8_15 
REMARK    6  A    between atoms: C8_15  and  O1_16 
REMARK    7  A    between atoms: C11_21  and  C12_22 
ROOT
HETATM    1  N1  UNL     1      53.016  37.451 166.573  1.00  0.00    -0.196 NA
HETATM    2  C1  UNL     1      54.032  36.911 166.364  1.00  0.00     0.078 C 
HETATM    3  C2  UNL     1      55.293  36.223 166.094  1.00  0.00     0.246 C 
ENDROOT
BRANCH   3   4
HETATM    4  N2  UNL     1      56.072  37.022 165.168  1.00  0.00    -0.358 N 
ATOM      5  H2  UNL     1      56.567  36.579 164.393  1.00  0.00     0.162 HD
BRANCH   4   6
HETATM    6  C3  UNL     1      56.133  38.330 165.338  1.00  0.00     0.145 A 
HETATM    7  N3  UNL     1      55.124  39.161 165.575  1.00  0.00    -0.333 N 
HETATM    8  C4  UNL     1      55.378  40.432 165.716  1.00  0.00     0.085 A 
ATOM      9  H3  UNL     1      54.168  38.811 165.645  1.00  0.00     0.168 HD
HETATM   10  C13 UNL     1      56.687  40.834 165.610  1.00  0.00     0.086 A 
HETATM   11  S1  UNL     1      57.492  39.359 165.311  1.00  0.00    -0.064 SA
BRANCH   8  12
HETATM   12  C5  UNL     1      54.305  41.435 165.980  1.00  0.00     0.134 A 
HETATM   13  N4  UNL     1      54.117  42.481 165.132  1.00  0.00    -0.343 N 
HETATM   14  C6  UNL     1      53.167  43.408 165.326  1.00  0.00     0.036 A 
ATOM     15  H4  UNL     1      54.722  42.564 164.316  1.00  0.00     0.167 HD
HETATM   16  C9  UNL     1      52.369  43.239 166.464  1.00  0.00     0.097 A 
HETATM   17  C10 UNL     1      51.348  44.215 166.680  1.00  0.00     0.104 C 
HETATM   18  C11 UNL     1      52.553  42.183 167.325  1.00  0.00     0.098 A 
HETATM   19  N5  UNL     1      50.524  45.012 166.830  1.00  0.00    -0.191 NA
HETATM   20  N8  UNL     1      53.526  41.303 167.055  1.00  0.00    -0.337 N 
ATOM     21  H8  UNL     1      53.674  40.515 167.685  1.00  0.00     0.168 HD
BRANCH  14  22
HETATM   22  C7  UNL     1      52.971  44.557 164.404  1.00  0.00     0.084 C 
BRANCH  22  23
HETATM   23  C8  UNL     1      53.490  45.846 164.999  1.00  0.00     0.170 C 
BRANCH  23  24
HETATM   24  O1  UNL     1      54.779  45.649 165.486  1.00  0.00    -0.400 OA
ATOM     25  H1  UNL     1      54.951  44.718 165.562  1.00  0.00     0.209 HD
ENDBRANCH  23  24
ENDBRANCH  22  23
ENDBRANCH  14  22
BRANCH  18  26
HETATM   26  C12 UNL     1      51.733  41.991 168.515  1.00  0.00     0.138 C 
HETATM   27  N6  UNL     1      50.728  41.155 168.409  1.00  0.00    -0.386 N 
ATOM     28  H62 UNL     1      50.580  40.695 167.510  1.00  0.00     0.157 HD
ATOM     29  H61 UNL     1      50.155  41.021 169.241  1.00  0.00     0.157 HD
HETATM   30  N7  UNL     1      51.935  42.623 169.750  1.00  0.00    -0.081 NA
ENDBRANCH  18  26
ENDBRANCH   8  12
ENDBRANCH   4   6
ENDBRANCH   3   4
TORSDOF 7
ENDMDL
MODEL 5
REMARK VINA RESULT: -6.705270653      1.342      1.508
REMARK  7 active torsions:
REMARK  status: ('A' for Active; 'I' for Inactive)
REMARK    1  A    between atoms: C2_3  and  N2_4 
REMARK    2  A    between atoms: N2_4  and  C3_6 
REMARK    3  A    between atoms: C4_9  and  C5_10 
REMARK    4  A    between atoms: C6_13  and  C7_14 
REMARK    5  A    between atoms: C7_14  and  C8_15 
REMARK    6  A    between atoms: C8_15  and  O1_16 
REMARK    7  A    between atoms: C11_21  and  C12_22 
ROOT
HETATM    1  N1  UNL     1      60.125  38.965 163.168  1.00  0.00    -0.196 NA
HETATM    2  C1  UNL     1      59.375  38.141 163.523  1.00  0.00     0.078 C 
HETATM    3  C2  UNL     1      58.442  37.115 163.985  1.00  0.00     0.246 C 
ENDROOT
BRANCH   3   4
HETATM    4  N2  UNL     1      57.089  37.548 163.687  1.00  0.00    -0.358 N 
ATOM      5  H2  UNL     1      56.752  37.564 162.724  1.00  0.00     0.162 HD
BRANCH   4   6
HETATM    6  C3  UNL     1      56.299  37.920 164.677  1.00  0.00     0.145 A 
HETATM    7  N3  UNL     1      55.670  39.083 164.813  1.00  0.00    -0.333 N 
HETATM    8  C4  UNL     1      54.925  39.273 165.866  1.00  0.00     0.085 A 
ATOM      9  H3  UNL     1      55.767  39.812 164.106  1.00  0.00     0.168 HD
HETATM   10  C13 UNL     1      54.840  38.249 166.777  1.00  0.00     0.086 A 
HETATM   11  S1  UNL     1      55.837  37.057 166.072  1.00  0.00    -0.064 SA
BRANCH   8  12
HETATM   12  C5  UNL     1      54.187  40.549 166.101  1.00  0.00     0.134 A 
HETATM   13  N4  UNL     1      54.362  41.609 165.267  1.00  0.00    -0.343 N 
HETATM   14  C6  UNL     1      53.723  42.776 165.436  1.00  0.00     0.036 A 
ATOM     15  H4  UNL     1      55.005  41.512 164.481  1.00  0.00     0.167 HD
HETATM   16  C9  UNL     1      52.854  42.846 166.532  1.00  0.00     0.097 A 
HETATM   17  C10 UNL     1      52.161  44.081 166.720  1.00  0.00     0.104 C 
HETATM   18  C11 UNL     1      52.671  41.778 167.378  1.00  0.00     0.098 A 
HETATM   19  N5  UNL     1      51.605  45.086 166.848  1.00  0.00    -0.191 NA
HETATM   20  N8  UNL     1      53.350  40.649 167.136  1.00  0.00    -0.337 N 
ATOM     21  H8  UNL     1      53.225  39.848 167.755  1.00  0.00     0.168 HD
BRANCH  14  22
HETATM   22  C7  UNL     1      53.925  43.936 164.530  1.00  0.00     0.084 C 
BRANCH  22  23
HETATM   23  C8  UNL     1      54.871  44.953 165.126  1.00  0.00     0.170 C 
BRANCH  23  24
HETATM   24  O1  UNL     1      54.159  46.091 165.495  1.00  0.00    -0.400 OA
ATOM     25  H1  UNL     1      53.407  45.840 166.017  1.00  0.00     0.209 HD
ENDBRANCH  23  24
ENDBRANCH  22  23
ENDBRANCH  14  22
BRANCH  18  26
HETATM   26  C12 UNL     1      51.772  41.832 168.525  1.00  0.00     0.138 C 
HETATM   27  N6  UNL     1      50.655  41.152 168.429  1.00  0.00    -0.386 N 
ATOM     28  H62 UNL     1      50.482  40.634 167.567  1.00  0.00     0.157 HD
ATOM     29  H61 UNL     1      50.026  41.190 169.230  1.00  0.00     0.157 HD
HETATM   30  N7  UNL     1      52.010  42.545 169.708  1.00  0.00    -0.081 NA
ENDBRANCH  18  26
ENDBRANCH   8  12
ENDBRANCH   4   6
ENDBRANCH   3   4
TORSDOF 7
ENDMDL
