MODEL 1
REMARK VINA RESULT: -7.062588227      0.000      0.000
REMARK  4 active torsions:
REMARK  status: ('A' for Active; 'I' for Inactive)
REMARK    1  A    between atoms: C2_2  and  C3_3 
REMARK    2  A    between atoms: C3_3  and  C4_4 
REMARK    3  A    between atoms: C4_4  and  C5_5 
REMARK    4  A    between atoms: C8_13  and  N3_14 
ROOT
HETATM    1  C5  UNL     1      56.111  38.155 165.582  1.00  0.00     0.098 A 
HETATM    2  N1  UNL     1      56.378  39.421 165.244  1.00  0.00    -0.324 N 
ATOM      3  H1  UNL     1      57.212  39.749 164.758  1.00  0.00     0.169 HD
HETATM    4  C6  UNL     1      55.367  40.177 165.652  1.00  0.00     0.216 A 
HETATM    5  C7  UNL     1      55.268  41.558 165.481  1.00  0.00     0.306 C 
HETATM    6  O1  UNL     1      56.152  42.044 164.739  1.00  0.00    -0.263 OA
HETATM    7  N2  UNL     1      54.354  42.406 166.009  1.00  0.00    -0.152 N 
ATOM      8  H2  UNL     1      54.664  43.368 166.150  1.00  0.00     0.187 HD
HETATM    9  C8  UNL     1      53.072  42.133 166.375  1.00  0.00     0.698 C 
HETATM   10  N5  UNL     1      52.645  40.974 166.888  1.00  0.00    -0.021 N 
ATOM     11  H5  UNL     1      51.756  40.999 167.389  1.00  0.00     0.203 HD
HETATM   12  C14 UNL     1      53.269  39.761 166.816  1.00  0.00     0.713 C 
HETATM   13  N6  UNL     1      52.624  38.802 167.376  1.00  0.00    -0.232 N 
ATOM     14  H61 UNL     1      53.090  37.895 167.323  1.00  0.00     0.174 HD
ATOM     15  H62 UNL     1      51.737  39.070 167.800  1.00  0.00     0.174 HD
HETATM   16  N7  UNL     1      54.446  39.404 166.254  1.00  0.00    -0.062 N 
HETATM   17  N8  UNL     1      54.904  38.156 166.212  1.00  0.00    -0.266 N 
ATOM     18  H8  UNL     1      54.430  37.336 166.589  1.00  0.00     0.189 HD
ENDROOT
BRANCH   9  19
HETATM   19  N3  UNL     1      52.114  43.160 166.199  1.00  0.00    -0.215 N 
HETATM   20  C9  UNL     1      51.202  43.440 167.265  1.00  0.00     0.143 C 
HETATM   21  C10 UNL     1      50.006  44.174 166.691  1.00  0.00     0.048 C 
HETATM   22  C11 UNL     1      50.356  45.515 166.120  1.00  0.00     0.234 C 
HETATM   23  N4  UNL     1      51.746  45.857 166.198  1.00  0.00    -0.074 N 
HETATM   24  C12 UNL     1      52.529  45.289 165.115  1.00  0.00     0.252 C 
ATOM     25  H42 UNL     1      51.870  46.868 166.246  1.00  0.00     0.277 HD
ATOM     26  H41 UNL     1      52.135  45.599 167.105  1.00  0.00     0.277 HD
HETATM   27  C13 UNL     1      52.199  43.823 164.908  1.00  0.00     0.168 C 
ENDBRANCH   9  19
BRANCH   1  28
HETATM   28  C4  UNL     1      56.950  36.983 165.341  1.00  0.00     0.078 C 
BRANCH  28  29
HETATM   29  C3  UNL     1      57.387  36.939 163.899  1.00  0.00     0.007 C 
BRANCH  29  30
HETATM   30  C2  UNL     1      58.883  36.945 163.819  1.00  0.00    -0.004 C 
HETATM   31  C1  UNL     1      59.330  38.372 163.489  1.00  0.00     0.005 C 
ENDBRANCH  29  30
ENDBRANCH  28  29
ENDBRANCH   1  28
TORSDOF 4
ENDMDL
MODEL 2
REMARK VINA RESULT: -6.938394055      1.826      2.405
REMARK  4 active torsions:
REMARK  status: ('A' for Active; 'I' for Inactive)
REMARK    1  A    between atoms: C2_2  and  C3_3 
REMARK    2  A    between atoms: C3_3  and  C4_4 
REMARK    3  A    between atoms: C4_4  and  C5_5 
REMARK    4  A    between atoms: C8_13  and  N3_14 
ROOT
HETATM    1  C5  UNL     1      54.843  37.005 166.325  1.00  0.00     0.098 A 
HETATM    2  N1  UNL     1      55.641  38.037 166.030  1.00  0.00    -0.324 N 
ATOM      3  H1  UNL     1      56.591  37.975 165.665  1.00  0.00     0.169 HD
HETATM    4  C6  UNL     1      54.980  39.155 166.296  1.00  0.00     0.216 A 
HETATM    5  C7  UNL     1      55.472  40.449 166.116  1.00  0.00     0.306 C 
HETATM    6  O1  UNL     1      56.563  40.498 165.505  1.00  0.00    -0.263 OA
HETATM    7  N2  UNL     1      54.920  41.619 166.515  1.00  0.00    -0.152 N 
ATOM      8  H2  UNL     1      55.573  42.382 166.700  1.00  0.00     0.187 HD
HETATM    9  C8  UNL     1      53.602  41.904 166.699  1.00  0.00     0.698 C 
HETATM   10  N5  UNL     1      52.681  41.044 167.146  1.00  0.00    -0.021 N 
ATOM     11  H5  UNL     1      51.822  41.451 167.519  1.00  0.00     0.203 HD
HETATM   12  C14 UNL     1      52.763  39.680 167.158  1.00  0.00     0.713 C 
HETATM   13  N6  UNL     1      51.720  39.092 167.621  1.00  0.00    -0.232 N 
ATOM     14  H61 UNL     1      51.781  38.074 167.630  1.00  0.00     0.174 HD
ATOM     15  H62 UNL     1      50.971  39.717 167.919  1.00  0.00     0.174 HD
HETATM   16  N7  UNL     1      53.757  38.851 166.763  1.00  0.00    -0.062 N 
HETATM   17  N8  UNL     1      53.671  37.524 166.782  1.00  0.00    -0.266 N 
ATOM     18  H8  UNL     1      52.862  36.984 167.088  1.00  0.00     0.189 HD
ENDROOT
BRANCH   9  19
HETATM   19  N3  UNL     1      53.173  43.218 166.395  1.00  0.00    -0.215 N 
HETATM   20  C9  UNL     1      53.089  43.615 165.023  1.00  0.00     0.143 C 
HETATM   21  C10 UNL     1      53.110  45.131 164.962  1.00  0.00     0.048 C 
HETATM   22  C11 UNL     1      51.921  45.763 165.621  1.00  0.00     0.234 C 
HETATM   23  N4  UNL     1      50.994  44.839 166.203  1.00  0.00    -0.074 N 
HETATM   24  C12 UNL     1      51.389  44.403 167.532  1.00  0.00     0.252 C 
ATOM     25  H42 UNL     1      50.050  45.225 166.212  1.00  0.00     0.277 HD
ATOM     26  H41 UNL     1      50.840  44.040 165.588  1.00  0.00     0.277 HD
HETATM   27  C13 UNL     1      52.854  44.014 167.569  1.00  0.00     0.168 C 
ENDBRANCH   9  19
BRANCH   1  28
HETATM   28  C4  UNL     1      55.159  35.583 166.199  1.00  0.00     0.078 C 
BRANCH  28  29
HETATM   29  C3  UNL     1      55.651  35.277 164.808  1.00  0.00     0.007 C 
BRANCH  29  30
HETATM   30  C2  UNL     1      55.694  33.794 164.598  1.00  0.00    -0.004 C 
HETATM   31  C1  UNL     1      55.618  33.530 163.092  1.00  0.00     0.005 C 
ENDBRANCH  29  30
ENDBRANCH  28  29
ENDBRANCH   1  28
TORSDOF 4
ENDMDL
MODEL 3
REMARK VINA RESULT: -6.844504223      1.781      7.660
REMARK  4 active torsions:
REMARK  status: ('A' for Active; 'I' for Inactive)
REMARK    1  A    between atoms: C2_2  and  C3_3 
REMARK    2  A    between atoms: C3_3  and  C4_4 
REMARK    3  A    between atoms: C4_4  and  C5_5 
REMARK    4  A    between atoms: C8_13  and  N3_14 
ROOT
HETATM    1  C5  UNL     1      52.615  44.142 166.125  1.00  0.00     0.098 A 
HETATM    2  N1  UNL     1      52.378  43.106 166.936  1.00  0.00    -0.324 N 
ATOM      3  H1  UNL     1      51.632  43.045 167.629  1.00  0.00     0.169 HD
HETATM    4  C6  UNL     1      53.283  42.171 166.681  1.00  0.00     0.216 A 
HETATM    5  C7  UNL     1      53.368  40.932 167.318  1.00  0.00     0.306 C 
HETATM    6  O1  UNL     1      52.396  40.674 168.063  1.00  0.00    -0.263 OA
HETATM    7  N2  UNL     1      54.353  40.007 167.225  1.00  0.00    -0.152 N 
ATOM      8  H2  UNL     1      54.481  39.407 168.040  1.00  0.00     0.187 HD
HETATM    9  C8  UNL     1      55.191  39.779 166.178  1.00  0.00     0.698 C 
HETATM   10  N5  UNL     1      55.669  40.716 165.352  1.00  0.00    -0.021 N 
ATOM     11  H5  UNL     1      56.501  40.469 164.816  1.00  0.00     0.203 HD
HETATM   12  C14 UNL     1      55.164  41.970 165.148  1.00  0.00     0.713 C 
HETATM   13  N6  UNL     1      55.805  42.661 164.276  1.00  0.00    -0.232 N 
ATOM     14  H61 UNL     1      55.428  43.597 164.123  1.00  0.00     0.174 HD
ATOM     15  H62 UNL     1      56.603  42.187 163.853  1.00  0.00     0.174 HD
HETATM   16  N7  UNL     1      54.107  42.599 165.709  1.00  0.00    -0.062 N 
HETATM   17  N8  UNL     1      53.695  43.816 165.364  1.00  0.00    -0.266 N 
ATOM     18  H8  UNL     1      54.119  44.407 164.649  1.00  0.00     0.189 HD
ENDROOT
BRANCH   9  19
HETATM   19  N3  UNL     1      55.592  38.441 165.946  1.00  0.00    -0.215 N 
HETATM   20  C9  UNL     1      54.614  37.402 166.046  1.00  0.00     0.143 C 
HETATM   21  C10 UNL     1      55.336  36.085 166.260  1.00  0.00     0.048 C 
HETATM   22  C11 UNL     1      56.200  35.692 165.100  1.00  0.00     0.234 C 
HETATM   23  N4  UNL     1      56.210  36.627 164.013  1.00  0.00    -0.074 N 
HETATM   24  C12 UNL     1      57.137  37.725 164.220  1.00  0.00     0.252 C 
ATOM     25  H42 UNL     1      56.395  36.155 163.129  1.00  0.00     0.277 HD
ATOM     26  H41 UNL     1      55.269  36.974 163.823  1.00  0.00     0.277 HD
HETATM   27  C13 UNL     1      57.001  38.304 165.616  1.00  0.00     0.168 C 
ENDBRANCH   9  19
BRANCH   1  28
HETATM   28  C4  UNL     1      51.873  45.401 166.063  1.00  0.00     0.078 C 
BRANCH  28  29
HETATM   29  C3  UNL     1      50.556  45.198 165.358  1.00  0.00     0.007 C 
BRANCH  29  30
HETATM   30  C2  UNL     1      49.469  44.968 166.363  1.00  0.00    -0.004 C 
HETATM   31  C1  UNL     1      48.137  45.349 165.712  1.00  0.00     0.005 C 
ENDBRANCH  29  30
ENDBRANCH  28  29
ENDBRANCH   1  28
TORSDOF 4
ENDMDL
MODEL 4
REMARK VINA RESULT: -6.818685865      0.738      1.286
REMARK  4 active torsions:
REMARK  status: ('A' for Active; 'I' for Inactive)
REMARK    1  A    between atoms: C2_2  and  C3_3 
REMARK    2  A    between atoms: C3_3  and  C4_4 
REMARK    3  A    between atoms: C4_4  and  C5_5 
REMARK    4  A    between atoms: C8_13  and  N3_14 
ROOT
HETATM    1  C5  UNL     1      56.030  37.985 165.567  1.00  0.00     0.098 A 
HETATM    2  N1  UNL     1      56.429  39.227 165.275  1.00  0.00    -0.324 N 
ATOM      3  H1  UNL     1      57.286  39.482 164.783  1.00  0.00     0.169 HD
HETATM    4  C6  UNL     1      55.516  40.070 165.736  1.00  0.00     0.216 A 
HETATM    5  C7  UNL     1      55.567  41.460 165.624  1.00  0.00     0.306 C 
HETATM    6  O1  UNL     1      56.485  41.878 164.883  1.00  0.00    -0.263 OA
HETATM    7  N2  UNL     1      54.763  42.380 166.208  1.00  0.00    -0.152 N 
ATOM      8  H2  UNL     1      55.180  43.294 166.382  1.00  0.00     0.187 HD
HETATM    9  C8  UNL     1      53.465  42.233 166.593  1.00  0.00     0.698 C 
HETATM   10  N5  UNL     1      52.923  41.107 167.068  1.00  0.00    -0.021 N 
ATOM     11  H5  UNL     1      52.052  41.207 167.591  1.00  0.00     0.203 HD
HETATM   12  C14 UNL     1      53.407  39.837 166.932  1.00  0.00     0.713 C 
HETATM   13  N6  UNL     1      52.671  38.931 167.467  1.00  0.00    -0.232 N 
ATOM     14  H61 UNL     1      53.033  37.982 167.365  1.00  0.00     0.174 HD
ATOM     15  H62 UNL     1      51.827  39.277 167.922  1.00  0.00     0.174 HD
HETATM   16  N7  UNL     1      54.527  39.378 166.328  1.00  0.00    -0.062 N 
HETATM   17  N8  UNL     1      54.844  38.090 166.224  1.00  0.00    -0.266 N 
ATOM     18  H8  UNL     1      54.289  37.311 166.578  1.00  0.00     0.189 HD
ENDROOT
BRANCH   9  19
HETATM   19  N3  UNL     1      52.624  43.366 166.482  1.00  0.00    -0.215 N 
HETATM   20  C9  UNL     1      51.938  43.596 165.248  1.00  0.00     0.143 C 
HETATM   21  C10 UNL     1      51.533  45.057 165.191  1.00  0.00     0.048 C 
HETATM   22  C11 UNL     1      50.550  45.437 166.256  1.00  0.00     0.234 C 
HETATM   23  N4  UNL     1      50.183  44.373 167.143  1.00  0.00    -0.074 N 
HETATM   24  C12 UNL     1      51.139  44.178 168.219  1.00  0.00     0.252 C 
ATOM     25  H42 UNL     1      49.243  44.514 167.513  1.00  0.00     0.277 HD
ATOM     26  H41 UNL     1      50.030  43.505 166.629  1.00  0.00     0.277 HD
HETATM   27  C13 UNL     1      52.562  44.167 167.693  1.00  0.00     0.168 C 
ENDBRANCH   9  19
BRANCH   1  28
HETATM   28  C4  UNL     1      56.731  36.739 165.258  1.00  0.00     0.078 C 
BRANCH  28  29
HETATM   29  C3  UNL     1      57.277  36.779 163.853  1.00  0.00     0.007 C 
BRANCH  29  30
HETATM   30  C2  UNL     1      58.774  36.821 163.890  1.00  0.00    -0.004 C 
HETATM   31  C1  UNL     1      59.214  38.244 163.540  1.00  0.00     0.005 C 
ENDBRANCH  29  30
ENDBRANCH  28  29
ENDBRANCH   1  28
TORSDOF 4
ENDMDL
MODEL 5
REMARK VINA RESULT: -6.798254450      1.207      1.490
REMARK  4 active torsions:
REMARK  status: ('A' for Active; 'I' for Inactive)
REMARK    1  A    between atoms: C2_2  and  C3_3 
REMARK    2  A    between atoms: C3_3  and  C4_4 
REMARK    3  A    between atoms: C4_4  and  C5_5 
REMARK    4  A    between atoms: C8_13  and  N3_14 
ROOT
HETATM    1  C5  UNL     1      56.527  37.675 164.796  1.00  0.00     0.098 A 
HETATM    2  N1  UNL     1      56.808  38.977 164.918  1.00  0.00    -0.324 N 
ATOM      3  H1  UNL     1      57.620  39.454 164.527  1.00  0.00     0.169 HD
HETATM    4  C6  UNL     1      55.845  39.539 165.636  1.00  0.00     0.216 A 
HETATM    5  C7  UNL     1      55.775  40.890 165.979  1.00  0.00     0.306 C 
HETATM    6  O1  UNL     1      56.625  41.606 165.404  1.00  0.00    -0.263 OA
HETATM    7  N2  UNL     1      54.918  41.495 166.836  1.00  0.00    -0.152 N 
ATOM      8  H2  UNL     1      55.263  42.340 167.292  1.00  0.00     0.187 HD
HETATM    9  C8  UNL     1      53.654  41.114 167.164  1.00  0.00     0.698 C 
HETATM   10  N5  UNL     1      53.227  39.850 167.255  1.00  0.00    -0.021 N 
ATOM     11  H5  UNL     1      52.371  39.696 167.789  1.00  0.00     0.203 HD
HETATM   12  C14 UNL     1      53.811  38.741 166.711  1.00  0.00     0.713 C 
HETATM   13  N6  UNL     1      53.175  37.647 166.931  1.00  0.00    -0.232 N 
ATOM     14  H61 UNL     1      53.611  36.819 166.524  1.00  0.00     0.174 HD
ATOM     15  H62 UNL     1      52.323  37.749 167.481  1.00  0.00     0.174 HD
HETATM   16  N7  UNL     1      54.942  38.606 165.981  1.00  0.00    -0.062 N 
HETATM   17  N8  UNL     1      55.361  37.454 165.463  1.00  0.00    -0.266 N 
ATOM     18  H8  UNL     1      54.888  36.555 165.551  1.00  0.00     0.189 HD
ENDROOT
BRANCH   9  19
HETATM   19  N3  UNL     1      52.716  42.139 167.433  1.00  0.00    -0.215 N 
HETATM   20  C9  UNL     1      52.862  42.909 168.630  1.00  0.00     0.143 C 
HETATM   21  C10 UNL     1      51.528  43.557 168.948  1.00  0.00     0.048 C 
HETATM   22  C11 UNL     1      51.088  44.541 167.907  1.00  0.00     0.234 C 
HETATM   23  N4  UNL     1      51.984  44.682 166.796  1.00  0.00    -0.074 N 
HETATM   24  C12 UNL     1      51.795  43.659 165.783  1.00  0.00     0.252 C 
ATOM     25  H42 UNL     1      51.915  45.615 166.389  1.00  0.00     0.277 HD
ATOM     26  H41 UNL     1      52.954  44.710 167.111  1.00  0.00     0.277 HD
HETATM   27  C13 UNL     1      51.695  42.280 166.408  1.00  0.00     0.168 C 
ENDBRANCH   9  19
BRANCH   1  28
HETATM   28  C4  UNL     1      57.317  36.665 164.095  1.00  0.00     0.078 C 
BRANCH  28  29
HETATM   29  C3  UNL     1      58.787  36.874 164.359  1.00  0.00     0.007 C 
BRANCH  29  30
HETATM   30  C2  UNL     1      59.469  37.333 163.106  1.00  0.00    -0.004 C 
HETATM   31  C1  UNL     1      59.933  38.775 163.325  1.00  0.00     0.005 C 
ENDBRANCH  29  30
ENDBRANCH  28  29
ENDBRANCH   1  28
TORSDOF 4
ENDMDL
