MODEL 1
REMARK VINA RESULT: -7.875041584      0.000      0.000
REMARK  7 active torsions:
REMARK  status: ('A' for Active; 'I' for Inactive)
REMARK    1  A    between atoms: N1_2  and  C2_4 
REMARK    2  A    between atoms: N3_8  and  C4_9 
REMARK    3  A    between atoms: C4_9  and  C5_10 
REMARK    4  A    between atoms: C5_10  and  C6_11 
REMARK    5  A    between atoms: C6_11  and  N4_12 
REMARK    6  A    between atoms: N4_12  and  C7_14 
REMARK    7  A    between atoms: C10_21  and  N7_22 
ROOT
HETATM    1  C7  UNL     1      52.516  41.828 167.518  1.00  0.00     0.131 A 
HETATM    2  N5  UNL     1      51.677  42.503 168.361  1.00  0.00    -0.337 N 
ATOM      3  H5  UNL     1      51.162  41.985 169.073  1.00  0.00     0.168 HD
HETATM    4  C8  UNL     1      51.518  43.830 168.273  1.00  0.00     0.182 A 
HETATM    5  N6  UNL     1      52.154  44.594 167.371  1.00  0.00    -0.347 N 
ATOM      6  H6  UNL     1      52.008  45.602 167.334  1.00  0.00     0.167 HD
HETATM    7  C9  UNL     1      52.986  43.985 166.523  1.00  0.00     0.108 A 
HETATM    8  C10 UNL     1      53.648  44.753 165.588  1.00  0.00     0.129 A 
HETATM    9  N8  UNL     1      54.480  44.134 164.742  1.00  0.00    -0.337 N 
ATOM     10  H8  UNL     1      54.983  44.677 164.040  1.00  0.00     0.168 HD
HETATM   11  C11 UNL     1      54.661  42.792 164.807  1.00  0.00     0.182 A 
HETATM   12  N9  UNL     1      54.008  42.075 165.719  1.00  0.00    -0.347 N 
ATOM     13  H9  UNL     1      54.163  41.068 165.744  1.00  0.00     0.167 HD
HETATM   14  C12 UNL     1      53.170  42.599 166.592  1.00  0.00     0.108 A 
ENDROOT
BRANCH   1  15
HETATM   15  N4  UNL     1      52.605  40.605 167.667  1.00  0.00    -0.374 N 
ATOM     16  H4  UNL     1      53.425  40.355 168.219  1.00  0.00     0.161 HD
BRANCH  15  17
HETATM   17  C6  UNL     1      51.884  39.466 167.281  1.00  0.00     0.123 C 
BRANCH  17  18
HETATM   18  C5  UNL     1      52.897  38.421 166.793  1.00  0.00     0.041 C 
BRANCH  18  19
HETATM   19  C4  UNL     1      54.268  38.663 167.327  1.00  0.00     0.152 C 
BRANCH  19  20
HETATM   20  N3  UNL     1      55.306  38.619 166.345  1.00  0.00    -0.273 N 
HETATM   21  C3  UNL     1      56.204  39.553 165.990  1.00  0.00     0.218 A 
HETATM   22  N2  UNL     1      56.993  39.081 165.020  1.00  0.00    -0.185 N 
HETATM   23  C2  UNL     1      56.590  37.819 164.752  1.00  0.00     0.693 A 
ATOM     24  H2  UNL     1      57.758  39.580 164.567  1.00  0.00     0.185 HD
HETATM   25  N10 UNL     1      55.561  37.575 165.580  1.00  0.00    -0.129 N 
ATOM     26  H10 UNL     1      55.043  36.697 165.613  1.00  0.00     0.206 HD
BRANCH  23  27
HETATM   27  N1  UNL     1      57.133  37.052 163.861  1.00  0.00    -0.229 N 
HETATM   28  C1  UNL     1      58.592  37.062 163.788  1.00  0.00     0.165 C 
ATOM     29  H1  UNL     1      56.569  36.470 163.240  1.00  0.00     0.177 HD
ENDBRANCH  23  27
ENDBRANCH  19  20
ENDBRANCH  18  19
ENDBRANCH  17  18
ENDBRANCH  15  17
ENDBRANCH   1  15
BRANCH   8  30
HETATM   30  N7  UNL     1      53.483  46.047 165.514  1.00  0.00    -0.384 N 
ATOM     31  H72 UNL     1      54.160  46.675 165.949  1.00  0.00     0.157 HD
ATOM     32  H71 UNL     1      52.688  46.463 165.029  1.00  0.00     0.157 HD
ENDBRANCH   8  30
TORSDOF 7
ENDMDL
MODEL 2
REMARK VINA RESULT: -7.671513599      0.824      1.061
REMARK  7 active torsions:
REMARK  status: ('A' for Active; 'I' for Inactive)
REMARK    1  A    between atoms: N1_2  and  C2_4 
REMARK    2  A    between atoms: N3_8  and  C4_9 
REMARK    3  A    between atoms: C4_9  and  C5_10 
REMARK    4  A    between atoms: C5_10  and  C6_11 
REMARK    5  A    between atoms: C6_11  and  N4_12 
REMARK    6  A    between atoms: N4_12  and  C7_14 
REMARK    7  A    between atoms: C10_21  and  N7_22 
ROOT
HETATM    1  C7  UNL     1      51.938  41.604 166.816  1.00  0.00     0.131 A 
HETATM    2  N5  UNL     1      51.054  42.350 167.546  1.00  0.00    -0.337 N 
ATOM      3  H5  UNL     1      50.329  41.877 168.085  1.00  0.00     0.168 HD
HETATM    4  C8  UNL     1      51.120  43.687 167.568  1.00  0.00     0.182 A 
HETATM    5  N6  UNL     1      52.038  44.394 166.891  1.00  0.00    -0.347 N 
ATOM      6  H6  UNL     1      52.057  45.413 166.932  1.00  0.00     0.167 HD
HETATM    7  C9  UNL     1      52.927  43.715 166.162  1.00  0.00     0.108 A 
HETATM    8  C10 UNL     1      53.879  44.425 165.460  1.00  0.00     0.129 A 
HETATM    9  N8  UNL     1      54.765  43.735 164.732  1.00  0.00    -0.337 N 
ATOM     10  H8  UNL     1      55.480  44.234 164.202  1.00  0.00     0.168 HD
HETATM   11  C11 UNL     1      54.723  42.381 164.690  1.00  0.00     0.182 A 
HETATM   12  N9  UNL     1      53.793  41.722 165.378  1.00  0.00    -0.347 N 
ATOM     13  H9  UNL     1      53.786  40.704 165.327  1.00  0.00     0.167 HD
HETATM   14  C12 UNL     1      52.881  42.317 166.121  1.00  0.00     0.108 A 
ENDROOT
BRANCH   1  15
HETATM   15  N4  UNL     1      51.808  40.376 166.851  1.00  0.00    -0.374 N 
ATOM     16  H4  UNL     1      51.346  40.026 166.011  1.00  0.00     0.161 HD
BRANCH  15  17
HETATM   17  C6  UNL     1      52.122  39.332 167.732  1.00  0.00     0.123 C 
BRANCH  17  18
HETATM   18  C5  UNL     1      53.073  38.377 166.996  1.00  0.00     0.041 C 
BRANCH  18  19
HETATM   19  C4  UNL     1      54.506  38.745 167.180  1.00  0.00     0.152 C 
BRANCH  19  20
HETATM   20  N3  UNL     1      55.397  38.170 166.221  1.00  0.00    -0.273 N 
HETATM   21  C3  UNL     1      55.451  36.923 165.726  1.00  0.00     0.218 A 
HETATM   22  N2  UNL     1      56.451  36.824 164.845  1.00  0.00    -0.185 N 
HETATM   23  C2  UNL     1      57.047  38.035 164.777  1.00  0.00     0.693 A 
ATOM     24  H2  UNL     1      56.716  35.990 164.321  1.00  0.00     0.185 HD
HETATM   25  N10 UNL     1      56.375  38.827 165.629  1.00  0.00    -0.129 N 
ATOM     26  H10 UNL     1      56.594  39.809 165.797  1.00  0.00     0.206 HD
BRANCH  23  27
HETATM   27  N1  UNL     1      58.061  38.309 164.019  1.00  0.00    -0.229 N 
HETATM   28  C1  UNL     1      58.905  37.185 163.620  1.00  0.00     0.165 C 
ATOM     29  H1  UNL     1      58.260  39.263 163.716  1.00  0.00     0.177 HD
ENDBRANCH  23  27
ENDBRANCH  19  20
ENDBRANCH  18  19
ENDBRANCH  17  18
ENDBRANCH  15  17
ENDBRANCH   1  15
BRANCH   8  30
HETATM   30  N7  UNL     1      53.931  45.730 165.491  1.00  0.00    -0.384 N 
ATOM     31  H72 UNL     1      53.779  46.228 166.368  1.00  0.00     0.157 HD
ATOM     32  H71 UNL     1      54.121  46.282 164.654  1.00  0.00     0.157 HD
ENDBRANCH   8  30
TORSDOF 7
ENDMDL
MODEL 3
REMARK VINA RESULT: -7.493666069      1.474      6.872
REMARK  7 active torsions:
REMARK  status: ('A' for Active; 'I' for Inactive)
REMARK    1  A    between atoms: N1_2  and  C2_4 
REMARK    2  A    between atoms: N3_8  and  C4_9 
REMARK    3  A    between atoms: C4_9  and  C5_10 
REMARK    4  A    between atoms: C5_10  and  C6_11 
REMARK    5  A    between atoms: C6_11  and  N4_12 
REMARK    6  A    between atoms: N4_12  and  C7_14 
REMARK    7  A    between atoms: C10_21  and  N7_22 
ROOT
HETATM    1  C7  UNL     1      54.279  40.527 166.164  1.00  0.00     0.131 A 
HETATM    2  N5  UNL     1      53.157  40.364 166.928  1.00  0.00    -0.337 N 
ATOM      3  H5  UNL     1      52.592  41.179 167.167  1.00  0.00     0.168 HD
HETATM    4  C8  UNL     1      52.782  39.157 167.370  1.00  0.00     0.182 A 
HETATM    5  N6  UNL     1      53.460  38.029 167.105  1.00  0.00    -0.347 N 
ATOM      6  H6  UNL     1      53.143  37.126 167.459  1.00  0.00     0.167 HD
HETATM    7  C9  UNL     1      54.564  38.131 166.362  1.00  0.00     0.108 A 
HETATM    8  C10 UNL     1      55.274  36.982 166.080  1.00  0.00     0.129 A 
HETATM    9  N8  UNL     1      56.380  37.095 165.335  1.00  0.00    -0.337 N 
ATOM     10  H8  UNL     1      56.924  36.263 165.110  1.00  0.00     0.168 HD
HETATM   11  C11 UNL     1      56.783  38.304 164.874  1.00  0.00     0.182 A 
HETATM   12  N9  UNL     1      56.079  39.397 165.162  1.00  0.00    -0.347 N 
ATOM     13  H9  UNL     1      56.407  40.292 164.802  1.00  0.00     0.167 HD
HETATM   14  C12 UNL     1      54.978  39.381 165.888  1.00  0.00     0.108 A 
ENDROOT
BRANCH   1  15
HETATM   15  N4  UNL     1      54.553  41.675 165.798  1.00  0.00    -0.374 N 
ATOM     16  H4  UNL     1      55.123  42.161 166.491  1.00  0.00     0.161 HD
BRANCH  15  17
HETATM   17  C6  UNL     1      54.294  42.491 164.688  1.00  0.00     0.123 C 
BRANCH  17  18
HETATM   18  C5  UNL     1      54.538  43.945 165.117  1.00  0.00     0.041 C 
BRANCH  18  19
HETATM   19  C4  UNL     1      53.340  44.809 164.909  1.00  0.00     0.152 C 
BRANCH  19  20
HETATM   20  N3  UNL     1      52.316  44.654 165.895  1.00  0.00    -0.273 N 
HETATM   21  C3  UNL     1      50.992  44.859 165.809  1.00  0.00     0.218 A 
HETATM   22  N2  UNL     1      50.411  44.588 166.982  1.00  0.00    -0.185 N 
HETATM   23  C2  UNL     1      51.386  44.202 167.833  1.00  0.00     0.693 A 
ATOM     24  H2  UNL     1      49.416  44.660 167.195  1.00  0.00     0.185 HD
HETATM   25  N10 UNL     1      52.532  44.255 167.133  1.00  0.00    -0.129 N 
ATOM     26  H10 UNL     1      53.449  44.017 167.510  1.00  0.00     0.206 HD
BRANCH  23  27
HETATM   27  N1  UNL     1      51.187  43.860 169.067  1.00  0.00    -0.229 N 
HETATM   28  C1  UNL     1      52.204  43.012 169.684  1.00  0.00     0.165 C 
ATOM     29  H1  UNL     1      50.362  44.168 169.581  1.00  0.00     0.177 HD
ENDBRANCH  23  27
ENDBRANCH  19  20
ENDBRANCH  18  19
ENDBRANCH  17  18
ENDBRANCH  15  17
ENDBRANCH   1  15
BRANCH   8  30
HETATM   30  N7  UNL     1      54.896  35.811 166.518  1.00  0.00    -0.384 N 
ATOM     31  H72 UNL     1      54.597  35.698 167.487  1.00  0.00     0.157 HD
ATOM     32  H71 UNL     1      54.888  34.987 165.916  1.00  0.00     0.157 HD
ENDBRANCH   8  30
TORSDOF 7
ENDMDL
MODEL 4
REMARK VINA RESULT: -7.401663251      0.891      2.331
REMARK  7 active torsions:
REMARK  status: ('A' for Active; 'I' for Inactive)
REMARK    1  A    between atoms: N1_2  and  C2_4 
REMARK    2  A    between atoms: N3_8  and  C4_9 
REMARK    3  A    between atoms: C4_9  and  C5_10 
REMARK    4  A    between atoms: C5_10  and  C6_11 
REMARK    5  A    between atoms: C6_11  and  N4_12 
REMARK    6  A    between atoms: N4_12  and  C7_14 
REMARK    7  A    between atoms: C10_21  and  N7_22 
ROOT
HETATM    1  C7  UNL     1      53.502  41.485 166.586  1.00  0.00     0.131 A 
HETATM    2  N5  UNL     1      54.278  41.278 165.478  1.00  0.00    -0.337 N 
ATOM      3  H5  UNL     1      54.605  40.335 165.267  1.00  0.00     0.168 HD
HETATM    4  C8  UNL     1      54.616  42.286 164.664  1.00  0.00     0.182 A 
HETATM    5  N6  UNL     1      54.232  43.557 164.861  1.00  0.00    -0.347 N 
ATOM      6  H6  UNL     1      54.510  44.299 164.218  1.00  0.00     0.167 HD
HETATM    7  C9  UNL     1      53.473  43.815 165.928  1.00  0.00     0.108 A 
HETATM    8  C10 UNL     1      53.068  45.116 166.146  1.00  0.00     0.129 A 
HETATM    9  N8  UNL     1      52.307  45.364 167.219  1.00  0.00    -0.337 N 
ATOM     10  H8  UNL     1      51.994  46.317 167.405  1.00  0.00     0.168 HD
HETATM   11  C11 UNL     1      51.949  44.364 168.061  1.00  0.00     0.182 A 
HETATM   12  N9  UNL     1      52.354  43.118 167.826  1.00  0.00    -0.347 N 
ATOM     13  H9  UNL     1      52.070  42.386 168.476  1.00  0.00     0.167 HD
HETATM   14  C12 UNL     1      53.105  42.780 166.796  1.00  0.00     0.108 A 
ENDROOT
BRANCH   1  15
HETATM   15  N4  UNL     1      53.236  40.501 167.284  1.00  0.00    -0.374 N 
ATOM     16  H4  UNL     1      53.884  40.413 168.067  1.00  0.00     0.161 HD
BRANCH  15  17
HETATM   17  C6  UNL     1      52.285  39.471 167.290  1.00  0.00     0.123 C 
BRANCH  17  18
HETATM   18  C5  UNL     1      53.013  38.168 166.928  1.00  0.00     0.041 C 
BRANCH  18  19
HETATM   19  C4  UNL     1      54.460  38.206 167.284  1.00  0.00     0.152 C 
BRANCH  19  20
HETATM   20  N3  UNL     1      55.340  37.762 166.248  1.00  0.00    -0.273 N 
HETATM   21  C3  UNL     1      55.399  36.583 165.607  1.00  0.00     0.218 A 
HETATM   22  N2  UNL     1      56.385  36.604 164.704  1.00  0.00    -0.185 N 
HETATM   23  C2  UNL     1      56.966  37.822 164.772  1.00  0.00     0.693 A 
ATOM     24  H2  UNL     1      56.649  35.842 164.080  1.00  0.00     0.185 HD
HETATM   25  N10 UNL     1      56.301  38.497 165.724  1.00  0.00    -0.129 N 
ATOM     26  H10 UNL     1      56.511  39.455 166.005  1.00  0.00     0.206 HD
BRANCH  23  27
HETATM   27  N1  UNL     1      57.963  38.198 164.036  1.00  0.00    -0.229 N 
HETATM   28  C1  UNL     1      58.896  37.156 163.613  1.00  0.00     0.165 C 
ATOM     29  H1  UNL     1      58.090  39.174 163.765  1.00  0.00     0.177 HD
ENDBRANCH  23  27
ENDBRANCH  19  20
ENDBRANCH  18  19
ENDBRANCH  17  18
ENDBRANCH  15  17
ENDBRANCH   1  15
BRANCH   8  30
HETATM   30  N7  UNL     1      53.406  46.089 165.343  1.00  0.00    -0.384 N 
ATOM     31  H72 UNL     1      53.181  47.055 165.586  1.00  0.00     0.157 HD
ATOM     32  H71 UNL     1      53.896  45.919 164.465  1.00  0.00     0.157 HD
ENDBRANCH   8  30
TORSDOF 7
ENDMDL
MODEL 5
REMARK VINA RESULT: -7.343134609      1.034      2.397
REMARK  7 active torsions:
REMARK  status: ('A' for Active; 'I' for Inactive)
REMARK    1  A    between atoms: N1_2  and  C2_4 
REMARK    2  A    between atoms: N3_8  and  C4_9 
REMARK    3  A    between atoms: C4_9  and  C5_10 
REMARK    4  A    between atoms: C5_10  and  C6_11 
REMARK    5  A    between atoms: C6_11  and  N4_12 
REMARK    6  A    between atoms: N4_12  and  C7_14 
REMARK    7  A    between atoms: C10_21  and  N7_22 
ROOT
HETATM    1  C7  UNL     1      53.555  41.222 166.641  1.00  0.00     0.131 A 
HETATM    2  N5  UNL     1      54.255  41.173 165.467  1.00  0.00    -0.337 N 
ATOM      3  H5  UNL     1      54.658  40.287 165.162  1.00  0.00     0.168 HD
HETATM    4  C8  UNL     1      54.422  42.263 164.708  1.00  0.00     0.182 A 
HETATM    5  N6  UNL     1      53.929  43.470 165.026  1.00  0.00    -0.347 N 
ATOM      6  H6  UNL     1      54.077  44.279 164.422  1.00  0.00     0.167 HD
HETATM    7  C9  UNL     1      53.236  43.574 166.162  1.00  0.00     0.108 A 
HETATM    8  C10 UNL     1      52.721  44.807 166.507  1.00  0.00     0.129 A 
HETATM    9  N8  UNL     1      52.028  44.901 167.648  1.00  0.00    -0.337 N 
ATOM     10  H8  UNL     1      51.636  45.800 167.928  1.00  0.00     0.168 HD
HETATM   11  C11 UNL     1      51.842  43.814 168.437  1.00  0.00     0.182 A 
HETATM   12  N9  UNL     1      52.352  42.637 168.080  1.00  0.00    -0.347 N 
ATOM     13  H9  UNL     1      52.196  41.837 168.693  1.00  0.00     0.167 HD
HETATM   14  C12 UNL     1      53.046  42.450 166.975  1.00  0.00     0.108 A 
ENDROOT
BRANCH   1  15
HETATM   15  N4  UNL     1      53.447  40.170 167.281  1.00  0.00    -0.374 N 
ATOM     16  H4  UNL     1      53.632  40.317 168.273  1.00  0.00     0.161 HD
BRANCH  15  17
HETATM   17  C6  UNL     1      53.140  38.830 167.012  1.00  0.00     0.123 C 
BRANCH  17  18
HETATM   18  C5  UNL     1      54.407  38.003 167.280  1.00  0.00     0.041 C 
BRANCH  18  19
HETATM   19  C4  UNL     1      54.869  37.260 166.073  1.00  0.00     0.152 C 
BRANCH  19  20
HETATM   20  N3  UNL     1      56.086  37.747 165.503  1.00  0.00    -0.273 N 
HETATM   21  C3  UNL     1      56.724  38.914 165.688  1.00  0.00     0.218 A 
HETATM   22  N2  UNL     1      57.837  38.949 164.948  1.00  0.00    -0.185 N 
HETATM   23  C2  UNL     1      57.910  37.779 164.277  1.00  0.00     0.693 A 
ATOM     24  H2  UNL     1      58.507  39.716 164.899  1.00  0.00     0.185 HD
HETATM   25  N10 UNL     1      56.825  37.074 164.642  1.00  0.00    -0.129 N 
ATOM     26  H10 UNL     1      56.602  36.140 164.298  1.00  0.00     0.206 HD
BRANCH  23  27
HETATM   27  N1  UNL     1      58.863  37.462 163.460  1.00  0.00    -0.229 N 
HETATM   28  C1  UNL     1      59.847  38.502 163.166  1.00  0.00     0.165 C 
ATOM     29  H1  UNL     1      58.924  36.534 163.042  1.00  0.00     0.177 HD
ENDBRANCH  23  27
ENDBRANCH  19  20
ENDBRANCH  18  19
ENDBRANCH  17  18
ENDBRANCH  15  17
ENDBRANCH   1  15
BRANCH   8  30
HETATM   30  N7  UNL     1      52.893  45.862 165.756  1.00  0.00    -0.384 N 
ATOM     31  H72 UNL     1      53.693  46.476 165.911  1.00  0.00     0.157 HD
ATOM     32  H71 UNL     1      52.245  46.101 165.006  1.00  0.00     0.157 HD
ENDBRANCH   8  30
TORSDOF 7
ENDMDL
