MODEL 1
REMARK VINA RESULT: -7.914528370      0.000      0.000
REMARK  5 active torsions:
REMARK  status: ('A' for Active; 'I' for Inactive)
REMARK    1  A    between atoms: C2_2  and  C3_3 
REMARK    2  A    between atoms: N3_11  and  N4_13 
REMARK       I    between atoms: N4_13  and  C7_15 
REMARK       I    between atoms: C7_15  and  N5_17 
REMARK    3  A    between atoms: N5_17  and  C8_19 
REMARK    4  A    between atoms: N6_22  and  N7_23 
REMARK    5  A    between atoms: N7_23  and  C11_25 
ROOT
HETATM    1  C3  UNL     1      52.419  42.751 166.111  1.00  0.00     0.122 A 
HETATM    2  N1  UNL     1      51.439  43.581 165.720  1.00  0.00    -0.333 N 
ATOM      3  H1  UNL     1      51.279  43.718 164.722  1.00  0.00     0.168 HD
HETATM    4  C4  UNL     1      50.666  44.233 166.588  1.00  0.00     0.095 A 
HETATM    5  C5  UNL     1      49.561  45.159 166.197  1.00  0.00     0.089 C 
HETATM    6  N2  UNL     1      50.905  44.029 167.879  1.00  0.00    -0.178 N 
ATOM      7  H2  UNL     1      50.329  44.514 168.567  1.00  0.00     0.185 HD
HETATM    8  C6  UNL     1      51.881  43.203 168.317  1.00  0.00     0.721 A 
HETATM    9  N3  UNL     1      52.054  43.056 169.553  1.00  0.00    -0.126 N 
ATOM     10  H3  UNL     1      52.808  42.415 169.801  1.00  0.00     0.206 HD
HETATM   11  N6  UNL     1      52.666  42.540 167.412  1.00  0.00    -0.070 N 
ENDROOT
BRANCH   9  12
HETATM   12  N4  UNL     1      51.413  43.601 170.605  1.00  0.00    -0.237 N 
HETATM   13  C7  UNL     1      51.523  43.321 171.975  1.00  0.00     0.335 C 
HETATM   14  O1  UNL     1      52.313  42.444 172.393  1.00  0.00    -0.246 OA
HETATM   15  N5  UNL     1      50.751  44.011 172.937  1.00  0.00    -0.338 N 
ATOM     16  H5  UNL     1      50.107  44.725 172.597  1.00  0.00     0.164 HD
ATOM     17  H4  UNL     1      50.742  44.332 170.369  1.00  0.00     0.192 HD
BRANCH  15  18
HETATM   18  C8  UNL     1      50.800  43.787 174.359  1.00  0.00     0.078 C 
HETATM   19  C9  UNL     1      51.705  44.882 174.951  1.00  0.00     0.032 C 
HETATM   20  C10 UNL     1      49.395  43.957 174.926  1.00  0.00     0.032 C 
ENDBRANCH  15  18
ENDBRANCH   9  12
BRANCH  11  21
HETATM   21  N7  UNL     1      53.657  41.697 167.810  1.00  0.00    -0.249 N 
ATOM     22  H7  UNL     1      54.356  42.090 168.441  1.00  0.00     0.191 HD
BRANCH  21  23
HETATM   23  C11 UNL     1      53.836  40.327 167.449  1.00  0.00     0.191 C 
HETATM   24  N8  UNL     1      52.902  39.409 167.389  1.00  0.00    -0.360 N 
HETATM   25  C12 UNL     1      53.471  38.143 166.987  1.00  0.00     0.142 C 
ATOM     26  H8  UNL     1      51.916  39.566 167.597  1.00  0.00     0.162 HD
HETATM   27  C13 UNL     1      54.842  38.484 166.480  1.00  0.00     0.142 C 
HETATM   28  N9  UNL     1      55.094  39.779 167.094  1.00  0.00    -0.360 N 
ATOM     29  H9  UNL     1      56.006  40.211 167.242  1.00  0.00     0.162 HD
ENDBRANCH  21  23
ENDBRANCH  11  21
BRANCH   1  30
HETATM   30  C2  UNL     1      53.223  42.081 165.047  1.00  0.00     0.075 C 
HETATM   31  C1  UNL     1      54.471  42.865 164.777  1.00  0.00     0.013 C 
ENDBRANCH   1  30
TORSDOF 5
ENDMDL
MODEL 2
REMARK VINA RESULT: -7.287208209      1.143      1.417
REMARK  5 active torsions:
REMARK  status: ('A' for Active; 'I' for Inactive)
REMARK    1  A    between atoms: C2_2  and  C3_3 
REMARK    2  A    between atoms: N3_11  and  N4_13 
REMARK       I    between atoms: N4_13  and  C7_15 
REMARK       I    between atoms: C7_15  and  N5_17 
REMARK    3  A    between atoms: N5_17  and  C8_19 
REMARK    4  A    between atoms: N6_22  and  N7_23 
REMARK    5  A    between atoms: N7_23  and  C11_25 
ROOT
HETATM    1  C3  UNL     1      53.830  42.937 165.897  1.00  0.00     0.122 A 
HETATM    2  N1  UNL     1      53.268  44.048 165.395  1.00  0.00    -0.333 N 
ATOM      3  H1  UNL     1      53.504  44.332 164.444  1.00  0.00     0.168 HD
HETATM    4  C4  UNL     1      52.412  44.794 166.093  1.00  0.00     0.095 A 
HETATM    5  C5  UNL     1      51.758  46.031 165.571  1.00  0.00     0.089 C 
HETATM    6  N2  UNL     1      52.129  44.391 167.328  1.00  0.00    -0.178 N 
ATOM      7  H2  UNL     1      51.477  44.942 167.886  1.00  0.00     0.185 HD
HETATM    8  C6  UNL     1      52.673  43.280 167.873  1.00  0.00     0.721 A 
HETATM    9  N3  UNL     1      52.364  42.957 169.047  1.00  0.00    -0.126 N 
ATOM     10  H3  UNL     1      52.814  42.106 169.384  1.00  0.00     0.206 HD
HETATM   11  N6  UNL     1      53.551  42.525 167.143  1.00  0.00    -0.070 N 
ENDROOT
BRANCH   9  12
HETATM   12  N4  UNL     1      51.538  43.543 169.936  1.00  0.00    -0.237 N 
HETATM   13  C7  UNL     1      51.425  43.360 171.322  1.00  0.00     0.335 C 
HETATM   14  O1  UNL     1      52.160  42.547 171.928  1.00  0.00    -0.246 OA
HETATM   15  N5  UNL     1      50.481  44.079 172.090  1.00  0.00    -0.338 N 
ATOM     16  H5  UNL     1      49.882  44.741 171.597  1.00  0.00     0.164 HD
ATOM     17  H4  UNL     1      50.895  44.227 169.539  1.00  0.00     0.192 HD
BRANCH  15  18
HETATM   18  C8  UNL     1      50.297  43.952 173.512  1.00  0.00     0.078 C 
HETATM   19  C9  UNL     1      51.001  45.157 174.161  1.00  0.00     0.032 C 
HETATM   20  C10 UNL     1      48.806  44.038 173.818  1.00  0.00     0.032 C 
ENDBRANCH  15  18
ENDBRANCH   9  12
BRANCH  11  21
HETATM   21  N7  UNL     1      54.118  41.398 167.652  1.00  0.00    -0.249 N 
ATOM     22  H7  UNL     1      54.766  41.531 168.428  1.00  0.00     0.191 HD
BRANCH  21  23
HETATM   23  C11 UNL     1      53.914  40.049 167.228  1.00  0.00     0.191 C 
HETATM   24  N8  UNL     1      54.833  39.122 167.110  1.00  0.00    -0.360 N 
HETATM   25  C12 UNL     1      54.240  37.886 166.654  1.00  0.00     0.142 C 
ATOM     26  H8  UNL     1      55.824  39.254 167.311  1.00  0.00     0.162 HD
HETATM   27  C13 UNL     1      52.762  38.084 166.825  1.00  0.00     0.142 C 
HETATM   28  N9  UNL     1      52.641  39.534 166.876  1.00  0.00    -0.360 N 
ATOM     29  H9  UNL     1      51.798  40.078 166.692  1.00  0.00     0.162 HD
ENDBRANCH  21  23
ENDBRANCH  11  21
BRANCH   1  30
HETATM   30  C2  UNL     1      54.779  42.187 165.023  1.00  0.00     0.075 C 
HETATM   31  C1  UNL     1      54.022  41.441 163.966  1.00  0.00     0.013 C 
ENDBRANCH   1  30
TORSDOF 5
ENDMDL
MODEL 3
REMARK VINA RESULT: -6.351649208      2.300      8.442
REMARK  5 active torsions:
REMARK  status: ('A' for Active; 'I' for Inactive)
REMARK    1  A    between atoms: C2_2  and  C3_3 
REMARK    2  A    between atoms: N3_11  and  N4_13 
REMARK       I    between atoms: N4_13  and  C7_15 
REMARK       I    between atoms: C7_15  and  N5_17 
REMARK    3  A    between atoms: N5_17  and  C8_19 
REMARK    4  A    between atoms: N6_22  and  N7_23 
REMARK    5  A    between atoms: N7_23  and  C11_25 
ROOT
HETATM    1  C3  UNL     1      51.151  44.130 174.712  1.00  0.00     0.122 A 
HETATM    2  N1  UNL     1      52.124  43.311 175.145  1.00  0.00    -0.333 N 
ATOM      3  H1  UNL     1      52.312  43.258 176.146  1.00  0.00     0.168 HD
HETATM    4  C4  UNL     1      52.852  42.565 174.315  1.00  0.00     0.095 A 
HETATM    5  C5  UNL     1      53.936  41.636 174.753  1.00  0.00     0.089 C 
HETATM    6  N2  UNL     1      52.576  42.662 173.018  1.00  0.00    -0.178 N 
ATOM      7  H2  UNL     1      53.116  42.102 172.359  1.00  0.00     0.185 HD
HETATM    8  C6  UNL     1      51.606  43.473 172.539  1.00  0.00     0.721 A 
HETATM    9  N3  UNL     1      51.399  43.518 171.301  1.00  0.00    -0.126 N 
ATOM     10  H3  UNL     1      50.651  44.152 171.020  1.00  0.00     0.206 HD
HETATM   11  N6  UNL     1      50.868  44.233 173.405  1.00  0.00    -0.070 N 
ENDROOT
BRANCH   9  12
HETATM   12  N4  UNL     1      51.996  42.871 170.281  1.00  0.00    -0.237 N 
HETATM   13  C7  UNL     1      52.098  43.217 168.926  1.00  0.00     0.335 C 
HETATM   14  O1  UNL     1      51.588  44.275 168.490  1.00  0.00    -0.246 OA
HETATM   15  N5  UNL     1      52.774  42.393 167.998  1.00  0.00    -0.338 N 
ATOM     16  H5  UNL     1      53.189  41.532 168.352  1.00  0.00     0.164 HD
ATOM     17  H4  UNL     1      52.445  41.991 170.534  1.00  0.00     0.192 HD
BRANCH  15  18
HETATM   18  C8  UNL     1      52.924  42.671 166.593  1.00  0.00     0.078 C 
HETATM   19  C9  UNL     1      54.182  41.920 166.123  1.00  0.00     0.032 C 
HETATM   20  C10 UNL     1      51.716  42.106 165.855  1.00  0.00     0.032 C 
ENDBRANCH  15  18
ENDBRANCH   9  12
BRANCH  11  21
HETATM   21  N7  UNL     1      49.881  45.061 172.965  1.00  0.00    -0.249 N 
ATOM     22  H7  UNL     1      50.182  45.959 172.588  1.00  0.00     0.191 HD
BRANCH  21  23
HETATM   23  C11 UNL     1      48.473  44.820 172.969  1.00  0.00     0.191 C 
HETATM   24  N8  UNL     1      47.846  43.877 173.628  1.00  0.00    -0.360 N 
HETATM   25  C12 UNL     1      46.424  43.954 173.379  1.00  0.00     0.142 C 
ATOM     26  H8  UNL     1      48.296  43.187 174.230  1.00  0.00     0.162 HD
HETATM   27  C13 UNL     1      46.221  45.293 172.732  1.00  0.00     0.142 C 
HETATM   28  N9  UNL     1      47.552  45.609 172.235  1.00  0.00    -0.360 N 
ATOM     29  H9  UNL     1      47.780  46.274 171.495  1.00  0.00     0.162 HD
ENDBRANCH  21  23
ENDBRANCH  11  21
BRANCH   1  30
HETATM   30  C2  UNL     1      50.408  44.921 175.735  1.00  0.00     0.075 C 
HETATM   31  C1  UNL     1      51.046  46.266 175.908  1.00  0.00     0.013 C 
ENDBRANCH   1  30
TORSDOF 5
ENDMDL
MODEL 4
REMARK VINA RESULT: -6.039000029      2.492      7.439
REMARK  5 active torsions:
REMARK  status: ('A' for Active; 'I' for Inactive)
REMARK    1  A    between atoms: C2_2  and  C3_3 
REMARK    2  A    between atoms: N3_11  and  N4_13 
REMARK       I    between atoms: N4_13  and  C7_15 
REMARK       I    between atoms: C7_15  and  N5_17 
REMARK    3  A    between atoms: N5_17  and  C8_19 
REMARK    4  A    between atoms: N6_22  and  N7_23 
REMARK    5  A    between atoms: N7_23  and  C11_25 
ROOT
HETATM    1  C3  UNL     1      51.034  44.510 174.395  1.00  0.00     0.122 A 
HETATM    2  N1  UNL     1      49.825  45.006 174.088  1.00  0.00    -0.333 N 
ATOM      3  H1  UNL     1      49.298  45.499 174.809  1.00  0.00     0.168 HD
HETATM    4  C4  UNL     1      49.286  44.878 172.876  1.00  0.00     0.095 A 
HETATM    5  C5  UNL     1      47.949  45.420 172.490  1.00  0.00     0.089 C 
HETATM    6  N2  UNL     1      50.003  44.230 171.963  1.00  0.00    -0.178 N 
ATOM      7  H2  UNL     1      49.617  44.117 171.026  1.00  0.00     0.185 HD
HETATM    8  C6  UNL     1      51.224  43.714 172.229  1.00  0.00     0.721 A 
HETATM    9  N3  UNL     1      51.848  43.111 171.320  1.00  0.00    -0.126 N 
ATOM     10  H3  UNL     1      52.761  42.754 171.600  1.00  0.00     0.206 HD
HETATM   11  N6  UNL     1      51.763  43.854 173.479  1.00  0.00    -0.070 N 
ENDROOT
BRANCH   9  12
HETATM   12  N4  UNL     1      51.514  42.856 170.039  1.00  0.00    -0.237 N 
HETATM   13  C7  UNL     1      52.093  43.313 168.847  1.00  0.00     0.335 C 
HETATM   14  O1  UNL     1      53.081  44.082 168.862  1.00  0.00    -0.246 OA
HETATM   15  N5  UNL     1      51.589  42.927 167.584  1.00  0.00    -0.338 N 
ATOM     16  H5  UNL     1      50.785  42.300 167.571  1.00  0.00     0.164 HD
ATOM     17  H4  UNL     1      50.716  42.233 169.918  1.00  0.00     0.192 HD
BRANCH  15  18
HETATM   18  C8  UNL     1      52.121  43.349 166.313  1.00  0.00     0.078 C 
HETATM   19  C9  UNL     1      51.994  42.149 165.358  1.00  0.00     0.032 C 
HETATM   20  C10 UNL     1      51.258  44.488 165.780  1.00  0.00     0.032 C 
ENDBRANCH  15  18
ENDBRANCH   9  12
BRANCH  11  21
HETATM   21  N7  UNL     1      52.990  43.353 173.788  1.00  0.00    -0.249 N 
ATOM     22  H7  UNL     1      53.790  43.924 173.517  1.00  0.00     0.191 HD
BRANCH  21  23
HETATM   23  C11 UNL     1      53.290  42.122 174.446  1.00  0.00     0.191 C 
HETATM   24  N8  UNL     1      54.315  41.885 175.227  1.00  0.00    -0.360 N 
HETATM   25  C12 UNL     1      54.277  40.522 175.704  1.00  0.00     0.142 C 
ATOM     26  H8  UNL     1      55.037  42.566 175.465  1.00  0.00     0.162 HD
HETATM   27  C13 UNL     1      52.895  40.039 175.372  1.00  0.00     0.142 C 
HETATM   28  N9  UNL     1      52.478  40.966 174.330  1.00  0.00    -0.360 N 
ATOM     29  H9  UNL     1      51.740  40.811 173.643  1.00  0.00     0.162 HD
ENDBRANCH  21  23
ENDBRANCH  11  21
BRANCH   1  30
HETATM   30  C2  UNL     1      51.531  44.710 175.787  1.00  0.00     0.075 C 
HETATM   31  C1  UNL     1      52.197  46.047 175.908  1.00  0.00     0.013 C 
ENDBRANCH   1  30
TORSDOF 5
ENDMDL
MODEL 5
REMARK VINA RESULT: -5.723878736      2.343      8.604
REMARK  5 active torsions:
REMARK  status: ('A' for Active; 'I' for Inactive)
REMARK    1  A    between atoms: C2_2  and  C3_3 
REMARK    2  A    between atoms: N3_11  and  N4_13 
REMARK       I    between atoms: N4_13  and  C7_15 
REMARK       I    between atoms: C7_15  and  N5_17 
REMARK    3  A    between atoms: N5_17  and  C8_19 
REMARK    4  A    between atoms: N6_22  and  N7_23 
REMARK    5  A    between atoms: N7_23  and  C11_25 
ROOT
HETATM    1  C3  UNL     1      50.430  42.836 174.614  1.00  0.00     0.122 A 
HETATM    2  N1  UNL     1      51.634  42.429 175.049  1.00  0.00    -0.333 N 
ATOM      3  H1  UNL     1      51.744  42.185 176.034  1.00  0.00     0.168 HD
HETATM    4  C4  UNL     1      52.690  42.331 174.243  1.00  0.00     0.095 A 
HETATM    5  C5  UNL     1      54.043  41.876 174.683  1.00  0.00     0.089 C 
HETATM    6  N2  UNL     1      52.506  42.658 172.967  1.00  0.00    -0.178 N 
ATOM      7  H2  UNL     1      53.297  42.593 172.326  1.00  0.00     0.185 HD
HETATM    8  C6  UNL     1      51.313  43.073 172.487  1.00  0.00     0.721 A 
HETATM    9  N3  UNL     1      51.209  43.368 171.270  1.00  0.00    -0.126 N 
ATOM     10  H3  UNL     1      50.277  43.669 170.987  1.00  0.00     0.206 HD
HETATM   11  N6  UNL     1      50.238  43.168 173.329  1.00  0.00    -0.070 N 
ENDROOT
BRANCH   9  12
HETATM   12  N4  UNL     1      52.120  43.352 170.277  1.00  0.00    -0.237 N 
HETATM   13  C7  UNL     1      52.179  42.566 169.117  1.00  0.00     0.335 C 
HETATM   14  O1  UNL     1      51.296  41.714 168.869  1.00  0.00    -0.246 OA
HETATM   15  N5  UNL     1      53.232  42.701 168.184  1.00  0.00    -0.338 N 
ATOM     16  H5  UNL     1      53.951  43.395 168.385  1.00  0.00     0.164 HD
ATOM     17  H4  UNL     1      52.886  44.016 170.385  1.00  0.00     0.192 HD
BRANCH  15  18
HETATM   18  C8  UNL     1      53.371  41.936 166.971  1.00  0.00     0.078 C 
HETATM   19  C9  UNL     1      53.771  42.926 165.864  1.00  0.00     0.032 C 
HETATM   20  C10 UNL     1      54.503  40.932 167.158  1.00  0.00     0.032 C 
ENDBRANCH  15  18
ENDBRANCH   9  12
BRANCH  11  21
HETATM   21  N7  UNL     1      49.018  43.578 172.886  1.00  0.00    -0.249 N 
ATOM     22  H7  UNL     1      48.517  42.927 172.282  1.00  0.00     0.191 HD
BRANCH  21  23
HETATM   23  C11 UNL     1      48.357  44.812 173.167  1.00  0.00     0.191 C 
HETATM   24  N8  UNL     1      48.915  45.913 173.608  1.00  0.00    -0.360 N 
HETATM   25  C12 UNL     1      47.921  46.948 173.771  1.00  0.00     0.142 C 
ATOM     26  H8  UNL     1      49.910  46.023 173.807  1.00  0.00     0.162 HD
HETATM   27  C13 UNL     1      46.710  46.432 173.049  1.00  0.00     0.142 C 
HETATM   28  N9  UNL     1      46.963  45.000 172.989  1.00  0.00    -0.360 N 
ATOM     29  H9  UNL     1      46.268  44.268 172.847  1.00  0.00     0.162 HD
ENDBRANCH  21  23
ENDBRANCH  11  21
BRANCH   1  30
HETATM   30  C2  UNL     1      49.324  42.912 175.612  1.00  0.00     0.075 C 
HETATM   31  C1  UNL     1      48.800  41.538 175.902  1.00  0.00     0.013 C 
ENDBRANCH   1  30
TORSDOF 5
ENDMDL
