MODEL 1
REMARK VINA RESULT: -7.741244844      0.000      0.000
REMARK  5 active torsions:
REMARK  status: ('A' for Active; 'I' for Inactive)
REMARK    1  A    between atoms: C5_9  and  C6_10 
REMARK    2  A    between atoms: C6_10  and  N3_11 
REMARK    3  A    between atoms: N3_11  and  C7_14 
REMARK    4  A    between atoms: C7_14  and  C9_16 
REMARK    5  A    between atoms: N7_26  and  O2_27 
ROOT
HETATM    1  C9  UNL     1      52.587  41.701 166.236  1.00  0.00     0.158 A 
HETATM    2  N4  UNL     1      51.514  42.528 166.484  1.00  0.00    -0.284 N 
ATOM      3  H4  UNL     1      50.697  42.156 166.968  1.00  0.00     0.188 HD
HETATM    4  N5  UNL     1      51.525  43.812 166.100  1.00  0.00    -0.285 N 
ATOM      5  H5  UNL     1      50.713  44.395 166.304  1.00  0.00     0.188 HD
HETATM    6  C10 UNL     1      52.556  44.349 165.464  1.00  0.00     0.199 A 
HETATM    7  C11 UNL     1      52.522  45.711 165.038  1.00  0.00     0.125 C 
HETATM    8  N6  UNL     1      52.533  46.806 164.655  1.00  0.00    -0.190 NA
HETATM    9  C12 UNL     1      53.642  43.558 165.200  1.00  0.00     0.312 A 
HETATM   10  O1  UNL     1      54.611  44.068 164.606  1.00  0.00    -0.262 OA
HETATM   11  N7  UNL     1      53.615  42.258 165.594  1.00  0.00    -0.169 N 
ENDROOT
BRANCH  11  12
HETATM   12  O2  UNL     1      54.707  41.505 165.322  1.00  0.00    -0.278 OA
ATOM     13  H2  UNL     1      55.307  41.791 164.642  1.00  0.00     0.245 HD
ENDBRANCH  11  12
BRANCH   1  14
HETATM   14  C7  UNL     1      52.538  40.261 166.702  1.00  0.00     0.253 C 
HETATM   15  C8  UNL     1      51.405  40.320 167.755  1.00  0.00     0.048 C 
BRANCH  14  16
HETATM   16  N3  UNL     1      53.775  39.862 167.341  1.00  0.00    -0.059 N 
ATOM     17  H32 UNL     1      53.785  40.081 168.337  1.00  0.00     0.278 HD
ATOM     18  H31 UNL     1      54.563  40.446 167.058  1.00  0.00     0.278 HD
BRANCH  16  19
HETATM   19  C6  UNL     1      54.011  38.455 167.083  1.00  0.00     0.292 C 
BRANCH  19  20
HETATM   20  C5  UNL     1      55.254  38.170 166.347  1.00  0.00     0.074 A 
HETATM   21  C3  UNL     1      55.580  36.908 165.883  1.00  0.00     0.047 A 
HETATM   22  N2  UNL     1      56.648  36.969 165.085  1.00  0.00    -0.194 N 
HETATM   23  C4  UNL     1      54.851  35.671 166.353  1.00  0.00     0.071 C 
HETATM   24  C2  UNL     1      57.047  38.281 165.021  1.00  0.00     0.678 A 
ATOM     25  H2  UNL     1      57.088  36.182 164.608  1.00  0.00     0.184 HD
HETATM   26  N1  UNL     1      58.044  38.694 164.346  1.00  0.00    -0.230 N 
HETATM   27  N8  UNL     1      56.179  38.990 165.798  1.00  0.00    -0.192 N 
HETATM   28  C1  UNL     1      58.824  37.692 163.594  1.00  0.00     0.165 C 
ATOM     29  H1  UNL     1      58.295  39.682 164.326  1.00  0.00     0.177 HD
ATOM     30  H8  UNL     1      56.223  39.998 165.945  1.00  0.00     0.184 HD
ENDBRANCH  19  20
ENDBRANCH  16  19
ENDBRANCH  14  16
ENDBRANCH   1  14
TORSDOF 5
ENDMDL
MODEL 2
REMARK VINA RESULT: -7.289228938      1.607      6.795
REMARK  5 active torsions:
REMARK  status: ('A' for Active; 'I' for Inactive)
REMARK    1  A    between atoms: C5_9  and  C6_10 
REMARK    2  A    between atoms: C6_10  and  N3_11 
REMARK    3  A    between atoms: N3_11  and  C7_14 
REMARK    4  A    between atoms: C7_14  and  C9_16 
REMARK    5  A    between atoms: N7_26  and  O2_27 
ROOT
HETATM    1  C9  UNL     1      54.727  38.317 166.466  1.00  0.00     0.158 A 
HETATM    2  N4  UNL     1      54.816  37.076 165.876  1.00  0.00    -0.284 N 
ATOM      3  H4  UNL     1      54.075  36.393 166.034  1.00  0.00     0.188 HD
HETATM    4  N5  UNL     1      55.858  36.750 165.099  1.00  0.00    -0.285 N 
ATOM      5  H5  UNL     1      55.887  35.821 164.676  1.00  0.00     0.188 HD
HETATM    6  C10 UNL     1      56.852  37.594 164.861  1.00  0.00     0.199 A 
HETATM    7  C11 UNL     1      57.965  37.203 164.057  1.00  0.00     0.125 C 
HETATM    8  N6  UNL     1      58.898  36.925 163.427  1.00  0.00    -0.190 NA
HETATM    9  C12 UNL     1      56.800  38.838 165.430  1.00  0.00     0.312 A 
HETATM   10  O1  UNL     1      57.734  39.629 165.201  1.00  0.00    -0.262 OA
HETATM   11  N7  UNL     1      55.737  39.152 166.217  1.00  0.00    -0.169 N 
ENDROOT
BRANCH  11  12
HETATM   12  O2  UNL     1      55.715  40.394 166.760  1.00  0.00    -0.278 OA
ATOM     13  H2  UNL     1      55.911  40.497 167.684  1.00  0.00     0.245 HD
ENDBRANCH  11  12
BRANCH   1  14
HETATM   14  C7  UNL     1      53.525  38.649 167.323  1.00  0.00     0.253 C 
HETATM   15  C8  UNL     1      52.362  38.239 166.386  1.00  0.00     0.048 C 
BRANCH  14  16
HETATM   16  N3  UNL     1      53.443  40.066 167.607  1.00  0.00    -0.059 N 
ATOM     17  H32 UNL     1      54.174  40.599 167.134  1.00  0.00     0.278 HD
ATOM     18  H31 UNL     1      53.707  40.284 168.569  1.00  0.00     0.278 HD
BRANCH  16  19
HETATM   19  C6  UNL     1      52.113  40.542 167.278  1.00  0.00     0.292 C 
BRANCH  19  20
HETATM   20  C5  UNL     1      52.063  41.938 166.815  1.00  0.00     0.074 A 
HETATM   21  C3  UNL     1      52.258  43.017 167.658  1.00  0.00     0.047 A 
HETATM   22  N2  UNL     1      52.361  44.145 166.952  1.00  0.00    -0.194 N 
HETATM   23  C4  UNL     1      52.232  42.871 169.162  1.00  0.00     0.071 C 
HETATM   24  C2  UNL     1      52.223  43.821 165.626  1.00  0.00     0.678 A 
ATOM     25  H2  UNL     1      52.513  45.080 167.331  1.00  0.00     0.184 HD
HETATM   26  N1  UNL     1      52.265  44.666 164.674  1.00  0.00    -0.230 N 
HETATM   27  N8  UNL     1      52.044  42.470 165.571  1.00  0.00    -0.192 N 
HETATM   28  C1  UNL     1      52.465  46.085 165.027  1.00  0.00     0.165 C 
ATOM     29  H1  UNL     1      52.164  44.373 163.703  1.00  0.00     0.177 HD
ATOM     30  H8  UNL     1      51.914  41.936 164.713  1.00  0.00     0.184 HD
ENDBRANCH  19  20
ENDBRANCH  16  19
ENDBRANCH  14  16
ENDBRANCH   1  14
TORSDOF 5
ENDMDL
MODEL 3
REMARK VINA RESULT: -7.238410951      1.770      2.341
REMARK  5 active torsions:
REMARK  status: ('A' for Active; 'I' for Inactive)
REMARK    1  A    between atoms: C5_9  and  C6_10 
REMARK    2  A    between atoms: C6_10  and  N3_11 
REMARK    3  A    between atoms: N3_11  and  C7_14 
REMARK    4  A    between atoms: C7_14  and  C9_16 
REMARK    5  A    between atoms: N7_26  and  O2_27 
ROOT
HETATM    1  C9  UNL     1      52.944  42.941 166.082  1.00  0.00     0.158 A 
HETATM    2  N4  UNL     1      51.712  42.343 166.225  1.00  0.00    -0.284 N 
ATOM      3  H4  UNL     1      51.653  41.327 166.297  1.00  0.00     0.188 HD
HETATM    4  N5  UNL     1      50.588  43.072 166.270  1.00  0.00    -0.285 N 
ATOM      5  H5  UNL     1      49.693  42.594 166.379  1.00  0.00     0.188 HD
HETATM    6  C10 UNL     1      50.601  44.394 166.176  1.00  0.00     0.199 A 
HETATM    7  C11 UNL     1      49.383  45.139 166.193  1.00  0.00     0.125 C 
HETATM    8  N6  UNL     1      48.420  45.786 166.181  1.00  0.00    -0.190 NA
HETATM    9  C12 UNL     1      51.808  45.025 166.033  1.00  0.00     0.312 A 
HETATM   10  O1  UNL     1      51.816  46.268 165.950  1.00  0.00    -0.262 OA
HETATM   11  N7  UNL     1      52.937  44.271 165.988  1.00  0.00    -0.169 N 
ENDROOT
BRANCH  11  12
HETATM   12  O2  UNL     1      54.115  44.928 165.851  1.00  0.00    -0.278 OA
ATOM     13  H2  UNL     1      54.173  45.835 166.129  1.00  0.00     0.245 HD
ENDBRANCH  11  12
BRANCH   1  14
HETATM   14  C7  UNL     1      54.188  42.080 166.052  1.00  0.00     0.253 C 
HETATM   15  C8  UNL     1      54.764  42.425 164.657  1.00  0.00     0.048 C 
BRANCH  14  16
HETATM   16  N3  UNL     1      53.866  40.669 166.110  1.00  0.00    -0.059 N 
ATOM     17  H32 UNL     1      53.814  40.245 165.183  1.00  0.00     0.278 HD
ATOM     18  H31 UNL     1      52.901  40.504 166.398  1.00  0.00     0.278 HD
BRANCH  16  19
HETATM   19  C6  UNL     1      54.821  39.998 166.971  1.00  0.00     0.292 C 
BRANCH  19  20
HETATM   20  C5  UNL     1      55.819  39.186 166.256  1.00  0.00     0.074 A 
HETATM   21  C3  UNL     1      55.589  37.876 165.875  1.00  0.00     0.047 A 
HETATM   22  N2  UNL     1      56.567  37.446 165.076  1.00  0.00    -0.194 N 
HETATM   23  C4  UNL     1      54.430  37.077 166.424  1.00  0.00     0.071 C 
HETATM   24  C2  UNL     1      57.466  38.473 164.927  1.00  0.00     0.678 A 
ATOM     25  H2  UNL     1      56.634  36.521 164.651  1.00  0.00     0.184 HD
HETATM   26  N1  UNL     1      58.527  38.400 164.227  1.00  0.00    -0.230 N 
HETATM   27  N8  UNL     1      56.984  39.520 165.656  1.00  0.00    -0.192 N 
HETATM   28  C1  UNL     1      58.808  37.124 163.542  1.00  0.00     0.165 C 
ATOM     29  H1  UNL     1      59.159  39.195 164.143  1.00  0.00     0.177 HD
ATOM     30  H8  UNL     1      57.440  40.429 165.737  1.00  0.00     0.184 HD
ENDBRANCH  19  20
ENDBRANCH  16  19
ENDBRANCH  14  16
ENDBRANCH   1  14
TORSDOF 5
ENDMDL
MODEL 4
REMARK VINA RESULT: -7.175025768      1.835      7.373
REMARK  5 active torsions:
REMARK  status: ('A' for Active; 'I' for Inactive)
REMARK    1  A    between atoms: C5_9  and  C6_10 
REMARK    2  A    between atoms: C6_10  and  N3_11 
REMARK    3  A    between atoms: N3_11  and  C7_14 
REMARK    4  A    between atoms: C7_14  and  C9_16 
REMARK    5  A    between atoms: N7_26  and  O2_27 
ROOT
HETATM    1  C9  UNL     1      55.012  39.113 166.276  1.00  0.00     0.158 A 
HETATM    2  N4  UNL     1      54.854  37.827 165.810  1.00  0.00    -0.284 N 
ATOM      3  H4  UNL     1      53.991  37.323 166.011  1.00  0.00     0.188 HD
HETATM    4  N5  UNL     1      55.816  37.225 165.096  1.00  0.00    -0.285 N 
ATOM      5  H5  UNL     1      55.662  36.272 164.764  1.00  0.00     0.188 HD
HETATM    6  C10 UNL     1      56.961  37.827 164.806  1.00  0.00     0.199 A 
HETATM    7  C11 UNL     1      57.979  37.146 164.073  1.00  0.00     0.125 C 
HETATM    8  N6  UNL     1      58.843  36.628 163.499  1.00  0.00    -0.190 NA
HETATM    9  C12 UNL     1      57.155  39.107 165.253  1.00  0.00     0.312 A 
HETATM   10  O1  UNL     1      58.230  39.671 164.976  1.00  0.00    -0.262 OA
HETATM   11  N7  UNL     1      56.170  39.702 165.977  1.00  0.00    -0.169 N 
ENDROOT
BRANCH  11  12
HETATM   12  O2  UNL     1      56.392  40.971 166.399  1.00  0.00    -0.278 OA
ATOM     13  H2  UNL     1      56.877  41.111 167.204  1.00  0.00     0.245 HD
ENDBRANCH  11  12
BRANCH   1  14
HETATM   14  C7  UNL     1      53.893  39.759 167.064  1.00  0.00     0.253 C 
HETATM   15  C8  UNL     1      52.870  38.600 167.147  1.00  0.00     0.048 C 
BRANCH  14  16
HETATM   16  N3  UNL     1      53.308  40.874 166.349  1.00  0.00    -0.059 N 
ATOM     17  H32 UNL     1      52.365  40.669 166.016  1.00  0.00     0.278 HD
ATOM     18  H31 UNL     1      53.750  41.028 165.443  1.00  0.00     0.278 HD
BRANCH  16  19
HETATM   19  C6  UNL     1      53.349  42.054 167.191  1.00  0.00     0.292 C 
BRANCH  19  20
HETATM   20  C5  UNL     1      52.329  43.066 166.873  1.00  0.00     0.074 A 
HETATM   21  C3  UNL     1      52.503  44.026 165.892  1.00  0.00     0.047 A 
HETATM   22  N2  UNL     1      51.360  44.679 165.674  1.00  0.00    -0.194 N 
HETATM   23  C4  UNL     1      53.856  44.311 165.284  1.00  0.00     0.071 C 
HETATM   24  C2  UNL     1      50.414  44.160 166.523  1.00  0.00     0.678 A 
ATOM     25  H2  UNL     1      51.215  45.429 164.998  1.00  0.00     0.184 HD
HETATM   26  N1  UNL     1      49.206  44.559 166.580  1.00  0.00    -0.230 N 
HETATM   27  N8  UNL     1      51.032  43.178 167.240  1.00  0.00    -0.192 N 
HETATM   28  C1  UNL     1      48.806  45.659 165.682  1.00  0.00     0.165 C 
ATOM     29  H1  UNL     1      48.540  44.135 167.225  1.00  0.00     0.177 HD
ATOM     30  H8  UNL     1      50.579  42.608 167.955  1.00  0.00     0.184 HD
ENDBRANCH  19  20
ENDBRANCH  16  19
ENDBRANCH  14  16
ENDBRANCH   1  14
TORSDOF 5
ENDMDL
MODEL 5
REMARK VINA RESULT: -7.135939385      2.138      2.544
REMARK  5 active torsions:
REMARK  status: ('A' for Active; 'I' for Inactive)
REMARK    1  A    between atoms: C5_9  and  C6_10 
REMARK    2  A    between atoms: C6_10  and  N3_11 
REMARK    3  A    between atoms: N3_11  and  C7_14 
REMARK    4  A    between atoms: C7_14  and  C9_16 
REMARK    5  A    between atoms: N7_26  and  O2_27 
ROOT
HETATM    1  C9  UNL     1      52.965  42.912 166.241  1.00  0.00     0.158 A 
HETATM    2  N4  UNL     1      52.262  43.174 165.087  1.00  0.00    -0.284 N 
ATOM      3  H4  UNL     1      52.593  42.792 164.201  1.00  0.00     0.188 HD
HETATM    4  N5  UNL     1      51.150  43.922 165.107  1.00  0.00    -0.285 N 
ATOM      5  H5  UNL     1      50.653  44.092 164.232  1.00  0.00     0.188 HD
HETATM    6  C10 UNL     1      50.674  44.449 166.226  1.00  0.00     0.199 A 
HETATM    7  C11 UNL     1      49.506  45.270 166.208  1.00  0.00     0.125 C 
HETATM    8  N6  UNL     1      48.574  45.959 166.241  1.00  0.00    -0.190 NA
HETATM    9  C12 UNL     1      51.346  44.210 167.395  1.00  0.00     0.312 A 
HETATM   10  O1  UNL     1      50.894  44.704 168.445  1.00  0.00    -0.262 OA
HETATM   11  N7  UNL     1      52.473  43.451 167.358  1.00  0.00    -0.169 N 
ENDROOT
BRANCH  11  12
HETATM   12  O2  UNL     1      53.111  43.231 168.533  1.00  0.00    -0.278 OA
ATOM     13  H2  UNL     1      54.015  42.939 168.519  1.00  0.00     0.245 HD
ENDBRANCH  11  12
BRANCH   1  14
HETATM   14  C7  UNL     1      54.207  42.048 166.175  1.00  0.00     0.253 C 
HETATM   15  C8  UNL     1      54.909  42.622 164.921  1.00  0.00     0.048 C 
BRANCH  14  16
HETATM   16  N3  UNL     1      53.880  40.655 165.955  1.00  0.00    -0.059 N 
ATOM     17  H32 UNL     1      53.979  40.384 164.976  1.00  0.00     0.278 HD
ATOM     18  H31 UNL     1      52.881  40.471 166.054  1.00  0.00     0.278 HD
BRANCH  16  19
HETATM   19  C6  UNL     1      54.683  39.832 166.838  1.00  0.00     0.292 C 
BRANCH  19  20
HETATM   20  C5  UNL     1      55.736  39.059 166.161  1.00  0.00     0.074 A 
HETATM   21  C3  UNL     1      55.603  37.716 165.855  1.00  0.00     0.047 A 
HETATM   22  N2  UNL     1      56.607  37.317 165.071  1.00  0.00    -0.194 N 
HETATM   23  C4  UNL     1      54.510  36.864 166.457  1.00  0.00     0.071 C 
HETATM   24  C2  UNL     1      57.425  38.398 164.858  1.00  0.00     0.678 A 
ATOM     25  H2  UNL     1      56.741  36.377 164.698  1.00  0.00     0.184 HD
HETATM   26  N1  UNL     1      58.486  38.366 164.154  1.00  0.00    -0.230 N 
HETATM   27  N8  UNL     1      56.870  39.445 165.533  1.00  0.00    -0.192 N 
HETATM   28  C1  UNL     1      58.859  37.078 163.538  1.00  0.00     0.165 C 
ATOM     29  H1  UNL     1      59.056  39.200 164.021  1.00  0.00     0.177 HD
ATOM     30  H8  UNL     1      57.256  40.389 165.560  1.00  0.00     0.184 HD
ENDBRANCH  19  20
ENDBRANCH  16  19
ENDBRANCH  14  16
ENDBRANCH   1  14
TORSDOF 5
ENDMDL
