MODEL 1
REMARK VINA RESULT: -6.298087071      0.000      0.000
REMARK  5 active torsions:
REMARK  status: ('A' for Active; 'I' for Inactive)
REMARK    1  A    between atoms: C2_2  and  N1_5 
REMARK       I    between atoms: N1_5  and  C5_7 
REMARK       I    between atoms: C5_7  and  N2_9 
REMARK    2  A    between atoms: N2_9  and  C6_11 
REMARK    3  A    between atoms: C6_11  and  C7_12 
REMARK       I    between atoms: C7_12  and  N3_14 
REMARK       I    between atoms: N3_14  and  C8_16 
REMARK    4  A    between atoms: C8_16  and  C9_18 
REMARK    5  A    between atoms: C9_18  and  O4_19 
ROOT
HETATM    1  C6  UNL     1     -33.028   5.579  94.969  1.00  0.00     0.116 A 
HETATM    2  C10 UNL     1     -32.615   4.459  94.040  1.00  0.00     0.041 A 
HETATM    3  C11 UNL     1     -31.510   4.104  94.989  1.00  0.00     0.006 A 
HETATM    4  C12 UNL     1     -31.988   5.142  95.939  1.00  0.00     0.041 A 
ENDROOT
BRANCH   1   5
HETATM    5  N2  UNL     1     -34.403   5.451  95.360  1.00  0.00    -0.325 N 
HETATM    6  C5  UNL     1     -34.986   5.991  96.521  1.00  0.00     0.317 C 
HETATM    7  N1  UNL     1     -36.382   5.785  96.803  1.00  0.00    -0.335 N 
HETATM    8  O1  UNL     1     -34.280   6.657  97.315  1.00  0.00    -0.247 OA
ATOM      9  H1  UNL     1     -36.943   5.241  96.148  1.00  0.00     0.165 HD
ATOM     10  H2  UNL     1     -35.014   4.919  94.739  1.00  0.00     0.165 HD
BRANCH   7  11
HETATM   11  C2  UNL     1     -37.013   6.322  97.979  1.00  0.00     0.023 C 
HETATM   12  C1  UNL     1     -36.674   5.479  99.168  1.00  0.00     0.037 C 
HETATM   13  C3  UNL     1     -36.535   7.739  98.238  1.00  0.00     0.037 C 
HETATM   14  C4  UNL     1     -38.505   6.369  97.711  1.00  0.00     0.037 C 
ENDBRANCH   7  11
ENDBRANCH   1   5
BRANCH   1  15
HETATM   15  C7  UNL     1     -32.724   6.937  94.403  1.00  0.00     0.252 C 
HETATM   16  O2  UNL     1     -32.994   7.164  93.203  1.00  0.00    -0.270 OA
HETATM   17  N3  UNL     1     -32.148   7.951  95.188  1.00  0.00    -0.294 N 
HETATM   18  C8  UNL     1     -31.877   9.217  94.616  1.00  0.00     0.247 C 
ATOM     19  H3  UNL     1     -31.926   7.775  96.168  1.00  0.00     0.171 HD
HETATM   20  O3  UNL     1     -32.166   9.393  93.404  1.00  0.00    -0.271 OA
BRANCH  18  21
HETATM   21  C9  UNL     1     -31.264  10.305  95.437  1.00  0.00     0.267 C 
BRANCH  21  22
HETATM   22  O4  UNL     1     -31.939  11.493  95.179  1.00  0.00    -0.392 OA
ATOM     23  H4  UNL     1     -31.798  12.088  95.906  1.00  0.00     0.210 HD
ENDBRANCH  21  22
ENDBRANCH  18  21
ENDBRANCH   1  15
TORSDOF 5
ENDMDL
MODEL 2
REMARK VINA RESULT: -6.245496201      1.290      1.499
REMARK  5 active torsions:
REMARK  status: ('A' for Active; 'I' for Inactive)
REMARK    1  A    between atoms: C2_2  and  N1_5 
REMARK       I    between atoms: N1_5  and  C5_7 
REMARK       I    between atoms: C5_7  and  N2_9 
REMARK    2  A    between atoms: N2_9  and  C6_11 
REMARK    3  A    between atoms: C6_11  and  C7_12 
REMARK       I    between atoms: C7_12  and  N3_14 
REMARK       I    between atoms: N3_14  and  C8_16 
REMARK    4  A    between atoms: C8_16  and  C9_18 
REMARK    5  A    between atoms: C9_18  and  O4_19 
ROOT
HETATM    1  C6  UNL     1     -33.048   5.768  95.368  1.00  0.00     0.116 A 
HETATM    2  C10 UNL     1     -32.805   4.934  94.130  1.00  0.00     0.041 A 
HETATM    3  C11 UNL     1     -32.202   3.865  94.990  1.00  0.00     0.006 A 
HETATM    4  C12 UNL     1     -32.538   4.650  96.207  1.00  0.00     0.041 A 
ENDROOT
BRANCH   1   5
HETATM    5  N2  UNL     1     -34.434   6.120  95.495  1.00  0.00    -0.325 N 
HETATM    6  C5  UNL     1     -35.239   5.908  96.629  1.00  0.00     0.317 C 
HETATM    7  N1  UNL     1     -36.624   6.303  96.628  1.00  0.00    -0.335 N 
HETATM    8  O1  UNL     1     -34.744   5.371  97.648  1.00  0.00    -0.247 OA
ATOM      9  H1  UNL     1     -37.012   6.739  95.791  1.00  0.00     0.165 HD
ATOM     10  H2  UNL     1     -34.875   6.563  94.689  1.00  0.00     0.165 HD
BRANCH   7  11
HETATM   11  C2  UNL     1     -37.478   6.104  97.768  1.00  0.00     0.023 C 
HETATM   12  C1  UNL     1     -37.012   6.955  98.907  1.00  0.00     0.037 C 
HETATM   13  C3  UNL     1     -38.908   6.486  97.432  1.00  0.00     0.037 C 
HETATM   14  C4  UNL     1     -37.450   4.626  98.102  1.00  0.00     0.037 C 
ENDBRANCH   7  11
ENDBRANCH   1   5
BRANCH   1  15
HETATM   15  C7  UNL     1     -32.150   6.970  95.437  1.00  0.00     0.252 C 
HETATM   16  O2  UNL     1     -31.095   6.896  96.105  1.00  0.00    -0.270 OA
HETATM   17  N3  UNL     1     -32.467   8.167  94.772  1.00  0.00    -0.294 N 
HETATM   18  C8  UNL     1     -31.594   9.277  94.863  1.00  0.00     0.247 C 
ATOM     19  H3  UNL     1     -33.325   8.236  94.224  1.00  0.00     0.171 HD
HETATM   20  O3  UNL     1     -30.547   9.151  95.548  1.00  0.00    -0.271 OA
BRANCH  18  21
HETATM   21  C9  UNL     1     -31.917  10.557  94.161  1.00  0.00     0.267 C 
BRANCH  21  22
HETATM   22  O4  UNL     1     -31.901  11.591  95.089  1.00  0.00    -0.392 OA
ATOM     23  H4  UNL     1     -31.556  12.371  94.670  1.00  0.00     0.210 HD
ENDBRANCH  21  22
ENDBRANCH  18  21
ENDBRANCH   1  15
TORSDOF 5
ENDMDL
MODEL 3
REMARK VINA RESULT: -6.138108390      1.326      1.801
REMARK  5 active torsions:
REMARK  status: ('A' for Active; 'I' for Inactive)
REMARK    1  A    between atoms: C2_2  and  N1_5 
REMARK       I    between atoms: N1_5  and  C5_7 
REMARK       I    between atoms: C5_7  and  N2_9 
REMARK    2  A    between atoms: N2_9  and  C6_11 
REMARK    3  A    between atoms: C6_11  and  C7_12 
REMARK       I    between atoms: C7_12  and  N3_14 
REMARK       I    between atoms: N3_14  and  C8_16 
REMARK    4  A    between atoms: C8_16  and  C9_18 
REMARK    5  A    between atoms: C9_18  and  O4_19 
ROOT
HETATM    1  C6  UNL     1     -33.137   5.533  95.415  1.00  0.00     0.116 A 
HETATM    2  C10 UNL     1     -32.904   4.719  94.161  1.00  0.00     0.041 A 
HETATM    3  C11 UNL     1     -32.358   3.607  95.005  1.00  0.00     0.006 A 
HETATM    4  C12 UNL     1     -32.686   4.376  96.235  1.00  0.00     0.041 A 
ENDROOT
BRANCH   1   5
HETATM    5  N2  UNL     1     -34.510   5.935  95.526  1.00  0.00    -0.325 N 
HETATM    6  C5  UNL     1     -35.329   5.772  96.659  1.00  0.00     0.317 C 
HETATM    7  N1  UNL     1     -36.699   6.216  96.641  1.00  0.00    -0.335 N 
HETATM    8  O1  UNL     1     -34.860   5.236  97.690  1.00  0.00    -0.247 OA
ATOM      9  H1  UNL     1     -37.066   6.650  95.794  1.00  0.00     0.165 HD
ATOM     10  H2  UNL     1     -34.931   6.380  94.710  1.00  0.00     0.165 HD
BRANCH   7  11
HETATM   11  C2  UNL     1     -37.566   6.068  97.779  1.00  0.00     0.023 C 
HETATM   12  C1  UNL     1     -38.962   6.458  97.408  1.00  0.00     0.037 C 
HETATM   13  C3  UNL     1     -37.577   4.626  98.253  1.00  0.00     0.037 C 
HETATM   14  C4  UNL     1     -37.003   6.927  98.893  1.00  0.00     0.037 C 
ENDBRANCH   7  11
ENDBRANCH   1   5
BRANCH   1  15
HETATM   15  C7  UNL     1     -32.195   6.696  95.528  1.00  0.00     0.252 C 
HETATM   16  O2  UNL     1     -31.162   6.570  96.224  1.00  0.00    -0.270 OA
HETATM   17  N3  UNL     1     -32.444   7.915  94.874  1.00  0.00    -0.294 N 
HETATM   18  C8  UNL     1     -31.530   8.988  95.008  1.00  0.00     0.247 C 
ATOM     19  H3  UNL     1     -33.282   8.026  94.304  1.00  0.00     0.171 HD
HETATM   20  O3  UNL     1     -30.509   8.809  95.720  1.00  0.00    -0.271 OA
BRANCH  18  21
HETATM   21  C9  UNL     1     -31.782  10.290  94.318  1.00  0.00     0.267 C 
BRANCH  21  22
HETATM   22  O4  UNL     1     -32.524  10.049  93.168  1.00  0.00    -0.392 OA
ATOM     23  H4  UNL     1     -33.107  10.784  93.021  1.00  0.00     0.210 HD
ENDBRANCH  21  22
ENDBRANCH  18  21
ENDBRANCH   1  15
TORSDOF 5
ENDMDL
MODEL 4
REMARK VINA RESULT: -6.078837087      1.327      1.673
REMARK  5 active torsions:
REMARK  status: ('A' for Active; 'I' for Inactive)
REMARK    1  A    between atoms: C2_2  and  N1_5 
REMARK       I    between atoms: N1_5  and  C5_7 
REMARK       I    between atoms: C5_7  and  N2_9 
REMARK    2  A    between atoms: N2_9  and  C6_11 
REMARK    3  A    between atoms: C6_11  and  C7_12 
REMARK       I    between atoms: C7_12  and  N3_14 
REMARK       I    between atoms: N3_14  and  C8_16 
REMARK    4  A    between atoms: C8_16  and  C9_18 
REMARK    5  A    between atoms: C9_18  and  O4_19 
ROOT
HETATM    1  C6  UNL     1     -33.284   5.930  95.337  1.00  0.00     0.116 A 
HETATM    2  C10 UNL     1     -33.167   4.779  94.362  1.00  0.00     0.041 A 
HETATM    3  C11 UNL     1     -32.440   3.989  95.407  1.00  0.00     0.006 A 
HETATM    4  C12 UNL     1     -32.650   5.087  96.387  1.00  0.00     0.041 A 
ENDROOT
BRANCH   1   5
HETATM    5  N2  UNL     1     -34.653   6.315  95.526  1.00  0.00    -0.325 N 
HETATM    6  C5  UNL     1     -35.462   5.978  96.628  1.00  0.00     0.317 C 
HETATM    7  N1  UNL     1     -36.828   6.424  96.696  1.00  0.00    -0.335 N 
HETATM    8  O1  UNL     1     -34.985   5.282  97.555  1.00  0.00    -0.247 OA
ATOM      9  H1  UNL     1     -37.202   6.989  95.933  1.00  0.00     0.165 HD
ATOM     10  H2  UNL     1     -35.080   6.885  94.796  1.00  0.00     0.165 HD
BRANCH   7  11
HETATM   11  C2  UNL     1     -37.685   6.101  97.805  1.00  0.00     0.023 C 
HETATM   12  C1  UNL     1     -39.106   6.418  97.460  1.00  0.00     0.037 C 
HETATM   13  C3  UNL     1     -37.586   4.623  98.138  1.00  0.00     0.037 C 
HETATM   14  C4  UNL     1     -37.192   6.888  99.003  1.00  0.00     0.037 C 
ENDBRANCH   7  11
ENDBRANCH   1   5
BRANCH   1  15
HETATM   15  C7  UNL     1     -32.415   7.094  94.958  1.00  0.00     0.252 C 
HETATM   16  O2  UNL     1     -32.140   7.274  93.751  1.00  0.00    -0.270 OA
HETATM   17  N3  UNL     1     -31.907   7.981  95.924  1.00  0.00    -0.294 N 
HETATM   18  C8  UNL     1     -31.090   9.066  95.526  1.00  0.00     0.247 C 
ATOM     19  H3  UNL     1     -32.127   7.842  96.910  1.00  0.00     0.171 HD
HETATM   20  O3  UNL     1     -30.843   9.201  94.300  1.00  0.00    -0.271 OA
BRANCH  18  21
HETATM   21  C9  UNL     1     -30.544  10.017  96.541  1.00  0.00     0.267 C 
BRANCH  21  22
HETATM   22  O4  UNL     1     -29.293   9.566  96.947  1.00  0.00    -0.392 OA
ATOM     23  H4  UNL     1     -29.040  10.037  97.732  1.00  0.00     0.210 HD
ENDBRANCH  21  22
ENDBRANCH  18  21
ENDBRANCH   1  15
TORSDOF 5
ENDMDL
MODEL 5
REMARK VINA RESULT: -5.548126360      1.717      2.315
REMARK  5 active torsions:
REMARK  status: ('A' for Active; 'I' for Inactive)
REMARK    1  A    between atoms: C2_2  and  N1_5 
REMARK       I    between atoms: N1_5  and  C5_7 
REMARK       I    between atoms: C5_7  and  N2_9 
REMARK    2  A    between atoms: N2_9  and  C6_11 
REMARK    3  A    between atoms: C6_11  and  C7_12 
REMARK       I    between atoms: C7_12  and  N3_14 
REMARK       I    between atoms: N3_14  and  C8_16 
REMARK    4  A    between atoms: C8_16  and  C9_18 
REMARK    5  A    between atoms: C9_18  and  O4_19 
ROOT
HETATM    1  C6  UNL     1     -34.316   5.365  96.275  1.00  0.00     0.116 A 
HETATM    2  C10 UNL     1     -33.699   4.013  96.559  1.00  0.00     0.041 A 
HETATM    3  C11 UNL     1     -32.986   4.605  97.737  1.00  0.00     0.006 A 
HETATM    4  C12 UNL     1     -33.676   5.901  97.508  1.00  0.00     0.041 A 
ENDROOT
BRANCH   1   5
HETATM    5  N2  UNL     1     -35.748   5.288  96.245  1.00  0.00    -0.325 N 
HETATM    6  C5  UNL     1     -36.612   5.544  97.326  1.00  0.00     0.317 C 
HETATM    7  N1  UNL     1     -38.038   5.426  97.167  1.00  0.00    -0.335 N 
HETATM    8  O1  UNL     1     -36.133   5.876  98.436  1.00  0.00    -0.247 OA
ATOM      9  H1  UNL     1     -38.413   5.153  96.258  1.00  0.00     0.165 HD
ATOM     10  H2  UNL     1     -36.180   5.023  95.359  1.00  0.00     0.165 HD
BRANCH   7  11
HETATM   11  C2  UNL     1     -38.953   5.679  98.247  1.00  0.00     0.023 C 
HETATM   12  C1  UNL     1     -38.360   6.677  99.192  1.00  0.00     0.037 C 
HETATM   13  C3  UNL     1     -40.261   6.235  97.716  1.00  0.00     0.037 C 
HETATM   14  C4  UNL     1     -39.242   4.351  98.918  1.00  0.00     0.037 C 
ENDBRANCH   7  11
ENDBRANCH   1   5
BRANCH   1  15
HETATM   15  C7  UNL     1     -33.756   6.003  95.036  1.00  0.00     0.252 C 
HETATM   16  O2  UNL     1     -33.727   5.338  93.976  1.00  0.00    -0.270 OA
HETATM   17  N3  UNL     1     -33.269   7.321  95.041  1.00  0.00    -0.294 N 
HETATM   18  C8  UNL     1     -32.749   7.885  93.851  1.00  0.00     0.247 C 
ATOM     19  H3  UNL     1     -33.290   7.871  95.900  1.00  0.00     0.171 HD
HETATM   20  O3  UNL     1     -32.741   7.174  92.814  1.00  0.00    -0.271 OA
BRANCH  18  21
HETATM   21  C9  UNL     1     -32.227   9.286  93.841  1.00  0.00     0.267 C 
BRANCH  21  22
HETATM   22  O4  UNL     1     -30.843   9.248  93.967  1.00  0.00    -0.392 OA
ATOM     23  H4  UNL     1     -30.620   8.696  94.707  1.00  0.00     0.210 HD
ENDBRANCH  21  22
ENDBRANCH  18  21
ENDBRANCH   1  15
TORSDOF 5
ENDMDL
