MODEL 1
REMARK VINA RESULT: -5.693786754      0.000      0.000
REMARK  5 active torsions:
REMARK  status: ('A' for Active; 'I' for Inactive)
REMARK    1  A    between atoms: C1_2  and  C2_4 
REMARK    2  A    between atoms: C5_7  and  C6_8 
REMARK       I    between atoms: C6_8  and  N1_10 
REMARK    3  A    between atoms: N1_10  and  C7_12 
REMARK    4  A    between atoms: C13_18  and  O4_19 
REMARK    5  A    between atoms: C13_18  and  C14_21 
ROOT
HETATM    1  C7  UNL     1      16.576  -7.073  30.697  1.00  0.00     0.134 C 
HETATM    2  C8  UNL     1      15.763  -5.865  30.288  1.00  0.00     0.012 C 
HETATM    3  C9  UNL     1      16.740  -4.788  29.931  1.00  0.00     0.007 C 
HETATM    4  C10 UNL     1      17.270  -4.293  31.281  1.00  0.00     0.009 C 
HETATM    5  C11 UNL     1      16.712  -5.262  32.259  1.00  0.00     0.033 C 
HETATM    6  C12 UNL     1      15.282  -5.384  31.667  1.00  0.00     0.015 C 
HETATM    7  C13 UNL     1      17.177  -6.657  32.049  1.00  0.00     0.170 C 
ENDROOT
BRANCH   1   8
HETATM    8  N1  UNL     1      15.738  -8.237  30.802  1.00  0.00    -0.352 N 
HETATM    9  C6  UNL     1      15.513  -9.081  29.692  1.00  0.00     0.223 C 
HETATM   10  O3  UNL     1      16.057  -8.807  28.594  1.00  0.00    -0.273 OA
ATOM     11  H1  UNL     1      15.297  -8.457  31.695  1.00  0.00     0.163 HD
BRANCH   9  12
HETATM   12  C5  UNL     1      14.662 -10.290  29.740  1.00  0.00     0.092 C 
HETATM   13  C2  UNL     1      14.637 -10.981  31.110  1.00  0.00     0.100 C 
HETATM   14  C3  UNL     1      14.634 -12.297  30.336  1.00  0.00     0.017 C 
HETATM   15  C4  UNL     1      15.379 -11.535  29.235  1.00  0.00     0.016 C 
BRANCH  13  16
HETATM   16  C1  UNL     1      13.398 -10.780  31.863  1.00  0.00     0.177 C 
HETATM   17  O1  UNL     1      12.863  -9.645  31.872  1.00  0.00    -0.648 OA
HETATM   18  O2  UNL     1      12.794 -11.802  32.571  1.00  0.00    -0.648 OA
ENDBRANCH  13  16
ENDBRANCH   9  12
ENDBRANCH   1   8
BRANCH   7  19
HETATM   19  O4  UNL     1      16.684  -7.509  33.054  1.00  0.00    -0.377 OA
ATOM     20  H4  UNL     1      16.900  -7.144  33.904  1.00  0.00     0.211 HD
ENDBRANCH   7  19
BRANCH   7  21
HETATM   21  C14 UNL     1      18.635  -6.808  32.050  1.00  0.00     0.211 C 
HETATM   22  O5  UNL     1      19.441  -5.971  32.516  1.00  0.00    -0.646 OA
HETATM   23  O6  UNL     1      19.215  -7.968  31.495  1.00  0.00    -0.646 OA
ENDBRANCH   7  21
TORSDOF 5
ENDMDL
MODEL 2
REMARK VINA RESULT: -5.557983935      3.300      6.610
REMARK  5 active torsions:
REMARK  status: ('A' for Active; 'I' for Inactive)
REMARK    1  A    between atoms: C1_2  and  C2_4 
REMARK    2  A    between atoms: C5_7  and  C6_8 
REMARK       I    between atoms: C6_8  and  N1_10 
REMARK    3  A    between atoms: N1_10  and  C7_12 
REMARK    4  A    between atoms: C13_18  and  O4_19 
REMARK    5  A    between atoms: C13_18  and  C14_21 
ROOT
HETATM    1  C7  UNL     1      17.492  -6.178  31.135  1.00  0.00     0.134 C 
HETATM    2  C8  UNL     1      17.214  -7.665  31.132  1.00  0.00     0.012 C 
HETATM    3  C9  UNL     1      16.538  -7.976  29.833  1.00  0.00     0.007 C 
HETATM    4  C10 UNL     1      15.109  -7.450  30.013  1.00  0.00     0.009 C 
HETATM    5  C11 UNL     1      15.163  -6.711  31.300  1.00  0.00     0.033 C 
HETATM    6  C12 UNL     1      16.025  -7.718  32.106  1.00  0.00     0.015 C 
HETATM    7  C13 UNL     1      16.095  -5.554  31.287  1.00  0.00     0.170 C 
ENDROOT
BRANCH   1   8
HETATM    8  N1  UNL     1      18.372  -5.827  32.217  1.00  0.00    -0.352 N 
HETATM    9  C6  UNL     1      19.548  -6.567  32.473  1.00  0.00     0.223 C 
HETATM   10  O3  UNL     1      19.828  -7.546  31.740  1.00  0.00    -0.273 OA
ATOM     11  H1  UNL     1      18.142  -5.031  32.810  1.00  0.00     0.163 HD
BRANCH   9  12
HETATM   12  C5  UNL     1      20.490  -6.254  33.570  1.00  0.00     0.092 C 
HETATM   13  C2  UNL     1      21.922  -6.750  33.323  1.00  0.00     0.100 C 
HETATM   14  C3  UNL     1      21.955  -7.091  34.811  1.00  0.00     0.017 C 
HETATM   15  C4  UNL     1      20.438  -7.274  34.700  1.00  0.00     0.016 C 
BRANCH  13  16
HETATM   16  C1  UNL     1      22.873  -5.693  32.978  1.00  0.00     0.177 C 
HETATM   17  O1  UNL     1      22.977  -4.691  33.728  1.00  0.00    -0.648 OA
HETATM   18  O2  UNL     1      23.666  -5.757  31.848  1.00  0.00    -0.648 OA
ENDBRANCH  13  16
ENDBRANCH   9  12
ENDBRANCH   1   8
BRANCH   7  19
HETATM   19  O4  UNL     1      16.037  -4.847  32.500  1.00  0.00    -0.377 OA
ATOM     20  H4  UNL     1      15.477  -4.087  32.391  1.00  0.00     0.211 HD
ENDBRANCH   7  19
BRANCH   7  21
HETATM   21  C14 UNL     1      15.830  -4.583  30.222  1.00  0.00     0.211 C 
HETATM   22  O5  UNL     1      14.736  -4.001  30.040  1.00  0.00    -0.646 OA
HETATM   23  O6  UNL     1      16.855  -4.249  29.312  1.00  0.00    -0.646 OA
ENDBRANCH   7  21
TORSDOF 5
ENDMDL
MODEL 3
REMARK VINA RESULT: -5.517206474      2.887      6.160
REMARK  5 active torsions:
REMARK  status: ('A' for Active; 'I' for Inactive)
REMARK    1  A    between atoms: C1_2  and  C2_4 
REMARK    2  A    between atoms: C5_7  and  C6_8 
REMARK       I    between atoms: C6_8  and  N1_10 
REMARK    3  A    between atoms: N1_10  and  C7_12 
REMARK    4  A    between atoms: C13_18  and  O4_19 
REMARK    5  A    between atoms: C13_18  and  C14_21 
ROOT
HETATM    1  C7  UNL     1      16.788  -6.917  30.805  1.00  0.00     0.134 C 
HETATM    2  C8  UNL     1      16.208  -8.261  30.421  1.00  0.00     0.012 C 
HETATM    3  C9  UNL     1      15.658  -8.115  29.036  1.00  0.00     0.007 C 
HETATM    4  C10 UNL     1      14.360  -7.322  29.224  1.00  0.00     0.009 C 
HETATM    5  C11 UNL     1      14.397  -6.914  30.652  1.00  0.00     0.033 C 
HETATM    6  C12 UNL     1      14.916  -8.246  31.256  1.00  0.00     0.015 C 
HETATM    7  C13 UNL     1      15.545  -6.033  30.993  1.00  0.00     0.170 C 
ENDROOT
BRANCH   1   8
HETATM    8  N1  UNL     1      17.572  -7.027  32.005  1.00  0.00    -0.352 N 
HETATM    9  C6  UNL     1      18.703  -6.208  32.219  1.00  0.00     0.223 C 
HETATM   10  O3  UNL     1      19.027  -5.369  31.343  1.00  0.00    -0.273 OA
ATOM     11  H1  UNL     1      17.306  -7.709  32.715  1.00  0.00     0.163 HD
BRANCH   9  12
HETATM   12  C5  UNL     1      19.546  -6.276  33.433  1.00  0.00     0.092 C 
HETATM   13  C2  UNL     1      20.910  -6.944  33.208  1.00  0.00     0.100 C 
HETATM   14  C3  UNL     1      20.720  -7.570  34.587  1.00  0.00     0.017 C 
HETATM   15  C4  UNL     1      19.216  -7.475  34.313  1.00  0.00     0.016 C 
BRANCH  13  16
HETATM   16  C1  UNL     1      22.038  -6.012  33.175  1.00  0.00     0.177 C 
HETATM   17  O1  UNL     1      22.870  -6.088  32.237  1.00  0.00    -0.648 OA
HETATM   18  O2  UNL     1      22.223  -5.046  34.145  1.00  0.00    -0.648 OA
ENDBRANCH  13  16
ENDBRANCH   9  12
ENDBRANCH   1   8
BRANCH   7  19
HETATM   19  O4  UNL     1      15.476  -5.613  32.333  1.00  0.00    -0.377 OA
ATOM     20  H4  UNL     1      14.667  -5.134  32.468  1.00  0.00     0.211 HD
ENDBRANCH   7  19
BRANCH   7  21
HETATM   21  C14 UNL     1      15.629  -4.819  30.176  1.00  0.00     0.211 C 
HETATM   22  O5  UNL     1      14.720  -3.966  30.065  1.00  0.00    -0.646 OA
HETATM   23  O6  UNL     1      16.806  -4.552  29.446  1.00  0.00    -0.646 OA
ENDBRANCH   7  21
TORSDOF 5
ENDMDL
MODEL 4
REMARK VINA RESULT: -5.356816032      3.417      6.762
REMARK  5 active torsions:
REMARK  status: ('A' for Active; 'I' for Inactive)
REMARK    1  A    between atoms: C1_2  and  C2_4 
REMARK    2  A    between atoms: C5_7  and  C6_8 
REMARK       I    between atoms: C6_8  and  N1_10 
REMARK    3  A    between atoms: N1_10  and  C7_12 
REMARK    4  A    between atoms: C13_18  and  O4_19 
REMARK    5  A    between atoms: C13_18  and  C14_21 
ROOT
HETATM    1  C7  UNL     1      17.681  -6.116  31.262  1.00  0.00     0.134 C 
HETATM    2  C8  UNL     1      17.306  -7.578  31.376  1.00  0.00     0.012 C 
HETATM    3  C9  UNL     1      16.575  -7.935  30.119  1.00  0.00     0.007 C 
HETATM    4  C10 UNL     1      15.190  -7.303  30.291  1.00  0.00     0.009 C 
HETATM    5  C11 UNL     1      15.327  -6.478  31.518  1.00  0.00     0.033 C 
HETATM    6  C12 UNL     1      16.143  -7.480  32.377  1.00  0.00     0.015 C 
HETATM    7  C13 UNL     1      16.333  -5.391  31.399  1.00  0.00     0.170 C 
ENDROOT
BRANCH   1   8
HETATM    8  N1  UNL     1      18.611  -5.749  32.295  1.00  0.00    -0.352 N 
HETATM    9  C6  UNL     1      19.795  -6.488  32.512  1.00  0.00     0.223 C 
HETATM   10  O3  UNL     1      20.037  -7.484  31.786  1.00  0.00    -0.273 OA
ATOM     11  H1  UNL     1      18.412  -4.939  32.882  1.00  0.00     0.163 HD
BRANCH   9  12
HETATM   12  C5  UNL     1      20.788  -6.158  33.557  1.00  0.00     0.092 C 
HETATM   13  C2  UNL     1      22.192  -6.714  33.282  1.00  0.00     0.100 C 
HETATM   14  C3  UNL     1      22.270  -6.988  34.782  1.00  0.00     0.017 C 
HETATM   15  C4  UNL     1      20.745  -7.124  34.735  1.00  0.00     0.016 C 
BRANCH  13  16
HETATM   16  C1  UNL     1      23.164  -5.707  32.852  1.00  0.00     0.177 C 
HETATM   17  O1  UNL     1      23.618  -5.752  31.683  1.00  0.00    -0.648 OA
HETATM   18  O2  UNL     1      23.604  -4.704  33.694  1.00  0.00    -0.648 OA
ENDBRANCH  13  16
ENDBRANCH   9  12
ENDBRANCH   1   8
BRANCH   7  19
HETATM   19  O4  UNL     1      16.354  -4.595  32.557  1.00  0.00    -0.377 OA
ATOM     20  H4  UNL     1      15.645  -3.964  32.515  1.00  0.00     0.211 HD
ENDBRANCH   7  19
BRANCH   7  21
HETATM   21  C14 UNL     1      16.102  -4.484  30.271  1.00  0.00     0.211 C 
HETATM   22  O5  UNL     1      16.840  -4.392  29.263  1.00  0.00    -0.646 OA
HETATM   23  O6  UNL     1      14.976  -3.634  30.280  1.00  0.00    -0.646 OA
ENDBRANCH   7  21
TORSDOF 5
ENDMDL
MODEL 5
REMARK VINA RESULT: -5.291794238      1.241      1.665
REMARK  5 active torsions:
REMARK  status: ('A' for Active; 'I' for Inactive)
REMARK    1  A    between atoms: C1_2  and  C2_4 
REMARK    2  A    between atoms: C5_7  and  C6_8 
REMARK       I    between atoms: C6_8  and  N1_10 
REMARK    3  A    between atoms: N1_10  and  C7_12 
REMARK    4  A    between atoms: C13_18  and  O4_19 
REMARK    5  A    between atoms: C13_18  and  C14_21 
ROOT
HETATM    1  C7  UNL     1      16.143  -6.603  30.646  1.00  0.00     0.134 C 
HETATM    2  C8  UNL     1      16.150  -6.008  29.254  1.00  0.00     0.012 C 
HETATM    3  C9  UNL     1      17.255  -4.999  29.222  1.00  0.00     0.007 C 
HETATM    4  C10 UNL     1      16.703  -3.804  30.007  1.00  0.00     0.009 C 
HETATM    5  C11 UNL     1      15.433  -4.316  30.585  1.00  0.00     0.033 C 
HETATM    6  C12 UNL     1      14.917  -5.094  29.345  1.00  0.00     0.015 C 
HETATM    7  C13 UNL     1      15.619  -5.454  31.522  1.00  0.00     0.170 C 
ENDROOT
BRANCH   1   8
HETATM    8  N1  UNL     1      15.296  -7.764  30.696  1.00  0.00    -0.352 N 
HETATM    9  C6  UNL     1      15.499  -8.858  29.826  1.00  0.00     0.223 C 
HETATM   10  O3  UNL     1      16.438  -8.813  28.994  1.00  0.00    -0.273 OA
ATOM     11  H1  UNL     1      14.535  -7.799  31.374  1.00  0.00     0.163 HD
BRANCH   9  12
HETATM   12  C5  UNL     1      14.661 -10.077  29.832  1.00  0.00     0.092 C 
HETATM   13  C2  UNL     1      14.666 -10.830  31.170  1.00  0.00     0.100 C 
HETATM   14  C3  UNL     1      14.664 -12.110  30.337  1.00  0.00     0.017 C 
HETATM   15  C4  UNL     1      15.383 -11.291  29.261  1.00  0.00     0.016 C 
BRANCH  13  16
HETATM   16  C1  UNL     1      13.437 -10.677  31.950  1.00  0.00     0.177 C 
HETATM   17  O1  UNL     1      12.909  -9.542  32.047  1.00  0.00    -0.648 OA
HETATM   18  O2  UNL     1      12.834 -11.744  32.590  1.00  0.00    -0.648 OA
ENDBRANCH  13  16
ENDBRANCH   9  12
ENDBRANCH   1   8
BRANCH   7  19
HETATM   19  O4  UNL     1      14.395  -5.836  32.099  1.00  0.00    -0.377 OA
ATOM     20  H4  UNL     1      14.319  -5.439  32.958  1.00  0.00     0.211 HD
ENDBRANCH   7  19
BRANCH   7  21
HETATM   21  C14 UNL     1      16.536  -5.173  32.630  1.00  0.00     0.211 C 
HETATM   22  O5  UNL     1      16.649  -4.065  33.202  1.00  0.00    -0.646 OA
HETATM   23  O6  UNL     1      17.370  -6.199  33.122  1.00  0.00    -0.646 OA
ENDBRANCH   7  21
TORSDOF 5
ENDMDL
