MODEL 1
REMARK VINA RESULT: -7.061204201      0.000      0.000
REMARK  6 active torsions:
REMARK  status: ('A' for Active; 'I' for Inactive)
REMARK    1  A    between atoms: N1_3  and  N2_5 
REMARK       I    between atoms: N2_5  and  C3_7 
REMARK    2  A    between atoms: C3_7  and  C4_9 
REMARK    3  A    between atoms: C4_9  and  N4_14 
REMARK    4  A    between atoms: N3_10  and  O2_12 
REMARK    5  A    between atoms: N4_14  and  C5_16 
REMARK    6  A    between atoms: C5_16  and  C6_17 
REMARK       I    between atoms: N5_21  and  C10_22 
REMARK       I    between atoms: C10_22  and  N6_24 
ROOT
HETATM    1  N4  UNL     1      14.454  -5.328  30.674  1.00  0.00    -0.370 N 
ATOM      2  H4  UNL     1      13.548  -5.253  31.137  1.00  0.00     0.161 HD
ENDROOT
BRANCH   1   3
HETATM    3  C4  UNL     1      15.566  -4.605  31.151  1.00  0.00     0.192 C 
HETATM    4  N3  UNL     1      15.722  -3.389  30.774  1.00  0.00    -0.248 N 
ATOM      5  H3  UNL     1      16.522  -2.851  31.108  1.00  0.00     0.196 HD
BRANCH   3   6
HETATM    6  C3  UNL     1      16.526  -5.240  32.062  1.00  0.00     0.305 C 
HETATM    7  N2  UNL     1      17.672  -5.918  31.603  1.00  0.00    -0.264 N 
ATOM      8  H2  UNL     1      17.858  -5.980  30.602  1.00  0.00     0.190 HD
HETATM    9  O1  UNL     1      16.317  -5.176  33.299  1.00  0.00    -0.263 OA
BRANCH   7  10
HETATM   10  N1  UNL     1      18.554  -6.503  32.505  1.00  0.00    -0.313 N 
HETATM   11  C2  UNL     1      19.809  -6.255  32.549  1.00  0.00     0.076 C 
HETATM   12  C1  UNL     1      20.652  -6.937  33.552  1.00  0.00     0.056 C 
ATOM     13  H1  UNL     1      18.176  -7.173  33.175  1.00  0.00     0.185 HD
ENDBRANCH   7  10
ENDBRANCH   3   6
BRANCH   4  14
HETATM   14  O2  UNL     1      14.816  -2.813  29.924  1.00  0.00    -0.288 OA
ATOM     15  H2  UNL     1      15.035  -2.007  29.471  1.00  0.00     0.244 HD
ENDBRANCH   4  14
ENDBRANCH   1   3
BRANCH   1  16
HETATM   16  C5  UNL     1      14.619  -6.167  29.529  1.00  0.00     0.127 C 
BRANCH  16  17
HETATM   17  C6  UNL     1      15.235  -7.505  29.855  1.00  0.00     0.021 C 
HETATM   18  C7  UNL     1      15.703  -8.067  28.505  1.00  0.00     0.009 C 
HETATM   19  C8  UNL     1      16.351  -9.415  28.696  1.00  0.00     0.020 C 
HETATM   20  C9  UNL     1      15.430 -10.377  29.347  1.00  0.00     0.127 C 
HETATM   21  N5  UNL     1      14.545  -9.826  30.331  1.00  0.00    -0.334 N 
HETATM   22  C10 UNL     1      13.850 -10.755  31.159  1.00  0.00     0.317 C 
HETATM   23  C12 UNL     1      14.302  -8.435  30.547  1.00  0.00     0.133 C 
HETATM   24  O3  UNL     1      14.004 -12.017  31.039  1.00  0.00    -0.247 OA
HETATM   25  N6  UNL     1      12.942 -10.313  32.174  1.00  0.00    -0.347 N 
HETATM   26  C11 UNL     1      12.238 -11.253  33.014  1.00  0.00     0.151 C 
ATOM     27  H6  UNL     1      12.789  -9.313  32.306  1.00  0.00     0.163 HD
ENDBRANCH  16  17
ENDBRANCH   1  16
TORSDOF 6
ENDMDL
MODEL 2
REMARK VINA RESULT: -6.752821963      2.579      6.758
REMARK  6 active torsions:
REMARK  status: ('A' for Active; 'I' for Inactive)
REMARK    1  A    between atoms: N1_3  and  N2_5 
REMARK       I    between atoms: N2_5  and  C3_7 
REMARK    2  A    between atoms: C3_7  and  C4_9 
REMARK    3  A    between atoms: C4_9  and  N4_14 
REMARK    4  A    between atoms: N3_10  and  O2_12 
REMARK    5  A    between atoms: N4_14  and  C5_16 
REMARK    6  A    between atoms: C5_16  and  C6_17 
REMARK       I    between atoms: N5_21  and  C10_22 
REMARK       I    between atoms: C10_22  and  N6_24 
ROOT
HETATM    1  N4  UNL     1      16.275  -5.798  31.296  1.00  0.00    -0.370 N 
ATOM      2  H4  UNL     1      15.828  -5.683  32.205  1.00  0.00     0.161 HD
ENDROOT
BRANCH   1   3
HETATM    3  C4  UNL     1      15.515  -6.155  30.163  1.00  0.00     0.192 C 
HETATM    4  N3  UNL     1      14.837  -5.247  29.562  1.00  0.00    -0.248 N 
ATOM      5  H3  UNL     1      14.280  -5.487  28.741  1.00  0.00     0.196 HD
BRANCH   3   6
HETATM    6  C3  UNL     1      15.502  -7.543  29.687  1.00  0.00     0.305 C 
HETATM    7  N2  UNL     1      14.587  -8.501  30.167  1.00  0.00    -0.264 N 
ATOM      8  H2  UNL     1      13.900  -8.236  30.873  1.00  0.00     0.190 HD
HETATM    9  O1  UNL     1      16.339  -7.891  28.818  1.00  0.00    -0.263 OA
BRANCH   7  10
HETATM   10  N1  UNL     1      14.613  -9.805  29.685  1.00  0.00    -0.313 N 
HETATM   11  C2  UNL     1      14.748 -10.842  30.423  1.00  0.00     0.076 C 
HETATM   12  C1  UNL     1      14.762 -12.182  29.801  1.00  0.00     0.056 C 
ATOM     13  H1  UNL     1      14.518  -9.944  28.679  1.00  0.00     0.185 HD
ENDBRANCH   7  10
ENDBRANCH   3   6
BRANCH   4  14
HETATM   14  O2  UNL     1      14.861  -3.957  30.019  1.00  0.00    -0.288 OA
ATOM     15  H2  UNL     1      14.830  -3.781  30.952  1.00  0.00     0.244 HD
ENDBRANCH   4  14
ENDBRANCH   1   3
BRANCH   1  16
HETATM   16  C5  UNL     1      17.682  -5.601  31.144  1.00  0.00     0.127 C 
BRANCH  16  17
HETATM   17  C6  UNL     1      18.510  -6.611  31.900  1.00  0.00     0.021 C 
HETATM   18  C7  UNL     1      17.719  -6.892  33.185  1.00  0.00     0.009 C 
HETATM   19  C8  UNL     1      18.445  -7.904  34.035  1.00  0.00     0.020 C 
HETATM   20  C9  UNL     1      19.814  -7.449  34.378  1.00  0.00     0.127 C 
HETATM   21  N5  UNL     1      20.494  -6.697  33.365  1.00  0.00    -0.334 N 
HETATM   22  C10 UNL     1      21.891  -6.485  33.553  1.00  0.00     0.317 C 
HETATM   23  C12 UNL     1      19.892  -6.146  32.192  1.00  0.00     0.133 C 
HETATM   24  O3  UNL     1      22.513  -6.941  34.571  1.00  0.00    -0.247 OA
HETATM   25  N6  UNL     1      22.667  -5.748  32.603  1.00  0.00    -0.347 N 
HETATM   26  C11 UNL     1      24.082  -5.533  32.793  1.00  0.00     0.151 C 
ATOM     27  H6  UNL     1      22.210  -5.366  31.774  1.00  0.00     0.163 HD
ENDBRANCH  16  17
ENDBRANCH   1  16
TORSDOF 6
ENDMDL
MODEL 3
REMARK VINA RESULT: -6.034298642      2.580      6.756
REMARK  6 active torsions:
REMARK  status: ('A' for Active; 'I' for Inactive)
REMARK    1  A    between atoms: N1_3  and  N2_5 
REMARK       I    between atoms: N2_5  and  C3_7 
REMARK    2  A    between atoms: C3_7  and  C4_9 
REMARK    3  A    between atoms: C4_9  and  N4_14 
REMARK    4  A    between atoms: N3_10  and  O2_12 
REMARK    5  A    between atoms: N4_14  and  C5_16 
REMARK    6  A    between atoms: C5_16  and  C6_17 
REMARK       I    between atoms: N5_21  and  C10_22 
REMARK       I    between atoms: C10_22  and  N6_24 
ROOT
HETATM    1  N4  UNL     1      17.088  -5.280  31.715  1.00  0.00    -0.370 N 
ATOM      2  H4  UNL     1      17.266  -4.809  32.601  1.00  0.00     0.161 HD
ENDROOT
BRANCH   1   3
HETATM    3  C4  UNL     1      15.819  -5.208  31.105  1.00  0.00     0.192 C 
HETATM    4  N3  UNL     1      15.476  -4.122  30.517  1.00  0.00    -0.248 N 
ATOM      5  H3  UNL     1      14.561  -4.051  30.072  1.00  0.00     0.196 HD
BRANCH   3   6
HETATM    6  C3  UNL     1      14.910  -6.360  31.149  1.00  0.00     0.305 C 
HETATM    7  N2  UNL     1      15.341  -7.676  30.885  1.00  0.00    -0.264 N 
ATOM      8  H2  UNL     1      16.318  -7.852  30.652  1.00  0.00     0.190 HD
HETATM    9  O1  UNL     1      13.702  -6.166  31.433  1.00  0.00    -0.263 OA
BRANCH   7  10
HETATM   10  N1  UNL     1      14.442  -8.736  30.939  1.00  0.00    -0.313 N 
HETATM   11  C2  UNL     1      14.497  -9.682  31.799  1.00  0.00     0.076 C 
HETATM   12  C1  UNL     1      13.488 -10.759  31.763  1.00  0.00     0.056 C 
ATOM     13  H1  UNL     1      13.691  -8.761  30.250  1.00  0.00     0.185 HD
ENDBRANCH   7  10
ENDBRANCH   3   6
BRANCH   4  14
HETATM   14  O2  UNL     1      16.336  -3.057  30.486  1.00  0.00    -0.288 OA
ATOM     15  H2  UNL     1      17.231  -3.158  30.786  1.00  0.00     0.244 HD
ENDBRANCH   4  14
ENDBRANCH   1   3
BRANCH   1  16
HETATM   16  C5  UNL     1      18.120  -6.026  31.066  1.00  0.00     0.127 C 
BRANCH  16  17
HETATM   17  C6  UNL     1      18.923  -6.882  32.015  1.00  0.00     0.021 C 
HETATM   18  C7  UNL     1      18.131  -6.868  33.329  1.00  0.00     0.009 C 
HETATM   19  C8  UNL     1      18.832  -7.704  34.371  1.00  0.00     0.020 C 
HETATM   20  C9  UNL     1      20.216  -7.228  34.613  1.00  0.00     0.127 C 
HETATM   21  N5  UNL     1      20.912  -6.722  33.467  1.00  0.00    -0.334 N 
HETATM   22  C10 UNL     1      22.315  -6.517  33.609  1.00  0.00     0.317 C 
HETATM   23  C12 UNL     1      20.320  -6.407  32.205  1.00  0.00     0.133 C 
HETATM   24  O3  UNL     1      22.930  -6.770  34.699  1.00  0.00    -0.247 OA
HETATM   25  N6  UNL     1      23.107  -6.014  32.526  1.00  0.00    -0.347 N 
HETATM   26  C11 UNL     1      24.528  -5.807  32.669  1.00  0.00     0.151 C 
ATOM     27  H6  UNL     1      22.657  -5.799  31.637  1.00  0.00     0.163 HD
ENDBRANCH  16  17
ENDBRANCH   1  16
TORSDOF 6
ENDMDL
MODEL 4
REMARK VINA RESULT: -5.984278228      1.552      2.152
REMARK  6 active torsions:
REMARK  status: ('A' for Active; 'I' for Inactive)
REMARK    1  A    between atoms: N1_3  and  N2_5 
REMARK       I    between atoms: N2_5  and  C3_7 
REMARK    2  A    between atoms: C3_7  and  C4_9 
REMARK    3  A    between atoms: C4_9  and  N4_14 
REMARK    4  A    between atoms: N3_10  and  O2_12 
REMARK    5  A    between atoms: N4_14  and  C5_16 
REMARK    6  A    between atoms: C5_16  and  C6_17 
REMARK       I    between atoms: N5_21  and  C10_22 
REMARK       I    between atoms: C10_22  and  N6_24 
ROOT
HETATM    1  N4  UNL     1      17.100  -5.457  30.787  1.00  0.00    -0.370 N 
ATOM      2  H4  UNL     1      17.558  -4.681  30.308  1.00  0.00     0.161 HD
ENDROOT
BRANCH   1   3
HETATM    3  C4  UNL     1      17.555  -5.892  32.049  1.00  0.00     0.192 C 
HETATM    4  N3  UNL     1      16.815  -5.688  33.076  1.00  0.00    -0.248 N 
ATOM      5  H3  UNL     1      17.128  -5.994  33.998  1.00  0.00     0.196 HD
BRANCH   3   6
HETATM    6  C3  UNL     1      18.854  -6.563  32.177  1.00  0.00     0.305 C 
HETATM    7  N2  UNL     1      19.942  -5.983  32.857  1.00  0.00    -0.264 N 
ATOM      8  H2  UNL     1      19.842  -5.062  33.283  1.00  0.00     0.190 HD
HETATM    9  O1  UNL     1      19.000  -7.698  31.660  1.00  0.00    -0.263 OA
BRANCH   7  10
HETATM   10  N1  UNL     1      21.154  -6.658  32.953  1.00  0.00    -0.313 N 
HETATM   11  C2  UNL     1      22.300  -6.088  32.932  1.00  0.00     0.076 C 
HETATM   12  C1  UNL     1      23.524  -6.906  33.042  1.00  0.00     0.056 C 
ATOM     13  H1  UNL     1      21.129  -7.674  33.047  1.00  0.00     0.185 HD
ENDBRANCH   7  10
ENDBRANCH   3   6
BRANCH   4  14
HETATM   14  O2  UNL     1      15.606  -5.060  32.939  1.00  0.00    -0.288 OA
ATOM     15  H2  UNL     1      15.472  -4.196  33.309  1.00  0.00     0.244 HD
ENDBRANCH   4  14
ENDBRANCH   1   3
BRANCH   1  16
HETATM   16  C5  UNL     1      15.985  -6.124  30.191  1.00  0.00     0.127 C 
BRANCH  16  17
HETATM   17  C6  UNL     1      16.135  -7.625  30.161  1.00  0.00     0.021 C 
HETATM   18  C7  UNL     1      16.270  -7.981  28.675  1.00  0.00     0.009 C 
HETATM   19  C8  UNL     1      16.435  -9.471  28.507  1.00  0.00     0.020 C 
HETATM   20  C9  UNL     1      15.300 -10.218  29.101  1.00  0.00     0.127 C 
HETATM   21  N5  UNL     1      14.740  -9.657  30.296  1.00  0.00    -0.334 N 
HETATM   22  C10 UNL     1      13.844 -10.484  31.033  1.00  0.00     0.317 C 
HETATM   23  C12 UNL     1      15.004  -8.347  30.803  1.00  0.00     0.133 C 
HETATM   24  O3  UNL     1      13.550 -11.668  30.655  1.00  0.00    -0.247 OA
HETATM   25  N6  UNL     1      13.228 -10.022  32.240  1.00  0.00    -0.347 N 
HETATM   26  C11 UNL     1      12.320 -10.859  32.988  1.00  0.00     0.151 C 
ATOM     27  H6  UNL     1      13.435  -9.083  32.579  1.00  0.00     0.163 HD
ENDBRANCH  16  17
ENDBRANCH   1  16
TORSDOF 6
ENDMDL
MODEL 5
REMARK VINA RESULT: -5.755504882      3.065      5.029
REMARK  6 active torsions:
REMARK  status: ('A' for Active; 'I' for Inactive)
REMARK    1  A    between atoms: N1_3  and  N2_5 
REMARK       I    between atoms: N2_5  and  C3_7 
REMARK    2  A    between atoms: C3_7  and  C4_9 
REMARK    3  A    between atoms: C4_9  and  N4_14 
REMARK    4  A    between atoms: N3_10  and  O2_12 
REMARK    5  A    between atoms: N4_14  and  C5_16 
REMARK    6  A    between atoms: C5_16  and  C6_17 
REMARK       I    between atoms: N5_21  and  C10_22 
REMARK       I    between atoms: C10_22  and  N6_24 
ROOT
HETATM    1  N4  UNL     1      19.551  -6.500  32.177  1.00  0.00    -0.370 N 
ATOM      2  H4  UNL     1      19.883  -6.691  31.232  1.00  0.00     0.161 HD
ENDROOT
BRANCH   1   3
HETATM    3  C4  UNL     1      20.312  -6.889  33.298  1.00  0.00     0.192 C 
HETATM    4  N3  UNL     1      19.759  -7.616  34.199  1.00  0.00    -0.248 N 
ATOM      5  H3  UNL     1      20.294  -7.906  35.018  1.00  0.00     0.196 HD
BRANCH   3   6
HETATM    6  C3  UNL     1      21.711  -6.465  33.426  1.00  0.00     0.305 C 
HETATM    7  N2  UNL     1      22.149  -5.595  34.445  1.00  0.00    -0.264 N 
ATOM      8  H2  UNL     1      21.481  -5.238  35.128  1.00  0.00     0.190 HD
HETATM    9  O1  UNL     1      22.550  -6.893  32.596  1.00  0.00    -0.263 OA
BRANCH   7  10
HETATM   10  N1  UNL     1      23.486  -5.222  34.526  1.00  0.00    -0.313 N 
HETATM   11  C2  UNL     1      23.949  -4.107  34.101  1.00  0.00     0.076 C 
HETATM   12  C1  UNL     1      25.390  -3.815  34.240  1.00  0.00     0.056 C 
ATOM     13  H1  UNL     1      24.140  -5.878  34.953  1.00  0.00     0.185 HD
ENDBRANCH   7  10
ENDBRANCH   3   6
BRANCH   4  14
HETATM   14  O2  UNL     1      18.453  -8.003  34.063  1.00  0.00    -0.288 OA
ATOM     15  H2  UNL     1      18.197  -8.896  34.262  1.00  0.00     0.244 HD
ENDBRANCH   4  14
ENDBRANCH   1   3
BRANCH   1  16
HETATM   16  C5  UNL     1      18.305  -5.832  32.390  1.00  0.00     0.127 C 
BRANCH  16  17
HETATM   17  C6  UNL     1      17.421  -5.815  31.168  1.00  0.00     0.021 C 
HETATM   18  C7  UNL     1      16.402  -4.698  31.431  1.00  0.00     0.009 C 
HETATM   19  C8  UNL     1      15.453  -4.571  30.266  1.00  0.00     0.020 C 
HETATM   20  C9  UNL     1      14.742  -5.844  29.998  1.00  0.00     0.127 C 
HETATM   21  N5  UNL     1      15.501  -7.041  30.219  1.00  0.00    -0.334 N 
HETATM   22  C10 UNL     1      14.947  -8.253  29.715  1.00  0.00     0.317 C 
HETATM   23  C12 UNL     1      16.756  -7.118  30.898  1.00  0.00     0.133 C 
HETATM   24  O3  UNL     1      13.830  -8.281  29.094  1.00  0.00    -0.247 OA
HETATM   25  N6  UNL     1      15.621  -9.505  29.880  1.00  0.00    -0.347 N 
HETATM   26  C11 UNL     1      15.060 -10.734  29.369  1.00  0.00     0.151 C 
ATOM     27  H6  UNL     1      16.515  -9.530  30.369  1.00  0.00     0.163 HD
ENDBRANCH  16  17
ENDBRANCH   1  16
TORSDOF 6
ENDMDL
