MODEL 1
REMARK VINA RESULT: -6.585455579      0.000      0.000
REMARK  6 active torsions:
REMARK  status: ('A' for Active; 'I' for Inactive)
REMARK       I    between atoms: N2_3  and  C2_5 
REMARK    1  A    between atoms: N4_7  and  N5_9 
REMARK    2  A    between atoms: N5_9  and  C3_10 
REMARK    3  A    between atoms: C3_10  and  O1_11 
REMARK    4  A    between atoms: C3_10  and  C4_13 
REMARK    5  A    between atoms: C7_16  and  C8_17 
REMARK    6  A    between atoms: C9_18  and  C11_21 
ROOT
HETATM    1  N1  UNL     1      25.868  -0.095  34.763  1.00  0.00    -0.172 NA
HETATM    2  C1  UNL     1      25.039  -0.823  34.415  1.00  0.00     0.184 C 
HETATM    3  N2  UNL     1      24.024  -1.697  34.014  1.00  0.00    -0.266 N 
ATOM      4  H2  UNL     1      23.133  -1.299  33.716  1.00  0.00     0.180 HD
HETATM    5  C2  UNL     1      24.168  -3.110  34.001  1.00  0.00     0.227 C 
HETATM    6  N3  UNL     1      25.414  -3.741  33.733  1.00  0.00    -0.060 NA
HETATM    7  N4  UNL     1      23.160  -3.856  34.232  1.00  0.00    -0.203 N 
ATOM      8  H4  UNL     1      22.324  -3.299  34.409  1.00  0.00     0.205 HD
ENDROOT
BRANCH   7   9
HETATM    9  N5  UNL     1      22.905  -5.095  34.304  1.00  0.00    -0.297 NA
BRANCH   9  10
HETATM   10  C3  UNL     1      22.514  -6.193  34.385  1.00  0.00     0.248 C 
BRANCH  10  11
HETATM   11  O1  UNL     1      23.274  -7.204  35.030  1.00  0.00    -0.333 OA
ATOM     12  H1  UNL     1      23.317  -8.088  34.685  1.00  0.00     0.220 HD
ENDBRANCH  10  11
BRANCH  10  13
HETATM   13  C4  UNL     1      21.206  -6.594  33.820  1.00  0.00     0.031 A 
HETATM   14  C5  UNL     1      20.172  -7.018  34.606  1.00  0.00     0.018 A 
HETATM   15  C6  UNL     1      18.958  -7.383  34.074  1.00  0.00     0.012 A 
HETATM   16  C7  UNL     1      18.726  -7.341  32.720  1.00  0.00    -0.035 A 
HETATM   17  C12 UNL     1      19.779  -6.908  31.914  1.00  0.00     0.012 A 
HETATM   18  C13 UNL     1      20.978  -6.548  32.466  1.00  0.00     0.018 A 
BRANCH  16  19
HETATM   19  C8  UNL     1      17.483  -7.731  32.076  1.00  0.00     0.039 C 
HETATM   20  C9  UNL     1      16.556  -6.872  31.803  1.00  0.00     0.110 C 
HETATM   21  C10 UNL     1      16.669  -5.496  32.107  1.00  0.00     0.104 C 
HETATM   22  N6  UNL     1      16.732  -4.353  32.365  1.00  0.00    -0.191 NA
BRANCH  20  23
HETATM   23  C11 UNL     1      15.339  -7.398  31.139  1.00  0.00     0.275 C 
HETATM   24  N7  UNL     1      14.159  -6.632  31.306  1.00  0.00    -0.057 NA
HETATM   25  O2  UNL     1      15.374  -8.461  30.472  1.00  0.00    -0.270 OA
ENDBRANCH  20  23
ENDBRANCH  16  19
ENDBRANCH  10  13
ENDBRANCH   9  10
ENDBRANCH   7   9
TORSDOF 6
ENDMDL
MODEL 2
REMARK VINA RESULT: -6.521162484      0.877      1.130
REMARK  6 active torsions:
REMARK  status: ('A' for Active; 'I' for Inactive)
REMARK       I    between atoms: N2_3  and  C2_5 
REMARK    1  A    between atoms: N4_7  and  N5_9 
REMARK    2  A    between atoms: N5_9  and  C3_10 
REMARK    3  A    between atoms: C3_10  and  O1_11 
REMARK    4  A    between atoms: C3_10  and  C4_13 
REMARK    5  A    between atoms: C7_16  and  C8_17 
REMARK    6  A    between atoms: C9_18  and  C11_21 
ROOT
HETATM    1  N1  UNL     1      23.969   0.616  32.555  1.00  0.00    -0.172 NA
HETATM    2  C1  UNL     1      24.194  -0.387  33.087  1.00  0.00     0.184 C 
HETATM    3  N2  UNL     1      24.476  -1.606  33.708  1.00  0.00    -0.266 N 
ATOM      4  H2  UNL     1      25.448  -1.824  33.927  1.00  0.00     0.180 HD
HETATM    5  C2  UNL     1      23.480  -2.559  34.051  1.00  0.00     0.227 C 
HETATM    6  N3  UNL     1      22.163  -2.175  34.428  1.00  0.00    -0.060 NA
HETATM    7  N4  UNL     1      23.753  -3.804  34.029  1.00  0.00    -0.203 N 
ATOM      8  H4  UNL     1      24.721  -3.962  33.747  1.00  0.00     0.205 HD
ENDROOT
BRANCH   7   9
HETATM    9  N5  UNL     1      23.161  -4.900  34.258  1.00  0.00    -0.297 NA
BRANCH   9  10
HETATM   10  C3  UNL     1      22.757  -5.982  34.434  1.00  0.00     0.248 C 
BRANCH  10  11
HETATM   11  O1  UNL     1      23.492  -6.934  35.189  1.00  0.00    -0.333 OA
ATOM     12  H1  UNL     1      24.013  -7.606  34.766  1.00  0.00     0.220 HD
ENDBRANCH  10  11
BRANCH  10  13
HETATM   13  C4  UNL     1      21.456  -6.424  33.883  1.00  0.00     0.031 A 
HETATM   14  C5  UNL     1      20.471  -6.949  34.669  1.00  0.00     0.018 A 
HETATM   15  C6  UNL     1      19.263  -7.351  34.151  1.00  0.00     0.012 A 
HETATM   16  C7  UNL     1      18.988  -7.245  32.808  1.00  0.00    -0.035 A 
HETATM   17  C12 UNL     1      19.992  -6.709  32.000  1.00  0.00     0.012 A 
HETATM   18  C13 UNL     1      21.185  -6.314  32.540  1.00  0.00     0.018 A 
BRANCH  16  19
HETATM   19  C8  UNL     1      17.750  -7.668  32.176  1.00  0.00     0.039 C 
HETATM   20  C9  UNL     1      16.794  -6.835  31.922  1.00  0.00     0.110 C 
HETATM   21  C10 UNL     1      16.868  -5.458  32.237  1.00  0.00     0.104 C 
HETATM   22  N6  UNL     1      16.900  -4.317  32.505  1.00  0.00    -0.191 NA
BRANCH  20  23
HETATM   23  C11 UNL     1      15.585  -7.392  31.269  1.00  0.00     0.275 C 
HETATM   24  N7  UNL     1      14.405  -6.615  31.377  1.00  0.00    -0.057 NA
HETATM   25  O2  UNL     1      15.626  -8.489  30.659  1.00  0.00    -0.270 OA
ENDBRANCH  20  23
ENDBRANCH  16  19
ENDBRANCH  10  13
ENDBRANCH   9  10
ENDBRANCH   7   9
TORSDOF 6
ENDMDL
MODEL 3
REMARK VINA RESULT: -6.482389874      2.217      2.821
REMARK  6 active torsions:
REMARK  status: ('A' for Active; 'I' for Inactive)
REMARK       I    between atoms: N2_3  and  C2_5 
REMARK    1  A    between atoms: N4_7  and  N5_9 
REMARK    2  A    between atoms: N5_9  and  C3_10 
REMARK    3  A    between atoms: C3_10  and  O1_11 
REMARK    4  A    between atoms: C3_10  and  C4_13 
REMARK    5  A    between atoms: C7_16  and  C8_17 
REMARK    6  A    between atoms: C9_18  and  C11_21 
ROOT
HETATM    1  N1  UNL     1      26.441  -4.479  28.676  1.00  0.00    -0.172 NA
HETATM    2  C1  UNL     1      26.171  -5.142  29.585  1.00  0.00     0.184 C 
HETATM    3  N2  UNL     1      25.830  -5.958  30.668  1.00  0.00    -0.266 N 
ATOM      4  H2  UNL     1      26.204  -6.907  30.694  1.00  0.00     0.180 HD
HETATM    5  C2  UNL     1      24.991  -5.536  31.733  1.00  0.00     0.227 C 
HETATM    6  N3  UNL     1      24.957  -4.186  32.179  1.00  0.00    -0.060 NA
HETATM    7  N4  UNL     1      24.237  -6.377  32.323  1.00  0.00    -0.203 N 
ATOM      8  H4  UNL     1      24.343  -7.309  31.922  1.00  0.00     0.205 HD
ENDROOT
BRANCH   7   9
HETATM    9  N5  UNL     1      23.391  -6.381  33.266  1.00  0.00    -0.297 NA
BRANCH   9  10
HETATM   10  C3  UNL     1      22.499  -6.391  34.020  1.00  0.00     0.248 C 
BRANCH  10  11
HETATM   11  O1  UNL     1      22.688  -6.101  35.397  1.00  0.00    -0.333 OA
ATOM     12  H1  UNL     1      22.017  -5.666  35.909  1.00  0.00     0.220 HD
ENDBRANCH  10  11
BRANCH  10  13
HETATM   13  C4  UNL     1      21.119  -6.705  33.584  1.00  0.00     0.031 A 
HETATM   14  C5  UNL     1      20.146  -7.085  34.464  1.00  0.00     0.018 A 
HETATM   15  C6  UNL     1      18.865  -7.369  34.053  1.00  0.00     0.012 A 
HETATM   16  C7  UNL     1      18.502  -7.285  32.729  1.00  0.00    -0.035 A 
HETATM   17  C12 UNL     1      19.493  -6.898  31.827  1.00  0.00     0.012 A 
HETATM   18  C13 UNL     1      20.760  -6.619  32.260  1.00  0.00     0.018 A 
BRANCH  16  19
HETATM   19  C8  UNL     1      17.180  -7.591  32.209  1.00  0.00     0.039 C 
HETATM   20  C9  UNL     1      16.332  -6.661  31.910  1.00  0.00     0.110 C 
HETATM   21  C10 UNL     1      16.613  -5.284  32.066  1.00  0.00     0.104 C 
HETATM   22  N6  UNL     1      16.817  -4.137  32.203  1.00  0.00    -0.191 NA
BRANCH  20  23
HETATM   23  C11 UNL     1      15.020  -7.105  31.381  1.00  0.00     0.275 C 
HETATM   24  N7  UNL     1      14.938  -8.463  30.981  1.00  0.00    -0.057 NA
HETATM   25  O2  UNL     1      14.051  -6.311  31.301  1.00  0.00    -0.270 OA
ENDBRANCH  20  23
ENDBRANCH  16  19
ENDBRANCH  10  13
ENDBRANCH   9  10
ENDBRANCH   7   9
TORSDOF 6
ENDMDL
MODEL 4
REMARK VINA RESULT: -6.444339107      0.747      1.231
REMARK  6 active torsions:
REMARK  status: ('A' for Active; 'I' for Inactive)
REMARK       I    between atoms: N2_3  and  C2_5 
REMARK    1  A    between atoms: N4_7  and  N5_9 
REMARK    2  A    between atoms: N5_9  and  C3_10 
REMARK    3  A    between atoms: C3_10  and  O1_11 
REMARK    4  A    between atoms: C3_10  and  C4_13 
REMARK    5  A    between atoms: C7_16  and  C8_17 
REMARK    6  A    between atoms: C9_18  and  C11_21 
ROOT
HETATM    1  N1  UNL     1      26.070  -0.309  34.752  1.00  0.00    -0.172 NA
HETATM    2  C1  UNL     1      25.188  -0.982  34.421  1.00  0.00     0.184 C 
HETATM    3  N2  UNL     1      24.111  -1.788  34.043  1.00  0.00    -0.266 N 
ATOM      4  H2  UNL     1      23.237  -1.334  33.777  1.00  0.00     0.180 HD
HETATM    5  C2  UNL     1      24.169  -3.207  34.010  1.00  0.00     0.227 C 
HETATM    6  N3  UNL     1      25.366  -3.909  33.698  1.00  0.00    -0.060 NA
HETATM    7  N4  UNL     1      23.125  -3.894  34.264  1.00  0.00    -0.203 N 
ATOM      8  H4  UNL     1      22.330  -3.290  34.473  1.00  0.00     0.205 HD
ENDROOT
BRANCH   7   9
HETATM    9  N5  UNL     1      22.798  -5.116  34.331  1.00  0.00    -0.297 NA
BRANCH   9  10
HETATM   10  C3  UNL     1      22.348  -6.190  34.428  1.00  0.00     0.248 C 
BRANCH  10  11
HETATM   11  O1  UNL     1      23.012  -7.208  35.162  1.00  0.00    -0.333 OA
ATOM     12  H1  UNL     1      22.625  -8.067  35.279  1.00  0.00     0.220 HD
ENDBRANCH  10  11
BRANCH  10  13
HETATM   13  C4  UNL     1      21.059  -6.551  33.795  1.00  0.00     0.031 A 
HETATM   14  C5  UNL     1      20.743  -6.175  32.521  1.00  0.00     0.018 A 
HETATM   15  C6  UNL     1      19.547  -6.519  31.937  1.00  0.00     0.012 A 
HETATM   16  C7  UNL     1      18.607  -7.263  32.612  1.00  0.00    -0.035 A 
HETATM   17  C12 UNL     1      18.927  -7.650  33.913  1.00  0.00     0.012 A 
HETATM   18  C13 UNL     1      20.124  -7.296  34.473  1.00  0.00     0.018 A 
BRANCH  16  19
HETATM   19  C8  UNL     1      17.312  -7.648  32.079  1.00  0.00     0.039 C 
HETATM   20  C9  UNL     1      16.398  -6.775  31.806  1.00  0.00     0.110 C 
HETATM   21  C10 UNL     1      16.576  -5.387  32.005  1.00  0.00     0.104 C 
HETATM   22  N6  UNL     1      16.694  -4.233  32.178  1.00  0.00    -0.191 NA
BRANCH  20  23
HETATM   23  C11 UNL     1      15.123  -7.299  31.261  1.00  0.00     0.275 C 
HETATM   24  N7  UNL     1      15.178  -8.591  30.680  1.00  0.00    -0.057 NA
HETATM   25  O2  UNL     1      14.066  -6.622  31.319  1.00  0.00    -0.270 OA
ENDBRANCH  20  23
ENDBRANCH  16  19
ENDBRANCH  10  13
ENDBRANCH   9  10
ENDBRANCH   7   9
TORSDOF 6
ENDMDL
MODEL 5
REMARK VINA RESULT: -6.340469812      0.926      1.550
REMARK  6 active torsions:
REMARK  status: ('A' for Active; 'I' for Inactive)
REMARK       I    between atoms: N2_3  and  C2_5 
REMARK    1  A    between atoms: N4_7  and  N5_9 
REMARK    2  A    between atoms: N5_9  and  C3_10 
REMARK    3  A    between atoms: C3_10  and  O1_11 
REMARK    4  A    between atoms: C3_10  and  C4_13 
REMARK    5  A    between atoms: C7_16  and  C8_17 
REMARK    6  A    between atoms: C9_18  and  C11_21 
ROOT
HETATM    1  N1  UNL     1      23.769   0.721  32.555  1.00  0.00    -0.172 NA
HETATM    2  C1  UNL     1      24.033  -0.280  33.072  1.00  0.00     0.184 C 
HETATM    3  N2  UNL     1      24.362  -1.497  33.676  1.00  0.00    -0.266 N 
ATOM      4  H2  UNL     1      25.347  -1.703  33.843  1.00  0.00     0.180 HD
HETATM    5  C2  UNL     1      23.397  -2.463  34.067  1.00  0.00     0.227 C 
HETATM    6  N3  UNL     1      22.097  -2.096  34.512  1.00  0.00    -0.060 NA
HETATM    7  N4  UNL     1      23.684  -3.704  34.028  1.00  0.00    -0.203 N 
ATOM      8  H4  UNL     1      24.638  -3.849  33.696  1.00  0.00     0.205 HD
ENDROOT
BRANCH   7   9
HETATM    9  N5  UNL     1      23.119  -4.808  34.285  1.00  0.00    -0.297 NA
BRANCH   9  10
HETATM   10  C3  UNL     1      22.719  -5.895  34.439  1.00  0.00     0.248 C 
BRANCH  10  11
HETATM   11  O1  UNL     1      23.438  -6.846  35.211  1.00  0.00    -0.333 OA
ATOM     12  H1  UNL     1      23.835  -7.610  34.811  1.00  0.00     0.220 HD
ENDBRANCH  10  11
BRANCH  10  13
HETATM   13  C4  UNL     1      21.442  -6.345  33.841  1.00  0.00     0.031 A 
HETATM   14  C5  UNL     1      21.167  -6.197  32.512  1.00  0.00     0.018 A 
HETATM   15  C6  UNL     1      19.981  -6.622  31.962  1.00  0.00     0.012 A 
HETATM   16  C7  UNL     1      19.009  -7.219  32.730  1.00  0.00    -0.035 A 
HETATM   17  C12 UNL     1      19.285  -7.372  34.088  1.00  0.00     0.012 A 
HETATM   18  C13 UNL     1      20.473  -6.942  34.612  1.00  0.00     0.018 A 
BRANCH  16  19
HETATM   19  C8  UNL     1      17.721  -7.674  32.234  1.00  0.00     0.039 C 
HETATM   20  C9  UNL     1      16.771  -6.848  31.940  1.00  0.00     0.110 C 
HETATM   21  C10 UNL     1      16.900  -5.447  32.078  1.00  0.00     0.104 C 
HETATM   22  N6  UNL     1      16.978  -4.282  32.200  1.00  0.00    -0.191 NA
BRANCH  20  23
HETATM   23  C11 UNL     1      15.508  -7.441  31.438  1.00  0.00     0.275 C 
HETATM   24  N7  UNL     1      14.370  -6.596  31.466  1.00  0.00    -0.057 NA
HETATM   25  O2  UNL     1      15.470  -8.623  31.017  1.00  0.00    -0.270 OA
ENDBRANCH  20  23
ENDBRANCH  16  19
ENDBRANCH  10  13
ENDBRANCH   9  10
ENDBRANCH   7   9
TORSDOF 6
ENDMDL
