MODEL 1
REMARK VINA RESULT: -5.537443301      0.000      0.000
REMARK  8 active torsions:
REMARK  status: ('A' for Active; 'I' for Inactive)
REMARK    1  A    between atoms: C2_2  and  C5_5 
REMARK    2  A    between atoms: C5_5  and  N1_6 
REMARK    3  A    between atoms: C5_5  and  C15_24 
REMARK       I    between atoms: N1_6  and  C6_8 
REMARK    4  A    between atoms: C6_8  and  C7_10 
REMARK    5  A    between atoms: C7_10  and  C8_11 
REMARK    6  A    between atoms: C7_10  and  N2_15 
REMARK    7  A    between atoms: C8_11  and  C9_12 
REMARK       I    between atoms: N2_15  and  C10_17 
REMARK    8  A    between atoms: C10_17  and  C11_19 
ROOT
HETATM    1  C7  UNL     1      66.962  16.497  51.838  1.00  0.00     0.187 C 
ENDROOT
BRANCH   1   2
HETATM    2  C6  UNL     1      67.339  15.126  52.239  1.00  0.00     0.241 C 
HETATM    3  N1  UNL     1      67.147  13.991  51.422  1.00  0.00    -0.344 N 
ATOM      4  H1  UNL     1      66.724  14.139  50.506  1.00  0.00     0.163 HD
HETATM    5  O1  UNL     1      67.858  14.965  53.368  1.00  0.00    -0.271 OA
BRANCH   3   6
HETATM    6  C5  UNL     1      67.500  12.643  51.778  1.00  0.00     0.193 C 
BRANCH   6   7
HETATM    7  C2  UNL     1      68.088  11.872  50.617  1.00  0.00    -0.021 C 
HETATM    8  C1  UNL     1      69.323  11.162  51.123  1.00  0.00     0.017 C 
HETATM    9  C3  UNL     1      67.158  10.839  50.060  1.00  0.00     0.017 C 
HETATM   10  C4  UNL     1      68.574  12.832  49.529  1.00  0.00     0.017 C 
ENDBRANCH   6   7
BRANCH   6  11
HETATM   11  C15 UNL     1      66.273  11.945  52.214  1.00  0.00     0.197 C 
HETATM   12  O6  UNL     1      65.139  12.420  51.907  1.00  0.00    -0.646 OA
HETATM   13  O7  UNL     1      66.236  10.776  52.955  1.00  0.00    -0.646 OA
ENDBRANCH   6  11
ENDBRANCH   3   6
ENDBRANCH   1   2
BRANCH   1  14
HETATM   14  C8  UNL     1      65.645  16.926  52.436  1.00  0.00     0.147 C 
BRANCH  14  15
HETATM   15  C9  UNL     1      64.651  17.312  51.433  1.00  0.00     0.175 C 
HETATM   16  O2  UNL     1      64.389  18.508  51.127  1.00  0.00    -0.648 OA
HETATM   17  O3  UNL     1      63.929  16.334  50.754  1.00  0.00    -0.648 OA
ENDBRANCH  14  15
ENDBRANCH   1  14
BRANCH   1  18
HETATM   18  N2  UNL     1      66.969  16.673  50.407  1.00  0.00    -0.342 N 
HETATM   19  C10 UNL     1      67.751  17.679  49.765  1.00  0.00     0.276 C 
HETATM   20  O4  UNL     1      68.479  18.466  50.430  1.00  0.00    -0.265 OA
ATOM     21  H2  UNL     1      66.394  16.056  49.833  1.00  0.00     0.163 HD
BRANCH  19  22
HETATM   22  C11 UNL     1      67.735  17.831  48.327  1.00  0.00     0.142 A 
HETATM   23  C12 UNL     1      66.634  17.798  47.516  1.00  0.00     0.045 A 
HETATM   24  C13 UNL     1      67.057  17.983  46.217  1.00  0.00     0.027 A 
HETATM   25  C14 UNL     1      68.423  18.124  46.306  1.00  0.00     0.143 A 
HETATM   26  O5  UNL     1      68.789  18.028  47.568  1.00  0.00    -0.317 OA
ENDBRANCH  19  22
ENDBRANCH   1  18
TORSDOF 8
ENDMDL
MODEL 2
REMARK VINA RESULT: -5.534800642      1.849      6.213
REMARK  8 active torsions:
REMARK  status: ('A' for Active; 'I' for Inactive)
REMARK    1  A    between atoms: C2_2  and  C5_5 
REMARK    2  A    between atoms: C5_5  and  N1_6 
REMARK    3  A    between atoms: C5_5  and  C15_24 
REMARK       I    between atoms: N1_6  and  C6_8 
REMARK    4  A    between atoms: C6_8  and  C7_10 
REMARK    5  A    between atoms: C7_10  and  C8_11 
REMARK    6  A    between atoms: C7_10  and  N2_15 
REMARK    7  A    between atoms: C8_11  and  C9_12 
REMARK       I    between atoms: N2_15  and  C10_17 
REMARK    8  A    between atoms: C10_17  and  C11_19 
ROOT
HETATM    1  C7  UNL     1      65.674  14.418  51.742  1.00  0.00     0.187 C 
ENDROOT
BRANCH   1   2
HETATM    2  C6  UNL     1      65.505  15.805  51.263  1.00  0.00     0.241 C 
HETATM    3  N1  UNL     1      66.584  16.672  50.984  1.00  0.00    -0.344 N 
ATOM      4  H1  UNL     1      67.526  16.309  51.124  1.00  0.00     0.163 HD
HETATM    5  O1  UNL     1      64.340  16.233  51.097  1.00  0.00    -0.271 OA
BRANCH   3   6
HETATM    6  C5  UNL     1      66.460  18.027  50.519  1.00  0.00     0.193 C 
BRANCH   6   7
HETATM    7  C2  UNL     1      67.149  18.248  49.190  1.00  0.00    -0.021 C 
HETATM    8  C1  UNL     1      66.115  18.787  48.227  1.00  0.00     0.017 C 
HETATM    9  C3  UNL     1      68.271  19.237  49.262  1.00  0.00     0.017 C 
HETATM   10  C4  UNL     1      67.615  16.915  48.600  1.00  0.00     0.017 C 
ENDBRANCH   6   7
BRANCH   6  11
HETATM   11  C15 UNL     1      67.093  18.917  51.514  1.00  0.00     0.197 C 
HETATM   12  O6  UNL     1      68.039  18.477  52.235  1.00  0.00    -0.646 OA
HETATM   13  O7  UNL     1      66.743  20.235  51.748  1.00  0.00    -0.646 OA
ENDBRANCH   6  11
ENDBRANCH   3   6
ENDBRANCH   1   2
BRANCH   1  14
HETATM   14  C8  UNL     1      65.768  14.339  53.245  1.00  0.00     0.147 C 
BRANCH  14  15
HETATM   15  C9  UNL     1      67.144  14.268  53.737  1.00  0.00     0.175 C 
HETATM   16  O2  UNL     1      67.649  13.242  54.272  1.00  0.00    -0.648 OA
HETATM   17  O3  UNL     1      67.981  15.375  53.630  1.00  0.00    -0.648 OA
ENDBRANCH  14  15
ENDBRANCH   1  14
BRANCH   1  18
HETATM   18  N2  UNL     1      66.785  13.748  51.113  1.00  0.00    -0.342 N 
HETATM   19  C10 UNL     1      66.670  12.443  50.548  1.00  0.00     0.276 C 
HETATM   20  O4  UNL     1      65.579  11.811  50.576  1.00  0.00    -0.265 OA
ATOM     21  H2  UNL     1      67.685  14.226  51.069  1.00  0.00     0.163 HD
BRANCH  19  22
HETATM   22  C11 UNL     1      67.805  11.798  49.925  1.00  0.00     0.142 A 
HETATM   23  C12 UNL     1      68.907  12.416  49.400  1.00  0.00     0.045 A 
HETATM   24  C13 UNL     1      69.747  11.440  48.906  1.00  0.00     0.027 A 
HETATM   25  C14 UNL     1      69.099  10.253  49.162  1.00  0.00     0.143 A 
HETATM   26  O5  UNL     1      67.954  10.503  49.765  1.00  0.00    -0.317 OA
ENDBRANCH  19  22
ENDBRANCH   1  18
TORSDOF 8
ENDMDL
MODEL 3
REMARK VINA RESULT: -5.487968778      0.290      1.110
REMARK  8 active torsions:
REMARK  status: ('A' for Active; 'I' for Inactive)
REMARK    1  A    between atoms: C2_2  and  C5_5 
REMARK    2  A    between atoms: C5_5  and  N1_6 
REMARK    3  A    between atoms: C5_5  and  C15_24 
REMARK       I    between atoms: N1_6  and  C6_8 
REMARK    4  A    between atoms: C6_8  and  C7_10 
REMARK    5  A    between atoms: C7_10  and  C8_11 
REMARK    6  A    between atoms: C7_10  and  N2_15 
REMARK    7  A    between atoms: C8_11  and  C9_12 
REMARK       I    between atoms: N2_15  and  C10_17 
REMARK    8  A    between atoms: C10_17  and  C11_19 
ROOT
HETATM    1  C7  UNL     1      66.806  16.270  51.978  1.00  0.00     0.187 C 
ENDROOT
BRANCH   1   2
HETATM    2  C6  UNL     1      67.268  14.910  52.324  1.00  0.00     0.241 C 
HETATM    3  N1  UNL     1      67.201  13.812  51.439  1.00  0.00    -0.344 N 
ATOM      4  H1  UNL     1      66.811  13.980  50.512  1.00  0.00     0.163 HD
HETATM    5  O1  UNL     1      67.745  14.723  53.467  1.00  0.00    -0.271 OA
BRANCH   3   6
HETATM    6  C5  UNL     1      67.639  12.476  51.740  1.00  0.00     0.193 C 
BRANCH   6   7
HETATM    7  C2  UNL     1      68.247  11.782  50.541  1.00  0.00    -0.021 C 
HETATM    8  C1  UNL     1      68.603  12.848  49.531  1.00  0.00     0.017 C 
HETATM    9  C3  UNL     1      69.494  11.020  50.868  1.00  0.00     0.017 C 
HETATM   10  C4  UNL     1      67.210  10.888  49.857  1.00  0.00     0.017 C 
ENDBRANCH   6   7
BRANCH   6  11
HETATM   11  C15 UNL     1      66.463  11.692  52.173  1.00  0.00     0.197 C 
HETATM   12  O6  UNL     1      65.299  12.158  51.992  1.00  0.00    -0.646 OA
HETATM   13  O7  UNL     1      66.509  10.449  52.782  1.00  0.00    -0.646 OA
ENDBRANCH   6  11
ENDBRANCH   3   6
ENDBRANCH   1   2
BRANCH   1  14
HETATM   14  C8  UNL     1      65.449  16.578  52.559  1.00  0.00     0.147 C 
BRANCH  14  15
HETATM   15  C9  UNL     1      64.541  17.215  51.604  1.00  0.00     0.175 C 
HETATM   16  O2  UNL     1      63.688  16.588  50.918  1.00  0.00    -0.648 OA
HETATM   17  O3  UNL     1      64.589  18.593  51.410  1.00  0.00    -0.648 OA
ENDBRANCH  14  15
ENDBRANCH   1  14
BRANCH   1  18
HETATM   18  N2  UNL     1      66.836  16.517  50.558  1.00  0.00    -0.342 N 
HETATM   19  C10 UNL     1      67.633  17.549  49.979  1.00  0.00     0.276 C 
HETATM   20  O4  UNL     1      68.354  18.298  50.692  1.00  0.00    -0.265 OA
ATOM     21  H2  UNL     1      66.267  15.932  49.945  1.00  0.00     0.163 HD
BRANCH  19  22
HETATM   22  C11 UNL     1      67.639  17.772  48.550  1.00  0.00     0.142 A 
HETATM   23  C12 UNL     1      66.545  17.864  47.734  1.00  0.00     0.045 A 
HETATM   24  C13 UNL     1      66.991  18.080  46.447  1.00  0.00     0.027 A 
HETATM   25  C14 UNL     1      68.363  18.109  46.548  1.00  0.00     0.143 A 
HETATM   26  O5  UNL     1      68.711  17.923  47.806  1.00  0.00    -0.317 OA
ENDBRANCH  19  22
ENDBRANCH   1  18
TORSDOF 8
ENDMDL
MODEL 4
REMARK VINA RESULT: -5.487793939      1.772      6.200
REMARK  8 active torsions:
REMARK  status: ('A' for Active; 'I' for Inactive)
REMARK    1  A    between atoms: C2_2  and  C5_5 
REMARK    2  A    between atoms: C5_5  and  N1_6 
REMARK    3  A    between atoms: C5_5  and  C15_24 
REMARK       I    between atoms: N1_6  and  C6_8 
REMARK    4  A    between atoms: C6_8  and  C7_10 
REMARK    5  A    between atoms: C7_10  and  C8_11 
REMARK    6  A    between atoms: C7_10  and  N2_15 
REMARK    7  A    between atoms: C8_11  and  C9_12 
REMARK       I    between atoms: N2_15  and  C10_17 
REMARK    8  A    between atoms: C10_17  and  C11_19 
ROOT
HETATM    1  C7  UNL     1      66.237  15.016  52.474  1.00  0.00     0.187 C 
ENDROOT
BRANCH   1   2
HETATM    2  C6  UNL     1      65.884  16.172  51.625  1.00  0.00     0.241 C 
HETATM    3  N1  UNL     1      66.830  17.088  51.118  1.00  0.00    -0.344 N 
ATOM      4  H1  UNL     1      67.809  16.932  51.357  1.00  0.00     0.163 HD
HETATM    5  O1  UNL     1      64.676  16.347  51.342  1.00  0.00    -0.271 OA
BRANCH   3   6
HETATM    6  C5  UNL     1      66.525  18.224  50.291  1.00  0.00     0.193 C 
BRANCH   6   7
HETATM    7  C2  UNL     1      67.323  18.236  49.006  1.00  0.00    -0.021 C 
HETATM    8  C1  UNL     1      66.397  18.692  47.901  1.00  0.00     0.017 C 
HETATM    9  C3  UNL     1      68.492  19.172  49.043  1.00  0.00     0.017 C 
HETATM   10  C4  UNL     1      67.755  16.817  48.631  1.00  0.00     0.017 C 
ENDBRANCH   6   7
BRANCH   6  11
HETATM   11  C15 UNL     1      66.860  19.449  51.047  1.00  0.00     0.197 C 
HETATM   12  O6  UNL     1      67.666  19.381  52.024  1.00  0.00    -0.646 OA
HETATM   13  O7  UNL     1      66.363  20.714  50.786  1.00  0.00    -0.646 OA
ENDBRANCH   6  11
ENDBRANCH   3   6
ENDBRANCH   1   2
BRANCH   1  14
HETATM   14  C8  UNL     1      66.569  15.424  53.888  1.00  0.00     0.147 C 
BRANCH  14  15
HETATM   15  C9  UNL     1      68.004  15.589  54.121  1.00  0.00     0.175 C 
HETATM   16  O2  UNL     1      68.670  16.589  53.734  1.00  0.00    -0.648 OA
HETATM   17  O3  UNL     1      68.717  14.609  54.806  1.00  0.00    -0.648 OA
ENDBRANCH  14  15
ENDBRANCH   1  14
BRANCH   1  18
HETATM   18  N2  UNL     1      67.288  14.212  51.901  1.00  0.00    -0.342 N 
HETATM   19  C10 UNL     1      67.020  13.066  51.095  1.00  0.00     0.276 C 
HETATM   20  O4  UNL     1      65.839  12.703  50.846  1.00  0.00    -0.265 OA
ATOM     21  H2  UNL     1      68.258  14.473  52.078  1.00  0.00     0.163 HD
BRANCH  19  22
HETATM   22  C11 UNL     1      68.098  12.280  50.536  1.00  0.00     0.142 A 
HETATM   23  C12 UNL     1      68.763  12.524  49.366  1.00  0.00     0.045 A 
HETATM   24  C13 UNL     1      69.714  11.538  49.203  1.00  0.00     0.027 A 
HETATM   25  C14 UNL     1      69.575  10.728  50.307  1.00  0.00     0.143 A 
HETATM   26  O5  UNL     1      68.611  11.196  51.073  1.00  0.00    -0.317 OA
ENDBRANCH  19  22
ENDBRANCH   1  18
TORSDOF 8
ENDMDL
MODEL 5
REMARK VINA RESULT: -5.486809262      1.971      6.157
REMARK  8 active torsions:
REMARK  status: ('A' for Active; 'I' for Inactive)
REMARK    1  A    between atoms: C2_2  and  C5_5 
REMARK    2  A    between atoms: C5_5  and  N1_6 
REMARK    3  A    between atoms: C5_5  and  C15_24 
REMARK       I    between atoms: N1_6  and  C6_8 
REMARK    4  A    between atoms: C6_8  and  C7_10 
REMARK    5  A    between atoms: C7_10  and  C8_11 
REMARK    6  A    between atoms: C7_10  and  N2_15 
REMARK    7  A    between atoms: C8_11  and  C9_12 
REMARK       I    between atoms: N2_15  and  C10_17 
REMARK    8  A    between atoms: C10_17  and  C11_19 
ROOT
HETATM    1  C7  UNL     1      65.308  14.130  51.686  1.00  0.00     0.187 C 
ENDROOT
BRANCH   1   2
HETATM    2  C6  UNL     1      65.261  15.575  51.382  1.00  0.00     0.241 C 
HETATM    3  N1  UNL     1      66.391  16.332  51.004  1.00  0.00    -0.344 N 
ATOM      4  H1  UNL     1      67.283  15.843  50.939  1.00  0.00     0.163 HD
HETATM    5  O1  UNL     1      64.156  16.158  51.467  1.00  0.00    -0.271 OA
BRANCH   3   6
HETATM    6  C5  UNL     1      66.384  17.738  50.702  1.00  0.00     0.193 C 
BRANCH   6   7
HETATM    7  C2  UNL     1      67.135  18.061  49.429  1.00  0.00    -0.021 C 
HETATM    8  C1  UNL     1      66.111  18.254  48.334  1.00  0.00     0.017 C 
HETATM    9  C3  UNL     1      67.950  19.313  49.524  1.00  0.00     0.017 C 
HETATM   10  C4  UNL     1      67.991  16.869  48.995  1.00  0.00     0.017 C 
ENDBRANCH   6   7
BRANCH   6  11
HETATM   11  C15 UNL     1      67.044  18.452  51.814  1.00  0.00     0.197 C 
HETATM   12  O6  UNL     1      66.499  19.485  52.306  1.00  0.00    -0.646 OA
HETATM   13  O7  UNL     1      68.247  18.091  52.397  1.00  0.00    -0.646 OA
ENDBRANCH   6  11
ENDBRANCH   3   6
ENDBRANCH   1   2
BRANCH   1  14
HETATM   14  C8  UNL     1      64.977  13.837  53.128  1.00  0.00     0.147 C 
BRANCH  14  15
HETATM   15  C9  UNL     1      64.407  12.506  53.334  1.00  0.00     0.175 C 
HETATM   16  O2  UNL     1      63.167  12.269  53.371  1.00  0.00    -0.648 OA
HETATM   17  O3  UNL     1      65.244  11.407  53.505  1.00  0.00    -0.648 OA
ENDBRANCH  14  15
ENDBRANCH   1  14
BRANCH   1  18
HETATM   18  N2  UNL     1      66.562  13.528  51.305  1.00  0.00    -0.342 N 
HETATM   19  C10 UNL     1      66.631  12.322  50.546  1.00  0.00     0.276 C 
HETATM   20  O4  UNL     1      65.586  11.724  50.170  1.00  0.00    -0.265 OA
ATOM     21  H2  UNL     1      67.431  13.981  51.588  1.00  0.00     0.163 HD
BRANCH  19  22
HETATM   22  C11 UNL     1      67.905  11.743  50.181  1.00  0.00     0.142 A 
HETATM   23  C12 UNL     1      68.780  12.222  49.245  1.00  0.00     0.045 A 
HETATM   24  C13 UNL     1      69.868  11.375  49.208  1.00  0.00     0.027 A 
HETATM   25  C14 UNL     1      69.593  10.404  50.144  1.00  0.00     0.143 A 
HETATM   26  O5  UNL     1      68.424  10.653  50.699  1.00  0.00    -0.317 OA
ENDBRANCH  19  22
ENDBRANCH   1  18
TORSDOF 8
ENDMDL
