MODEL 1
REMARK VINA RESULT: -6.460245968      0.000      0.000
REMARK  7 active torsions:
REMARK  status: ('A' for Active; 'I' for Inactive)
REMARK    1  A    between atoms: C2_2  and  C10_17 
REMARK    2  A    between atoms: N1_3  and  N2_5 
REMARK       I    between atoms: N2_5  and  C3_7 
REMARK       I    between atoms: C3_7  and  N3_9 
REMARK    3  A    between atoms: N3_9  and  C4_11 
REMARK    4  A    between atoms: C10_17  and  C11_21 
REMARK    5  A    between atoms: C11_21  and  C12_23 
REMARK    6  A    between atoms: C12_23  and  N5_24 
REMARK    7  A    between atoms: N5_24  and  S1_26 
ROOT
HETATM    1  C1  UNL     1      67.675  17.796  38.559  1.00  0.00     0.072 C 
HETATM    2  C2  UNL     1      66.790  17.596  39.734  1.00  0.00     0.052 C 
HETATM    3  N1  UNL     1      67.359  17.504  40.875  1.00  0.00    -0.299 N 
ATOM      4  H1  UNL     1      68.377  17.575  40.894  1.00  0.00     0.186 HD
ENDROOT
BRANCH   2   5
HETATM    5  C10 UNL     1      65.361  17.505  39.621  1.00  0.00     0.097 C 
HETATM    6  N4  UNL     1      64.636  18.560  39.354  1.00  0.00    -0.395 N 
ATOM      7  H42 UNL     1      65.110  19.454  39.226  1.00  0.00     0.156 HD
ATOM      8  H41 UNL     1      63.621  18.496  39.273  1.00  0.00     0.156 HD
BRANCH   5   9
HETATM    9  C11 UNL     1      64.690  16.235  39.802  1.00  0.00     0.195 C 
HETATM   10  O2  UNL     1      63.508  16.207  40.198  1.00  0.00    -0.289 OA
BRANCH   9  11
HETATM   11  C12 UNL     1      65.411  14.977  39.515  1.00  0.00     0.217 C 
BRANCH  11  12
HETATM   12  N5  UNL     1      65.095  13.994  40.528  1.00  0.00    -0.312 N 
ATOM     13  H5  UNL     1      64.308  13.347  40.471  1.00  0.00     0.172 HD
BRANCH  12  14
HETATM   14  S1  UNL     1      66.210  14.049  41.843  1.00  0.00     0.223 S 
HETATM   15  C13 UNL     1      66.431  12.386  42.429  1.00  0.00     0.185 C 
HETATM   16  O3  UNL     1      67.524  14.605  41.452  1.00  0.00    -0.206 OA
HETATM   17  O4  UNL     1      65.626  14.897  42.934  1.00  0.00    -0.206 OA
ENDBRANCH  12  14
ENDBRANCH  11  12
ENDBRANCH   9  11
ENDBRANCH   5   9
ENDBRANCH   2   5
BRANCH   3  18
HETATM   18  N2  UNL     1      66.726  17.320  42.069  1.00  0.00    -0.251 N 
HETATM   19  C3  UNL     1      67.370  17.720  43.290  1.00  0.00     0.339 C 
HETATM   20  O1  UNL     1      68.500  18.222  43.165  1.00  0.00    -0.245 OA
HETATM   21  N3  UNL     1      66.700  17.520  44.503  1.00  0.00    -0.308 N 
ATOM     22  H3  UNL     1      65.776  17.090  44.474  1.00  0.00     0.170 HD
ATOM     23  H2  UNL     1      65.797  16.898  42.095  1.00  0.00     0.191 HD
BRANCH  21  24
HETATM   24  C4  UNL     1      67.221  17.874  45.752  1.00  0.00     0.036 A 
HETATM   25  C5  UNL     1      66.302  18.075  46.799  1.00  0.00     0.029 A 
HETATM   26  C6  UNL     1      66.693  18.444  48.062  1.00  0.00     0.002 A 
HETATM   27  C7  UNL     1      68.021  18.633  48.352  1.00  0.00     0.000 A 
HETATM   28  C8  UNL     1      68.946  18.450  47.366  1.00  0.00     0.002 A 
HETATM   29  C9  UNL     1      68.536  18.075  46.090  1.00  0.00     0.029 A 
ENDBRANCH  21  24
ENDBRANCH   3  18
TORSDOF 7
ENDMDL
MODEL 2
REMARK VINA RESULT: -6.330522638      2.213      3.480
REMARK  7 active torsions:
REMARK  status: ('A' for Active; 'I' for Inactive)
REMARK    1  A    between atoms: C2_2  and  C10_17 
REMARK    2  A    between atoms: N1_3  and  N2_5 
REMARK       I    between atoms: N2_5  and  C3_7 
REMARK       I    between atoms: C3_7  and  N3_9 
REMARK    3  A    between atoms: N3_9  and  C4_11 
REMARK    4  A    between atoms: C10_17  and  C11_21 
REMARK    5  A    between atoms: C11_21  and  C12_23 
REMARK    6  A    between atoms: C12_23  and  N5_24 
REMARK    7  A    between atoms: N5_24  and  S1_26 
ROOT
HETATM    1  C1  UNL     1      66.881  14.003  40.159  1.00  0.00     0.072 C 
HETATM    2  C2  UNL     1      66.432  15.225  40.873  1.00  0.00     0.052 C 
HETATM    3  N1  UNL     1      67.286  15.792  41.636  1.00  0.00    -0.299 N 
ATOM      4  H1  UNL     1      68.211  15.365  41.698  1.00  0.00     0.186 HD
ENDROOT
BRANCH   2   5
HETATM    5  C10 UNL     1      65.108  15.763  40.732  1.00  0.00     0.097 C 
HETATM    6  N4  UNL     1      64.167  15.476  41.594  1.00  0.00    -0.395 N 
ATOM      7  H42 UNL     1      64.395  14.859  42.373  1.00  0.00     0.156 HD
ATOM      8  H41 UNL     1      63.226  15.858  41.493  1.00  0.00     0.156 HD
BRANCH   5   9
HETATM    9  C11 UNL     1      64.785  16.639  39.625  1.00  0.00     0.195 C 
HETATM   10  O2  UNL     1      63.806  17.405  39.703  1.00  0.00    -0.289 OA
BRANCH   9  11
HETATM   11  C12 UNL     1      65.622  16.618  38.406  1.00  0.00     0.217 C 
BRANCH  11  12
HETATM   12  N5  UNL     1      65.703  17.952  37.851  1.00  0.00    -0.312 N 
ATOM     13  H5  UNL     1      64.986  18.368  37.255  1.00  0.00     0.172 HD
BRANCH  12  14
HETATM   14  S1  UNL     1      67.158  18.752  38.317  1.00  0.00     0.223 S 
HETATM   15  C13 UNL     1      68.405  18.340  37.120  1.00  0.00     0.185 C 
HETATM   16  O3  UNL     1      67.006  20.222  38.374  1.00  0.00    -0.206 OA
HETATM   17  O4  UNL     1      67.570  18.251  39.670  1.00  0.00    -0.206 OA
ENDBRANCH  12  14
ENDBRANCH  11  12
ENDBRANCH   9  11
ENDBRANCH   5   9
ENDBRANCH   2   5
BRANCH   3  18
HETATM   18  N2  UNL     1      67.070  16.919  42.375  1.00  0.00    -0.251 N 
HETATM   19  C3  UNL     1      67.279  16.892  43.797  1.00  0.00     0.339 C 
HETATM   20  O1  UNL     1      67.653  15.805  44.268  1.00  0.00    -0.245 OA
HETATM   21  N3  UNL     1      67.051  18.061  44.534  1.00  0.00    -0.308 N 
ATOM     22  H3  UNL     1      66.738  18.890  44.031  1.00  0.00     0.170 HD
ATOM     23  H2  UNL     1      66.762  17.777  41.919  1.00  0.00     0.191 HD
BRANCH  21  24
HETATM   24  C4  UNL     1      67.225  18.159  45.918  1.00  0.00     0.036 A 
HETATM   25  C5  UNL     1      68.545  18.275  46.394  1.00  0.00     0.029 A 
HETATM   26  C6  UNL     1      68.842  18.358  47.731  1.00  0.00     0.002 A 
HETATM   27  C7  UNL     1      67.841  18.331  48.670  1.00  0.00     0.000 A 
HETATM   28  C8  UNL     1      66.547  18.219  48.252  1.00  0.00     0.002 A 
HETATM   29  C9  UNL     1      66.260  18.136  46.894  1.00  0.00     0.029 A 
ENDBRANCH  21  24
ENDBRANCH   3  18
TORSDOF 7
ENDMDL
MODEL 3
REMARK VINA RESULT: -6.252767854      2.168      3.336
REMARK  7 active torsions:
REMARK  status: ('A' for Active; 'I' for Inactive)
REMARK    1  A    between atoms: C2_2  and  C10_17 
REMARK    2  A    between atoms: N1_3  and  N2_5 
REMARK       I    between atoms: N2_5  and  C3_7 
REMARK       I    between atoms: C3_7  and  N3_9 
REMARK    3  A    between atoms: N3_9  and  C4_11 
REMARK    4  A    between atoms: C10_17  and  C11_21 
REMARK    5  A    between atoms: C11_21  and  C12_23 
REMARK    6  A    between atoms: C12_23  and  N5_24 
REMARK    7  A    between atoms: N5_24  and  S1_26 
ROOT
HETATM    1  C1  UNL     1      67.199  14.681  39.930  1.00  0.00     0.072 C 
HETATM    2  C2  UNL     1      66.530  15.606  40.879  1.00  0.00     0.052 C 
HETATM    3  N1  UNL     1      67.287  16.373  41.565  1.00  0.00    -0.299 N 
ATOM      4  H1  UNL     1      68.293  16.294  41.410  1.00  0.00     0.186 HD
ENDROOT
BRANCH   2   5
HETATM    5  C10 UNL     1      65.104  15.654  41.040  1.00  0.00     0.097 C 
HETATM    6  N4  UNL     1      64.492  14.864  41.885  1.00  0.00    -0.395 N 
ATOM      7  H42 UNL     1      65.053  14.210  42.431  1.00  0.00     0.156 HD
ATOM      8  H41 UNL     1      63.479  14.898  41.999  1.00  0.00     0.156 HD
BRANCH   5   9
HETATM    9  C11 UNL     1      64.308  16.582  40.265  1.00  0.00     0.195 C 
HETATM   10  O2  UNL     1      63.101  16.349  40.062  1.00  0.00    -0.289 OA
BRANCH   9  11
HETATM   11  C12 UNL     1      64.935  17.805  39.718  1.00  0.00     0.217 C 
BRANCH  11  12
HETATM   12  N5  UNL     1      65.666  17.478  38.513  1.00  0.00    -0.312 N 
ATOM     13  H5  UNL     1      65.383  16.757  37.849  1.00  0.00     0.172 HD
BRANCH  12  14
HETATM   14  S1  UNL     1      67.076  18.457  38.336  1.00  0.00     0.223 S 
HETATM   15  C13 UNL     1      66.538  20.123  38.028  1.00  0.00     0.185 C 
HETATM   16  O3  UNL     1      67.936  18.439  39.539  1.00  0.00    -0.206 OA
HETATM   17  O4  UNL     1      67.865  17.955  37.163  1.00  0.00    -0.206 OA
ENDBRANCH  12  14
ENDBRANCH  11  12
ENDBRANCH   9  11
ENDBRANCH   5   9
ENDBRANCH   2   5
BRANCH   3  18
HETATM   18  N2  UNL     1      66.870  17.289  42.486  1.00  0.00    -0.251 N 
HETATM   19  C3  UNL     1      67.329  17.196  43.846  1.00  0.00     0.339 C 
HETATM   20  O1  UNL     1      68.099  16.253  44.092  1.00  0.00    -0.245 OA
HETATM   21  N3  UNL     1      66.886  18.147  44.773  1.00  0.00    -0.308 N 
ATOM     22  H3  UNL     1      66.247  18.872  44.448  1.00  0.00     0.170 HD
ATOM     23  H2  UNL     1      66.234  18.037  42.211  1.00  0.00     0.191 HD
BRANCH  21  24
HETATM   24  C4  UNL     1      67.268  18.164  46.119  1.00  0.00     0.036 A 
HETATM   25  C5  UNL     1      66.240  18.144  47.079  1.00  0.00     0.029 A 
HETATM   26  C6  UNL     1      66.490  18.177  48.428  1.00  0.00     0.002 A 
HETATM   27  C7  UNL     1      67.780  18.233  48.895  1.00  0.00     0.000 A 
HETATM   28  C8  UNL     1      68.807  18.254  47.999  1.00  0.00     0.002 A 
HETATM   29  C9  UNL     1      68.539  18.220  46.634  1.00  0.00     0.029 A 
ENDBRANCH  21  24
ENDBRANCH   3  18
TORSDOF 7
ENDMDL
MODEL 4
REMARK VINA RESULT: -6.127146433      2.404      3.749
REMARK  7 active torsions:
REMARK  status: ('A' for Active; 'I' for Inactive)
REMARK    1  A    between atoms: C2_2  and  C10_17 
REMARK    2  A    between atoms: N1_3  and  N2_5 
REMARK       I    between atoms: N2_5  and  C3_7 
REMARK       I    between atoms: C3_7  and  N3_9 
REMARK    3  A    between atoms: N3_9  and  C4_11 
REMARK    4  A    between atoms: C10_17  and  C11_21 
REMARK    5  A    between atoms: C11_21  and  C12_23 
REMARK    6  A    between atoms: C12_23  and  N5_24 
REMARK    7  A    between atoms: N5_24  and  S1_26 
ROOT
HETATM    1  C1  UNL     1      66.219  13.291  41.196  1.00  0.00     0.072 C 
HETATM    2  C2  UNL     1      66.656  14.675  41.508  1.00  0.00     0.052 C 
HETATM    3  N1  UNL     1      67.239  14.855  42.631  1.00  0.00    -0.299 N 
ATOM      4  H1  UNL     1      67.361  14.036  43.229  1.00  0.00     0.186 HD
ENDROOT
BRANCH   2   5
HETATM    5  C10 UNL     1      66.444  15.776  40.611  1.00  0.00     0.097 C 
HETATM    6  N4  UNL     1      67.128  15.883  39.501  1.00  0.00    -0.395 N 
ATOM      7  H42 UNL     1      67.819  15.165  39.285  1.00  0.00     0.156 HD
ATOM      8  H41 UNL     1      66.978  16.665  38.863  1.00  0.00     0.156 HD
BRANCH   5   9
HETATM    9  C11 UNL     1      65.464  16.795  40.917  1.00  0.00     0.195 C 
HETATM   10  O2  UNL     1      65.498  17.382  42.016  1.00  0.00    -0.289 OA
BRANCH   9  11
HETATM   11  C12 UNL     1      64.424  17.136  39.922  1.00  0.00     0.217 C 
BRANCH  11  12
HETATM   12  N5  UNL     1      64.499  18.545  39.605  1.00  0.00    -0.312 N 
ATOM     13  H5  UNL     1      63.906  19.260  40.028  1.00  0.00     0.172 HD
BRANCH  12  14
HETATM   14  S1  UNL     1      65.714  18.871  38.424  1.00  0.00     0.223 S 
HETATM   15  C13 UNL     1      65.395  20.488  37.757  1.00  0.00     0.185 C 
HETATM   16  O3  UNL     1      67.080  18.840  38.988  1.00  0.00    -0.206 OA
HETATM   17  O4  UNL     1      65.612  17.845  37.334  1.00  0.00    -0.206 OA
ENDBRANCH  12  14
ENDBRANCH  11  12
ENDBRANCH   9  11
ENDBRANCH   5   9
ENDBRANCH   2   5
BRANCH   3  18
HETATM   18  N2  UNL     1      67.712  16.045  43.102  1.00  0.00    -0.251 N 
HETATM   19  C3  UNL     1      67.513  16.398  44.482  1.00  0.00     0.339 C 
HETATM   20  O1  UNL     1      66.901  15.565  45.170  1.00  0.00    -0.245 OA
HETATM   21  N3  UNL     1      68.008  17.625  44.941  1.00  0.00    -0.308 N 
ATOM     22  H3  UNL     1      68.490  18.227  44.274  1.00  0.00     0.170 HD
ATOM     23  H2  UNL     1      68.206  16.681  42.476  1.00  0.00     0.191 HD
BRANCH  21  24
HETATM   24  C4  UNL     1      67.882  18.074  46.259  1.00  0.00     0.036 A 
HETATM   25  C5  UNL     1      66.577  18.247  46.758  1.00  0.00     0.029 A 
HETATM   26  C6  UNL     1      66.328  18.701  48.029  1.00  0.00     0.002 A 
HETATM   27  C7  UNL     1      67.366  19.009  48.874  1.00  0.00     0.000 A 
HETATM   28  C8  UNL     1      68.647  18.857  48.431  1.00  0.00     0.002 A 
HETATM   29  C9  UNL     1      68.885  18.395  47.140  1.00  0.00     0.029 A 
ENDBRANCH  21  24
ENDBRANCH   3  18
TORSDOF 7
ENDMDL
MODEL 5
REMARK VINA RESULT: -5.953054980      4.670      8.519
REMARK  7 active torsions:
REMARK  status: ('A' for Active; 'I' for Inactive)
REMARK    1  A    between atoms: C2_2  and  C10_17 
REMARK    2  A    between atoms: N1_3  and  N2_5 
REMARK       I    between atoms: N2_5  and  C3_7 
REMARK       I    between atoms: C3_7  and  N3_9 
REMARK    3  A    between atoms: N3_9  and  C4_11 
REMARK    4  A    between atoms: C10_17  and  C11_21 
REMARK    5  A    between atoms: C11_21  and  C12_23 
REMARK    6  A    between atoms: C12_23  and  N5_24 
REMARK    7  A    between atoms: N5_24  and  S1_26 
ROOT
HETATM    1  C1  UNL     1      69.066  19.231  48.553  1.00  0.00     0.072 C 
HETATM    2  C2  UNL     1      68.113  18.238  47.993  1.00  0.00     0.052 C 
HETATM    3  N1  UNL     1      68.020  18.185  46.719  1.00  0.00    -0.299 N 
ATOM      4  H1  UNL     1      68.606  18.826  46.183  1.00  0.00     0.186 HD
ENDROOT
BRANCH   2   5
HETATM    5  C10 UNL     1      67.322  17.371  48.820  1.00  0.00     0.097 C 
HETATM    6  N4  UNL     1      67.781  16.212  49.215  1.00  0.00    -0.395 N 
ATOM      7  H42 UNL     1      68.718  15.935  48.922  1.00  0.00     0.156 HD
ATOM      8  H41 UNL     1      67.219  15.595  49.803  1.00  0.00     0.156 HD
BRANCH   5   9
HETATM    9  C11 UNL     1      65.993  17.765  49.236  1.00  0.00     0.195 C 
HETATM   10  O2  UNL     1      65.381  18.651  48.609  1.00  0.00    -0.289 OA
BRANCH   9  11
HETATM   11  C12 UNL     1      65.367  17.110  50.405  1.00  0.00     0.217 C 
BRANCH  11  12
HETATM   12  N5  UNL     1      65.382  18.016  51.534  1.00  0.00    -0.312 N 
ATOM     13  H5  UNL     1      64.625  18.663  51.758  1.00  0.00     0.172 HD
BRANCH  12  14
HETATM   14  S1  UNL     1      66.833  17.867  52.454  1.00  0.00     0.223 S 
HETATM   15  C13 UNL     1      66.413  18.109  54.164  1.00  0.00     0.185 C 
HETATM   16  O3  UNL     1      67.476  16.545  52.294  1.00  0.00    -0.206 OA
HETATM   17  O4  UNL     1      67.793  18.934  52.013  1.00  0.00    -0.206 OA
ENDBRANCH  12  14
ENDBRANCH  11  12
ENDBRANCH   9  11
ENDBRANCH   5   9
ENDBRANCH   2   5
BRANCH   3  18
HETATM   18  N2  UNL     1      67.207  17.347  46.014  1.00  0.00    -0.251 N 
HETATM   19  C3  UNL     1      67.431  17.149  44.608  1.00  0.00     0.339 C 
HETATM   20  O1  UNL     1      68.382  17.780  44.118  1.00  0.00    -0.245 OA
HETATM   21  N3  UNL     1      66.583  16.284  43.906  1.00  0.00    -0.308 N 
ATOM     22  H3  UNL     1      65.831  15.828  44.421  1.00  0.00     0.170 HD
ATOM     23  H2  UNL     1      66.443  16.861  46.484  1.00  0.00     0.191 HD
BRANCH  21  24
HETATM   24  C4  UNL     1      66.705  16.007  42.540  1.00  0.00     0.036 A 
HETATM   25  C5  UNL     1      66.094  16.905  41.645  1.00  0.00     0.029 A 
HETATM   26  C6  UNL     1      66.128  16.728  40.284  1.00  0.00     0.002 A 
HETATM   27  C7  UNL     1      66.774  15.646  39.740  1.00  0.00     0.000 A 
HETATM   28  C8  UNL     1      67.380  14.750  40.571  1.00  0.00     0.002 A 
HETATM   29  C9  UNL     1      67.337  14.942  41.949  1.00  0.00     0.029 A 
ENDBRANCH  21  24
ENDBRANCH   3  18
TORSDOF 7
ENDMDL
