MODEL 1
REMARK VINA RESULT: -7.115326754      0.000      0.000
REMARK  10 active torsions:
REMARK  status: ('A' for Active; 'I' for Inactive)
REMARK    1  A    between atoms: O1_2  and  C2_3 
REMARK       I    between atoms: C2_3  and  N1_5 
REMARK    2  A    between atoms: N1_5  and  C3_7 
REMARK    3  A    between atoms: C3_7  and  C4_8 
REMARK    4  A    between atoms: C3_7  and  C11_15 
REMARK    5  A    between atoms: C4_8  and  C5_9 
REMARK    6  A    between atoms: C11_15  and  O3_16 
REMARK    7  A    between atoms: C11_15  and  N2_18 
REMARK    8  A    between atoms: N2_18  and  C12_20 
REMARK    9  A    between atoms: C12_20  and  C13_21 
REMARK   10  A    between atoms: C12_20  and  C14_24 
ROOT
HETATM    1  C3  UNL     1      66.364  16.798  40.910  1.00  0.00     0.161 C 
ENDROOT
BRANCH   1   2
HETATM    2  N1  UNL     1      66.041  15.389  41.329  1.00  0.00    -0.325 N 
HETATM    3  C2  UNL     1      66.516  14.276  40.635  1.00  0.00     0.360 C 
HETATM    4  O2  UNL     1      67.238  14.417  39.626  1.00  0.00    -0.239 OA
ATOM      5  H1  UNL     1      65.453  15.243  42.150  1.00  0.00     0.165 HD
BRANCH   3   6
HETATM    6  O1  UNL     1      66.195  13.006  41.057  1.00  0.00    -0.309 OA
HETATM    7  C1  UNL     1      66.296  12.547  42.369  1.00  0.00     0.215 C 
ENDBRANCH   3   6
ENDBRANCH   1   2
BRANCH   1   8
HETATM    8  C4  UNL     1      66.270  17.692  42.065  1.00  0.00     0.038 C 
BRANCH   8   9
HETATM    9  C5  UNL     1      66.652  17.163  43.395  1.00  0.00    -0.012 C 
HETATM   10  C6  UNL     1      68.126  16.756  43.433  1.00  0.00     0.005 C 
HETATM   11  C7  UNL     1      68.994  17.788  44.105  1.00  0.00     0.000 C 
HETATM   12  C8  UNL     1      68.579  18.019  45.545  1.00  0.00     0.000 C 
HETATM   13  C9  UNL     1      67.117  17.668  45.741  1.00  0.00     0.000 C 
HETATM   14  C10 UNL     1      66.395  18.167  44.510  1.00  0.00     0.005 C 
ENDBRANCH   8   9
ENDBRANCH   1   8
BRANCH   1  15
HETATM   15  C11 UNL     1      65.511  16.982  39.739  1.00  0.00     0.136 C 
BRANCH  15  16
HETATM   16  O3  UNL     1      64.253  17.174  40.051  1.00  0.00    -0.348 OA
ATOM     17  H3  UNL     1      63.963  16.627  40.772  1.00  0.00     0.219 HD
ENDBRANCH  15  16
BRANCH  15  18
HETATM   18  N2  UNL     1      65.771  16.996  38.391  1.00  0.00    -0.350 N 
ATOM     19  H2  UNL     1      65.567  16.164  37.837  1.00  0.00     0.162 HD
BRANCH  18  20
HETATM   20  C12 UNL     1      66.344  18.193  37.714  1.00  0.00     0.286 C 
BRANCH  20  21
HETATM   21  C13 UNL     1      65.669  19.408  38.176  1.00  0.00     0.207 C 
HETATM   22  O4  UNL     1      64.458  19.366  38.499  1.00  0.00    -0.646 OA
HETATM   23  O5  UNL     1      66.326  20.618  38.273  1.00  0.00    -0.646 OA
ENDBRANCH  20  21
BRANCH  20  24
HETATM   24  C14 UNL     1      67.793  18.260  37.982  1.00  0.00     0.207 C 
HETATM   25  O6  UNL     1      68.234  18.505  39.127  1.00  0.00    -0.646 OA
HETATM   26  O7  UNL     1      68.723  18.055  36.974  1.00  0.00    -0.646 OA
ENDBRANCH  20  24
ENDBRANCH  18  20
ENDBRANCH  15  18
ENDBRANCH   1  15
TORSDOF 10
ENDMDL
MODEL 2
REMARK VINA RESULT: -6.623161327      1.702      2.864
REMARK  10 active torsions:
REMARK  status: ('A' for Active; 'I' for Inactive)
REMARK    1  A    between atoms: O1_2  and  C2_3 
REMARK       I    between atoms: C2_3  and  N1_5 
REMARK    2  A    between atoms: N1_5  and  C3_7 
REMARK    3  A    between atoms: C3_7  and  C4_8 
REMARK    4  A    between atoms: C3_7  and  C11_15 
REMARK    5  A    between atoms: C4_8  and  C5_9 
REMARK    6  A    between atoms: C11_15  and  O3_16 
REMARK    7  A    between atoms: C11_15  and  N2_18 
REMARK    8  A    between atoms: N2_18  and  C12_20 
REMARK    9  A    between atoms: C12_20  and  C13_21 
REMARK   10  A    between atoms: C12_20  and  C14_24 
ROOT
HETATM    1  C3  UNL     1      67.910  17.026  42.996  1.00  0.00     0.161 C 
ENDROOT
BRANCH   1   2
HETATM    2  N1  UNL     1      67.617  15.639  43.499  1.00  0.00    -0.325 N 
HETATM    3  C2  UNL     1      67.703  14.513  42.678  1.00  0.00     0.360 C 
HETATM    4  O2  UNL     1      68.032  14.625  41.480  1.00  0.00    -0.239 OA
ATOM      5  H1  UNL     1      67.345  15.517  44.474  1.00  0.00     0.165 HD
BRANCH   3   6
HETATM    6  O1  UNL     1      67.427  13.263  43.184  1.00  0.00    -0.309 OA
HETATM    7  C1  UNL     1      66.466  12.389  42.682  1.00  0.00     0.215 C 
ENDBRANCH   3   6
ENDBRANCH   1   2
BRANCH   1   8
HETATM    8  C4  UNL     1      68.005  17.953  44.125  1.00  0.00     0.038 C 
BRANCH   8   9
HETATM    9  C5  UNL     1      67.723  17.434  45.484  1.00  0.00    -0.012 C 
HETATM   10  C6  UNL     1      68.918  17.633  46.417  1.00  0.00     0.005 C 
HETATM   11  C7  UNL     1      68.745  18.816  47.333  1.00  0.00     0.000 C 
HETATM   12  C8  UNL     1      67.530  18.664  48.225  1.00  0.00     0.000 C 
HETATM   13  C9  UNL     1      66.508  17.747  47.582  1.00  0.00     0.000 C 
HETATM   14  C10 UNL     1      66.501  18.092  46.109  1.00  0.00     0.005 C 
ENDBRANCH   8   9
ENDBRANCH   1   8
BRANCH   1  15
HETATM   15  C11 UNL     1      66.902  17.203  41.954  1.00  0.00     0.136 C 
BRANCH  15  16
HETATM   16  O3  UNL     1      65.690  17.335  42.435  1.00  0.00    -0.348 OA
ATOM     17  H3  UNL     1      65.050  17.554  41.768  1.00  0.00     0.219 HD
ENDBRANCH  15  16
BRANCH  15  18
HETATM   18  N2  UNL     1      66.980  17.261  40.584  1.00  0.00    -0.350 N 
ATOM     19  H2  UNL     1      67.865  17.041  40.127  1.00  0.00     0.162 HD
BRANCH  18  20
HETATM   20  C12 UNL     1      65.806  17.635  39.746  1.00  0.00     0.286 C 
BRANCH  20  21
HETATM   21  C13 UNL     1      66.252  18.112  38.434  1.00  0.00     0.207 C 
HETATM   22  O4  UNL     1      65.444  18.694  37.673  1.00  0.00    -0.646 OA
HETATM   23  O5  UNL     1      67.550  17.942  37.997  1.00  0.00    -0.646 OA
ENDBRANCH  20  21
BRANCH  20  24
HETATM   24  C14 UNL     1      64.911  16.470  39.608  1.00  0.00     0.207 C 
HETATM   25  O6  UNL     1      65.323  15.382  39.147  1.00  0.00    -0.646 OA
HETATM   26  O7  UNL     1      63.578  16.537  39.984  1.00  0.00    -0.646 OA
ENDBRANCH  20  24
ENDBRANCH  18  20
ENDBRANCH  15  18
ENDBRANCH   1  15
TORSDOF 10
ENDMDL
MODEL 3
REMARK VINA RESULT: -6.496271623      1.725      3.102
REMARK  10 active torsions:
REMARK  status: ('A' for Active; 'I' for Inactive)
REMARK    1  A    between atoms: O1_2  and  C2_3 
REMARK       I    between atoms: C2_3  and  N1_5 
REMARK    2  A    between atoms: N1_5  and  C3_7 
REMARK    3  A    between atoms: C3_7  and  C4_8 
REMARK    4  A    between atoms: C3_7  and  C11_15 
REMARK    5  A    between atoms: C4_8  and  C5_9 
REMARK    6  A    between atoms: C11_15  and  O3_16 
REMARK    7  A    between atoms: C11_15  and  N2_18 
REMARK    8  A    between atoms: N2_18  and  C12_20 
REMARK    9  A    between atoms: C12_20  and  C13_21 
REMARK   10  A    between atoms: C12_20  and  C14_24 
ROOT
HETATM    1  C3  UNL     1      67.242  17.052  43.026  1.00  0.00     0.161 C 
ENDROOT
BRANCH   1   2
HETATM    2  N1  UNL     1      66.840  15.627  43.293  1.00  0.00    -0.325 N 
HETATM    3  C2  UNL     1      67.636  14.543  42.918  1.00  0.00     0.360 C 
HETATM    4  O2  UNL     1      68.726  14.727  42.338  1.00  0.00    -0.239 OA
ATOM      5  H1  UNL     1      65.955  15.446  43.766  1.00  0.00     0.165 HD
BRANCH   3   6
HETATM    6  O1  UNL     1      67.227  13.256  43.185  1.00  0.00    -0.309 OA
HETATM    7  C1  UNL     1      66.270  12.552  42.459  1.00  0.00     0.215 C 
ENDBRANCH   3   6
ENDBRANCH   1   2
BRANCH   1   8
HETATM    8  C4  UNL     1      66.906  17.886  44.181  1.00  0.00     0.038 C 
BRANCH   8   9
HETATM    9  C5  UNL     1      67.202  17.362  45.534  1.00  0.00    -0.012 C 
HETATM   10  C6  UNL     1      68.666  17.587  45.914  1.00  0.00     0.005 C 
HETATM   11  C7  UNL     1      68.851  18.767  46.832  1.00  0.00     0.000 C 
HETATM   12  C8  UNL     1      68.097  18.589  48.135  1.00  0.00     0.000 C 
HETATM   13  C9  UNL     1      66.921  17.650  47.946  1.00  0.00     0.000 C 
HETATM   14  C10 UNL     1      66.319  17.994  46.602  1.00  0.00     0.005 C 
ENDBRANCH   8   9
ENDBRANCH   1   8
BRANCH   1  15
HETATM   15  C11 UNL     1      66.654  17.304  41.713  1.00  0.00     0.136 C 
BRANCH  15  16
HETATM   16  O3  UNL     1      65.344  17.340  41.740  1.00  0.00    -0.348 OA
ATOM     17  H3  UNL     1      64.980  17.970  41.131  1.00  0.00     0.219 HD
ENDBRANCH  15  16
BRANCH  15  18
HETATM   18  N2  UNL     1      67.203  17.512  40.472  1.00  0.00    -0.350 N 
ATOM     19  H2  UNL     1      67.954  18.196  40.369  1.00  0.00     0.162 HD
BRANCH  18  20
HETATM   20  C12 UNL     1      66.734  16.767  39.270  1.00  0.00     0.286 C 
BRANCH  20  21
HETATM   21  C13 UNL     1      66.389  15.389  39.631  1.00  0.00     0.207 C 
HETATM   22  O4  UNL     1      67.235  14.476  39.489  1.00  0.00    -0.646 OA
HETATM   23  O5  UNL     1      65.146  15.054  40.131  1.00  0.00    -0.646 OA
ENDBRANCH  20  21
BRANCH  20  24
HETATM   24  C14 UNL     1      65.574  17.465  38.683  1.00  0.00     0.207 C 
HETATM   25  O6  UNL     1      65.691  18.184  37.666  1.00  0.00    -0.646 OA
HETATM   26  O7  UNL     1      64.309  17.350  39.238  1.00  0.00    -0.646 OA
ENDBRANCH  20  24
ENDBRANCH  18  20
ENDBRANCH  15  18
ENDBRANCH   1  15
TORSDOF 10
ENDMDL
MODEL 4
REMARK VINA RESULT: -6.470758181      1.952      3.584
REMARK  10 active torsions:
REMARK  status: ('A' for Active; 'I' for Inactive)
REMARK    1  A    between atoms: O1_2  and  C2_3 
REMARK       I    between atoms: C2_3  and  N1_5 
REMARK    2  A    between atoms: N1_5  and  C3_7 
REMARK    3  A    between atoms: C3_7  and  C4_8 
REMARK    4  A    between atoms: C3_7  and  C11_15 
REMARK    5  A    between atoms: C4_8  and  C5_9 
REMARK    6  A    between atoms: C11_15  and  O3_16 
REMARK    7  A    between atoms: C11_15  and  N2_18 
REMARK    8  A    between atoms: N2_18  and  C12_20 
REMARK    9  A    between atoms: C12_20  and  C13_21 
REMARK   10  A    between atoms: C12_20  and  C14_24 
ROOT
HETATM    1  C3  UNL     1      67.425  17.103  43.786  1.00  0.00     0.161 C 
ENDROOT
BRANCH   1   2
HETATM    2  N1  UNL     1      67.063  15.651  43.949  1.00  0.00    -0.325 N 
HETATM    3  C2  UNL     1      67.630  14.647  43.162  1.00  0.00     0.360 C 
HETATM    4  O2  UNL     1      68.469  14.928  42.282  1.00  0.00    -0.239 OA
ATOM      5  H1  UNL     1      66.380  15.391  44.661  1.00  0.00     0.165 HD
BRANCH   3   6
HETATM    6  O1  UNL     1      67.269  13.332  43.350  1.00  0.00    -0.309 OA
HETATM    7  C1  UNL     1      66.437  12.601  42.506  1.00  0.00     0.215 C 
ENDBRANCH   3   6
ENDBRANCH   1   2
BRANCH   1   8
HETATM    8  C4  UNL     1      66.834  17.885  44.873  1.00  0.00     0.038 C 
BRANCH   8   9
HETATM    9  C5  UNL     1      67.110  17.470  46.268  1.00  0.00    -0.012 C 
HETATM   10  C6  UNL     1      68.588  17.644  46.621  1.00  0.00     0.005 C 
HETATM   11  C7  UNL     1      68.846  18.890  47.428  1.00  0.00     0.000 C 
HETATM   12  C8  UNL     1      68.094  18.874  48.743  1.00  0.00     0.000 C 
HETATM   13  C9  UNL     1      66.866  17.990  48.644  1.00  0.00     0.000 C 
HETATM   14  C10 UNL     1      66.273  18.244  47.276  1.00  0.00     0.005 C 
ENDBRANCH   8   9
ENDBRANCH   1   8
BRANCH   1  15
HETATM   15  C11 UNL     1      67.075  17.359  42.392  1.00  0.00     0.136 C 
BRANCH  15  16
HETATM   16  O3  UNL     1      68.055  17.906  41.714  1.00  0.00    -0.348 OA
ATOM     17  H3  UNL     1      67.917  18.831  41.548  1.00  0.00     0.219 HD
ENDBRANCH  15  16
BRANCH  15  18
HETATM   18  N2  UNL     1      65.933  17.136  41.662  1.00  0.00    -0.350 N 
ATOM     19  H2  UNL     1      65.030  17.149  42.137  1.00  0.00     0.162 HD
BRANCH  18  20
HETATM   20  C12 UNL     1      65.977  16.874  40.196  1.00  0.00     0.286 C 
BRANCH  20  21
HETATM   21  C13 UNL     1      66.050  15.433  39.940  1.00  0.00     0.207 C 
HETATM   22  O4  UNL     1      65.063  14.703  40.192  1.00  0.00    -0.646 OA
HETATM   23  O5  UNL     1      67.184  14.839  39.424  1.00  0.00    -0.646 OA
ENDBRANCH  20  21
BRANCH  20  24
HETATM   24  C14 UNL     1      64.785  17.463  39.558  1.00  0.00     0.207 C 
HETATM   25  O6  UNL     1      64.868  18.106  38.488  1.00  0.00    -0.646 OA
HETATM   26  O7  UNL     1      63.525  17.326  40.120  1.00  0.00    -0.646 OA
ENDBRANCH  20  24
ENDBRANCH  18  20
ENDBRANCH  15  18
ENDBRANCH   1  15
TORSDOF 10
ENDMDL
MODEL 5
REMARK VINA RESULT: -6.389357140      0.905      1.917
REMARK  10 active torsions:
REMARK  status: ('A' for Active; 'I' for Inactive)
REMARK    1  A    between atoms: O1_2  and  C2_3 
REMARK       I    between atoms: C2_3  and  N1_5 
REMARK    2  A    between atoms: N1_5  and  C3_7 
REMARK    3  A    between atoms: C3_7  and  C4_8 
REMARK    4  A    between atoms: C3_7  and  C11_15 
REMARK    5  A    between atoms: C4_8  and  C5_9 
REMARK    6  A    between atoms: C11_15  and  O3_16 
REMARK    7  A    between atoms: C11_15  and  N2_18 
REMARK    8  A    between atoms: N2_18  and  C12_20 
REMARK    9  A    between atoms: C12_20  and  C13_21 
REMARK   10  A    between atoms: C12_20  and  C14_24 
ROOT
HETATM    1  C3  UNL     1      66.673  16.797  41.839  1.00  0.00     0.161 C 
ENDROOT
BRANCH   1   2
HETATM    2  N1  UNL     1      66.386  15.343  42.095  1.00  0.00    -0.325 N 
HETATM    3  C2  UNL     1      66.843  14.331  41.249  1.00  0.00     0.360 C 
HETATM    4  O2  UNL     1      67.517  14.607  40.236  1.00  0.00    -0.239 OA
ATOM      5  H1  UNL     1      65.837  15.086  42.916  1.00  0.00     0.165 HD
BRANCH   3   6
HETATM    6  O1  UNL     1      66.556  13.013  41.526  1.00  0.00    -0.309 OA
HETATM    7  C1  UNL     1      66.539  12.446  42.797  1.00  0.00     0.215 C 
ENDBRANCH   3   6
ENDBRANCH   1   2
BRANCH   1   8
HETATM    8  C4  UNL     1      66.447  17.569  43.063  1.00  0.00     0.038 C 
BRANCH   8   9
HETATM    9  C5  UNL     1      67.011  17.054  44.331  1.00  0.00    -0.012 C 
HETATM   10  C6  UNL     1      68.533  17.194  44.365  1.00  0.00     0.005 C 
HETATM   11  C7  UNL     1      68.988  18.378  45.178  1.00  0.00     0.000 C 
HETATM   12  C8  UNL     1      68.539  18.273  46.622  1.00  0.00     0.000 C 
HETATM   13  C9  UNL     1      67.300  17.406  46.734  1.00  0.00     0.000 C 
HETATM   14  C10 UNL     1      66.430  17.761  45.549  1.00  0.00     0.005 C 
ENDBRANCH   8   9
ENDBRANCH   1   8
BRANCH   1  15
HETATM   15  C11 UNL     1      65.906  17.061  40.625  1.00  0.00     0.136 C 
BRANCH  15  16
HETATM   16  O3  UNL     1      64.612  17.066  40.831  1.00  0.00    -0.348 OA
ATOM     17  H3  UNL     1      64.129  16.607  40.155  1.00  0.00     0.219 HD
ENDBRANCH  15  16
BRANCH  15  18
HETATM   18  N2  UNL     1      66.277  17.305  39.325  1.00  0.00    -0.350 N 
ATOM     19  H2  UNL     1      66.246  16.542  38.649  1.00  0.00     0.162 HD
BRANCH  18  20
HETATM   20  C12 UNL     1      66.722  18.654  38.875  1.00  0.00     0.286 C 
BRANCH  20  21
HETATM   21  C13 UNL     1      67.773  18.529  37.863  1.00  0.00     0.207 C 
HETATM   22  O4  UNL     1      68.078  17.398  37.415  1.00  0.00    -0.646 OA
HETATM   23  O5  UNL     1      68.452  19.627  37.374  1.00  0.00    -0.646 OA
ENDBRANCH  20  21
BRANCH  20  24
HETATM   24  C14 UNL     1      65.565  19.400  38.345  1.00  0.00     0.207 C 
HETATM   25  O6  UNL     1      64.418  18.901  38.330  1.00  0.00    -0.646 OA
HETATM   26  O7  UNL     1      65.706  20.684  37.843  1.00  0.00    -0.646 OA
ENDBRANCH  20  24
ENDBRANCH  18  20
ENDBRANCH  15  18
ENDBRANCH   1  15
TORSDOF 10
ENDMDL
