MODEL 1
REMARK VINA RESULT: -7.413030046      0.000      0.000
REMARK  9 active torsions:
REMARK  status: ('A' for Active; 'I' for Inactive)
REMARK    1  A    between atoms: C2_2  and  C4_4 
REMARK    2  A    between atoms: C4_4  and  N1_5 
REMARK    3  A    between atoms: C4_4  and  C16_25 
REMARK       I    between atoms: N1_5  and  C5_7 
REMARK    4  A    between atoms: C5_7  and  C6_9 
REMARK    5  A    between atoms: C6_9  and  O2_11 
REMARK    6  A    between atoms: C6_9  and  N2_13 
REMARK       I    between atoms: N2_13  and  C8_15 
REMARK    7  A    between atoms: C8_15  and  O4_17 
REMARK    8  A    between atoms: O4_17  and  C9_18 
REMARK    9  A    between atoms: C9_18  and  C10_19 
ROOT
HETATM    1  C6  UNL     1      66.072  14.540  42.339  1.00  0.00     0.215 C 
HETATM    2  C7  UNL     1      67.336  13.697  42.335  1.00  0.00     0.082 C 
ENDROOT
BRANCH   1   3
HETATM    3  C5  UNL     1      65.925  15.086  40.987  1.00  0.00     0.274 C 
HETATM    4  N1  UNL     1      65.916  16.510  40.821  1.00  0.00    -0.342 N 
ATOM      5  H1  UNL     1      66.011  17.124  41.630  1.00  0.00     0.163 HD
HETATM    6  O1  UNL     1      65.808  14.328  39.992  1.00  0.00    -0.268 OA
BRANCH   4   7
HETATM    7  C4  UNL     1      65.773  17.058  39.507  1.00  0.00     0.189 C 
BRANCH   7   8
HETATM    8  C2  UNL     1      66.915  18.022  39.262  1.00  0.00     0.010 C 
HETATM    9  C1  UNL     1      67.530  17.797  37.899  1.00  0.00     0.012 C 
HETATM   10  C3  UNL     1      67.923  17.951  40.376  1.00  0.00     0.012 C 
ENDBRANCH   7   8
BRANCH   7  11
HETATM   11  C16 UNL     1      64.457  17.727  39.388  1.00  0.00     0.197 C 
HETATM   12  O5  UNL     1      64.339  18.812  38.729  1.00  0.00    -0.646 OA
HETATM   13  O6  UNL     1      63.304  17.216  39.974  1.00  0.00    -0.646 OA
ENDBRANCH   7  11
ENDBRANCH   4   7
ENDBRANCH   1   3
BRANCH   1  14
HETATM   14  O2  UNL     1      65.018  13.669  42.635  1.00  0.00    -0.363 OA
ATOM     15  H2  UNL     1      65.275  12.768  42.480  1.00  0.00     0.213 HD
ENDBRANCH   1  14
BRANCH   1  16
HETATM   16  N2  UNL     1      66.115  15.569  43.315  1.00  0.00    -0.297 N 
HETATM   17  C8  UNL     1      67.230  16.275  43.809  1.00  0.00     0.363 C 
HETATM   18  O3  UNL     1      68.425  16.095  43.456  1.00  0.00    -0.238 OA
ATOM     19  H2  UNL     1      65.215  15.835  43.714  1.00  0.00     0.168 HD
BRANCH  17  20
HETATM   20  O4  UNL     1      67.071  17.280  44.785  1.00  0.00    -0.299 OA
BRANCH  20  21
HETATM   21  C9  UNL     1      68.177  17.836  45.448  1.00  0.00     0.219 C 
BRANCH  21  22
HETATM   22  C10 UNL     1      67.803  18.245  46.807  1.00  0.00    -0.034 A 
HETATM   23  C11 UNL     1      66.468  18.297  47.136  1.00  0.00     0.009 A 
HETATM   24  C12 UNL     1      66.051  18.679  48.396  1.00  0.00     0.001 A 
HETATM   25  C13 UNL     1      67.008  19.011  49.330  1.00  0.00     0.000 A 
HETATM   26  C14 UNL     1      68.358  18.973  49.046  1.00  0.00     0.001 A 
HETATM   27  C15 UNL     1      68.717  18.586  47.776  1.00  0.00     0.009 A 
ENDBRANCH  21  22
ENDBRANCH  20  21
ENDBRANCH  17  20
ENDBRANCH   1  16
TORSDOF 9
ENDMDL
MODEL 2
REMARK VINA RESULT: -7.405059446      0.977      1.544
REMARK  9 active torsions:
REMARK  status: ('A' for Active; 'I' for Inactive)
REMARK    1  A    between atoms: C2_2  and  C4_4 
REMARK    2  A    between atoms: C4_4  and  N1_5 
REMARK    3  A    between atoms: C4_4  and  C16_25 
REMARK       I    between atoms: N1_5  and  C5_7 
REMARK    4  A    between atoms: C5_7  and  C6_9 
REMARK    5  A    between atoms: C6_9  and  O2_11 
REMARK    6  A    between atoms: C6_9  and  N2_13 
REMARK       I    between atoms: N2_13  and  C8_15 
REMARK    7  A    between atoms: C8_15  and  O4_17 
REMARK    8  A    between atoms: O4_17  and  C9_18 
REMARK    9  A    between atoms: C9_18  and  C10_19 
ROOT
HETATM    1  C6  UNL     1      66.976  14.436  42.401  1.00  0.00     0.215 C 
HETATM    2  C7  UNL     1      68.374  14.484  41.805  1.00  0.00     0.082 C 
ENDROOT
BRANCH   1   3
HETATM    3  C5  UNL     1      66.058  14.903  41.360  1.00  0.00     0.274 C 
HETATM    4  N1  UNL     1      66.466  15.996  40.527  1.00  0.00    -0.342 N 
ATOM      5  H1  UNL     1      67.377  16.435  40.662  1.00  0.00     0.163 HD
HETATM    6  O1  UNL     1      64.937  14.362  41.195  1.00  0.00    -0.268 OA
BRANCH   4   7
HETATM    7  C4  UNL     1      65.580  16.464  39.505  1.00  0.00     0.189 C 
BRANCH   7   8
HETATM    8  C2  UNL     1      66.350  17.394  38.590  1.00  0.00     0.010 C 
HETATM    9  C1  UNL     1      67.650  17.826  39.227  1.00  0.00     0.012 C 
HETATM   10  C3  UNL     1      65.493  18.554  38.166  1.00  0.00     0.012 C 
ENDBRANCH   7   8
BRANCH   7  11
HETATM   11  C16 UNL     1      64.420  17.144  40.126  1.00  0.00     0.197 C 
HETATM   12  O5  UNL     1      64.594  18.068  40.987  1.00  0.00    -0.646 OA
HETATM   13  O6  UNL     1      63.106  16.818  39.808  1.00  0.00    -0.646 OA
ENDBRANCH   7  11
ENDBRANCH   4   7
ENDBRANCH   1   3
BRANCH   1  14
HETATM   14  O2  UNL     1      66.727  13.095  42.712  1.00  0.00    -0.363 OA
ATOM     15  H2  UNL     1      67.155  12.855  43.525  1.00  0.00     0.213 HD
ENDBRANCH   1  14
BRANCH   1  16
HETATM   16  N2  UNL     1      66.868  15.217  43.581  1.00  0.00    -0.297 N 
HETATM   17  C8  UNL     1      67.170  16.580  43.772  1.00  0.00     0.363 C 
HETATM   18  O3  UNL     1      67.611  17.362  42.890  1.00  0.00    -0.238 OA
ATOM     19  H2  UNL     1      66.525  14.724  44.405  1.00  0.00     0.168 HD
BRANCH  17  20
HETATM   20  O4  UNL     1      66.988  17.188  45.031  1.00  0.00    -0.299 OA
BRANCH  20  21
HETATM   21  C9  UNL     1      68.030  17.888  45.661  1.00  0.00     0.219 C 
BRANCH  21  22
HETATM   22  C10 UNL     1      67.617  18.313  47.005  1.00  0.00    -0.034 A 
HETATM   23  C11 UNL     1      68.591  18.593  47.936  1.00  0.00     0.009 A 
HETATM   24  C12 UNL     1      68.267  18.991  49.218  1.00  0.00     0.001 A 
HETATM   25  C13 UNL     1      66.935  19.105  49.552  1.00  0.00     0.000 A 
HETATM   26  C14 UNL     1      65.925  18.836  48.652  1.00  0.00     0.001 A 
HETATM   27  C15 UNL     1      66.303  18.443  47.389  1.00  0.00     0.009 A 
ENDBRANCH  21  22
ENDBRANCH  20  21
ENDBRANCH  17  20
ENDBRANCH   1  16
TORSDOF 9
ENDMDL
MODEL 3
REMARK VINA RESULT: -7.198920729      1.127      1.629
REMARK  9 active torsions:
REMARK  status: ('A' for Active; 'I' for Inactive)
REMARK    1  A    between atoms: C2_2  and  C4_4 
REMARK    2  A    between atoms: C4_4  and  N1_5 
REMARK    3  A    between atoms: C4_4  and  C16_25 
REMARK       I    between atoms: N1_5  and  C5_7 
REMARK    4  A    between atoms: C5_7  and  C6_9 
REMARK    5  A    between atoms: C6_9  and  O2_11 
REMARK    6  A    between atoms: C6_9  and  N2_13 
REMARK       I    between atoms: N2_13  and  C8_15 
REMARK    7  A    between atoms: C8_15  and  O4_17 
REMARK    8  A    between atoms: O4_17  and  C9_18 
REMARK    9  A    between atoms: C9_18  and  C10_19 
ROOT
HETATM    1  C6  UNL     1      66.902  15.574  41.976  1.00  0.00     0.215 C 
HETATM    2  C7  UNL     1      68.022  14.546  41.988  1.00  0.00     0.082 C 
ENDROOT
BRANCH   1   3
HETATM    3  C5  UNL     1      66.696  15.957  40.577  1.00  0.00     0.274 C 
HETATM    4  N1  UNL     1      66.711  17.351  40.240  1.00  0.00    -0.342 N 
ATOM      5  H1  UNL     1      66.862  18.055  40.963  1.00  0.00     0.163 HD
HETATM    6  O1  UNL     1      66.510  15.090  39.689  1.00  0.00    -0.268 OA
BRANCH   4   7
HETATM    7  C4  UNL     1      66.511  17.741  38.878  1.00  0.00     0.189 C 
BRANCH   7   8
HETATM    8  C2  UNL     1      67.552  18.782  38.519  1.00  0.00     0.010 C 
HETATM    9  C1  UNL     1      66.902  20.110  38.203  1.00  0.00     0.012 C 
HETATM   10  C3  UNL     1      68.439  18.287  37.410  1.00  0.00     0.012 C 
ENDBRANCH   7   8
BRANCH   7  11
HETATM   11  C16 UNL     1      65.135  18.261  38.706  1.00  0.00     0.197 C 
HETATM   12  O5  UNL     1      64.907  19.247  37.931  1.00  0.00    -0.646 OA
HETATM   13  O6  UNL     1      64.041  17.712  39.366  1.00  0.00    -0.646 OA
ENDBRANCH   7  11
ENDBRANCH   4   7
ENDBRANCH   1   3
BRANCH   1  14
HETATM   14  O2  UNL     1      65.768  14.927  42.481  1.00  0.00    -0.363 OA
ATOM     15  H2  UNL     1      65.437  15.383  43.245  1.00  0.00     0.213 HD
ENDBRANCH   1  14
BRANCH   1  16
HETATM   16  N2  UNL     1      67.197  16.700  42.788  1.00  0.00    -0.297 N 
HETATM   17  C8  UNL     1      67.173  16.809  44.193  1.00  0.00     0.363 C 
HETATM   18  O3  UNL     1      66.865  15.889  44.993  1.00  0.00    -0.238 OA
ATOM     19  H2  UNL     1      67.464  17.546  42.286  1.00  0.00     0.168 HD
BRANCH  17  20
HETATM   20  O4  UNL     1      67.509  18.023  44.825  1.00  0.00    -0.299 OA
BRANCH  20  21
HETATM   21  C9  UNL     1      68.469  18.072  45.850  1.00  0.00     0.219 C 
BRANCH  21  22
HETATM   22  C10 UNL     1      67.833  18.423  47.126  1.00  0.00    -0.034 A 
HETATM   23  C11 UNL     1      68.637  18.759  48.191  1.00  0.00     0.009 A 
HETATM   24  C12 UNL     1      68.100  19.093  49.420  1.00  0.00     0.001 A 
HETATM   25  C13 UNL     1      66.729  19.084  49.560  1.00  0.00     0.000 A 
HETATM   26  C14 UNL     1      65.885  18.754  48.520  1.00  0.00     0.001 A 
HETATM   27  C15 UNL     1      66.472  18.429  47.319  1.00  0.00     0.009 A 
ENDBRANCH  21  22
ENDBRANCH  20  21
ENDBRANCH  17  20
ENDBRANCH   1  16
TORSDOF 9
ENDMDL
MODEL 4
REMARK VINA RESULT: -6.783418197      3.678      8.711
REMARK  9 active torsions:
REMARK  status: ('A' for Active; 'I' for Inactive)
REMARK    1  A    between atoms: C2_2  and  C4_4 
REMARK    2  A    between atoms: C4_4  and  N1_5 
REMARK    3  A    between atoms: C4_4  and  C16_25 
REMARK       I    between atoms: N1_5  and  C5_7 
REMARK    4  A    between atoms: C5_7  and  C6_9 
REMARK    5  A    between atoms: C6_9  and  O2_11 
REMARK    6  A    between atoms: C6_9  and  N2_13 
REMARK       I    between atoms: N2_13  and  C8_15 
REMARK    7  A    between atoms: C8_15  and  O4_17 
REMARK    8  A    between atoms: O4_17  and  C9_18 
REMARK    9  A    between atoms: C9_18  and  C10_19 
ROOT
HETATM    1  C6  UNL     1      67.055  18.025  48.605  1.00  0.00     0.215 C 
HETATM    2  C7  UNL     1      67.665  16.824  49.311  1.00  0.00     0.082 C 
ENDROOT
BRANCH   1   3
HETATM    3  C5  UNL     1      65.879  18.420  49.384  1.00  0.00     0.274 C 
HETATM    4  N1  UNL     1      64.911  17.417  49.719  1.00  0.00    -0.342 N 
ATOM      5  H1  UNL     1      65.044  16.452  49.418  1.00  0.00     0.163 HD
HETATM    6  O1  UNL     1      65.718  19.609  49.754  1.00  0.00    -0.268 OA
BRANCH   4   7
HETATM    7  C4  UNL     1      63.757  17.788  50.480  1.00  0.00     0.189 C 
BRANCH   7   8
HETATM    8  C2  UNL     1      63.871  17.169  51.857  1.00  0.00     0.010 C 
HETATM    9  C1  UNL     1      64.470  18.147  52.842  1.00  0.00     0.012 C 
HETATM   10  C3  UNL     1      64.621  15.867  51.797  1.00  0.00     0.012 C 
ENDBRANCH   7   8
BRANCH   7  11
HETATM   11  C16 UNL     1      62.533  17.339  49.777  1.00  0.00     0.197 C 
HETATM   12  O5  UNL     1      62.585  16.392  48.925  1.00  0.00    -0.646 OA
HETATM   13  O6  UNL     1      61.288  17.914  50.006  1.00  0.00    -0.646 OA
ENDBRANCH   7  11
ENDBRANCH   4   7
ENDBRANCH   1   3
BRANCH   1  14
HETATM   14  O2  UNL     1      68.026  19.033  48.632  1.00  0.00    -0.363 OA
ATOM     15  H2  UNL     1      68.519  18.999  49.443  1.00  0.00     0.213 HD
ENDBRANCH   1  14
BRANCH   1  16
HETATM   16  N2  UNL     1      66.716  17.740  47.256  1.00  0.00    -0.297 N 
HETATM   17  C8  UNL     1      67.508  17.870  46.098  1.00  0.00     0.363 C 
HETATM   18  O3  UNL     1      68.695  18.286  46.066  1.00  0.00    -0.238 OA
ATOM     19  H2  UNL     1      65.769  17.393  47.105  1.00  0.00     0.168 HD
BRANCH  17  20
HETATM   20  O4  UNL     1      66.992  17.526  44.832  1.00  0.00    -0.299 OA
BRANCH  20  21
HETATM   21  C9  UNL     1      67.834  17.095  43.793  1.00  0.00     0.219 C 
BRANCH  21  22
HETATM   22  C10 UNL     1      67.193  16.012  43.036  1.00  0.00    -0.034 A 
HETATM   23  C11 UNL     1      66.142  16.322  42.204  1.00  0.00     0.009 A 
HETATM   24  C12 UNL     1      65.494  15.347  41.471  1.00  0.00     0.001 A 
HETATM   25  C13 UNL     1      65.925  14.043  41.588  1.00  0.00     0.000 A 
HETATM   26  C14 UNL     1      66.975  13.686  42.409  1.00  0.00     0.001 A 
HETATM   27  C15 UNL     1      67.584  14.696  43.117  1.00  0.00     0.009 A 
ENDBRANCH  21  22
ENDBRANCH  20  21
ENDBRANCH  17  20
ENDBRANCH   1  16
TORSDOF 9
ENDMDL
MODEL 5
REMARK VINA RESULT: -6.777439470      4.044      9.324
REMARK  9 active torsions:
REMARK  status: ('A' for Active; 'I' for Inactive)
REMARK    1  A    between atoms: C2_2  and  C4_4 
REMARK    2  A    between atoms: C4_4  and  N1_5 
REMARK    3  A    between atoms: C4_4  and  C16_25 
REMARK       I    between atoms: N1_5  and  C5_7 
REMARK    4  A    between atoms: C5_7  and  C6_9 
REMARK    5  A    between atoms: C6_9  and  O2_11 
REMARK    6  A    between atoms: C6_9  and  N2_13 
REMARK       I    between atoms: N2_13  and  C8_15 
REMARK    7  A    between atoms: C8_15  and  O4_17 
REMARK    8  A    between atoms: O4_17  and  C9_18 
REMARK    9  A    between atoms: C9_18  and  C10_19 
ROOT
HETATM    1  C6  UNL     1      67.254  18.394  48.876  1.00  0.00     0.215 C 
HETATM    2  C7  UNL     1      67.648  17.378  49.936  1.00  0.00     0.082 C 
ENDROOT
BRANCH   1   3
HETATM    3  C5  UNL     1      66.174  19.202  49.446  1.00  0.00     0.274 C 
HETATM    4  N1  UNL     1      66.433  19.940  50.648  1.00  0.00    -0.342 N 
ATOM      5  H1  UNL     1      67.351  19.899  51.090  1.00  0.00     0.163 HD
HETATM    6  O1  UNL     1      65.045  19.252  48.900  1.00  0.00    -0.268 OA
BRANCH   4   7
HETATM    7  C4  UNL     1      65.389  20.735  51.217  1.00  0.00     0.189 C 
BRANCH   7   8
HETATM    8  C2  UNL     1      66.019  21.884  51.978  1.00  0.00     0.010 C 
HETATM    9  C1  UNL     1      65.854  23.185  51.226  1.00  0.00     0.012 C 
HETATM   10  C3  UNL     1      67.453  21.579  52.312  1.00  0.00     0.012 C 
ENDBRANCH   7   8
BRANCH   7  11
HETATM   11  C16 UNL     1      64.546  19.893  52.097  1.00  0.00     0.197 C 
HETATM   12  O5  UNL     1      63.307  20.151  52.248  1.00  0.00    -0.646 OA
HETATM   13  O6  UNL     1      65.051  18.798  52.790  1.00  0.00    -0.646 OA
ENDBRANCH   7  11
ENDBRANCH   4   7
ENDBRANCH   1   3
BRANCH   1  14
HETATM   14  O2  UNL     1      68.388  19.180  48.644  1.00  0.00    -0.363 OA
ATOM     15  H2  UNL     1      69.174  18.648  48.667  1.00  0.00     0.213 HD
ENDBRANCH   1  14
BRANCH   1  16
HETATM   16  N2  UNL     1      66.858  17.776  47.661  1.00  0.00    -0.297 N 
HETATM   17  C8  UNL     1      67.544  17.722  46.431  1.00  0.00     0.363 C 
HETATM   18  O3  UNL     1      68.666  18.241  46.195  1.00  0.00    -0.238 OA
ATOM     19  H2  UNL     1      65.953  17.307  47.681  1.00  0.00     0.168 HD
BRANCH  17  20
HETATM   20  O4  UNL     1      66.986  17.047  45.326  1.00  0.00    -0.299 OA
BRANCH  20  21
HETATM   21  C9  UNL     1      66.884  17.664  44.069  1.00  0.00     0.219 C 
BRANCH  21  22
HETATM   22  C10 UNL     1      67.021  16.666  43.000  1.00  0.00    -0.034 A 
HETATM   23  C11 UNL     1      67.689  15.494  43.274  1.00  0.00     0.009 A 
HETATM   24  C12 UNL     1      67.857  14.519  42.310  1.00  0.00     0.001 A 
HETATM   25  C13 UNL     1      67.336  14.744  41.053  1.00  0.00     0.000 A 
HETATM   26  C14 UNL     1      66.659  15.903  40.733  1.00  0.00     0.001 A 
HETATM   27  C15 UNL     1      66.522  16.840  41.731  1.00  0.00     0.009 A 
ENDBRANCH  21  22
ENDBRANCH  20  21
ENDBRANCH  17  20
ENDBRANCH   1  16
TORSDOF 9
ENDMDL
