MODEL 1
REMARK VINA RESULT: -8.461628335      0.000      0.000
REMARK  7 active torsions:
REMARK  status: ('A' for Active; 'I' for Inactive)
REMARK    1  A    between atoms: C2_2  and  C3_4 
REMARK    2  A    between atoms: C3_4  and  N1_6 
REMARK       I    between atoms: N1_6  and  C5_8 
REMARK    3  A    between atoms: C5_8  and  C6_10 
REMARK    4  A    between atoms: C6_10  and  N2_11 
REMARK    5  A    between atoms: C6_10  and  C15_26 
REMARK       I    between atoms: N2_11  and  C7_13 
REMARK    6  A    between atoms: C7_13  and  C8_15 
REMARK    7  A    between atoms: C11_18  and  C12_19 
ROOT
HETATM    1  N2  UNL     1      67.049  16.233  43.533  1.00  0.00    -0.343 N 
ATOM      2  H2  UNL     1      66.378  15.746  44.128  1.00  0.00     0.163 HD
HETATM    3  C7  UNL     1      67.819  17.303  44.072  1.00  0.00     0.252 C 
HETATM    4  O3  UNL     1      68.660  17.949  43.402  1.00  0.00    -0.268 OA
ENDROOT
BRANCH   1   5
HETATM    5  C6  UNL     1      67.207  15.825  42.148  1.00  0.00     0.180 C 
BRANCH   5   6
HETATM    6  C5  UNL     1      66.299  16.563  41.258  1.00  0.00     0.241 C 
HETATM    7  N1  UNL     1      66.315  16.363  39.866  1.00  0.00    -0.348 N 
ATOM      8  H1  UNL     1      66.984  15.690  39.489  1.00  0.00     0.163 HD
HETATM    9  O2  UNL     1      65.493  17.380  41.740  1.00  0.00    -0.271 OA
BRANCH   7  10
HETATM   10  C3  UNL     1      65.438  17.053  38.924  1.00  0.00     0.149 C 
HETATM   11  C4  UNL     1      64.153  17.367  39.662  1.00  0.00     0.040 C 
BRANCH  10  12
HETATM   12  C2  UNL     1      66.043  18.308  38.444  1.00  0.00     0.145 C 
HETATM   13  C1  UNL     1      67.499  18.490  38.350  1.00  0.00     0.093 C 
HETATM   14  O1  UNL     1      65.307  19.223  38.117  1.00  0.00    -0.296 OA
ENDBRANCH  10  12
ENDBRANCH   7  10
ENDBRANCH   5   6
BRANCH   5  15
HETATM   15  C15 UNL     1      67.042  14.318  42.016  1.00  0.00     0.009 C 
HETATM   16  C16 UNL     1      67.683  13.662  43.223  1.00  0.00     0.012 C 
HETATM   17  C17 UNL     1      65.626  13.880  41.946  1.00  0.00     0.012 C 
ENDBRANCH   5  15
ENDBRANCH   1   5
BRANCH   3  18
HETATM   18  C8  UNL     1      67.661  17.708  45.467  1.00  0.00     0.032 A 
HETATM   19  C9  UNL     1      66.459  17.571  46.134  1.00  0.00     0.018 A 
HETATM   20  C10 UNL     1      66.393  17.976  47.443  1.00  0.00     0.016 A 
HETATM   21  C11 UNL     1      67.499  18.512  48.103  1.00  0.00     0.004 A 
HETATM   22  C13 UNL     1      68.698  18.648  47.442  1.00  0.00     0.016 A 
HETATM   23  C14 UNL     1      68.752  18.239  46.124  1.00  0.00     0.018 A 
BRANCH  21  24
HETATM   24  C12 UNL     1      67.394  18.942  49.472  1.00  0.00     0.120 C 
HETATM   25  N3  UNL     1      66.435  19.643  49.910  1.00  0.00    -0.387 N 
ATOM     26  H32 UNL     1      65.711  19.917  49.245  1.00  0.00     0.157 HD
ATOM     27  H31 UNL     1      66.361  19.948  50.881  1.00  0.00     0.157 HD
HETATM   28  N4  UNL     1      68.413  18.557  50.408  1.00  0.00    -0.082 NA
ENDBRANCH  21  24
ENDBRANCH   3  18
TORSDOF 7
ENDMDL
MODEL 2
REMARK VINA RESULT: -8.305521809      0.649      1.237
REMARK  7 active torsions:
REMARK  status: ('A' for Active; 'I' for Inactive)
REMARK    1  A    between atoms: C2_2  and  C3_4 
REMARK    2  A    between atoms: C3_4  and  N1_6 
REMARK       I    between atoms: N1_6  and  C5_8 
REMARK    3  A    between atoms: C5_8  and  C6_10 
REMARK    4  A    between atoms: C6_10  and  N2_11 
REMARK    5  A    between atoms: C6_10  and  C15_26 
REMARK       I    between atoms: N2_11  and  C7_13 
REMARK    6  A    between atoms: C7_13  and  C8_15 
REMARK    7  A    between atoms: C11_18  and  C12_19 
ROOT
HETATM    1  N2  UNL     1      67.205  16.253  43.894  1.00  0.00    -0.343 N 
ATOM      2  H2  UNL     1      66.603  15.693  44.499  1.00  0.00     0.163 HD
HETATM    3  C7  UNL     1      67.856  17.405  44.421  1.00  0.00     0.252 C 
HETATM    4  O3  UNL     1      68.608  18.142  43.739  1.00  0.00    -0.268 OA
ENDROOT
BRANCH   1   5
HETATM    5  C6  UNL     1      67.387  15.865  42.507  1.00  0.00     0.180 C 
BRANCH   5   6
HETATM    6  C5  UNL     1      66.757  16.823  41.587  1.00  0.00     0.241 C 
HETATM    7  N1  UNL     1      67.295  17.078  40.312  1.00  0.00    -0.348 N 
ATOM      8  H1  UNL     1      68.144  16.579  40.045  1.00  0.00     0.163 HD
HETATM    9  O2  UNL     1      65.723  17.423  41.936  1.00  0.00    -0.271 OA
BRANCH   7  10
HETATM   10  C3  UNL     1      66.719  18.010  39.346  1.00  0.00     0.149 C 
HETATM   11  C4  UNL     1      67.685  18.094  38.181  1.00  0.00     0.040 C 
BRANCH  10  12
HETATM   12  C2  UNL     1      65.409  17.540  38.860  1.00  0.00     0.145 C 
HETATM   13  C1  UNL     1      65.117  16.115  38.648  1.00  0.00     0.093 C 
HETATM   14  O1  UNL     1      64.544  18.366  38.627  1.00  0.00    -0.296 OA
ENDBRANCH  10  12
ENDBRANCH   7  10
ENDBRANCH   5   6
BRANCH   5  15
HETATM   15  C15 UNL     1      66.891  14.443  42.283  1.00  0.00     0.009 C 
HETATM   16  C16 UNL     1      67.592  13.534  43.272  1.00  0.00     0.012 C 
HETATM   17  C17 UNL     1      65.426  14.291  42.469  1.00  0.00     0.012 C 
ENDBRANCH   5  15
ENDBRANCH   1   5
BRANCH   3  18
HETATM   18  C8  UNL     1      67.674  17.791  45.819  1.00  0.00     0.032 A 
HETATM   19  C9  UNL     1      66.461  17.644  46.464  1.00  0.00     0.018 A 
HETATM   20  C10 UNL     1      66.372  18.030  47.777  1.00  0.00     0.016 A 
HETATM   21  C11 UNL     1      67.466  18.558  48.463  1.00  0.00     0.004 A 
HETATM   22  C13 UNL     1      68.676  18.704  47.824  1.00  0.00     0.016 A 
HETATM   23  C14 UNL     1      68.754  18.313  46.502  1.00  0.00     0.018 A 
BRANCH  21  24
HETATM   24  C12 UNL     1      67.338  18.969  49.836  1.00  0.00     0.120 C 
HETATM   25  N3  UNL     1      66.461  19.790  50.238  1.00  0.00    -0.387 N 
ATOM     26  H32 UNL     1      65.826  20.177  49.540  1.00  0.00     0.157 HD
ATOM     27  H31 UNL     1      66.371  20.081  51.211  1.00  0.00     0.157 HD
HETATM   28  N4  UNL     1      68.232  18.424  50.818  1.00  0.00    -0.082 NA
ENDBRANCH  21  24
ENDBRANCH   3  18
TORSDOF 7
ENDMDL
MODEL 3
REMARK VINA RESULT: -8.113228375      0.851      1.772
REMARK  7 active torsions:
REMARK  status: ('A' for Active; 'I' for Inactive)
REMARK    1  A    between atoms: C2_2  and  C3_4 
REMARK    2  A    between atoms: C3_4  and  N1_6 
REMARK       I    between atoms: N1_6  and  C5_8 
REMARK    3  A    between atoms: C5_8  and  C6_10 
REMARK    4  A    between atoms: C6_10  and  N2_11 
REMARK    5  A    between atoms: C6_10  and  C15_26 
REMARK       I    between atoms: N2_11  and  C7_13 
REMARK    6  A    between atoms: C7_13  and  C8_15 
REMARK    7  A    between atoms: C11_18  and  C12_19 
ROOT
HETATM    1  N2  UNL     1      66.843  16.136  43.578  1.00  0.00    -0.343 N 
ATOM      2  H2  UNL     1      66.231  15.682  44.256  1.00  0.00     0.163 HD
HETATM    3  C7  UNL     1      67.693  17.198  43.999  1.00  0.00     0.252 C 
HETATM    4  O3  UNL     1      68.471  17.805  43.223  1.00  0.00    -0.268 OA
ENDROOT
BRANCH   1   5
HETATM    5  C6  UNL     1      66.837  15.692  42.195  1.00  0.00     0.180 C 
BRANCH   5   6
HETATM    6  C5  UNL     1      66.486  16.783  41.275  1.00  0.00     0.241 C 
HETATM    7  N1  UNL     1      67.317  17.124  40.192  1.00  0.00    -0.348 N 
ATOM      8  H1  UNL     1      68.179  16.592  40.067  1.00  0.00     0.163 HD
HETATM    9  O2  UNL     1      65.431  17.421  41.449  1.00  0.00    -0.271 OA
BRANCH   7  10
HETATM   10  C3  UNL     1      67.029  18.189  39.236  1.00  0.00     0.149 C 
HETATM   11  C4  UNL     1      68.099  18.126  38.165  1.00  0.00     0.040 C 
BRANCH  10  12
HETATM   12  C2  UNL     1      65.705  18.011  38.613  1.00  0.00     0.145 C 
HETATM   13  C1  UNL     1      64.728  19.105  38.521  1.00  0.00     0.093 C 
HETATM   14  O1  UNL     1      65.416  16.916  38.162  1.00  0.00    -0.296 OA
ENDBRANCH  10  12
ENDBRANCH   7  10
ENDBRANCH   5   6
BRANCH   5  15
HETATM   15  C15 UNL     1      65.924  14.485  42.030  1.00  0.00     0.009 C 
HETATM   16  C16 UNL     1      65.758  14.214  40.548  1.00  0.00     0.012 C 
HETATM   17  C17 UNL     1      66.446  13.253  42.673  1.00  0.00     0.012 C 
ENDBRANCH   5  15
ENDBRANCH   1   5
BRANCH   3  18
HETATM   18  C8  UNL     1      67.701  17.641  45.392  1.00  0.00     0.032 A 
HETATM   19  C9  UNL     1      68.804  18.252  45.956  1.00  0.00     0.018 A 
HETATM   20  C10 UNL     1      68.731  18.638  47.271  1.00  0.00     0.016 A 
HETATM   21  C11 UNL     1      67.583  18.430  48.035  1.00  0.00     0.004 A 
HETATM   22  C13 UNL     1      66.482  17.823  47.475  1.00  0.00     0.016 A 
HETATM   23  C14 UNL     1      66.567  17.437  46.151  1.00  0.00     0.018 A 
BRANCH  21  24
HETATM   24  C12 UNL     1      67.542  18.831  49.416  1.00  0.00     0.120 C 
HETATM   25  N3  UNL     1      66.670  19.618  49.888  1.00  0.00    -0.387 N 
ATOM     26  H32 UNL     1      65.971  19.985  49.241  1.00  0.00     0.157 HD
ATOM     27  H31 UNL     1      66.642  19.903  50.867  1.00  0.00     0.157 HD
HETATM   28  N4  UNL     1      68.527  18.315  50.325  1.00  0.00    -0.082 NA
ENDBRANCH  21  24
ENDBRANCH   3  18
TORSDOF 7
ENDMDL
MODEL 4
REMARK VINA RESULT: -7.346332154      3.312      8.687
REMARK  7 active torsions:
REMARK  status: ('A' for Active; 'I' for Inactive)
REMARK    1  A    between atoms: C2_2  and  C3_4 
REMARK    2  A    between atoms: C3_4  and  N1_6 
REMARK       I    between atoms: N1_6  and  C5_8 
REMARK    3  A    between atoms: C5_8  and  C6_10 
REMARK    4  A    between atoms: C6_10  and  N2_11 
REMARK    5  A    between atoms: C6_10  and  C15_26 
REMARK       I    between atoms: N2_11  and  C7_13 
REMARK    6  A    between atoms: C7_13  and  C8_15 
REMARK    7  A    between atoms: C11_18  and  C12_19 
ROOT
HETATM    1  N2  UNL     1      66.669  17.963  47.197  1.00  0.00    -0.343 N 
ATOM      2  H2  UNL     1      65.788  17.469  47.052  1.00  0.00     0.163 HD
HETATM    3  C7  UNL     1      67.638  17.994  46.152  1.00  0.00     0.252 C 
HETATM    4  O3  UNL     1      68.743  18.579  46.257  1.00  0.00    -0.268 OA
ENDROOT
BRANCH   1   5
HETATM    5  C6  UNL     1      66.921  18.625  48.464  1.00  0.00     0.180 C 
BRANCH   5   6
HETATM    6  C5  UNL     1      67.621  17.744  49.409  1.00  0.00     0.241 C 
HETATM    7  N1  UNL     1      67.028  16.559  49.883  1.00  0.00    -0.348 N 
ATOM      8  H1  UNL     1      66.089  16.331  49.554  1.00  0.00     0.163 HD
HETATM    9  O2  UNL     1      68.765  18.043  49.798  1.00  0.00    -0.271 OA
BRANCH   7  10
HETATM   10  C3  UNL     1      67.668  15.633  50.814  1.00  0.00     0.149 C 
HETATM   11  C4  UNL     1      67.189  16.001  52.204  1.00  0.00     0.040 C 
BRANCH  10  12
HETATM   12  C2  UNL     1      67.297  14.236  50.525  1.00  0.00     0.145 C 
HETATM   13  C1  UNL     1      68.097  13.382  49.636  1.00  0.00     0.093 C 
HETATM   14  O1  UNL     1      66.293  13.780  51.043  1.00  0.00    -0.296 OA
ENDBRANCH  10  12
ENDBRANCH   7  10
ENDBRANCH   5   6
BRANCH   5  15
HETATM   15  C15 UNL     1      65.623  19.173  49.044  1.00  0.00     0.009 C 
HETATM   16  C16 UNL     1      64.669  18.014  49.252  1.00  0.00     0.012 C 
HETATM   17  C17 UNL     1      65.801  19.869  50.342  1.00  0.00     0.012 C 
ENDBRANCH   5  15
ENDBRANCH   1   5
BRANCH   3  18
HETATM   18  C8  UNL     1      67.381  17.330  44.876  1.00  0.00     0.032 A 
HETATM   19  C9  UNL     1      66.592  17.908  43.900  1.00  0.00     0.018 A 
HETATM   20  C10 UNL     1      66.399  17.220  42.729  1.00  0.00     0.016 A 
HETATM   21  C11 UNL     1      66.976  15.969  42.509  1.00  0.00     0.004 A 
HETATM   22  C13 UNL     1      67.763  15.392  43.478  1.00  0.00     0.016 A 
HETATM   23  C14 UNL     1      67.950  16.093  44.653  1.00  0.00     0.018 A 
BRANCH  21  24
HETATM   24  C12 UNL     1      66.741  15.265  41.276  1.00  0.00     0.120 C 
HETATM   25  N3  UNL     1      67.531  14.390  40.813  1.00  0.00    -0.387 N 
ATOM     26  H32 UNL     1      68.376  14.190  41.348  1.00  0.00     0.157 HD
ATOM     27  H31 UNL     1      67.364  13.891  39.939  1.00  0.00     0.157 HD
HETATM   28  N4  UNL     1      65.551  15.546  40.523  1.00  0.00    -0.082 NA
ENDBRANCH  21  24
ENDBRANCH   3  18
TORSDOF 7
ENDMDL
MODEL 5
REMARK VINA RESULT: -6.935055757      5.193      9.715
REMARK  7 active torsions:
REMARK  status: ('A' for Active; 'I' for Inactive)
REMARK    1  A    between atoms: C2_2  and  C3_4 
REMARK    2  A    between atoms: C3_4  and  N1_6 
REMARK       I    between atoms: N1_6  and  C5_8 
REMARK    3  A    between atoms: C5_8  and  C6_10 
REMARK    4  A    between atoms: C6_10  and  N2_11 
REMARK    5  A    between atoms: C6_10  and  C15_26 
REMARK       I    between atoms: N2_11  and  C7_13 
REMARK    6  A    between atoms: C7_13  and  C8_15 
REMARK    7  A    between atoms: C11_18  and  C12_19 
ROOT
HETATM    1  N2  UNL     1      65.816  19.842  50.708  1.00  0.00    -0.343 N 
ATOM      2  H2  UNL     1      65.148  20.096  49.980  1.00  0.00     0.163 HD
HETATM    3  C7  UNL     1      67.005  19.141  50.357  1.00  0.00     0.252 C 
HETATM    4  O3  UNL     1      67.871  18.794  51.196  1.00  0.00    -0.268 OA
ENDROOT
BRANCH   1   5
HETATM    5  C6  UNL     1      65.543  20.200  52.088  1.00  0.00     0.180 C 
BRANCH   5   6
HETATM    6  C5  UNL     1      64.224  19.720  52.523  1.00  0.00     0.241 C 
HETATM    7  N1  UNL     1      63.184  19.498  51.601  1.00  0.00    -0.348 N 
ATOM      8  H1  UNL     1      63.373  19.687  50.616  1.00  0.00     0.163 HD
HETATM    9  O2  UNL     1      64.015  19.500  53.731  1.00  0.00    -0.271 OA
BRANCH   7  10
HETATM   10  C3  UNL     1      61.853  19.015  51.961  1.00  0.00     0.149 C 
HETATM   11  C4  UNL     1      60.990  20.236  52.207  1.00  0.00     0.040 C 
BRANCH  10  12
HETATM   12  C2  UNL     1      61.261  18.210  50.878  1.00  0.00     0.145 C 
HETATM   13  C1  UNL     1      62.080  17.386  49.977  1.00  0.00     0.093 C 
HETATM   14  O1  UNL     1      60.052  18.233  50.728  1.00  0.00    -0.296 OA
ENDBRANCH  10  12
ENDBRANCH   7  10
ENDBRANCH   5   6
BRANCH   5  15
HETATM   15  C15 UNL     1      65.704  21.701  52.289  1.00  0.00     0.009 C 
HETATM   16  C16 UNL     1      67.166  21.990  52.564  1.00  0.00     0.012 C 
HETATM   17  C17 UNL     1      65.282  22.505  51.115  1.00  0.00     0.012 C 
ENDBRANCH   5  15
ENDBRANCH   1   5
BRANCH   3  18
HETATM   18  C8  UNL     1      67.280  18.786  48.967  1.00  0.00     0.032 A 
HETATM   19  C9  UNL     1      68.558  18.825  48.443  1.00  0.00     0.018 A 
HETATM   20  C10 UNL     1      68.732  18.476  47.128  1.00  0.00     0.016 A 
HETATM   21  C11 UNL     1      67.661  18.088  46.322  1.00  0.00     0.004 A 
HETATM   22  C13 UNL     1      66.387  18.047  46.841  1.00  0.00     0.016 A 
HETATM   23  C14 UNL     1      66.223  18.401  48.166  1.00  0.00     0.018 A 
BRANCH  21  24
HETATM   24  C12 UNL     1      67.873  17.744  44.942  1.00  0.00     0.120 C 
HETATM   25  N3  UNL     1      68.585  18.433  44.153  1.00  0.00    -0.387 N 
ATOM     26  H32 UNL     1      69.018  19.277  44.529  1.00  0.00     0.157 HD
ATOM     27  H31 UNL     1      68.735  18.189  43.175  1.00  0.00     0.157 HD
HETATM   28  N4  UNL     1      67.263  16.556  44.414  1.00  0.00    -0.082 NA
ENDBRANCH  21  24
ENDBRANCH   3  18
TORSDOF 7
ENDMDL
