MODEL 1
REMARK VINA RESULT: -5.860425587      0.000      0.000
REMARK  2 active torsions:
REMARK  status: ('A' for Active; 'I' for Inactive)
REMARK    1  A    between atoms: C3_5  and  C4_6 
REMARK    2  A    between atoms: C7_12  and  C8_13 
ROOT
HETATM    1  C4  UNL     1     -18.434 -17.165  17.159  1.00  0.00     0.231 C 
HETATM    2  C5  UNL     1     -19.213 -17.721  18.297  1.00  0.00     0.081 C 
HETATM    3  N2  UNL     1     -19.839 -18.151  19.174  1.00  0.00    -0.196 NA
HETATM    4  C6  UNL     1     -18.958 -15.855  16.860  1.00  0.00     0.081 C 
HETATM    5  N3  UNL     1     -19.397 -14.825  16.618  1.00  0.00    -0.196 NA
ENDROOT
BRANCH   1   6
HETATM    6  C3  UNL     1     -16.980 -17.165  17.523  1.00  0.00     0.175 C 
HETATM    7  N1  UNL     1     -16.722 -17.635  18.818  1.00  0.00    -0.380 N 
HETATM    8  C2  UNL     1     -16.098 -18.648  19.174  1.00  0.00    -0.002 C 
ATOM      9  H1  UNL     1     -17.100 -17.065  19.575  1.00  0.00     0.160 HD
HETATM   10  C1  UNL     1     -15.976 -18.908  20.660  1.00  0.00     0.064 C 
HETATM   11  C14 UNL     1     -15.484 -19.568  18.165  1.00  0.00     0.156 C 
HETATM   12  C7  UNL     1     -14.650 -18.763  17.282  1.00  0.00     0.109 C 
HETATM   13  C15 UNL     1     -16.611 -20.265  17.548  1.00  0.00     0.071 C 
HETATM   14  S1  UNL     1     -15.896 -17.848  16.240  1.00  0.00    -0.130 SA
HETATM   15  N6  UNL     1     -17.492 -20.834  17.050  1.00  0.00    -0.196 NA
BRANCH  12  16
HETATM   16  C8  UNL     1     -13.576 -19.277  16.501  1.00  0.00     0.005 A 
HETATM   17  C9  UNL     1     -12.237 -19.141  16.925  1.00  0.00     0.031 A 
HETATM   18  C10 UNL     1     -11.781 -18.485  18.199  1.00  0.00     0.070 C 
HETATM   19  N4  UNL     1     -11.441 -19.692  16.019  1.00  0.00    -0.303 N 
HETATM   20  N5  UNL     1     -12.162 -20.181  15.026  1.00  0.00    -0.300 N 
ATOM     21  H4  UNL     1     -10.423 -19.731  16.080  1.00  0.00     0.186 HD
HETATM   22  C11 UNL     1     -11.651 -20.866  13.840  1.00  0.00     0.177 C 
HETATM   23  C12 UNL     1     -13.476 -19.941  15.296  1.00  0.00     0.033 A 
HETATM   24  C13 UNL     1     -14.597 -20.301  14.451  1.00  0.00     0.070 C 
ENDBRANCH  12  16
ENDBRANCH   1   6
TORSDOF 2
ENDMDL
MODEL 2
REMARK VINA RESULT: -5.549006728      3.295      4.986
REMARK  2 active torsions:
REMARK  status: ('A' for Active; 'I' for Inactive)
REMARK    1  A    between atoms: C3_5  and  C4_6 
REMARK    2  A    between atoms: C7_12  and  C8_13 
ROOT
HETATM    1  C4  UNL     1     -17.344 -17.129  18.569  1.00  0.00     0.231 C 
HETATM    2  C5  UNL     1     -17.455 -17.658  17.184  1.00  0.00     0.081 C 
HETATM    3  N2  UNL     1     -17.540 -18.051  16.096  1.00  0.00    -0.196 NA
HETATM    4  C6  UNL     1     -18.357 -16.116  18.739  1.00  0.00     0.081 C 
HETATM    5  N3  UNL     1     -19.150 -15.298  18.855  1.00  0.00    -0.196 NA
ENDROOT
BRANCH   1   6
HETATM    6  C3  UNL     1     -17.464 -18.270  19.533  1.00  0.00     0.175 C 
HETATM    7  N1  UNL     1     -18.005 -19.433  18.969  1.00  0.00    -0.380 N 
HETATM    8  C2  UNL     1     -17.472 -20.542  18.798  1.00  0.00    -0.002 C 
ATOM      9  H1  UNL     1     -18.972 -19.358  18.653  1.00  0.00     0.160 HD
HETATM   10  C1  UNL     1     -18.309 -21.627  18.155  1.00  0.00     0.064 C 
HETATM   11  C14 UNL     1     -16.058 -20.790  19.223  1.00  0.00     0.156 C 
HETATM   12  C7  UNL     1     -15.943 -20.400  20.622  1.00  0.00     0.109 C 
HETATM   13  C15 UNL     1     -15.237 -20.053  18.267  1.00  0.00     0.071 C 
HETATM   14  S1  UNL     1     -15.986 -18.538  20.549  1.00  0.00    -0.130 SA
HETATM   15  N6  UNL     1     -14.565 -19.478  17.513  1.00  0.00    -0.196 NA
BRANCH  12  16
HETATM   16  C8  UNL     1     -14.935 -20.876  21.509  1.00  0.00     0.005 A 
HETATM   17  C9  UNL     1     -15.272 -21.563  22.694  1.00  0.00     0.031 A 
HETATM   18  C10 UNL     1     -16.666 -21.888  23.155  1.00  0.00     0.070 C 
HETATM   19  N4  UNL     1     -14.159 -21.885  23.337  1.00  0.00    -0.303 N 
HETATM   20  N5  UNL     1     -13.109 -21.457  22.659  1.00  0.00    -0.300 N 
ATOM     21  H4  UNL     1     -14.118 -22.388  24.224  1.00  0.00     0.186 HD
HETATM   22  C11 UNL     1     -11.707 -21.619  23.038  1.00  0.00     0.177 C 
HETATM   23  C12 UNL     1     -13.556 -20.835  21.532  1.00  0.00     0.033 A 
HETATM   24  C13 UNL     1     -12.728 -20.206  20.522  1.00  0.00     0.070 C 
ENDBRANCH  12  16
ENDBRANCH   1   6
TORSDOF 2
ENDMDL
MODEL 3
REMARK VINA RESULT: -5.520748755      1.380      1.615
REMARK  2 active torsions:
REMARK  status: ('A' for Active; 'I' for Inactive)
REMARK    1  A    between atoms: C3_5  and  C4_6 
REMARK    2  A    between atoms: C7_12  and  C8_13 
ROOT
HETATM    1  C4  UNL     1     -18.574 -17.203  17.703  1.00  0.00     0.231 C 
HETATM    2  C5  UNL     1     -18.820 -16.082  18.648  1.00  0.00     0.081 C 
HETATM    3  N2  UNL     1     -19.032 -15.208  19.381  1.00  0.00    -0.196 NA
HETATM    4  C6  UNL     1     -19.189 -16.864  16.443  1.00  0.00     0.081 C 
HETATM    5  N3  UNL     1     -19.699 -16.594  15.454  1.00  0.00    -0.196 NA
ENDROOT
BRANCH   1   6
HETATM    6  C3  UNL     1     -17.097 -17.441  17.609  1.00  0.00     0.175 C 
HETATM    7  N1  UNL     1     -16.512 -17.846  18.817  1.00  0.00    -0.380 N 
HETATM    8  C2  UNL     1     -15.966 -18.926  19.099  1.00  0.00    -0.002 C 
ATOM      9  H1  UNL     1     -16.538 -17.158  19.569  1.00  0.00     0.160 HD
HETATM   10  C1  UNL     1     -15.416 -19.084  20.500  1.00  0.00     0.064 C 
HETATM   11  C14 UNL     1     -15.852 -20.020  18.084  1.00  0.00     0.156 C 
HETATM   12  C7  UNL     1     -15.233 -19.454  16.892  1.00  0.00     0.109 C 
HETATM   13  C15 UNL     1     -17.207 -20.544  17.934  1.00  0.00     0.071 C 
HETATM   14  S1  UNL     1     -16.595 -18.412  16.162  1.00  0.00    -0.130 SA
HETATM   15  N6  UNL     1     -18.276 -20.980  17.805  1.00  0.00    -0.196 NA
BRANCH  12  16
HETATM   16  C8  UNL     1     -14.554 -20.217  15.900  1.00  0.00     0.005 A 
HETATM   17  C9  UNL     1     -13.146 -20.209  15.811  1.00  0.00     0.031 A 
HETATM   18  C10 UNL     1     -12.213 -19.450  16.713  1.00  0.00     0.070 C 
HETATM   19  N4  UNL     1     -12.774 -20.987  14.805  1.00  0.00    -0.303 N 
HETATM   20  N5  UNL     1     -13.839 -21.508  14.222  1.00  0.00    -0.300 N 
ATOM     21  H4  UNL     1     -11.809 -21.159  14.522  1.00  0.00     0.186 HD
HETATM   22  C11 UNL     1     -13.844 -22.418  13.078  1.00  0.00     0.177 C 
HETATM   23  C12 UNL     1     -14.945 -21.053  14.874  1.00  0.00     0.033 A 
HETATM   24  C13 UNL     1     -16.320 -21.370  14.540  1.00  0.00     0.070 C 
ENDBRANCH  12  16
ENDBRANCH   1   6
TORSDOF 2
ENDMDL
MODEL 4
REMARK VINA RESULT: -5.284041005      2.564      5.400
REMARK  2 active torsions:
REMARK  status: ('A' for Active; 'I' for Inactive)
REMARK    1  A    between atoms: C3_5  and  C4_6 
REMARK    2  A    between atoms: C7_12  and  C8_13 
ROOT
HETATM    1  C4  UNL     1     -15.895 -19.146  15.707  1.00  0.00     0.231 C 
HETATM    2  C5  UNL     1     -14.840 -18.851  14.702  1.00  0.00     0.081 C 
HETATM    3  N2  UNL     1     -14.027 -18.633  13.904  1.00  0.00    -0.196 NA
HETATM    4  C6  UNL     1     -16.021 -20.579  15.810  1.00  0.00     0.081 C 
HETATM    5  N3  UNL     1     -16.126 -21.718  15.867  1.00  0.00    -0.196 NA
ENDROOT
BRANCH   1   6
HETATM    6  C3  UNL     1     -15.533 -18.478  16.999  1.00  0.00     0.175 C 
HETATM    7  N1  UNL     1     -16.480 -17.542  17.436  1.00  0.00    -0.380 N 
HETATM    8  C2  UNL     1     -17.195 -17.566  18.452  1.00  0.00    -0.002 C 
ATOM      9  H1  UNL     1     -16.599 -16.726  16.835  1.00  0.00     0.160 HD
HETATM   10  C1  UNL     1     -18.137 -16.403  18.670  1.00  0.00     0.064 C 
HETATM   11  C14 UNL     1     -17.113 -18.702  19.423  1.00  0.00     0.156 C 
HETATM   12  C7  UNL     1     -15.716 -18.861  19.802  1.00  0.00     0.109 C 
HETATM   13  C15 UNL     1     -17.740 -19.832  18.741  1.00  0.00     0.071 C 
HETATM   14  S1  UNL     1     -14.946 -19.617  18.282  1.00  0.00    -0.130 SA
HETATM   15  N6  UNL     1     -18.241 -20.741  18.219  1.00  0.00    -0.196 NA
BRANCH  12  16
HETATM   16  C8  UNL     1     -15.274 -19.498  20.997  1.00  0.00     0.005 A 
HETATM   17  C9  UNL     1     -14.204 -18.972  21.751  1.00  0.00     0.031 A 
HETATM   18  C10 UNL     1     -13.432 -17.723  21.427  1.00  0.00     0.070 C 
HETATM   19  N4  UNL     1     -13.991 -19.754  22.800  1.00  0.00    -0.303 N 
HETATM   20  N5  UNL     1     -14.846 -20.761  22.790  1.00  0.00    -0.300 N 
ATOM     21  H4  UNL     1     -13.274 -19.600  23.509  1.00  0.00     0.186 HD
HETATM   22  C11 UNL     1     -14.931 -21.835  23.777  1.00  0.00     0.177 C 
HETATM   23  C12 UNL     1     -15.645 -20.629  21.695  1.00  0.00     0.033 A 
HETATM   24  C13 UNL     1     -16.706 -21.536  21.302  1.00  0.00     0.070 C 
ENDBRANCH  12  16
ENDBRANCH   1   6
TORSDOF 2
ENDMDL
MODEL 5
REMARK VINA RESULT: -5.138896329      2.506      4.601
REMARK  2 active torsions:
REMARK  status: ('A' for Active; 'I' for Inactive)
REMARK    1  A    between atoms: C3_5  and  C4_6 
REMARK    2  A    between atoms: C7_12  and  C8_13 
ROOT
HETATM    1  C4  UNL     1     -18.307 -22.482  18.752  1.00  0.00     0.231 C 
HETATM    2  C5  UNL     1     -19.538 -22.961  18.068  1.00  0.00     0.081 C 
HETATM    3  N2  UNL     1     -20.500 -23.349  17.549  1.00  0.00    -0.196 NA
HETATM    4  C6  UNL     1     -17.401 -23.599  18.866  1.00  0.00     0.081 C 
HETATM    5  N3  UNL     1     -16.699 -24.498  18.971  1.00  0.00    -0.196 NA
ENDROOT
BRANCH   1   6
HETATM    6  C3  UNL     1     -17.745 -21.326  17.982  1.00  0.00     0.175 C 
HETATM    7  N1  UNL     1     -18.385 -20.107  18.245  1.00  0.00    -0.380 N 
HETATM    8  C2  UNL     1     -17.928 -19.080  18.775  1.00  0.00    -0.002 C 
ATOM      9  H1  UNL     1     -19.364 -20.056  17.963  1.00  0.00     0.160 HD
HETATM   10  C1  UNL     1     -18.863 -17.901  18.932  1.00  0.00     0.064 C 
HETATM   11  C14 UNL     1     -16.503 -19.018  19.229  1.00  0.00     0.156 C 
HETATM   12  C7  UNL     1     -15.663 -19.405  18.104  1.00  0.00     0.109 C 
HETATM   13  C15 UNL     1     -16.443 -19.867  20.416  1.00  0.00     0.071 C 
HETATM   14  S1  UNL     1     -15.933 -21.245  17.986  1.00  0.00    -0.130 SA
HETATM   15  N6  UNL     1     -16.376 -20.533  21.365  1.00  0.00    -0.196 NA
BRANCH  12  16
HETATM   16  C8  UNL     1     -14.288 -19.057  17.970  1.00  0.00     0.005 A 
HETATM   17  C9  UNL     1     -13.786 -18.522  16.766  1.00  0.00     0.031 A 
HETATM   18  C10 UNL     1     -14.590 -18.241  15.526  1.00  0.00     0.070 C 
HETATM   19  N4  UNL     1     -12.487 -18.298  16.903  1.00  0.00    -0.303 N 
HETATM   20  N5  UNL     1     -12.096 -18.650  18.115  1.00  0.00    -0.300 N 
ATOM     21  H4  UNL     1     -11.879 -17.912  16.180  1.00  0.00     0.186 HD
HETATM   22  C11 UNL     1     -10.739 -18.554  18.650  1.00  0.00     0.177 C 
HETATM   23  C12 UNL     1     -13.182 -19.119  18.792  1.00  0.00     0.033 A 
HETATM   24  C13 UNL     1     -13.184 -19.624  20.150  1.00  0.00     0.070 C 
ENDBRANCH  12  16
ENDBRANCH   1   6
TORSDOF 2
ENDMDL
