MODEL 1
REMARK VINA RESULT: -7.158752142      0.000      0.000
REMARK  4 active torsions:
REMARK  status: ('A' for Active; 'I' for Inactive)
REMARK    1  A    between atoms: C2_2  and  O1_3 
REMARK    2  A    between atoms: O1_3  and  C3_4 
REMARK    3  A    between atoms: C3_4  and  O3_6 
REMARK    4  A    between atoms: O3_6  and  N1_7 
REMARK       I    between atoms: C4_9  and  N3_11 
ROOT
HETATM    1  N1  UNL     1     -17.851 -17.403  17.059  1.00  0.00    -0.225 N 
ATOM      2  H1  UNL     1     -17.485 -17.940  16.272  1.00  0.00     0.198 HD
HETATM    3  C4  UNL     1     -17.888 -17.946  18.229  1.00  0.00     0.240 C 
HETATM    4  N2  UNL     1     -18.403 -17.185  19.312  1.00  0.00    -0.059 NA
HETATM    5  N3  UNL     1     -17.410 -19.300  18.407  1.00  0.00    -0.190 N 
HETATM    6  O4  UNL     1     -17.775 -20.283  17.606  1.00  0.00    -0.265 OA
HETATM    7  C5  UNL     1     -17.710 -21.564  18.037  1.00  0.00     0.153 C 
HETATM    8  C6  UNL     1     -19.074 -22.210  17.743  1.00  0.00     0.042 C 
HETATM    9  C7  UNL     1     -17.436 -21.801  19.485  1.00  0.00     0.075 C 
HETATM   10  C8  UNL     1     -16.512 -20.806  20.051  1.00  0.00    -0.024 A 
HETATM   11  C9  UNL     1     -15.677 -21.090  21.088  1.00  0.00     0.049 A 
HETATM   12  C10 UNL     1     -14.820 -20.114  21.587  1.00  0.00     0.105 A 
HETATM   13  C11 UNL     1     -14.843 -18.866  21.007  1.00  0.00     0.107 A 
HETATM   14  C12 UNL     1     -15.688 -18.540  19.941  1.00  0.00     0.072 A 
HETATM   15  C13 UNL     1     -16.515 -19.552  19.489  1.00  0.00     0.075 A 
HETATM   16  O5  UNL     1     -13.918 -18.084  21.669  1.00  0.00    -0.323 OA
HETATM   17  C14 UNL     1     -13.054 -18.939  22.393  1.00  0.00     0.352 C 
HETATM   18  O6  UNL     1     -13.877 -20.091  22.604  1.00  0.00    -0.323 OA
ENDROOT
BRANCH   1  19
HETATM   19  O3  UNL     1     -18.293 -16.121  16.848  1.00  0.00    -0.172 OA
BRANCH  19  20
HETATM   20  C3  UNL     1     -19.454 -15.855  16.120  1.00  0.00     0.428 C 
HETATM   21  O2  UNL     1     -19.927 -16.824  15.466  1.00  0.00    -0.227 OA
BRANCH  20  22
HETATM   22  O1  UNL     1     -20.075 -14.631  16.089  1.00  0.00    -0.297 OA
BRANCH  22  23
HETATM   23  C2  UNL     1     -19.368 -13.432  15.934  1.00  0.00     0.177 C 
HETATM   24  C1  UNL     1     -19.738 -12.383  16.949  1.00  0.00     0.034 C 
ENDBRANCH  22  23
ENDBRANCH  20  22
ENDBRANCH  19  20
ENDBRANCH   1  19
TORSDOF 4
ENDMDL
MODEL 2
REMARK VINA RESULT: -7.030795572      2.327      2.797
REMARK  4 active torsions:
REMARK  status: ('A' for Active; 'I' for Inactive)
REMARK    1  A    between atoms: C2_2  and  O1_3 
REMARK    2  A    between atoms: O1_3  and  C3_4 
REMARK    3  A    between atoms: C3_4  and  O3_6 
REMARK    4  A    between atoms: O3_6  and  N1_7 
REMARK       I    between atoms: C4_9  and  N3_11 
ROOT
HETATM    1  N1  UNL     1     -17.648 -16.770  17.065  1.00  0.00    -0.225 N 
ATOM      2  H1  UNL     1     -17.011 -16.019  16.800  1.00  0.00     0.198 HD
HETATM    3  C4  UNL     1     -17.175 -17.951  17.282  1.00  0.00     0.240 C 
HETATM    4  N2  UNL     1     -18.078 -18.985  17.649  1.00  0.00    -0.059 NA
HETATM    5  N3  UNL     1     -15.754 -18.190  17.150  1.00  0.00    -0.190 N 
HETATM    6  O4  UNL     1     -15.070 -17.779  16.100  1.00  0.00    -0.265 OA
HETATM    7  C5  UNL     1     -13.905 -18.387  15.773  1.00  0.00     0.153 C 
HETATM    8  C6  UNL     1     -13.985 -18.742  14.279  1.00  0.00     0.042 C 
HETATM    9  C7  UNL     1     -13.552 -19.648  16.488  1.00  0.00     0.075 C 
HETATM   10  C8  UNL     1     -13.985 -19.637  17.894  1.00  0.00    -0.024 A 
HETATM   11  C9  UNL     1     -13.329 -20.327  18.866  1.00  0.00     0.049 A 
HETATM   12  C10 UNL     1     -13.778 -20.283  20.182  1.00  0.00     0.105 A 
HETATM   13  C11 UNL     1     -14.895 -19.531  20.467  1.00  0.00     0.107 A 
HETATM   14  C12 UNL     1     -15.593 -18.810  19.492  1.00  0.00     0.072 A 
HETATM   15  C13 UNL     1     -15.098 -18.893  18.204  1.00  0.00     0.075 A 
HETATM   16  O5  UNL     1     -15.139 -19.646  21.821  1.00  0.00    -0.323 OA
HETATM   17  C14 UNL     1     -13.970 -20.147  22.439  1.00  0.00     0.352 C 
HETATM   18  O6  UNL     1     -13.342 -20.858  21.368  1.00  0.00    -0.323 OA
ENDROOT
BRANCH   1  19
HETATM   19  O3  UNL     1     -18.989 -16.502  17.181  1.00  0.00    -0.172 OA
BRANCH  19  20
HETATM   20  C3  UNL     1     -19.710 -15.902  16.147  1.00  0.00     0.428 C 
HETATM   21  O2  UNL     1     -20.326 -16.689  15.377  1.00  0.00    -0.227 OA
BRANCH  20  22
HETATM   22  O1  UNL     1     -19.772 -14.546  15.944  1.00  0.00    -0.297 OA
BRANCH  22  23
HETATM   23  C2  UNL     1     -19.077 -13.632  16.745  1.00  0.00     0.177 C 
HETATM   24  C1  UNL     1     -19.823 -12.343  16.968  1.00  0.00     0.034 C 
ENDBRANCH  22  23
ENDBRANCH  20  22
ENDBRANCH  19  20
ENDBRANCH   1  19
TORSDOF 4
ENDMDL
MODEL 3
REMARK VINA RESULT: -7.015508983      1.516      4.086
REMARK  4 active torsions:
REMARK  status: ('A' for Active; 'I' for Inactive)
REMARK    1  A    between atoms: C2_2  and  O1_3 
REMARK    2  A    between atoms: O1_3  and  C3_4 
REMARK    3  A    between atoms: C3_4  and  O3_6 
REMARK    4  A    between atoms: O3_6  and  N1_7 
REMARK       I    between atoms: C4_9  and  N3_11 
ROOT
HETATM    1  N1  UNL     1     -17.651 -16.900  17.852  1.00  0.00    -0.225 N 
ATOM      2  H1  UNL     1     -17.905 -16.526  18.767  1.00  0.00     0.198 HD
HETATM    3  C4  UNL     1     -17.085 -18.058  17.780  1.00  0.00     0.240 C 
HETATM    4  N2  UNL     1     -16.736 -18.562  16.499  1.00  0.00    -0.059 NA
HETATM    5  N3  UNL     1     -16.823 -18.805  18.991  1.00  0.00    -0.190 N 
HETATM    6  O4  UNL     1     -16.250 -18.255  20.044  1.00  0.00    -0.265 OA
HETATM    7  C5  UNL     1     -15.608 -19.032  20.947  1.00  0.00     0.153 C 
HETATM    8  C6  UNL     1     -14.217 -18.415  21.167  1.00  0.00     0.042 C 
HETATM    9  C7  UNL     1     -15.383 -20.465  20.599  1.00  0.00     0.075 C 
HETATM   10  C8  UNL     1     -16.495 -21.036  19.823  1.00  0.00    -0.024 A 
HETATM   11  C9  UNL     1     -16.824 -22.355  19.881  1.00  0.00     0.049 A 
HETATM   12  C10 UNL     1     -17.886 -22.847  19.127  1.00  0.00     0.105 A 
HETATM   13  C11 UNL     1     -18.585 -21.968  18.331  1.00  0.00     0.107 A 
HETATM   14  C12 UNL     1     -18.273 -20.606  18.249  1.00  0.00     0.072 A 
HETATM   15  C13 UNL     1     -17.208 -20.179  19.021  1.00  0.00     0.075 A 
HETATM   16  O5  UNL     1     -19.576 -22.685  17.692  1.00  0.00    -0.323 OA
HETATM   17  C14 UNL     1     -19.741 -23.913  18.372  1.00  0.00     0.352 C 
HETATM   18  O6  UNL     1     -18.456 -24.102  18.971  1.00  0.00    -0.323 OA
ENDROOT
BRANCH   1  19
HETATM   19  O3  UNL     1     -17.918 -16.161  16.728  1.00  0.00    -0.172 OA
BRANCH  19  20
HETATM   20  C3  UNL     1     -19.222 -15.818  16.367  1.00  0.00     0.428 C 
HETATM   21  O2  UNL     1     -19.865 -16.696  15.729  1.00  0.00    -0.227 OA
BRANCH  20  22
HETATM   22  O1  UNL     1     -19.807 -14.613  16.666  1.00  0.00    -0.297 OA
BRANCH  22  23
HETATM   23  C2  UNL     1     -19.064 -13.486  17.039  1.00  0.00     0.177 C 
HETATM   24  C1  UNL     1     -19.824 -12.195  16.903  1.00  0.00     0.034 C 
ENDBRANCH  22  23
ENDBRANCH  20  22
ENDBRANCH  19  20
ENDBRANCH   1  19
TORSDOF 4
ENDMDL
MODEL 4
REMARK VINA RESULT: -6.905629433      2.210      2.868
REMARK  4 active torsions:
REMARK  status: ('A' for Active; 'I' for Inactive)
REMARK    1  A    between atoms: C2_2  and  O1_3 
REMARK    2  A    between atoms: O1_3  and  C3_4 
REMARK    3  A    between atoms: C3_4  and  O3_6 
REMARK    4  A    between atoms: O3_6  and  N1_7 
REMARK       I    between atoms: C4_9  and  N3_11 
ROOT
HETATM    1  N1  UNL     1     -17.705 -16.066  17.493  1.00  0.00    -0.225 N 
ATOM      2  H1  UNL     1     -16.863 -15.491  17.462  1.00  0.00     0.198 HD
HETATM    3  C4  UNL     1     -17.591 -17.352  17.474  1.00  0.00     0.240 C 
HETATM    4  N2  UNL     1     -18.775 -18.137  17.517  1.00  0.00    -0.059 NA
HETATM    5  N3  UNL     1     -16.278 -17.955  17.411  1.00  0.00    -0.190 N 
HETATM    6  O4  UNL     1     -15.366 -17.558  16.545  1.00  0.00    -0.265 OA
HETATM    7  C5  UNL     1     -14.365 -18.396  16.187  1.00  0.00     0.153 C 
HETATM    8  C6  UNL     1     -14.317 -18.414  14.650  1.00  0.00     0.042 C 
HETATM    9  C7  UNL     1     -14.458 -19.821  16.622  1.00  0.00     0.075 C 
HETATM   10  C8  UNL     1     -15.072 -19.963  17.951  1.00  0.00    -0.024 A 
HETATM   11  C9  UNL     1     -14.765 -20.988  18.792  1.00  0.00     0.049 A 
HETATM   12  C10 UNL     1     -15.373 -21.078  20.040  1.00  0.00     0.105 A 
HETATM   13  C11 UNL     1     -16.285 -20.109  20.394  1.00  0.00     0.107 A 
HETATM   14  C12 UNL     1     -16.624 -19.043  19.554  1.00  0.00     0.072 A 
HETATM   15  C13 UNL     1     -15.986 -19.009  18.328  1.00  0.00     0.075 A 
HETATM   16  O5  UNL     1     -16.744 -20.414  21.660  1.00  0.00    -0.323 OA
HETATM   17  C14 UNL     1     -15.847 -21.338  22.244  1.00  0.00     0.352 C 
HETATM   18  O6  UNL     1     -15.278 -21.974  21.095  1.00  0.00    -0.323 OA
ENDROOT
BRANCH   1  19
HETATM   19  O3  UNL     1     -18.933 -15.455  17.554  1.00  0.00    -0.172 OA
BRANCH  19  20
HETATM   20  C3  UNL     1     -19.437 -14.713  16.484  1.00  0.00     0.428 C 
HETATM   21  O2  UNL     1     -20.193 -15.335  15.691  1.00  0.00    -0.227 OA
BRANCH  20  22
HETATM   22  O1  UNL     1     -19.152 -13.387  16.272  1.00  0.00    -0.297 OA
BRANCH  22  23
HETATM   23  C2  UNL     1     -19.756 -12.359  17.008  1.00  0.00     0.177 C 
HETATM   24  C1  UNL     1     -20.550 -11.402  16.160  1.00  0.00     0.034 C 
ENDBRANCH  22  23
ENDBRANCH  20  22
ENDBRANCH  19  20
ENDBRANCH   1  19
TORSDOF 4
ENDMDL
MODEL 5
REMARK VINA RESULT: -6.717243078      2.574      3.041
REMARK  4 active torsions:
REMARK  status: ('A' for Active; 'I' for Inactive)
REMARK    1  A    between atoms: C2_2  and  O1_3 
REMARK    2  A    between atoms: O1_3  and  C3_4 
REMARK    3  A    between atoms: C3_4  and  O3_6 
REMARK    4  A    between atoms: O3_6  and  N1_7 
REMARK       I    between atoms: C4_9  and  N3_11 
ROOT
HETATM    1  N1  UNL     1     -17.204 -16.445  16.968  1.00  0.00    -0.225 N 
ATOM      2  H1  UNL     1     -16.457 -15.796  16.720  1.00  0.00     0.198 HD
HETATM    3  C4  UNL     1     -16.918 -17.688  17.172  1.00  0.00     0.240 C 
HETATM    4  N2  UNL     1     -17.971 -18.577  17.515  1.00  0.00    -0.059 NA
HETATM    5  N3  UNL     1     -15.549 -18.138  17.047  1.00  0.00    -0.190 N 
HETATM    6  O4  UNL     1     -14.799 -17.821  16.009  1.00  0.00    -0.265 OA
HETATM    7  C5  UNL     1     -13.737 -18.595  15.682  1.00  0.00     0.153 C 
HETATM    8  C6  UNL     1     -13.855 -18.913  14.182  1.00  0.00     0.042 C 
HETATM    9  C7  UNL     1     -13.587 -19.905  16.380  1.00  0.00     0.075 C 
HETATM   10  C8  UNL     1     -14.028 -19.847  17.783  1.00  0.00    -0.024 A 
HETATM   11  C9  UNL     1     -13.494 -20.642  18.750  1.00  0.00     0.049 A 
HETATM   12  C10 UNL     1     -13.946 -20.549  20.063  1.00  0.00     0.105 A 
HETATM   13  C11 UNL     1     -14.938 -19.640  20.350  1.00  0.00     0.107 A 
HETATM   14  C12 UNL     1     -15.508 -18.808  19.381  1.00  0.00     0.072 A 
HETATM   15  C13 UNL     1     -15.018 -18.947  18.095  1.00  0.00     0.075 A 
HETATM   16  O5  UNL     1     -15.210 -19.735  21.700  1.00  0.00    -0.323 OA
HETATM   17  C14 UNL     1     -14.138 -20.416  22.320  1.00  0.00     0.352 C 
HETATM   18  O6  UNL     1     -13.614 -21.200  21.243  1.00  0.00    -0.323 OA
ENDROOT
BRANCH   1  19
HETATM   19  O3  UNL     1     -18.490 -15.978  17.078  1.00  0.00    -0.172 OA
BRANCH  19  20
HETATM   20  C3  UNL     1     -18.877 -15.130  18.117  1.00  0.00     0.428 C 
HETATM   21  O2  UNL     1     -18.773 -15.604  19.281  1.00  0.00    -0.227 OA
BRANCH  20  22
HETATM   22  O1  UNL     1     -19.347 -13.854  17.929  1.00  0.00    -0.297 OA
BRANCH  22  23
HETATM   23  C2  UNL     1     -19.344 -13.227  16.677  1.00  0.00     0.177 C 
HETATM   24  C1  UNL     1     -20.116 -11.935  16.652  1.00  0.00     0.034 C 
ENDBRANCH  22  23
ENDBRANCH  20  22
ENDBRANCH  19  20
ENDBRANCH   1  19
TORSDOF 4
ENDMDL
