MODEL 1
REMARK VINA RESULT: -5.273659162      0.000      0.000
REMARK  4 active torsions:
REMARK  status: ('A' for Active; 'I' for Inactive)
REMARK    1  A    between atoms: C2_2  and  O1_3 
REMARK    2  A    between atoms: O1_3  and  C3_4 
REMARK    3  A    between atoms: C3_4  and  C4_6 
REMARK    4  A    between atoms: C12_20  and  N3_21 
ROOT
HETATM    1  C4  UNL     1     -15.859 -19.229  18.371  1.00  0.00     0.095 C 
HETATM    2  C5  UNL     1     -15.897 -19.320  19.713  1.00  0.00     0.063 C 
HETATM    3  C6  UNL     1     -17.174 -19.412  20.403  1.00  0.00     0.077 C 
HETATM    4  O3  UNL     1     -14.724 -19.320  20.473  1.00  0.00    -0.334 OA
HETATM    5  C7  UNL     1     -13.472 -19.436  19.955  1.00  0.00     0.229 C 
HETATM    6  S1  UNL     1     -12.444 -17.994  20.357  1.00  0.00    -0.078 SA
HETATM    7  C8  UNL     1     -11.442 -18.044  18.837  1.00  0.00     0.065 C 
HETATM    8  N1  UNL     1     -10.553 -17.223  18.557  1.00  0.00    -0.396 N 
ATOM      9  H11 UNL     1      -9.991 -17.251  17.705  1.00  0.00     0.156 HD
ATOM     10  H12 UNL     1     -10.188 -16.402  19.041  1.00  0.00     0.156 HD
HETATM   11  C9  UNL     1     -11.976 -19.246  18.128  1.00  0.00     0.183 C 
HETATM   12  C10 UNL     1     -11.263 -20.405  18.718  1.00  0.00     0.075 C 
HETATM   13  N2  UNL     1     -10.691 -21.299  19.176  1.00  0.00    -0.196 NA
HETATM   14  C11 UNL     1     -13.420 -19.303  18.454  1.00  0.00     0.011 C 
HETATM   15  C12 UNL     1     -14.559 -19.216  17.741  1.00  0.00     0.056 C 
ENDROOT
BRANCH  15  16
HETATM   16  N3  UNL     1     -14.435 -19.102  16.314  1.00  0.00    -0.380 N 
HETATM   17  C13 UNL     1     -14.307 -20.201  15.345  1.00  0.00     0.124 A 
HETATM   18  C14 UNL     1     -14.242 -19.230  14.217  1.00  0.00     0.040 A 
HETATM   19  C15 UNL     1     -14.421 -18.138  15.263  1.00  0.00     0.124 A 
ENDBRANCH  15  16
BRANCH   1  20
HETATM   20  C3  UNL     1     -17.084 -19.215  17.602  1.00  0.00     0.298 C 
HETATM   21  O2  UNL     1     -17.686 -20.249  17.234  1.00  0.00    -0.259 OA
BRANCH  20  22
HETATM   22  O1  UNL     1     -17.746 -18.056  17.173  1.00  0.00    -0.318 OA
BRANCH  22  23
HETATM   23  C2  UNL     1     -17.465 -16.766  17.611  1.00  0.00     0.174 C 
HETATM   24  C1  UNL     1     -18.387 -16.261  18.685  1.00  0.00     0.034 C 
ENDBRANCH  22  23
ENDBRANCH  20  22
ENDBRANCH   1  20
TORSDOF 4
ENDMDL
MODEL 2
REMARK VINA RESULT: -5.185028580      1.728      3.565
REMARK  4 active torsions:
REMARK  status: ('A' for Active; 'I' for Inactive)
REMARK    1  A    between atoms: C2_2  and  O1_3 
REMARK    2  A    between atoms: O1_3  and  C3_4 
REMARK    3  A    between atoms: C3_4  and  C4_6 
REMARK    4  A    between atoms: C12_20  and  N3_21 
ROOT
HETATM    1  C4  UNL     1     -15.091 -18.956  17.118  1.00  0.00     0.095 C 
HETATM    2  C5  UNL     1     -14.168 -18.650  16.190  1.00  0.00     0.063 C 
HETATM    3  C6  UNL     1     -14.566 -18.416  14.811  1.00  0.00     0.077 C 
HETATM    4  O3  UNL     1     -12.813 -18.558  16.520  1.00  0.00    -0.334 OA
HETATM    5  C7  UNL     1     -12.328 -18.560  17.790  1.00  0.00     0.229 C 
HETATM    6  S1  UNL     1     -11.188 -19.945  18.072  1.00  0.00    -0.078 SA
HETATM    7  C8  UNL     1     -11.587 -20.166  19.835  1.00  0.00     0.065 C 
HETATM    8  N1  UNL     1     -11.092 -21.044  20.561  1.00  0.00    -0.396 N 
ATOM      9  H11 UNL     1     -11.315 -21.168  21.549  1.00  0.00     0.156 HD
ATOM     10  H12 UNL     1     -10.412 -21.786  20.389  1.00  0.00     0.156 HD
HETATM   11  C9  UNL     1     -12.582 -19.080  20.087  1.00  0.00     0.183 C 
HETATM   12  C10 UNL     1     -11.780 -17.860  20.351  1.00  0.00     0.075 C 
HETATM   13  N2  UNL     1     -11.144 -16.919  20.569  1.00  0.00    -0.196 NA
HETATM   14  C11 UNL     1     -13.353 -18.934  18.831  1.00  0.00     0.011 C 
HETATM   15  C12 UNL     1     -14.642 -19.104  18.483  1.00  0.00     0.056 C 
ENDROOT
BRANCH  15  16
HETATM   16  N3  UNL     1     -15.566 -19.449  19.528  1.00  0.00    -0.380 N 
HETATM   17  C13 UNL     1     -15.927 -20.801  19.981  1.00  0.00     0.124 A 
HETATM   18  C14 UNL     1     -16.857 -20.236  21.000  1.00  0.00     0.040 A 
HETATM   19  C15 UNL     1     -16.410 -18.863  20.517  1.00  0.00     0.124 A 
ENDBRANCH  15  16
BRANCH   1  20
HETATM   20  C3  UNL     1     -16.488 -19.062  16.756  1.00  0.00     0.298 C 
HETATM   21  O2  UNL     1     -17.055 -20.143  16.478  1.00  0.00    -0.259 OA
BRANCH  20  22
HETATM   22  O1  UNL     1     -17.377 -17.982  16.669  1.00  0.00    -0.318 OA
BRANCH  22  23
HETATM   23  C2  UNL     1     -17.262 -16.792  17.382  1.00  0.00     0.174 C 
HETATM   24  C1  UNL     1     -18.356 -16.565  18.388  1.00  0.00     0.034 C 
ENDBRANCH  22  23
ENDBRANCH  20  22
ENDBRANCH   1  20
TORSDOF 4
ENDMDL
MODEL 3
REMARK VINA RESULT: -5.063470411      2.439      3.243
REMARK  4 active torsions:
REMARK  status: ('A' for Active; 'I' for Inactive)
REMARK    1  A    between atoms: C2_2  and  O1_3 
REMARK    2  A    between atoms: O1_3  and  C3_4 
REMARK    3  A    between atoms: C3_4  and  C4_6 
REMARK    4  A    between atoms: C12_20  and  N3_21 
ROOT
HETATM    1  C4  UNL     1     -17.537 -18.424  17.837  1.00  0.00     0.095 C 
HETATM    2  C5  UNL     1     -18.249 -18.821  18.908  1.00  0.00     0.063 C 
HETATM    3  C6  UNL     1     -19.443 -18.092  19.304  1.00  0.00     0.077 C 
HETATM    4  O3  UNL     1     -17.859 -19.928  19.666  1.00  0.00    -0.334 OA
HETATM    5  C7  UNL     1     -16.887 -20.807  19.301  1.00  0.00     0.229 C 
HETATM    6  S1  UNL     1     -15.541 -20.863  20.518  1.00  0.00    -0.078 SA
HETATM    7  C8  UNL     1     -14.218 -21.235  19.323  1.00  0.00     0.065 C 
HETATM    8  N1  UNL     1     -13.018 -21.357  19.622  1.00  0.00    -0.396 N 
ATOM      9  H11 UNL     1     -12.277 -21.565  18.952  1.00  0.00     0.156 HD
ATOM     10  H12 UNL     1     -12.512 -21.292  20.506  1.00  0.00     0.156 HD
HETATM   11  C9  UNL     1     -14.959 -21.330  18.029  1.00  0.00     0.183 C 
HETATM   12  C10 UNL     1     -15.489 -22.714  17.975  1.00  0.00     0.075 C 
HETATM   13  N2  UNL     1     -15.885 -23.799  17.939  1.00  0.00    -0.196 NA
HETATM   14  C11 UNL     1     -16.067 -20.351  18.121  1.00  0.00     0.011 C 
HETATM   15  C12 UNL     1     -16.404 -19.233  17.453  1.00  0.00     0.056 C 
ENDROOT
BRANCH  15  16
HETATM   16  N3  UNL     1     -15.584 -18.864  16.331  1.00  0.00    -0.380 N 
HETATM   17  C13 UNL     1     -14.268 -18.209  16.373  1.00  0.00     0.124 A 
HETATM   18  C14 UNL     1     -14.189 -18.220  14.886  1.00  0.00     0.040 A 
HETATM   19  C15 UNL     1     -15.532 -18.936  14.908  1.00  0.00     0.124 A 
ENDBRANCH  15  16
BRANCH   1  20
HETATM   20  C3  UNL     1     -17.947 -17.266  17.073  1.00  0.00     0.298 C 
HETATM   21  O2  UNL     1     -18.570 -17.333  15.989  1.00  0.00    -0.259 OA
BRANCH  20  22
HETATM   22  O1  UNL     1     -17.703 -15.936  17.442  1.00  0.00    -0.318 OA
BRANCH  22  23
HETATM   23  C2  UNL     1     -18.685 -14.986  17.707  1.00  0.00     0.174 C 
HETATM   24  C1  UNL     1     -18.745 -13.862  16.711  1.00  0.00     0.034 C 
ENDBRANCH  22  23
ENDBRANCH  20  22
ENDBRANCH   1  20
TORSDOF 4
ENDMDL
MODEL 4
REMARK VINA RESULT: -4.830799009      1.681      1.926
REMARK  4 active torsions:
REMARK  status: ('A' for Active; 'I' for Inactive)
REMARK    1  A    between atoms: C2_2  and  O1_3 
REMARK    2  A    between atoms: O1_3  and  C3_4 
REMARK    3  A    between atoms: C3_4  and  C4_6 
REMARK    4  A    between atoms: C12_20  and  N3_21 
ROOT
HETATM    1  C4  UNL     1     -16.115 -19.275  18.102  1.00  0.00     0.095 C 
HETATM    2  C5  UNL     1     -15.574 -18.898  19.274  1.00  0.00     0.063 C 
HETATM    3  C6  UNL     1     -16.399 -18.269  20.292  1.00  0.00     0.077 C 
HETATM    4  O3  UNL     1     -14.215 -19.090  19.539  1.00  0.00    -0.334 OA
HETATM    5  C7  UNL     1     -13.378 -19.833  18.767  1.00  0.00     0.229 C 
HETATM    6  S1  UNL     1     -12.000 -18.840  18.125  1.00  0.00    -0.078 SA
HETATM    7  C8  UNL     1     -11.810 -19.762  16.565  1.00  0.00     0.065 C 
HETATM    8  N1  UNL     1     -10.986 -19.478  15.680  1.00  0.00    -0.396 N 
ATOM      9  H11 UNL     1     -10.880 -19.994  14.806  1.00  0.00     0.156 HD
ATOM     10  H12 UNL     1     -10.280 -18.746  15.597  1.00  0.00     0.156 HD
HETATM   11  C9  UNL     1     -12.843 -20.834  16.688  1.00  0.00     0.183 C 
HETATM   12  C10 UNL     1     -12.206 -21.912  17.481  1.00  0.00     0.075 C 
HETATM   13  N2  UNL     1     -11.692 -22.751  18.089  1.00  0.00    -0.196 NA
HETATM   14  C11 UNL     1     -13.969 -20.231  17.439  1.00  0.00     0.011 C 
HETATM   15  C12 UNL     1     -15.258 -19.961  17.162  1.00  0.00     0.056 C 
ENDROOT
BRANCH  15  16
HETATM   16  N3  UNL     1     -15.758 -20.379  15.881  1.00  0.00    -0.380 N 
HETATM   17  C13 UNL     1     -15.679 -19.637  14.614  1.00  0.00     0.124 A 
HETATM   18  C14 UNL     1     -16.388 -20.736  13.899  1.00  0.00     0.040 A 
HETATM   19  C15 UNL     1     -16.400 -21.474  15.231  1.00  0.00     0.124 A 
ENDBRANCH  15  16
BRANCH   1  20
HETATM   20  C3  UNL     1     -17.520 -19.054  17.838  1.00  0.00     0.298 C 
HETATM   21  O2  UNL     1     -18.428 -19.836  18.202  1.00  0.00    -0.259 OA
BRANCH  20  22
HETATM   22  O1  UNL     1     -18.041 -17.951  17.149  1.00  0.00    -0.318 OA
BRANCH  22  23
HETATM   23  C2  UNL     1     -17.708 -16.622  17.397  1.00  0.00     0.174 C 
HETATM   24  C1  UNL     1     -18.596 -15.937  18.398  1.00  0.00     0.034 C 
ENDBRANCH  22  23
ENDBRANCH  20  22
ENDBRANCH   1  20
TORSDOF 4
ENDMDL
MODEL 5
REMARK VINA RESULT: -4.772275525      2.098      3.773
REMARK  4 active torsions:
REMARK  status: ('A' for Active; 'I' for Inactive)
REMARK    1  A    between atoms: C2_2  and  O1_3 
REMARK    2  A    between atoms: O1_3  and  C3_4 
REMARK    3  A    between atoms: C3_4  and  C4_6 
REMARK    4  A    between atoms: C12_20  and  N3_21 
ROOT
HETATM    1  C4  UNL     1     -14.989 -18.686  16.881  1.00  0.00     0.095 C 
HETATM    2  C5  UNL     1     -13.936 -18.597  16.050  1.00  0.00     0.063 C 
HETATM    3  C6  UNL     1     -14.066 -17.909  14.775  1.00  0.00     0.077 C 
HETATM    4  O3  UNL     1     -12.702 -19.163  16.380  1.00  0.00    -0.334 OA
HETATM    5  C7  UNL     1     -12.387 -19.659  17.607  1.00  0.00     0.229 C 
HETATM    6  S1  UNL     1     -11.950 -21.420  17.528  1.00  0.00    -0.078 SA
HETATM    7  C8  UNL     1     -12.574 -21.846  19.185  1.00  0.00     0.065 C 
HETATM    8  N1  UNL     1     -12.556 -22.991  19.667  1.00  0.00    -0.396 N 
ATOM      9  H11 UNL     1     -12.905 -23.230  20.595  1.00  0.00     0.156 HD
ATOM     10  H12 UNL     1     -12.229 -23.890  19.310  1.00  0.00     0.156 HD
HETATM   11  C9  UNL     1     -13.053 -20.531  19.706  1.00  0.00     0.183 C 
HETATM   12  C10 UNL     1     -11.851 -19.859  20.257  1.00  0.00     0.075 C 
HETATM   13  N2  UNL     1     -10.909 -19.352  20.695  1.00  0.00    -0.196 NA
HETATM   14  C11 UNL     1     -13.570 -19.791  18.532  1.00  0.00     0.011 C 
HETATM   15  C12 UNL     1     -14.775 -19.317  18.163  1.00  0.00     0.056 C 
ENDROOT
BRANCH  15  16
HETATM   16  N3  UNL     1     -15.855 -19.467  19.098  1.00  0.00    -0.380 N 
HETATM   17  C13 UNL     1     -16.151 -18.610  20.256  1.00  0.00     0.124 A 
HETATM   18  C14 UNL     1     -17.333 -19.447  20.604  1.00  0.00     0.040 A 
HETATM   19  C15 UNL     1     -17.003 -20.270  19.367  1.00  0.00     0.124 A 
ENDBRANCH  15  16
BRANCH   1  20
HETATM   20  C3  UNL     1     -16.264 -18.107  16.516  1.00  0.00     0.298 C 
HETATM   21  O2  UNL     1     -17.080 -18.654  15.740  1.00  0.00    -0.259 OA
BRANCH  20  22
HETATM   22  O1  UNL     1     -16.743 -16.873  16.976  1.00  0.00    -0.318 OA
BRANCH  22  23
HETATM   23  C2  UNL     1     -17.920 -16.690  17.695  1.00  0.00     0.174 C 
HETATM   24  C1  UNL     1     -18.555 -15.339  17.512  1.00  0.00     0.034 C 
ENDBRANCH  22  23
ENDBRANCH  20  22
ENDBRANCH   1  20
TORSDOF 4
ENDMDL
