MODEL 1
REMARK VINA RESULT: -6.815184767      0.000      0.000
REMARK  3 active torsions:
REMARK  status: ('A' for Active; 'I' for Inactive)
REMARK    1  A    between atoms: C2_2  and  N1_3 
REMARK       I    between atoms: N2_5  and  C3_7 
REMARK    2  A    between atoms: C3_7  and  C4_9 
REMARK    3  A    between atoms: C7_13  and  N3_14 
ROOT
HETATM    1  N1  UNL     1     -17.432 -17.500  18.672  1.00  0.00    -0.317 N 
ATOM      2  H1  UNL     1     -18.038 -17.617  19.484  1.00  0.00     0.181 HD
HETATM    3  N2  UNL     1     -17.533 -16.469  17.977  1.00  0.00    -0.269 N 
ATOM      4  H2  UNL     1     -16.928 -16.349  17.164  1.00  0.00     0.190 HD
HETATM    5  C3  UNL     1     -18.485 -15.450  18.306  1.00  0.00     0.272 C 
HETATM    6  O1  UNL     1     -18.804 -15.372  19.501  1.00  0.00    -0.266 OA
ENDROOT
BRANCH   1   7
HETATM    7  C2  UNL     1     -16.458 -18.553  18.342  1.00  0.00     0.102 C 
HETATM    8  C1  UNL     1     -15.635 -17.991  17.175  1.00  0.00     0.048 C 
HETATM    9  C8  UNL     1     -15.639 -18.773  19.563  1.00  0.00     0.047 C 
HETATM   10  C9  UNL     1     -15.170 -20.156  19.809  1.00  0.00     0.081 C 
HETATM   11  C10 UNL     1     -15.005 -21.013  18.635  1.00  0.00     0.127 C 
HETATM   12  O4  UNL     1     -13.909 -21.126  18.095  1.00  0.00    -0.298 OA
HETATM   13  C11 UNL     1     -16.063 -21.821  17.961  1.00  0.00     0.085 C 
HETATM   14  C12 UNL     1     -16.764 -20.847  17.004  1.00  0.00     0.088 C 
HETATM   15  C13 UNL     1     -17.234 -19.721  17.888  1.00  0.00     0.156 C 
HETATM   16  O5  UNL     1     -18.395 -19.851  18.227  1.00  0.00    -0.295 OA
ENDBRANCH   1   7
BRANCH   5  17
HETATM   17  C4  UNL     1     -19.028 -14.568  17.231  1.00  0.00     0.073 A 
HETATM   18  C5  UNL     1     -19.003 -13.190  17.453  1.00  0.00     0.069 A 
HETATM   19  S1  UNL     1     -19.757 -12.545  16.087  1.00  0.00    -0.110 SA
HETATM   20  C6  UNL     1     -20.099 -13.963  15.248  1.00  0.00     0.086 A 
HETATM   21  C7  UNL     1     -19.596 -14.973  16.083  1.00  0.00     0.125 A 
BRANCH  21  22
HETATM   22  N3  UNL     1     -19.749 -16.342  15.615  1.00  0.00    -0.114 N 
HETATM   23  O2  UNL     1     -20.910 -16.760  15.281  1.00  0.00    -0.532 OA
HETATM   24  O3  UNL     1     -18.777 -17.268  15.499  1.00  0.00    -0.532 OA
ENDBRANCH  21  22
ENDBRANCH   5  17
TORSDOF 3
ENDMDL
MODEL 2
REMARK VINA RESULT: -6.711044913      1.090      1.793
REMARK  3 active torsions:
REMARK  status: ('A' for Active; 'I' for Inactive)
REMARK    1  A    between atoms: C2_2  and  N1_3 
REMARK       I    between atoms: N2_5  and  C3_7 
REMARK    2  A    between atoms: C3_7  and  C4_9 
REMARK    3  A    between atoms: C7_13  and  N3_14 
ROOT
HETATM    1  N1  UNL     1     -17.511 -17.661  18.639  1.00  0.00    -0.317 N 
ATOM      2  H1  UNL     1     -18.136 -17.784  19.435  1.00  0.00     0.181 HD
HETATM    3  N2  UNL     1     -17.570 -16.608  17.973  1.00  0.00    -0.269 N 
ATOM      4  H2  UNL     1     -16.946 -16.481  17.176  1.00  0.00     0.190 HD
HETATM    5  C3  UNL     1     -18.503 -15.574  18.311  1.00  0.00     0.272 C 
HETATM    6  O1  UNL     1     -18.844 -15.521  19.501  1.00  0.00    -0.266 OA
ENDROOT
BRANCH   1   7
HETATM    7  C2  UNL     1     -16.557 -18.729  18.299  1.00  0.00     0.102 C 
HETATM    8  C1  UNL     1     -17.422 -19.955  17.973  1.00  0.00     0.048 C 
HETATM    9  C8  UNL     1     -15.782 -18.251  17.125  1.00  0.00     0.047 C 
HETATM   10  C9  UNL     1     -14.365 -18.675  17.046  1.00  0.00     0.081 C 
HETATM   11  C10 UNL     1     -14.018 -19.932  17.708  1.00  0.00     0.127 C 
HETATM   12  O4  UNL     1     -13.989 -20.983  17.075  1.00  0.00    -0.298 OA
HETATM   13  C11 UNL     1     -13.672 -20.120  19.147  1.00  0.00     0.085 C 
HETATM   14  C12 UNL     1     -15.019 -20.250  19.870  1.00  0.00     0.088 C 
HETATM   15  C13 UNL     1     -15.763 -18.989  19.513  1.00  0.00     0.156 C 
HETATM   16  O5  UNL     1     -15.655 -18.129  20.368  1.00  0.00    -0.295 OA
ENDBRANCH   1   7
BRANCH   5  17
HETATM   17  C4  UNL     1     -19.000 -14.647  17.252  1.00  0.00     0.073 A 
HETATM   18  C5  UNL     1     -18.930 -13.277  17.508  1.00  0.00     0.069 A 
HETATM   19  S1  UNL     1     -19.642 -12.573  16.148  1.00  0.00    -0.110 SA
HETATM   20  C6  UNL     1     -20.022 -13.958  15.271  1.00  0.00     0.086 A 
HETATM   21  C7  UNL     1     -19.567 -15.005  16.087  1.00  0.00     0.125 A 
BRANCH  21  22
HETATM   22  N3  UNL     1     -19.761 -16.356  15.584  1.00  0.00    -0.114 N 
HETATM   23  O2  UNL     1     -20.946 -16.757  15.321  1.00  0.00    -0.532 OA
HETATM   24  O3  UNL     1     -18.805 -17.280  15.365  1.00  0.00    -0.532 OA
ENDBRANCH  21  22
ENDBRANCH   5  17
TORSDOF 3
ENDMDL
MODEL 3
REMARK VINA RESULT: -5.983597631      3.992      6.462
REMARK  3 active torsions:
REMARK  status: ('A' for Active; 'I' for Inactive)
REMARK    1  A    between atoms: C2_2  and  N1_3 
REMARK       I    between atoms: N2_5  and  C3_7 
REMARK    2  A    between atoms: C3_7  and  C4_9 
REMARK    3  A    between atoms: C7_13  and  N3_14 
ROOT
HETATM    1  N1  UNL     1     -15.761 -19.843  17.281  1.00  0.00    -0.317 N 
ATOM      2  H1  UNL     1     -15.101 -20.436  17.783  1.00  0.00     0.181 HD
HETATM    3  N2  UNL     1     -15.946 -20.030  16.062  1.00  0.00    -0.269 N 
ATOM      4  H2  UNL     1     -16.607 -19.438  15.556  1.00  0.00     0.190 HD
HETATM    5  C3  UNL     1     -15.244 -21.064  15.360  1.00  0.00     0.272 C 
HETATM    6  O1  UNL     1     -14.886 -22.034  16.043  1.00  0.00    -0.266 OA
ENDROOT
BRANCH   1   7
HETATM    7  C2  UNL     1     -16.477 -18.783  18.010  1.00  0.00     0.102 C 
HETATM    8  C1  UNL     1     -15.645 -18.529  19.275  1.00  0.00     0.048 C 
HETATM    9  C8  UNL     1     -16.520 -17.601  17.110  1.00  0.00     0.047 C 
HETATM   10  C9  UNL     1     -17.725 -16.745  17.194  1.00  0.00     0.081 C 
HETATM   11  C10 UNL     1     -18.438 -16.737  18.472  1.00  0.00     0.127 C 
HETATM   12  O4  UNL     1     -18.209 -15.869  19.308  1.00  0.00    -0.298 OA
HETATM   13  C11 UNL     1     -19.475 -17.710  18.924  1.00  0.00     0.085 C 
HETATM   14  C12 UNL     1     -18.690 -18.893  19.505  1.00  0.00     0.088 C 
HETATM   15  C13 UNL     1     -17.790 -19.338  18.382  1.00  0.00     0.156 C 
HETATM   16  O5  UNL     1     -18.261 -20.266  17.750  1.00  0.00    -0.295 OA
ENDBRANCH   1   7
BRANCH   5  17
HETATM   17  C4  UNL     1     -14.986 -20.925  13.897  1.00  0.00     0.073 A 
HETATM   18  C5  UNL     1     -15.641 -21.809  13.039  1.00  0.00     0.069 A 
HETATM   19  S1  UNL     1     -15.049 -21.405  11.510  1.00  0.00    -0.110 SA
HETATM   20  C6  UNL     1     -14.003 -20.154  11.926  1.00  0.00     0.086 A 
HETATM   21  C7  UNL     1     -14.134 -20.060  13.320  1.00  0.00     0.125 A 
BRANCH  21  22
HETATM   22  N3  UNL     1     -13.333 -19.043  13.983  1.00  0.00    -0.114 N 
HETATM   23  O2  UNL     1     -12.068 -19.027  13.796  1.00  0.00    -0.532 OA
HETATM   24  O3  UNL     1     -13.778 -18.083  14.818  1.00  0.00    -0.532 OA
ENDBRANCH  21  22
ENDBRANCH   5  17
TORSDOF 3
ENDMDL
MODEL 4
REMARK VINA RESULT: -5.818609261      3.983      6.288
REMARK  3 active torsions:
REMARK  status: ('A' for Active; 'I' for Inactive)
REMARK    1  A    between atoms: C2_2  and  N1_3 
REMARK       I    between atoms: N2_5  and  C3_7 
REMARK    2  A    between atoms: C3_7  and  C4_9 
REMARK    3  A    between atoms: C7_13  and  N3_14 
ROOT
HETATM    1  N1  UNL     1     -15.605 -19.728  17.790  1.00  0.00    -0.317 N 
ATOM      2  H1  UNL     1     -15.132 -20.377  18.418  1.00  0.00     0.181 HD
HETATM    3  N2  UNL     1     -15.452 -19.847  16.558  1.00  0.00    -0.269 N 
ATOM      4  H2  UNL     1     -15.924 -19.199  15.927  1.00  0.00     0.190 HD
HETATM    5  C3  UNL     1     -14.621 -20.882  16.016  1.00  0.00     0.272 C 
HETATM    6  O1  UNL     1     -14.502 -21.900  16.712  1.00  0.00    -0.266 OA
ENDROOT
BRANCH   1   7
HETATM    7  C2  UNL     1     -16.456 -18.668  18.356  1.00  0.00     0.102 C 
HETATM    8  C1  UNL     1     -15.858 -18.364  19.737  1.00  0.00     0.048 C 
HETATM    9  C8  UNL     1     -16.368 -17.510  17.429  1.00  0.00     0.047 C 
HETATM   10  C9  UNL     1     -17.586 -16.681  17.282  1.00  0.00     0.081 C 
HETATM   11  C10 UNL     1     -18.507 -16.659  18.419  1.00  0.00     0.127 C 
HETATM   12  O4  UNL     1     -18.442 -15.766  19.257  1.00  0.00    -0.298 OA
HETATM   13  C11 UNL     1     -19.588 -17.646  18.714  1.00  0.00     0.085 C 
HETATM   14  C12 UNL     1     -18.891 -18.795  19.454  1.00  0.00     0.088 C 
HETATM   15  C13 UNL     1     -17.803 -19.246  18.513  1.00  0.00     0.156 C 
HETATM   16  O5  UNL     1     -18.140 -20.200  17.837  1.00  0.00    -0.295 OA
ENDBRANCH   1   7
BRANCH   5  17
HETATM   17  C4  UNL     1     -13.962 -20.687  14.691  1.00  0.00     0.073 A 
HETATM   18  C5  UNL     1     -12.586 -20.452  14.683  1.00  0.00     0.069 A 
HETATM   19  S1  UNL     1     -12.227 -20.207  13.051  1.00  0.00    -0.110 SA
HETATM   20  C6  UNL     1     -13.761 -20.392  12.385  1.00  0.00     0.086 A 
HETATM   21  C7  UNL     1     -14.576 -20.658  13.496  1.00  0.00     0.125 A 
BRANCH  21  22
HETATM   22  N3  UNL     1     -15.991 -20.868  13.231  1.00  0.00    -0.114 N 
HETATM   23  O2  UNL     1     -16.343 -21.430  12.138  1.00  0.00    -0.532 OA
HETATM   24  O3  UNL     1     -17.021 -20.516  14.026  1.00  0.00    -0.532 OA
ENDBRANCH  21  22
ENDBRANCH   5  17
TORSDOF 3
ENDMDL
MODEL 5
REMARK VINA RESULT: -5.696749602      4.135      6.230
REMARK  3 active torsions:
REMARK  status: ('A' for Active; 'I' for Inactive)
REMARK    1  A    between atoms: C2_2  and  N1_3 
REMARK       I    between atoms: N2_5  and  C3_7 
REMARK    2  A    between atoms: C3_7  and  C4_9 
REMARK    3  A    between atoms: C7_13  and  N3_14 
ROOT
HETATM    1  N1  UNL     1     -15.923 -19.983  16.674  1.00  0.00    -0.317 N 
ATOM      2  H1  UNL     1     -15.071 -20.439  16.998  1.00  0.00     0.181 HD
HETATM    3  N2  UNL     1     -16.409 -20.306  15.572  1.00  0.00    -0.269 N 
ATOM      4  H2  UNL     1     -17.262 -19.852  15.245  1.00  0.00     0.190 HD
HETATM    5  C3  UNL     1     -15.785 -21.307  14.758  1.00  0.00     0.272 C 
HETATM    6  O1  UNL     1     -15.115 -22.156  15.362  1.00  0.00    -0.266 OA
ENDROOT
BRANCH   1   7
HETATM    7  C2  UNL     1     -16.556 -18.955  17.517  1.00  0.00     0.102 C 
HETATM    8  C1  UNL     1     -15.492 -18.573  18.556  1.00  0.00     0.048 C 
HETATM    9  C8  UNL     1     -16.908 -17.824  16.620  1.00  0.00     0.047 C 
HETATM   10  C9  UNL     1     -18.139 -17.071  16.950  1.00  0.00     0.081 C 
HETATM   11  C10 UNL     1     -18.549 -17.065  18.354  1.00  0.00     0.127 C 
HETATM   12  O4  UNL     1     -18.223 -16.142  19.095  1.00  0.00    -0.298 OA
HETATM   13  C11 UNL     1     -19.365 -18.101  19.053  1.00  0.00     0.085 C 
HETATM   14  C12 UNL     1     -18.363 -19.184  19.473  1.00  0.00     0.088 C 
HETATM   15  C13 UNL     1     -17.697 -19.603  18.189  1.00  0.00     0.156 C 
HETATM   16  O5  UNL     1     -18.207 -20.596  17.704  1.00  0.00    -0.295 OA
ENDBRANCH   1   7
BRANCH   5  17
HETATM   17  C4  UNL     1     -15.965 -21.277  13.276  1.00  0.00     0.073 A 
HETATM   18  C5  UNL     1     -14.894 -20.821  12.505  1.00  0.00     0.069 A 
HETATM   19  S1  UNL     1     -15.489 -20.854  10.925  1.00  0.00    -0.110 SA
HETATM   20  C6  UNL     1     -17.045 -21.427  11.213  1.00  0.00     0.086 A 
HETATM   21  C7  UNL     1     -17.086 -21.595  12.606  1.00  0.00     0.125 A 
BRANCH  21  22
HETATM   22  N3  UNL     1     -18.333 -22.090  13.167  1.00  0.00    -0.114 N 
HETATM   23  O2  UNL     1     -19.317 -22.324  12.386  1.00  0.00    -0.532 OA
HETATM   24  O3  UNL     1     -18.593 -22.331  14.467  1.00  0.00    -0.532 OA
ENDBRANCH  21  22
ENDBRANCH   5  17
TORSDOF 3
ENDMDL
