MODEL 1
REMARK VINA RESULT: -7.495434365      0.000      0.000
REMARK  3 active torsions:
REMARK  status: ('A' for Active; 'I' for Inactive)
REMARK       I    between atoms: C1_2  and  N1_3 
REMARK       I    between atoms: C1_2  and  N2_11 
REMARK    1  A    between atoms: N1_3  and  C2_5 
REMARK    2  A    between atoms: C9_17  and  C10_18 
REMARK    3  A    between atoms: C10_18  and  C11_19 
ROOT
HETATM    1  O1  UNL     1      -5.331   3.908  12.920  1.00  0.00    -0.246 OA
HETATM    2  C1  UNL     1      -4.214   4.459  13.084  1.00  0.00     0.329 C 
HETATM    3  N1  UNL     1      -3.945   5.577  12.223  1.00  0.00    -0.338 N 
ATOM      4  H1  UNL     1      -3.047   6.051  12.325  1.00  0.00     0.164 HD
HETATM    5  N2  UNL     1      -3.274   4.020  14.048  1.00  0.00    -0.247 N 
HETATM    6  C8  UNL     1      -2.067   4.554  14.284  1.00  0.00     0.211 A 
HETATM    7  N3  UNL     1      -1.446   3.876  15.277  1.00  0.00    -0.294 N 
ATOM      8  H3  UNL     1      -0.519   4.067  15.656  1.00  0.00     0.187 HD
HETATM    9  N4  UNL     1      -2.265   2.922  15.658  1.00  0.00    -0.287 N 
ATOM     10  H4  UNL     1      -2.084   2.237  16.392  1.00  0.00     0.188 HD
HETATM   11  C9  UNL     1      -3.399   3.004  14.903  1.00  0.00     0.107 A 
ENDROOT
BRANCH  11  12
HETATM   12  C10 UNL     1      -4.543   2.107  15.036  1.00  0.00     0.083 C 
BRANCH  12  13
HETATM   13  C11 UNL     1      -5.111   2.116  16.460  1.00  0.00    -0.007 C 
HETATM   14  C12 UNL     1      -6.402   2.923  16.438  1.00  0.00     0.005 C 
HETATM   15  C13 UNL     1      -7.185   2.276  17.567  1.00  0.00     0.000 C 
HETATM   16  C14 UNL     1      -6.992   0.796  17.232  1.00  0.00     0.000 C 
HETATM   17  C15 UNL     1      -5.526   0.718  16.865  1.00  0.00     0.005 C 
ENDBRANCH  12  13
ENDBRANCH  11  12
BRANCH   3  18
HETATM   18  C2  UNL     1      -4.840   6.066  11.241  1.00  0.00     0.086 C 
HETATM   19  C3  UNL     1      -5.662   7.254  11.691  1.00  0.00     0.025 C 
HETATM   20  C4  UNL     1      -6.862   7.325  10.760  1.00  0.00     0.002 C 
HETATM   21  C5  UNL     1      -6.641   6.600   9.473  1.00  0.00     0.000 C 
HETATM   22  C6  UNL     1      -5.253   6.720   8.930  1.00  0.00     0.002 C 
HETATM   23  C7  UNL     1      -4.177   6.471   9.942  1.00  0.00     0.025 C 
ENDBRANCH   3  18
TORSDOF 3
ENDMDL
MODEL 2
REMARK VINA RESULT: -7.475642094      0.915      1.049
REMARK  3 active torsions:
REMARK  status: ('A' for Active; 'I' for Inactive)
REMARK       I    between atoms: C1_2  and  N1_3 
REMARK       I    between atoms: C1_2  and  N2_11 
REMARK    1  A    between atoms: N1_3  and  C2_5 
REMARK    2  A    between atoms: C9_17  and  C10_18 
REMARK    3  A    between atoms: C10_18  and  C11_19 
ROOT
HETATM    1  O1  UNL     1      -5.611   4.852  13.198  1.00  0.00    -0.246 OA
HETATM    2  C1  UNL     1      -4.388   5.139  13.237  1.00  0.00     0.329 C 
HETATM    3  N1  UNL     1      -3.982   6.223  12.386  1.00  0.00    -0.338 N 
ATOM      4  H1  UNL     1      -2.997   6.486  12.389  1.00  0.00     0.164 HD
HETATM    5  N2  UNL     1      -3.462   4.451  14.058  1.00  0.00    -0.247 N 
HETATM    6  C8  UNL     1      -2.147   4.698  14.155  1.00  0.00     0.211 A 
HETATM    7  N3  UNL     1      -1.580   3.843  15.038  1.00  0.00    -0.294 N 
ATOM      8  H3  UNL     1      -0.596   3.808  15.302  1.00  0.00     0.187 HD
HETATM    9  N4  UNL     1      -2.538   3.067  15.488  1.00  0.00    -0.287 N 
ATOM     10  H4  UNL     1      -2.428   2.316  16.170  1.00  0.00     0.188 HD
HETATM   11  C9  UNL     1      -3.706   3.436  14.888  1.00  0.00     0.107 A 
ENDROOT
BRANCH  11  12
HETATM   12  C10 UNL     1      -4.997   2.799  15.136  1.00  0.00     0.083 C 
BRANCH  12  13
HETATM   13  C11 UNL     1      -5.110   2.284  16.576  1.00  0.00    -0.007 C 
HETATM   14  C12 UNL     1      -6.447   2.755  17.132  1.00  0.00     0.005 C 
HETATM   15  C13 UNL     1      -6.760   1.661  18.137  1.00  0.00     0.000 C 
HETATM   16  C14 UNL     1      -6.475   0.415  17.297  1.00  0.00     0.000 C 
HETATM   17  C15 UNL     1      -5.189   0.772  16.584  1.00  0.00     0.005 C 
ENDBRANCH  12  13
ENDBRANCH  11  12
BRANCH   3  18
HETATM   18  C2  UNL     1      -4.856   6.951  11.543  1.00  0.00     0.086 C 
HETATM   19  C3  UNL     1      -4.280   8.253  11.032  1.00  0.00     0.025 C 
HETATM   20  C4  UNL     1      -5.460   9.103  10.590  1.00  0.00     0.002 C 
HETATM   21  C5  UNL     1      -6.688   8.296  10.322  1.00  0.00     0.000 C 
HETATM   22  C6  UNL     1      -6.426   6.972   9.679  1.00  0.00     0.002 C 
HETATM   23  C7  UNL     1      -5.329   6.183  10.327  1.00  0.00     0.025 C 
ENDBRANCH   3  18
TORSDOF 3
ENDMDL
MODEL 3
REMARK VINA RESULT: -7.010385798      1.169      1.689
REMARK  3 active torsions:
REMARK  status: ('A' for Active; 'I' for Inactive)
REMARK       I    between atoms: C1_2  and  N1_3 
REMARK       I    between atoms: C1_2  and  N2_11 
REMARK    1  A    between atoms: N1_3  and  C2_5 
REMARK    2  A    between atoms: C9_17  and  C10_18 
REMARK    3  A    between atoms: C10_18  and  C11_19 
ROOT
HETATM    1  O1  UNL     1      -5.411   5.459  13.108  1.00  0.00    -0.246 OA
HETATM    2  C1  UNL     1      -4.299   5.434  12.523  1.00  0.00     0.329 C 
HETATM    3  N1  UNL     1      -4.281   6.016  11.209  1.00  0.00    -0.338 N 
ATOM      4  H1  UNL     1      -3.397   6.014  10.701  1.00  0.00     0.164 HD
HETATM    5  N2  UNL     1      -3.136   4.873  13.104  1.00  0.00    -0.247 N 
HETATM    6  C8  UNL     1      -1.918   4.810  12.546  1.00  0.00     0.211 A 
HETATM    7  N3  UNL     1      -1.051   4.208  13.393  1.00  0.00    -0.294 N 
ATOM      8  H3  UNL     1      -0.062   4.029  13.223  1.00  0.00     0.187 HD
HETATM    9  N4  UNL     1      -1.727   3.898  14.475  1.00  0.00    -0.287 N 
ATOM     10  H4  UNL     1      -1.352   3.432  15.301  1.00  0.00     0.188 HD
HETATM   11  C9  UNL     1      -3.018   4.306  14.306  1.00  0.00     0.107 A 
ENDROOT
BRANCH  11  12
HETATM   12  C10 UNL     1      -4.074   4.133  15.299  1.00  0.00     0.083 C 
BRANCH  12  13
HETATM   13  C11 UNL     1      -4.762   2.769  15.166  1.00  0.00    -0.007 C 
HETATM   14  C12 UNL     1      -4.003   1.780  16.040  1.00  0.00     0.005 C 
HETATM   15  C13 UNL     1      -5.099   0.796  16.409  1.00  0.00     0.000 C 
HETATM   16  C14 UNL     1      -6.214   1.759  16.823  1.00  0.00     0.000 C 
HETATM   17  C15 UNL     1      -6.155   2.828  15.754  1.00  0.00     0.005 C 
ENDBRANCH  12  13
ENDBRANCH  11  12
BRANCH   3  18
HETATM   18  C2  UNL     1      -5.406   6.592  10.572  1.00  0.00     0.086 C 
HETATM   19  C3  UNL     1      -5.702   8.011  11.005  1.00  0.00     0.025 C 
HETATM   20  C4  UNL     1      -7.151   8.282  10.634  1.00  0.00     0.002 C 
HETATM   21  C5  UNL     1      -7.665   7.353   9.584  1.00  0.00     0.000 C 
HETATM   22  C6  UNL     1      -6.665   7.007   8.528  1.00  0.00     0.002 C 
HETATM   23  C7  UNL     1      -5.322   6.612   9.061  1.00  0.00     0.025 C 
ENDBRANCH   3  18
TORSDOF 3
ENDMDL
MODEL 4
REMARK VINA RESULT: -6.992555068      2.601      6.740
REMARK  3 active torsions:
REMARK  status: ('A' for Active; 'I' for Inactive)
REMARK       I    between atoms: C1_2  and  N1_3 
REMARK       I    between atoms: C1_2  and  N2_11 
REMARK    1  A    between atoms: N1_3  and  C2_5 
REMARK    2  A    between atoms: C9_17  and  C10_18 
REMARK    3  A    between atoms: C10_18  and  C11_19 
ROOT
HETATM    1  O1  UNL     1      -4.356   4.876  15.189  1.00  0.00    -0.246 OA
HETATM    2  C1  UNL     1      -3.979   3.960  14.416  1.00  0.00     0.329 C 
HETATM    3  N1  UNL     1      -4.369   2.631  14.798  1.00  0.00    -0.338 N 
ATOM      4  H1  UNL     1      -4.081   1.859  14.196  1.00  0.00     0.164 HD
HETATM    5  N2  UNL     1      -3.221   4.205  13.245  1.00  0.00    -0.247 N 
HETATM    6  C8  UNL     1      -2.784   3.284  12.372  1.00  0.00     0.211 A 
HETATM    7  N3  UNL     1      -2.094   3.884  11.375  1.00  0.00    -0.294 N 
ATOM      8  H3  UNL     1      -1.651   3.423  10.580  1.00  0.00     0.187 HD
HETATM    9  N4  UNL     1      -2.102   5.173  11.625  1.00  0.00    -0.287 N 
ATOM     10  H4  UNL     1      -1.663   5.896  11.054  1.00  0.00     0.188 HD
HETATM   11  C9  UNL     1      -2.797   5.381  12.780  1.00  0.00     0.107 A 
ENDROOT
BRANCH  11  12
HETATM   12  C10 UNL     1      -3.021   6.692  13.383  1.00  0.00     0.083 C 
BRANCH  12  13
HETATM   13  C11 UNL     1      -1.804   7.163  14.188  1.00  0.00    -0.007 C 
HETATM   14  C12 UNL     1      -1.007   8.115  13.307  1.00  0.00     0.005 C 
HETATM   15  C13 UNL     1      -0.359   9.018  14.342  1.00  0.00     0.000 C 
HETATM   16  C14 UNL     1      -1.564   9.339  15.229  1.00  0.00     0.000 C 
HETATM   17  C15 UNL     1      -2.251   7.998  15.368  1.00  0.00     0.005 C 
ENDBRANCH  12  13
ENDBRANCH  11  12
BRANCH   3  18
HETATM   18  C2  UNL     1      -5.126   2.319  15.953  1.00  0.00     0.086 C 
HETATM   19  C3  UNL     1      -6.545   2.843  15.923  1.00  0.00     0.025 C 
HETATM   20  C4  UNL     1      -7.027   2.865  17.364  1.00  0.00     0.002 C 
HETATM   21  C5  UNL     1      -6.236   1.964  18.254  1.00  0.00     0.000 C 
HETATM   22  C6  UNL     1      -5.821   0.678  17.615  1.00  0.00     0.002 C 
HETATM   23  C7  UNL     1      -5.222   0.837  16.251  1.00  0.00     0.025 C 
ENDBRANCH   3  18
TORSDOF 3
ENDMDL
MODEL 5
REMARK VINA RESULT: -6.986905567      1.523      2.159
REMARK  3 active torsions:
REMARK  status: ('A' for Active; 'I' for Inactive)
REMARK       I    between atoms: C1_2  and  N1_3 
REMARK       I    between atoms: C1_2  and  N2_11 
REMARK    1  A    between atoms: N1_3  and  C2_5 
REMARK    2  A    between atoms: C9_17  and  C10_18 
REMARK    3  A    between atoms: C10_18  and  C11_19 
ROOT
HETATM    1  O1  UNL     1      -5.320   5.495  13.386  1.00  0.00    -0.246 OA
HETATM    2  C1  UNL     1      -4.749   4.834  12.482  1.00  0.00     0.329 C 
HETATM    3  N1  UNL     1      -4.741   5.447  11.182  1.00  0.00    -0.338 N 
ATOM      4  H1  UNL     1      -4.288   4.940  10.421  1.00  0.00     0.164 HD
HETATM    5  N2  UNL     1      -4.152   3.571  12.713  1.00  0.00    -0.247 N 
HETATM    6  C8  UNL     1      -3.526   2.808  11.804  1.00  0.00     0.211 A 
HETATM    7  N3  UNL     1      -3.080   1.670  12.384  1.00  0.00    -0.294 N 
ATOM      8  H3  UNL     1      -2.572   0.913  11.926  1.00  0.00     0.187 HD
HETATM    9  N4  UNL     1      -3.427   1.724  13.650  1.00  0.00    -0.287 N 
ATOM     10  H4  UNL     1      -3.234   1.011  14.353  1.00  0.00     0.188 HD
HETATM   11  C9  UNL     1      -4.090   2.897  13.862  1.00  0.00     0.107 A 
ENDROOT
BRANCH  11  12
HETATM   12  C10 UNL     1      -4.633   3.314  15.152  1.00  0.00     0.083 C 
BRANCH  12  13
HETATM   13  C11 UNL     1      -5.702   2.340  15.661  1.00  0.00    -0.007 C 
HETATM   14  C12 UNL     1      -5.006   1.302  16.529  1.00  0.00     0.005 C 
HETATM   15  C13 UNL     1      -6.113   0.921  17.496  1.00  0.00     0.000 C 
HETATM   16  C14 UNL     1      -6.618   2.306  17.905  1.00  0.00     0.000 C 
HETATM   17  C15 UNL     1      -6.658   3.056  16.591  1.00  0.00     0.005 C 
ENDBRANCH  12  13
ENDBRANCH  11  12
BRANCH   3  18
HETATM   18  C2  UNL     1      -5.318   6.704  10.885  1.00  0.00     0.086 C 
HETATM   19  C3  UNL     1      -4.334   7.729  10.367  1.00  0.00     0.025 C 
HETATM   20  C4  UNL     1      -4.979   9.090  10.574  1.00  0.00     0.002 C 
HETATM   21  C5  UNL     1      -6.462   9.011  10.729  1.00  0.00     0.000 C 
HETATM   22  C6  UNL     1      -7.117   7.987   9.858  1.00  0.00     0.002 C 
HETATM   23  C7  UNL     1      -6.448   6.647   9.879  1.00  0.00     0.025 C 
ENDBRANCH   3  18
TORSDOF 3
ENDMDL
