MODEL 1
REMARK VINA RESULT: -7.467389083      0.000      0.000
REMARK  3 active torsions:
REMARK  status: ('A' for Active; 'I' for Inactive)
REMARK    1  A    between atoms: C3_4  and  O2_5 
REMARK    2  A    between atoms: O2_5  and  C4_6 
REMARK    3  A    between atoms: C9_13  and  C10_14 
ROOT
HETATM    1  O1  UNL     1      -4.646   6.059  12.930  1.00  0.00    -0.268 OA
HETATM    2  C1  UNL     1      -4.645   4.863  13.337  1.00  0.00     0.250 A 
HETATM    3  C2  UNL     1      -5.044   4.517  14.618  1.00  0.00     0.130 A 
HETATM    4  C3  UNL     1      -5.036   3.206  15.046  1.00  0.00     0.149 A 
HETATM    5  N1  UNL     1      -4.626   2.269  14.173  1.00  0.00    -0.324 N 
ATOM      6  H1  UNL     1      -4.610   1.292  14.466  1.00  0.00     0.169 HD
HETATM    7  C9  UNL     1      -4.229   2.589  12.906  1.00  0.00     0.115 A 
HETATM    8  N2  UNL     1      -4.244   3.876  12.508  1.00  0.00    -0.311 N 
ATOM      9  H2  UNL     1      -3.946   4.109  11.560  1.00  0.00     0.170 HD
ENDROOT
BRANCH   4  10
HETATM   10  O2  UNL     1      -5.437   2.855  16.337  1.00  0.00    -0.330 OA
BRANCH  10  11
HETATM   11  C4  UNL     1      -6.724   2.431  16.655  1.00  0.00     0.130 C 
HETATM   12  C5  UNL     1      -7.087   2.982  18.019  1.00  0.00     0.032 C 
HETATM   13  C6  UNL     1      -6.341   2.064  18.977  1.00  0.00     0.002 C 
HETATM   14  C7  UNL     1      -5.995   0.829  18.208  1.00  0.00     0.002 C 
HETATM   15  C8  UNL     1      -6.790   0.926  16.933  1.00  0.00     0.032 C 
ENDBRANCH  10  11
ENDBRANCH   4  10
BRANCH   7  16
HETATM   16  C10 UNL     1      -3.781   1.577  11.946  1.00  0.00     0.189 C 
HETATM   17  C11 UNL     1      -4.472   0.247  12.108  1.00  0.00     0.040 C 
HETATM   18  C12 UNL     1      -4.139  -0.596  10.916  1.00  0.00     0.005 C 
HETATM   19  C13 UNL     1      -2.763  -0.447  10.399  1.00  0.00     0.026 C 
HETATM   20  C14 UNL     1      -2.043   0.787  10.790  1.00  0.00     0.168 C 
HETATM   21  O3  UNL     1      -2.408   1.330  11.996  1.00  0.00    -0.378 OA
ENDBRANCH   7  16
TORSDOF 3
ENDMDL
MODEL 2
REMARK VINA RESULT: -7.316603824      2.587      4.376
REMARK  3 active torsions:
REMARK  status: ('A' for Active; 'I' for Inactive)
REMARK    1  A    between atoms: C3_4  and  O2_5 
REMARK    2  A    between atoms: O2_5  and  C4_6 
REMARK    3  A    between atoms: C9_13  and  C10_14 
ROOT
HETATM    1  O1  UNL     1      -3.368  -1.785  11.177  1.00  0.00    -0.268 OA
HETATM    2  C1  UNL     1      -3.268  -0.569  11.504  1.00  0.00     0.250 A 
HETATM    3  C2  UNL     1      -4.119   0.023  12.423  1.00  0.00     0.130 A 
HETATM    4  C3  UNL     1      -3.996   1.352  12.769  1.00  0.00     0.149 A 
HETATM    5  N1  UNL     1      -3.016   2.059  12.180  1.00  0.00    -0.324 N 
ATOM      6  H1  UNL     1      -2.905   3.045  12.418  1.00  0.00     0.169 HD
HETATM    7  C9  UNL     1      -2.166   1.496  11.272  1.00  0.00     0.115 A 
HETATM    8  N2  UNL     1      -2.304   0.195  10.948  1.00  0.00    -0.311 N 
ATOM      9  H2  UNL     1      -1.666  -0.221  10.269  1.00  0.00     0.170 HD
ENDROOT
BRANCH   4  10
HETATM   10  O2  UNL     1      -4.854   1.951  13.695  1.00  0.00    -0.330 OA
BRANCH  10  11
HETATM   11  C4  UNL     1      -4.442   2.904  14.622  1.00  0.00     0.130 C 
HETATM   12  C5  UNL     1      -3.742   2.192  15.762  1.00  0.00     0.032 C 
HETATM   13  C6  UNL     1      -4.894   1.619  16.576  1.00  0.00     0.002 C 
HETATM   14  C7  UNL     1      -6.123   2.370  16.171  1.00  0.00     0.002 C 
HETATM   15  C8  UNL     1      -5.619   3.540  15.367  1.00  0.00     0.032 C 
ENDBRANCH  10  11
ENDBRANCH   4  10
BRANCH   7  16
HETATM   16  C10 UNL     1      -1.094   2.255  10.624  1.00  0.00     0.189 C 
HETATM   17  C11 UNL     1      -0.488   3.314  11.511  1.00  0.00     0.040 C 
HETATM   18  C12 UNL     1       0.757   3.818  10.846  1.00  0.00     0.005 C 
HETATM   19  C13 UNL     1       0.690   3.923   9.374  1.00  0.00     0.026 C 
HETATM   20  C14 UNL     1      -0.364   3.126   8.704  1.00  0.00     0.168 C 
HETATM   21  O3  UNL     1      -1.493   2.891   9.448  1.00  0.00    -0.378 OA
ENDBRANCH   7  16
TORSDOF 3
ENDMDL
MODEL 3
REMARK VINA RESULT: -7.176025508      2.532      4.508
REMARK  3 active torsions:
REMARK  status: ('A' for Active; 'I' for Inactive)
REMARK    1  A    between atoms: C3_4  and  O2_5 
REMARK    2  A    between atoms: O2_5  and  C4_6 
REMARK    3  A    between atoms: C9_13  and  C10_14 
ROOT
HETATM    1  O1  UNL     1      -3.743  -1.397  11.330  1.00  0.00    -0.268 OA
HETATM    2  C1  UNL     1      -3.596  -0.156  11.517  1.00  0.00     0.250 A 
HETATM    3  C2  UNL     1      -4.473   0.586  12.290  1.00  0.00     0.130 A 
HETATM    4  C3  UNL     1      -4.297   1.939  12.484  1.00  0.00     0.149 A 
HETATM    5  N1  UNL     1      -3.237   2.519  11.892  1.00  0.00    -0.324 N 
ATOM      6  H1  UNL     1      -3.086   3.520  12.019  1.00  0.00     0.169 HD
HETATM    7  C9  UNL     1      -2.360   1.806  11.126  1.00  0.00     0.115 A 
HETATM    8  N2  UNL     1      -2.551   0.484  10.950  1.00  0.00    -0.311 N 
ATOM      9  H2  UNL     1      -1.892  -0.044  10.377  1.00  0.00     0.170 HD
ENDROOT
BRANCH   4  10
HETATM   10  O2  UNL     1      -5.181   2.689  13.263  1.00  0.00    -0.330 OA
BRANCH  10  11
HETATM   11  C4  UNL     1      -5.153   2.712  14.654  1.00  0.00     0.130 C 
HETATM   12  C5  UNL     1      -6.310   3.559  15.143  1.00  0.00     0.032 C 
HETATM   13  C6  UNL     1      -5.820   4.983  14.919  1.00  0.00     0.002 C 
HETATM   14  C7  UNL     1      -4.334   4.908  14.771  1.00  0.00     0.002 C 
HETATM   15  C8  UNL     1      -3.967   3.512  15.201  1.00  0.00     0.032 C 
ENDBRANCH  10  11
ENDBRANCH   4  10
BRANCH   7  16
HETATM   16  C10 UNL     1      -1.202   2.426  10.478  1.00  0.00     0.189 C 
HETATM   17  C11 UNL     1      -0.437   3.361  11.380  1.00  0.00     0.040 C 
HETATM   18  C12 UNL     1       0.855   3.704  10.703  1.00  0.00     0.005 C 
HETATM   19  C13 UNL     1       0.780   3.861   9.237  1.00  0.00     0.026 C 
HETATM   20  C14 UNL     1      -0.388   3.242   8.567  1.00  0.00     0.168 C 
HETATM   21  O3  UNL     1      -1.526   3.146   9.328  1.00  0.00    -0.378 OA
ENDBRANCH   7  16
TORSDOF 3
ENDMDL
MODEL 4
REMARK VINA RESULT: -7.111879394      1.079      5.787
REMARK  3 active torsions:
REMARK  status: ('A' for Active; 'I' for Inactive)
REMARK    1  A    between atoms: C3_4  and  O2_5 
REMARK    2  A    between atoms: O2_5  and  C4_6 
REMARK    3  A    between atoms: C9_13  and  C10_14 
ROOT
HETATM    1  O1  UNL     1      -3.903   5.636  12.969  1.00  0.00    -0.268 OA
HETATM    2  C1  UNL     1      -3.929   4.412  13.279  1.00  0.00     0.250 A 
HETATM    3  C2  UNL     1      -3.351   3.434  12.487  1.00  0.00     0.130 A 
HETATM    4  C3  UNL     1      -3.388   2.103  12.841  1.00  0.00     0.149 A 
HETATM    5  N1  UNL     1      -4.009   1.783  13.990  1.00  0.00    -0.324 N 
ATOM      6  H1  UNL     1      -4.052   0.804  14.274  1.00  0.00     0.169 HD
HETATM    7  C9  UNL     1      -4.586   2.730  14.787  1.00  0.00     0.115 A 
HETATM    8  N2  UNL     1      -4.538   4.027  14.421  1.00  0.00    -0.311 N 
ATOM      9  H2  UNL     1      -4.970   4.731  15.020  1.00  0.00     0.170 HD
ENDROOT
BRANCH   4  10
HETATM   10  O2  UNL     1      -2.806   1.115  12.043  1.00  0.00    -0.330 OA
BRANCH  10  11
HETATM   11  C4  UNL     1      -3.360   0.665  10.848  1.00  0.00     0.130 C 
HETATM   12  C5  UNL     1      -4.740   0.113  11.138  1.00  0.00     0.032 C 
HETATM   13  C6  UNL     1      -4.450  -1.255  11.741  1.00  0.00     0.002 C 
HETATM   14  C7  UNL     1      -3.046  -1.604  11.361  1.00  0.00     0.002 C 
HETATM   15  C8  UNL     1      -2.660  -0.589  10.317  1.00  0.00     0.032 C 
ENDBRANCH  10  11
ENDBRANCH   4  10
BRANCH   7  16
HETATM   16  C10 UNL     1      -5.264   2.394  16.041  1.00  0.00     0.189 C 
HETATM   17  C11 UNL     1      -5.295   0.914  16.328  1.00  0.00     0.040 C 
HETATM   18  C12 UNL     1      -5.756   0.728  17.742  1.00  0.00     0.005 C 
HETATM   19  C13 UNL     1      -6.795   1.672  18.200  1.00  0.00     0.026 C 
HETATM   20  C14 UNL     1      -6.931   2.927  17.425  1.00  0.00     0.168 C 
HETATM   21  O3  UNL     1      -6.583   2.847  16.100  1.00  0.00    -0.378 OA
ENDBRANCH   7  16
TORSDOF 3
ENDMDL
MODEL 5
REMARK VINA RESULT: -7.088501333      2.166      4.334
REMARK  3 active torsions:
REMARK  status: ('A' for Active; 'I' for Inactive)
REMARK    1  A    between atoms: C3_4  and  O2_5 
REMARK    2  A    between atoms: O2_5  and  C4_6 
REMARK    3  A    between atoms: C9_13  and  C10_14 
ROOT
HETATM    1  O1  UNL     1      -3.769   1.320  11.843  1.00  0.00    -0.268 OA
HETATM    2  C1  UNL     1      -3.686   1.927  12.948  1.00  0.00     0.250 A 
HETATM    3  C2  UNL     1      -4.147   1.377  14.132  1.00  0.00     0.130 A 
HETATM    4  C3  UNL     1      -4.048   2.053  15.330  1.00  0.00     0.149 A 
HETATM    5  N1  UNL     1      -3.485   3.274  15.309  1.00  0.00    -0.324 N 
ATOM      6  H1  UNL     1      -3.401   3.796  16.181  1.00  0.00     0.169 HD
HETATM    7  C9  UNL     1      -3.023   3.835  14.153  1.00  0.00     0.115 A 
HETATM    8  N2  UNL     1      -3.130   3.157  12.993  1.00  0.00    -0.311 N 
ATOM      9  H2  UNL     1      -2.783   3.581  12.132  1.00  0.00     0.170 HD
ENDROOT
BRANCH   4  10
HETATM   10  O2  UNL     1      -4.514   1.500  16.525  1.00  0.00    -0.330 OA
BRANCH  10  11
HETATM   11  C4  UNL     1      -5.761   0.898  16.661  1.00  0.00     0.130 C 
HETATM   12  C5  UNL     1      -6.828   1.948  16.429  1.00  0.00     0.032 C 
HETATM   13  C6  UNL     1      -6.846   2.723  17.740  1.00  0.00     0.002 C 
HETATM   14  C7  UNL     1      -6.183   1.855  18.762  1.00  0.00     0.002 C 
HETATM   15  C8  UNL     1      -6.064   0.503  18.109  1.00  0.00     0.032 C 
ENDBRANCH  10  11
ENDBRANCH   4  10
BRANCH   7  16
HETATM   16  C10 UNL     1      -2.407   5.164  14.117  1.00  0.00     0.189 C 
HETATM   17  C11 UNL     1      -3.303   6.255  14.648  1.00  0.00     0.040 C 
HETATM   18  C12 UNL     1      -2.475   7.492  14.817  1.00  0.00     0.005 C 
HETATM   19  C13 UNL     1      -1.444   7.711  13.782  1.00  0.00     0.026 C 
HETATM   20  C14 UNL     1      -1.039   6.523  12.995  1.00  0.00     0.168 C 
HETATM   21  O3  UNL     1      -2.001   5.557  12.841  1.00  0.00    -0.378 OA
ENDBRANCH   7  16
TORSDOF 3
ENDMDL
