MODEL 1
REMARK VINA RESULT: -7.464968109      0.000      0.000
REMARK  8 active torsions:
REMARK  status: ('A' for Active; 'I' for Inactive)
REMARK    1  A    between atoms: C2_2  and  C3_3 
REMARK    2  A    between atoms: C2_2  and  C8_10 
REMARK    3  A    between atoms: C3_3  and  C4_4 
REMARK    4  A    between atoms: C4_4  and  O1_5 
REMARK    5  A    between atoms: C13_15  and  C14_16 
REMARK    6  A    between atoms: C14_16  and  C15_17 
REMARK    7  A    between atoms: C15_17  and  C16_18 
REMARK    8  A    between atoms: C19_21  and  O2_22 
ROOT
HETATM    1  C8  UNL     1      11.182  -9.255  11.708  1.00  0.00     0.030 C 
HETATM    2  C9  UNL     1      11.377 -10.532  12.481  1.00  0.00    -0.039 C 
HETATM    3  C10 UNL     1      12.761 -10.672  13.080  1.00  0.00     0.015 C 
HETATM    4  C11 UNL     1      11.102 -11.795  11.784  1.00  0.00     0.015 C 
HETATM    5  C12 UNL     1      10.412 -10.444  13.658  1.00  0.00     0.022 C 
HETATM    6  C13 UNL     1      10.122  -8.961  13.882  1.00  0.00    -0.006 C 
HETATM    7  C19 UNL     1       8.623  -8.796  13.803  1.00  0.00     0.127 C 
HETATM    8  C20 UNL     1       8.460  -7.429  13.179  1.00  0.00     0.033 C 
HETATM    9  C21 UNL     1       9.686  -7.263  12.300  1.00  0.00     0.013 C 
HETATM   10  C22 UNL     1      10.714  -8.236  12.715  1.00  0.00    -0.026 C 
HETATM   11  C23 UNL     1      11.926  -7.365  13.149  1.00  0.00     0.016 C 
ENDROOT
BRANCH   1  12
HETATM   12  C2  UNL     1      10.486  -9.367  10.430  1.00  0.00    -0.081 C 
HETATM   13  C1  UNL     1       9.213  -9.777  10.481  1.00  0.00     0.015 C 
BRANCH  12  14
HETATM   14  C3  UNL     1      10.991  -9.031   9.101  1.00  0.00     0.071 C 
BRANCH  14  15
HETATM   15  C4  UNL     1      10.646  -7.664   8.563  1.00  0.00     0.061 C 
HETATM   16  C5  UNL     1      11.808  -7.197   7.651  1.00  0.00     0.038 C 
HETATM   17  C6  UNL     1      11.570  -5.808   8.190  1.00  0.00     0.006 C 
HETATM   18  C7  UNL     1      10.937  -6.478   9.398  1.00  0.00     0.038 C 
BRANCH  15  19
HETATM   19  O1  UNL     1       9.484  -7.604   7.798  1.00  0.00    -0.390 OA
ATOM     20  H1  UNL     1       9.121  -6.734   7.680  1.00  0.00     0.210 HD
ENDBRANCH  15  19
ENDBRANCH  14  15
ENDBRANCH  12  14
ENDBRANCH   1  12
BRANCH   6  21
HETATM   21  C14 UNL     1      10.596  -8.648  15.237  1.00  0.00     0.013 C 
BRANCH  21  22
HETATM   22  C15 UNL     1      11.046  -9.711  16.146  1.00  0.00     0.005 C 
BRANCH  22  23
HETATM   23  C16 UNL     1       9.895  -9.996  17.137  1.00  0.00    -0.023 C 
HETATM   24  C17 UNL     1      10.274 -11.156  18.035  1.00  0.00     0.009 C 
HETATM   25  C18 UNL     1       9.583  -8.761  17.954  1.00  0.00     0.009 C 
ENDBRANCH  22  23
ENDBRANCH  21  22
ENDBRANCH   6  21
BRANCH   7  26
HETATM   26  O2  UNL     1       8.002  -8.879  15.046  1.00  0.00    -0.395 OA
ATOM     27  H2  UNL     1       7.059  -8.781  14.996  1.00  0.00     0.210 HD
ENDBRANCH   7  26
TORSDOF 8
ENDMDL
MODEL 2
REMARK VINA RESULT: -7.299408785      1.944      2.671
REMARK  8 active torsions:
REMARK  status: ('A' for Active; 'I' for Inactive)
REMARK    1  A    between atoms: C2_2  and  C3_3 
REMARK    2  A    between atoms: C2_2  and  C8_10 
REMARK    3  A    between atoms: C3_3  and  C4_4 
REMARK    4  A    between atoms: C4_4  and  O1_5 
REMARK    5  A    between atoms: C13_15  and  C14_16 
REMARK    6  A    between atoms: C14_16  and  C15_17 
REMARK    7  A    between atoms: C15_17  and  C16_18 
REMARK    8  A    between atoms: C19_21  and  O2_22 
ROOT
HETATM    1  C8  UNL     1      11.233  -9.387  12.653  1.00  0.00     0.030 C 
HETATM    2  C9  UNL     1      11.094 -10.880  12.522  1.00  0.00    -0.039 C 
HETATM    3  C10 UNL     1      12.420 -11.605  12.408  1.00  0.00     0.015 C 
HETATM    4  C11 UNL     1      10.254 -11.389  11.430  1.00  0.00     0.015 C 
HETATM    5  C12 UNL     1      10.467 -11.345  13.831  1.00  0.00     0.022 C 
HETATM    6  C13 UNL     1      10.782 -10.276  14.877  1.00  0.00    -0.006 C 
HETATM    7  C19 UNL     1       9.459  -9.826  15.447  1.00  0.00     0.127 C 
HETATM    8  C20 UNL     1       9.688  -8.359  15.729  1.00  0.00     0.033 C 
HETATM    9  C21 UNL     1      10.702  -7.924  14.687  1.00  0.00     0.013 C 
HETATM   10  C22 UNL     1      11.365  -9.118  14.131  1.00  0.00    -0.026 C 
HETATM   11  C23 UNL     1      12.869  -8.926  14.474  1.00  0.00     0.016 C 
ENDROOT
BRANCH   1  12
HETATM   12  C2  UNL     1      10.316  -8.574  11.860  1.00  0.00    -0.081 C 
HETATM   13  C1  UNL     1       9.021  -8.654  12.184  1.00  0.00     0.015 C 
BRANCH  12  14
HETATM   14  C3  UNL     1      10.645  -7.640  10.787  1.00  0.00     0.071 C 
BRANCH  14  15
HETATM   15  C4  UNL     1      10.738  -8.205   9.391  1.00  0.00     0.061 C 
HETATM   16  C5  UNL     1      11.343  -7.118   8.468  1.00  0.00     0.038 C 
HETATM   17  C6  UNL     1      10.405  -7.614   7.397  1.00  0.00     0.006 C 
HETATM   18  C7  UNL     1       9.540  -8.154   8.523  1.00  0.00     0.038 C 
BRANCH  15  19
HETATM   19  O1  UNL     1      11.539  -9.336   9.261  1.00  0.00    -0.390 OA
ATOM     20  H1  UNL     1      11.626  -9.863  10.047  1.00  0.00     0.210 HD
ENDBRANCH  15  19
ENDBRANCH  14  15
ENDBRANCH  12  14
ENDBRANCH   1  12
BRANCH   6  21
HETATM   21  C14 UNL     1      11.584 -10.938  15.915  1.00  0.00     0.013 C 
BRANCH  21  22
HETATM   22  C15 UNL     1      11.924 -12.364  15.814  1.00  0.00     0.005 C 
BRANCH  22  23
HETATM   23  C16 UNL     1      13.459 -12.488  15.953  1.00  0.00    -0.023 C 
HETATM   24  C17 UNL     1      13.802 -13.030  17.326  1.00  0.00     0.009 C 
HETATM   25  C18 UNL     1      14.018 -13.380  14.866  1.00  0.00     0.009 C 
ENDBRANCH  22  23
ENDBRANCH  21  22
ENDBRANCH   6  21
BRANCH   7  26
HETATM   26  O2  UNL     1       9.096 -10.527  16.594  1.00  0.00    -0.395 OA
ATOM     27  H2  UNL     1       9.240 -11.463  16.517  1.00  0.00     0.210 HD
ENDBRANCH   7  26
TORSDOF 8
ENDMDL
MODEL 3
REMARK VINA RESULT: -7.062943409      2.245      3.487
REMARK  8 active torsions:
REMARK  status: ('A' for Active; 'I' for Inactive)
REMARK    1  A    between atoms: C2_2  and  C3_3 
REMARK    2  A    between atoms: C2_2  and  C8_10 
REMARK    3  A    between atoms: C3_3  and  C4_4 
REMARK    4  A    between atoms: C4_4  and  O1_5 
REMARK    5  A    between atoms: C13_15  and  C14_16 
REMARK    6  A    between atoms: C14_16  and  C15_17 
REMARK    7  A    between atoms: C15_17  and  C16_18 
REMARK    8  A    between atoms: C19_21  and  O2_22 
ROOT
HETATM    1  C8  UNL     1      10.977  -8.917  13.069  1.00  0.00     0.030 C 
HETATM    2  C9  UNL     1      10.934 -10.281  12.435  1.00  0.00    -0.039 C 
HETATM    3  C10 UNL     1      12.288 -10.773  11.962  1.00  0.00     0.015 C 
HETATM    4  C11 UNL     1      10.012 -10.478  11.309  1.00  0.00     0.015 C 
HETATM    5  C12 UNL     1      10.503 -11.231  13.546  1.00  0.00     0.022 C 
HETATM    6  C13 UNL     1      10.859 -10.555  14.869  1.00  0.00    -0.006 C 
HETATM    7  C19 UNL     1       9.583 -10.476  15.672  1.00  0.00     0.127 C 
HETATM    8  C20 UNL     1       9.734  -9.177  16.430  1.00  0.00     0.033 C 
HETATM    9  C21 UNL     1      10.583  -8.304  15.524  1.00  0.00     0.013 C 
HETATM   10  C22 UNL     1      11.263  -9.156  14.531  1.00  0.00    -0.026 C 
HETATM   11  C23 UNL     1      12.778  -8.927  14.790  1.00  0.00     0.016 C 
ENDROOT
BRANCH   1  12
HETATM   12  C2  UNL     1       9.915  -7.990  12.692  1.00  0.00    -0.081 C 
HETATM   13  C1  UNL     1       8.661  -8.404  12.907  1.00  0.00     0.015 C 
BRANCH  12  14
HETATM   14  C3  UNL     1      10.054  -6.637  12.158  1.00  0.00     0.071 C 
BRANCH  14  15
HETATM   15  C4  UNL     1      11.403  -6.257  11.600  1.00  0.00     0.061 C 
HETATM   16  C5  UNL     1      11.314  -4.805  11.068  1.00  0.00     0.038 C 
HETATM   17  C6  UNL     1      12.227  -5.241   9.949  1.00  0.00     0.006 C 
HETATM   18  C7  UNL     1      11.737  -6.654  10.214  1.00  0.00     0.038 C 
BRANCH  15  19
HETATM   19  O1  UNL     1      12.453  -6.288  12.514  1.00  0.00    -0.390 OA
ATOM     20  H1  UNL     1      12.700  -7.154  12.818  1.00  0.00     0.210 HD
ENDBRANCH  15  19
ENDBRANCH  14  15
ENDBRANCH  12  14
ENDBRANCH   1  12
BRANCH   6  21
HETATM   21  C14 UNL     1      11.825 -11.439  15.537  1.00  0.00     0.013 C 
BRANCH  21  22
HETATM   22  C15 UNL     1      12.220 -12.720  14.936  1.00  0.00     0.005 C 
BRANCH  22  23
HETATM   23  C16 UNL     1      13.760 -12.719  14.806  1.00  0.00    -0.023 C 
HETATM   24  C17 UNL     1      14.377 -13.288  16.067  1.00  0.00     0.009 C 
HETATM   25  C18 UNL     1      14.187 -13.513  13.590  1.00  0.00     0.009 C 
ENDBRANCH  22  23
ENDBRANCH  21  22
ENDBRANCH   6  21
BRANCH   7  26
HETATM   26  O2  UNL     1       9.411 -11.562  16.526  1.00  0.00    -0.395 OA
ATOM     27  H2  UNL     1       9.804 -12.360  16.194  1.00  0.00     0.210 HD
ENDBRANCH   7  26
TORSDOF 8
ENDMDL
MODEL 4
REMARK VINA RESULT: -6.914715808      1.978      3.030
REMARK  8 active torsions:
REMARK  status: ('A' for Active; 'I' for Inactive)
REMARK    1  A    between atoms: C2_2  and  C3_3 
REMARK    2  A    between atoms: C2_2  and  C8_10 
REMARK    3  A    between atoms: C3_3  and  C4_4 
REMARK    4  A    between atoms: C4_4  and  O1_5 
REMARK    5  A    between atoms: C13_15  and  C14_16 
REMARK    6  A    between atoms: C14_16  and  C15_17 
REMARK    7  A    between atoms: C15_17  and  C16_18 
REMARK    8  A    between atoms: C19_21  and  O2_22 
ROOT
HETATM    1  C8  UNL     1      11.334  -9.557  12.880  1.00  0.00     0.030 C 
HETATM    2  C9  UNL     1      11.166 -11.044  12.719  1.00  0.00    -0.039 C 
HETATM    3  C10 UNL     1      12.475 -11.786  12.537  1.00  0.00     0.015 C 
HETATM    4  C11 UNL     1      10.277 -11.514  11.649  1.00  0.00     0.015 C 
HETATM    5  C12 UNL     1      10.583 -11.531  14.041  1.00  0.00     0.022 C 
HETATM    6  C13 UNL     1      10.955 -10.493  15.098  1.00  0.00    -0.006 C 
HETATM    7  C19 UNL     1       9.662 -10.037  15.730  1.00  0.00     0.127 C 
HETATM    8  C20 UNL     1       9.925  -8.581  16.037  1.00  0.00     0.033 C 
HETATM    9  C21 UNL     1      10.905  -8.136  14.967  1.00  0.00     0.013 C 
HETATM   10  C22 UNL     1      11.527  -9.326  14.358  1.00  0.00    -0.026 C 
HETATM   11  C23 UNL     1      13.046  -9.165  14.647  1.00  0.00     0.016 C 
ENDROOT
BRANCH   1  12
HETATM   12  C2  UNL     1      10.400  -8.712  12.143  1.00  0.00    -0.081 C 
HETATM   13  C1  UNL     1       9.104  -8.857  12.442  1.00  0.00     0.015 C 
BRANCH  12  14
HETATM   14  C3  UNL     1      10.711  -7.683  11.154  1.00  0.00     0.071 C 
BRANCH  14  15
HETATM   15  C4  UNL     1      10.597  -8.074   9.701  1.00  0.00     0.061 C 
HETATM   16  C5  UNL     1       9.350  -8.979   9.540  1.00  0.00     0.038 C 
HETATM   17  C6  UNL     1      10.145  -9.763   8.525  1.00  0.00     0.006 C 
HETATM   18  C7  UNL     1      11.389  -9.224   9.210  1.00  0.00     0.038 C 
BRANCH  15  19
HETATM   19  O1  UNL     1      10.444  -7.014   8.812  1.00  0.00    -0.390 OA
ATOM     20  H1  UNL     1      10.400  -6.153   9.212  1.00  0.00     0.210 HD
ENDBRANCH  15  19
ENDBRANCH  14  15
ENDBRANCH  12  14
ENDBRANCH   1  12
BRANCH   6  21
HETATM   21  C14 UNL     1      11.785 -11.192  16.089  1.00  0.00     0.013 C 
BRANCH  21  22
HETATM   22  C15 UNL     1      12.126 -12.611  15.924  1.00  0.00     0.005 C 
BRANCH  22  23
HETATM   23  C16 UNL     1      13.668 -12.720  15.886  1.00  0.00    -0.023 C 
HETATM   24  C17 UNL     1      14.188 -13.048  17.270  1.00  0.00     0.009 C 
HETATM   25  C18 UNL     1      14.099 -13.769  14.885  1.00  0.00     0.009 C 
ENDBRANCH  22  23
ENDBRANCH  21  22
ENDBRANCH   6  21
BRANCH   7  26
HETATM   26  O2  UNL     1       9.333 -10.760  16.873  1.00  0.00    -0.395 OA
ATOM     27  H2  UNL     1       9.467 -10.268  17.674  1.00  0.00     0.210 HD
ENDBRANCH   7  26
TORSDOF 8
ENDMDL
MODEL 5
REMARK VINA RESULT: -6.873302062      2.270      3.087
REMARK  8 active torsions:
REMARK  status: ('A' for Active; 'I' for Inactive)
REMARK    1  A    between atoms: C2_2  and  C3_3 
REMARK    2  A    between atoms: C2_2  and  C8_10 
REMARK    3  A    between atoms: C3_3  and  C4_4 
REMARK    4  A    between atoms: C4_4  and  O1_5 
REMARK    5  A    between atoms: C13_15  and  C14_16 
REMARK    6  A    between atoms: C14_16  and  C15_17 
REMARK    7  A    between atoms: C15_17  and  C16_18 
REMARK    8  A    between atoms: C19_21  and  O2_22 
ROOT
HETATM    1  C8  UNL     1      11.730 -10.913  12.449  1.00  0.00     0.030 C 
HETATM    2  C9  UNL     1      11.257 -12.300  12.792  1.00  0.00    -0.039 C 
HETATM    3  C10 UNL     1      12.356 -13.342  12.754  1.00  0.00     0.015 C 
HETATM    4  C11 UNL     1      10.143 -12.850  12.009  1.00  0.00     0.015 C 
HETATM    5  C12 UNL     1      10.796 -12.223  14.243  1.00  0.00     0.022 C 
HETATM    6  C13 UNL     1      11.515 -11.031  14.874  1.00  0.00    -0.006 C 
HETATM    7  C19 UNL     1      10.444 -10.124  15.427  1.00  0.00     0.127 C 
HETATM    8  C20 UNL     1      11.025  -8.743  15.224  1.00  0.00     0.033 C 
HETATM    9  C21 UNL     1      11.900  -8.876  13.991  1.00  0.00     0.013 C 
HETATM   10  C22 UNL     1      12.184 -10.303  13.751  1.00  0.00    -0.026 C 
HETATM   11  C23 UNL     1      13.731 -10.417  13.847  1.00  0.00     0.016 C 
ENDROOT
BRANCH   1  12
HETATM   12  C2  UNL     1      10.876 -10.135  11.557  1.00  0.00    -0.081 C 
HETATM   13  C1  UNL     1       9.703  -9.734  12.058  1.00  0.00     0.015 C 
BRANCH  12  14
HETATM   14  C3  UNL     1      11.169  -9.692  10.196  1.00  0.00     0.071 C 
BRANCH  14  15
HETATM   15  C4  UNL     1      10.582  -8.370   9.765  1.00  0.00     0.061 C 
HETATM   16  C5  UNL     1      11.477  -7.787   8.644  1.00  0.00     0.038 C 
HETATM   17  C6  UNL     1      11.213  -6.429   9.246  1.00  0.00     0.006 C 
HETATM   18  C7  UNL     1      10.915  -7.157  10.545  1.00  0.00     0.038 C 
BRANCH  15  19
HETATM   19  O1  UNL     1       9.287  -8.434   9.257  1.00  0.00    -0.390 OA
ATOM     20  H1  UNL     1       8.769  -7.646   9.370  1.00  0.00     0.210 HD
ENDBRANCH  15  19
ENDBRANCH  14  15
ENDBRANCH  12  14
ENDBRANCH   1  12
BRANCH   6  21
HETATM   21  C14 UNL     1      12.335 -11.575  15.966  1.00  0.00     0.013 C 
BRANCH  21  22
HETATM   22  C15 UNL     1      12.226 -12.985  16.364  1.00  0.00     0.005 C 
BRANCH  22  23
HETATM   23  C16 UNL     1      13.617 -13.632  16.176  1.00  0.00    -0.023 C 
HETATM   24  C17 UNL     1      14.595 -13.031  17.164  1.00  0.00     0.009 C 
HETATM   25  C18 UNL     1      13.530 -15.132  16.348  1.00  0.00     0.009 C 
ENDBRANCH  22  23
ENDBRANCH  21  22
ENDBRANCH   6  21
BRANCH   7  26
HETATM   26  O2  UNL     1      10.157 -10.377  16.766  1.00  0.00    -0.395 OA
ATOM     27  H2  UNL     1      10.741  -9.923  17.362  1.00  0.00     0.210 HD
ENDBRANCH   7  26
TORSDOF 8
ENDMDL
