MODEL 1
REMARK VINA RESULT: -8.107766397      0.000      0.000
REMARK  9 active torsions:
REMARK  status: ('A' for Active; 'I' for Inactive)
REMARK    1  A    between atoms: C4_4  and  C5_5 
REMARK    2  A    between atoms: C5_5  and  C6_6 
REMARK    3  A    between atoms: C6_6  and  C7_7 
REMARK    4  A    between atoms: C7_7  and  C8_8 
REMARK    5  A    between atoms: C8_8  and  C9_9 
REMARK    6  A    between atoms: C8_8  and  C21_26 
REMARK    7  A    between atoms: C10_10  and  C11_11 
REMARK    8  A    between atoms: C11_11  and  C12_15 
REMARK    9  A    between atoms: C17_20  and  O1_21 
ROOT
HETATM    1  C11 UNL     1       9.795  -9.861  10.389  1.00  0.00     0.007 C 
HETATM    2  N1  UNL     1       8.562  -9.956  10.167  1.00  0.00    -0.402 N 
ATOM      3  H11 UNL     1       8.135  -9.533   9.343  1.00  0.00     0.156 HD
ATOM      4  H12 UNL     1       7.961 -10.472  10.811  1.00  0.00     0.156 HD
ENDROOT
BRANCH   1   5
HETATM    5  C10 UNL     1      10.411 -10.471  11.577  1.00  0.00     0.026 C 
HETATM    6  C9  UNL     1      11.694 -10.516  11.669  1.00  0.00     0.017 C 
BRANCH   6   7
HETATM    7  C8  UNL     1      12.408 -11.119  12.856  1.00  0.00    -0.014 C 
BRANCH   7   8
HETATM    8  C7  UNL     1      12.550 -10.295  13.808  1.00  0.00    -0.148 C 
BRANCH   8   9
HETATM    9  C6  UNL     1      12.707  -9.375  14.874  1.00  0.00     0.089 C 
BRANCH   9  10
HETATM   10  C5  UNL     1      11.414  -8.744  15.405  1.00  0.00     0.039 C 
BRANCH  10  11
HETATM   11  C4  UNL     1      10.579  -8.218  14.305  1.00  0.00    -0.024 C 
HETATM   12  C2  UNL     1       9.278  -8.353  14.319  1.00  0.00    -0.091 C 
HETATM   13  C1  UNL     1       8.561  -9.029  15.417  1.00  0.00     0.042 C 
HETATM   14  C3  UNL     1       8.471  -7.816  13.173  1.00  0.00     0.042 C 
ENDBRANCH  10  11
ENDBRANCH   9  10
ENDBRANCH   8   9
ENDBRANCH   7   8
BRANCH   7  15
HETATM   15  C21 UNL     1      12.763 -12.513  12.686  1.00  0.00     0.018 C 
HETATM   16  C22 UNL     1      14.139 -12.783  13.383  1.00  0.00     0.015 C 
HETATM   17  C23 UNL     1      11.817 -13.518  13.298  1.00  0.00     0.015 C 
ENDBRANCH   7  15
ENDBRANCH   6   7
ENDBRANCH   1   5
BRANCH   1  18
HETATM   18  C12 UNL     1      10.656  -9.121   9.465  1.00  0.00     0.039 C 
HETATM   19  C13 UNL     1       9.924  -8.979   8.108  1.00  0.00     0.011 C 
HETATM   20  C14 UNL     1      10.733  -7.857   7.427  1.00  0.00     0.006 C 
HETATM   21  C15 UNL     1      11.530  -7.200   8.534  1.00  0.00    -0.007 C 
HETATM   22  C16 UNL     1      11.556  -5.719   8.507  1.00  0.00     0.036 C 
HETATM   23  C20 UNL     1      10.735  -7.631   9.775  1.00  0.00    -0.000 C 
HETATM   24  C17 UNL     1      12.165  -5.181   9.766  1.00  0.00     0.118 C 
HETATM   25  C18 UNL     1      11.556  -5.743  11.022  1.00  0.00     0.032 C 
HETATM   26  C19 UNL     1      11.514  -7.267  10.974  1.00  0.00     0.008 C 
BRANCH  24  27
HETATM   27  O1  UNL     1      11.919  -3.798   9.767  1.00  0.00    -0.396 OA
ATOM     28  H1  UNL     1      11.630  -3.577  10.645  1.00  0.00     0.210 HD
ENDBRANCH  24  27
ENDBRANCH   1  18
TORSDOF 9
ENDMDL
MODEL 2
REMARK VINA RESULT: -7.967610757      2.788      6.785
REMARK  9 active torsions:
REMARK  status: ('A' for Active; 'I' for Inactive)
REMARK    1  A    between atoms: C4_4  and  C5_5 
REMARK    2  A    between atoms: C5_5  and  C6_6 
REMARK    3  A    between atoms: C6_6  and  C7_7 
REMARK    4  A    between atoms: C7_7  and  C8_8 
REMARK    5  A    between atoms: C8_8  and  C9_9 
REMARK    6  A    between atoms: C8_8  and  C21_26 
REMARK    7  A    between atoms: C10_10  and  C11_11 
REMARK    8  A    between atoms: C11_11  and  C12_15 
REMARK    9  A    between atoms: C17_20  and  O1_21 
ROOT
HETATM    1  C11 UNL     1      10.197  -9.139  14.878  1.00  0.00     0.007 C 
HETATM    2  N1  UNL     1       9.058  -8.905  15.355  1.00  0.00    -0.402 N 
ATOM      3  H11 UNL     1       8.728  -9.374  16.199  1.00  0.00     0.156 HD
ATOM      4  H12 UNL     1       8.442  -8.226  14.908  1.00  0.00     0.156 HD
ENDROOT
BRANCH   1   5
HETATM    5  C10 UNL     1      10.673  -8.461  13.662  1.00  0.00     0.026 C 
HETATM    6  C9  UNL     1       9.979  -8.546  12.581  1.00  0.00     0.017 C 
BRANCH   6   7
HETATM    7  C8  UNL     1      10.390  -7.878  11.290  1.00  0.00    -0.014 C 
BRANCH   7   8
HETATM    8  C7  UNL     1      11.063  -6.822  11.482  1.00  0.00    -0.148 C 
BRANCH   8   9
HETATM    9  C6  UNL     1      11.814  -5.641  11.695  1.00  0.00     0.089 C 
BRANCH   9  10
HETATM   10  C5  UNL     1      11.883  -4.671  10.508  1.00  0.00     0.039 C 
BRANCH  10  11
HETATM   11  C4  UNL     1      12.821  -5.152   9.473  1.00  0.00    -0.024 C 
HETATM   12  C2  UNL     1      12.386  -5.661   8.349  1.00  0.00    -0.091 C 
HETATM   13  C1  UNL     1      10.950  -5.789   8.038  1.00  0.00     0.042 C 
HETATM   14  C3  UNL     1      13.376  -6.150   7.332  1.00  0.00     0.042 C 
ENDBRANCH  10  11
ENDBRANCH   9  10
ENDBRANCH   8   9
ENDBRANCH   7   8
BRANCH   7  15
HETATM   15  C21 UNL     1       9.963  -8.583  10.099  1.00  0.00     0.018 C 
HETATM   16  C22 UNL     1      11.209  -9.234   9.410  1.00  0.00     0.015 C 
HETATM   17  C23 UNL     1       9.000  -9.727  10.315  1.00  0.00     0.015 C 
ENDBRANCH   7  15
ENDBRANCH   6   7
ENDBRANCH   1   5
BRANCH   1  18
HETATM   18  C12 UNL     1      11.081 -10.111  15.520  1.00  0.00     0.039 C 
HETATM   19  C13 UNL     1      10.215 -11.209  16.184  1.00  0.00     0.011 C 
HETATM   20  C14 UNL     1      11.247 -12.329  16.423  1.00  0.00     0.006 C 
HETATM   21  C15 UNL     1      12.436 -11.979  15.551  1.00  0.00    -0.007 C 
HETATM   22  C16 UNL     1      13.029 -13.110  14.801  1.00  0.00     0.036 C 
HETATM   23  C20 UNL     1      11.792 -11.028  14.532  1.00  0.00    -0.000 C 
HETATM   24  C17 UNL     1      14.031 -12.611  13.804  1.00  0.00     0.118 C 
HETATM   25  C18 UNL     1      13.506 -11.516  12.915  1.00  0.00     0.032 C 
HETATM   26  C19 UNL     1      12.867 -10.403  13.738  1.00  0.00     0.008 C 
BRANCH  24  27
HETATM   27  O1  UNL     1      14.347 -13.702  12.979  1.00  0.00    -0.396 OA
ATOM     28  H1  UNL     1      13.993 -13.501  12.120  1.00  0.00     0.210 HD
ENDBRANCH  24  27
ENDBRANCH   1  18
TORSDOF 9
ENDMDL
MODEL 3
REMARK VINA RESULT: -7.943130592      1.113      3.647
REMARK  9 active torsions:
REMARK  status: ('A' for Active; 'I' for Inactive)
REMARK    1  A    between atoms: C4_4  and  C5_5 
REMARK    2  A    between atoms: C5_5  and  C6_6 
REMARK    3  A    between atoms: C6_6  and  C7_7 
REMARK    4  A    between atoms: C7_7  and  C8_8 
REMARK    5  A    between atoms: C8_8  and  C9_9 
REMARK    6  A    between atoms: C8_8  and  C21_26 
REMARK    7  A    between atoms: C10_10  and  C11_11 
REMARK    8  A    between atoms: C11_11  and  C12_15 
REMARK    9  A    between atoms: C17_20  and  O1_21 
ROOT
HETATM    1  C11 UNL     1       9.555  -9.170  11.339  1.00  0.00     0.007 C 
HETATM    2  N1  UNL     1       8.312  -8.983  11.303  1.00  0.00    -0.402 N 
ATOM      3  H11 UNL     1       7.856  -8.596  10.476  1.00  0.00     0.156 HD
ATOM      4  H12 UNL     1       7.732  -9.226  12.105  1.00  0.00     0.156 HD
ENDROOT
BRANCH   1   5
HETATM    5  C10 UNL     1      10.212  -9.728  12.531  1.00  0.00     0.026 C 
HETATM    6  C9  UNL     1      10.220  -9.046  13.622  1.00  0.00     0.017 C 
BRANCH   6   7
HETATM    7  C8  UNL     1      10.867  -9.544  14.894  1.00  0.00    -0.014 C 
BRANCH   7   8
HETATM    8  C7  UNL     1      12.036  -9.996  14.699  1.00  0.00    -0.148 C 
BRANCH   8   9
HETATM    9  C6  UNL     1      13.341 -10.499  14.481  1.00  0.00     0.089 C 
BRANCH   9  10
HETATM   10  C5  UNL     1      13.595 -11.116  13.100  1.00  0.00     0.039 C 
BRANCH  10  11
HETATM   11  C4  UNL     1      13.978 -12.539  13.206  1.00  0.00    -0.024 C 
HETATM   12  C2  UNL     1      13.084 -13.489  13.110  1.00  0.00    -0.091 C 
HETATM   13  C1  UNL     1      11.652 -13.214  12.892  1.00  0.00     0.042 C 
HETATM   14  C3  UNL     1      13.518 -14.920  13.240  1.00  0.00     0.042 C 
ENDBRANCH  10  11
ENDBRANCH   9  10
ENDBRANCH   8   9
ENDBRANCH   7   8
BRANCH   7  15
HETATM   15  C21 UNL     1      10.046  -9.385  16.075  1.00  0.00     0.018 C 
HETATM   16  C22 UNL     1       8.594  -8.988  15.644  1.00  0.00     0.015 C 
HETATM   17  C23 UNL     1       9.872 -10.616  16.933  1.00  0.00     0.015 C 
ENDBRANCH   7  15
ENDBRANCH   6   7
ENDBRANCH   1   5
BRANCH   1  18
HETATM   18  C12 UNL     1      10.387  -8.822  10.188  1.00  0.00     0.039 C 
HETATM   19  C13 UNL     1       9.537  -8.952   8.900  1.00  0.00     0.011 C 
HETATM   20  C14 UNL     1      10.384  -8.167   7.879  1.00  0.00     0.006 C 
HETATM   21  C15 UNL     1      11.357  -7.348   8.700  1.00  0.00    -0.007 C 
HETATM   22  C16 UNL     1      11.536  -5.944   8.263  1.00  0.00     0.036 C 
HETATM   23  C20 UNL     1      10.655  -7.327  10.066  1.00  0.00    -0.000 C 
HETATM   24  C17 UNL     1      12.327  -5.174   9.276  1.00  0.00     0.118 C 
HETATM   25  C18 UNL     1      11.795  -5.298  10.679  1.00  0.00     0.032 C 
HETATM   26  C19 UNL     1      11.589  -6.760  11.058  1.00  0.00     0.008 C 
BRANCH  24  27
HETATM   27  O1  UNL     1      12.229  -3.822   8.912  1.00  0.00    -0.396 OA
ATOM     28  H1  UNL     1      11.873  -3.806   8.030  1.00  0.00     0.210 HD
ENDBRANCH  24  27
ENDBRANCH   1  18
TORSDOF 9
ENDMDL
MODEL 4
REMARK VINA RESULT: -7.884300360      1.752      3.832
REMARK  9 active torsions:
REMARK  status: ('A' for Active; 'I' for Inactive)
REMARK    1  A    between atoms: C4_4  and  C5_5 
REMARK    2  A    between atoms: C5_5  and  C6_6 
REMARK    3  A    between atoms: C6_6  and  C7_7 
REMARK    4  A    between atoms: C7_7  and  C8_8 
REMARK    5  A    between atoms: C8_8  and  C9_9 
REMARK    6  A    between atoms: C8_8  and  C21_26 
REMARK    7  A    between atoms: C10_10  and  C11_11 
REMARK    8  A    between atoms: C11_11  and  C12_15 
REMARK    9  A    between atoms: C17_20  and  O1_21 
ROOT
HETATM    1  C11 UNL     1       9.985  -9.143  10.762  1.00  0.00     0.007 C 
HETATM    2  N1  UNL     1       8.901  -9.597  10.316  1.00  0.00    -0.402 N 
ATOM      3  H11 UNL     1       8.162  -8.978   9.982  1.00  0.00     0.156 HD
ATOM      4  H12 UNL     1       8.745 -10.604  10.270  1.00  0.00     0.156 HD
ENDROOT
BRANCH   1   5
HETATM    5  C10 UNL     1      11.051 -10.036  11.242  1.00  0.00     0.026 C 
HETATM    6  C9  UNL     1      10.813 -10.823  12.233  1.00  0.00     0.017 C 
BRANCH   6   7
HETATM    7  C8  UNL     1      11.847 -11.776  12.787  1.00  0.00    -0.014 C 
BRANCH   7   8
HETATM    8  C7  UNL     1      11.356 -12.905  13.086  1.00  0.00    -0.148 C 
BRANCH   8   9
HETATM    9  C6  UNL     1      10.806 -14.167  13.421  1.00  0.00     0.089 C 
BRANCH   9  10
HETATM   10  C5  UNL     1      11.067 -14.648  14.854  1.00  0.00     0.039 C 
BRANCH  10  11
HETATM   11  C4  UNL     1      12.482 -14.458  15.237  1.00  0.00    -0.024 C 
HETATM   12  C2  UNL     1      12.828 -13.557  16.121  1.00  0.00    -0.091 C 
HETATM   13  C1  UNL     1      11.848 -12.680  16.788  1.00  0.00     0.042 C 
HETATM   14  C3  UNL     1      14.279 -13.390  16.468  1.00  0.00     0.042 C 
ENDBRANCH  10  11
ENDBRANCH   9  10
ENDBRANCH   8   9
ENDBRANCH   7   8
BRANCH   7  15
HETATM   15  C21 UNL     1      13.186 -11.228  12.842  1.00  0.00     0.018 C 
HETATM   16  C22 UNL     1      13.345 -10.387  14.154  1.00  0.00     0.015 C 
HETATM   17  C23 UNL     1      14.313 -12.232  12.889  1.00  0.00     0.015 C 
ENDBRANCH   7  15
ENDBRANCH   6   7
ENDBRANCH   1   5
BRANCH   1  18
HETATM   18  C12 UNL     1      10.209  -7.699  10.827  1.00  0.00     0.039 C 
HETATM   19  C13 UNL     1      10.989  -7.374  12.124  1.00  0.00     0.011 C 
HETATM   20  C14 UNL     1      11.503  -5.949  11.839  1.00  0.00     0.006 C 
HETATM   21  C15 UNL     1      11.353  -5.754  10.344  1.00  0.00    -0.007 C 
HETATM   22  C16 UNL     1      12.503  -5.111   9.668  1.00  0.00     0.036 C 
HETATM   23  C20 UNL     1      11.277  -7.209   9.857  1.00  0.00    -0.000 C 
HETATM   24  C17 UNL     1      12.347  -5.186   8.179  1.00  0.00     0.118 C 
HETATM   25  C18 UNL     1      12.055  -6.572   7.671  1.00  0.00     0.032 C 
HETATM   26  C19 UNL     1      10.893  -7.200   8.432  1.00  0.00     0.008 C 
BRANCH  24  27
HETATM   27  O1  UNL     1      13.577  -4.791   7.630  1.00  0.00    -0.396 OA
ATOM     28  H1  UNL     1      13.410  -3.996   7.138  1.00  0.00     0.210 HD
ENDBRANCH  24  27
ENDBRANCH   1  18
TORSDOF 9
ENDMDL
MODEL 5
REMARK VINA RESULT: -7.832406886      2.810      6.744
REMARK  9 active torsions:
REMARK  status: ('A' for Active; 'I' for Inactive)
REMARK    1  A    between atoms: C4_4  and  C5_5 
REMARK    2  A    between atoms: C5_5  and  C6_6 
REMARK    3  A    between atoms: C6_6  and  C7_7 
REMARK    4  A    between atoms: C7_7  and  C8_8 
REMARK    5  A    between atoms: C8_8  and  C9_9 
REMARK    6  A    between atoms: C8_8  and  C21_26 
REMARK    7  A    between atoms: C10_10  and  C11_11 
REMARK    8  A    between atoms: C11_11  and  C12_15 
REMARK    9  A    between atoms: C17_20  and  O1_21 
ROOT
HETATM    1  C11 UNL     1      12.494 -11.134  13.238  1.00  0.00     0.007 C 
HETATM    2  N1  UNL     1      13.595 -11.738  13.171  1.00  0.00    -0.402 N 
ATOM      3  H11 UNL     1      13.807 -12.526  13.783  1.00  0.00     0.156 HD
ATOM      4  H12 UNL     1      14.297 -11.454  12.488  1.00  0.00     0.156 HD
ENDROOT
BRANCH   1   5
HETATM    5  C10 UNL     1      12.188  -9.999  12.354  1.00  0.00     0.026 C 
HETATM    6  C9  UNL     1      11.207 -10.092  11.526  1.00  0.00     0.017 C 
BRANCH   6   7
HETATM    7  C8  UNL     1      10.820  -8.974  10.587  1.00  0.00    -0.014 C 
BRANCH   7   8
HETATM    8  C7  UNL     1      10.904  -7.832  11.130  1.00  0.00    -0.148 C 
BRANCH   8   9
HETATM    9  C6  UNL     1      11.000  -6.557  11.738  1.00  0.00     0.089 C 
BRANCH   9  10
HETATM   10  C5  UNL     1      11.603  -5.447  10.868  1.00  0.00     0.039 C 
BRANCH  10  11
HETATM   11  C4  UNL     1      11.845  -5.915   9.488  1.00  0.00    -0.024 C 
HETATM   12  C2  UNL     1      12.861  -5.472   8.791  1.00  0.00    -0.091 C 
HETATM   13  C1  UNL     1      13.822  -4.489   9.325  1.00  0.00     0.042 C 
HETATM   14  C3  UNL     1      13.059  -5.964   7.387  1.00  0.00     0.042 C 
ENDBRANCH  10  11
ENDBRANCH   9  10
ENDBRANCH   8   9
ENDBRANCH   7   8
BRANCH   7  15
HETATM   15  C21 UNL     1      10.458  -9.418   9.257  1.00  0.00     0.018 C 
HETATM   16  C22 UNL     1       9.312 -10.480   9.362  1.00  0.00     0.015 C 
HETATM   17  C23 UNL     1       9.917  -8.358   8.327  1.00  0.00     0.015 C 
ENDBRANCH   7  15
ENDBRANCH   6   7
ENDBRANCH   1   5
BRANCH   1  18
HETATM   18  C12 UNL     1      11.487 -11.543  14.216  1.00  0.00     0.039 C 
HETATM   19  C13 UNL     1      12.131 -12.542  15.207  1.00  0.00     0.011 C 
HETATM   20  C14 UNL     1      11.119 -12.535  16.369  1.00  0.00     0.006 C 
HETATM   21  C15 UNL     1      10.264 -11.302  16.158  1.00  0.00    -0.007 C 
HETATM   22  C16 UNL     1       9.987 -10.503  17.374  1.00  0.00     0.036 C 
HETATM   23  C20 UNL     1      11.168 -10.463  15.242  1.00  0.00    -0.000 C 
HETATM   24  C17 UNL     1       9.344  -9.199  17.011  1.00  0.00     0.118 C 
HETATM   25  C18 UNL     1      10.088  -8.433  15.951  1.00  0.00     0.032 C 
HETATM   26  C19 UNL     1      10.385  -9.316  14.744  1.00  0.00     0.008 C 
BRANCH  24  27
HETATM   27  O1  UNL     1       9.353  -8.415  18.175  1.00  0.00    -0.396 OA
ATOM     28  H1  UNL     1       8.800  -8.863  18.806  1.00  0.00     0.210 HD
ENDBRANCH  24  27
ENDBRANCH   1  18
TORSDOF 9
ENDMDL
