MODEL 1
REMARK VINA RESULT: -8.034956543      0.000      0.000
REMARK  8 active torsions:
REMARK  status: ('A' for Active; 'I' for Inactive)
REMARK    1  A    between atoms: C2_2  and  N1_3 
REMARK    2  A    between atoms: N1_3  and  C3_5 
REMARK    3  A    between atoms: C3_5  and  C5_7 
REMARK    4  A    between atoms: C5_7  and  C6_8 
REMARK    5  A    between atoms: C6_8  and  C7_9 
REMARK    6  A    between atoms: C8_10  and  C9_11 
REMARK    7  A    between atoms: C10_12  and  C11_13 
REMARK    8  A    between atoms: C19_21  and  O1_22 
ROOT
HETATM    1  C11 UNL     1      11.273 -10.218  12.676  1.00  0.00     0.016 C 
HETATM    2  C12 UNL     1      12.678 -10.492  13.177  1.00  0.00     0.009 C 
HETATM    3  C13 UNL     1      12.644 -11.106  14.535  1.00  0.00     0.001 C 
HETATM    4  C14 UNL     1      11.287 -11.633  14.938  1.00  0.00     0.006 C 
HETATM    5  C15 UNL     1      10.182 -10.630  14.800  1.00  0.00     0.004 C 
HETATM    6  C16 UNL     1       9.688 -10.072  16.113  1.00  0.00    -0.017 C 
HETATM    7  C17 UNL     1       8.204  -9.710  16.041  1.00  0.00     0.018 C 
HETATM    8  C18 UNL     1       9.797 -11.159  17.176  1.00  0.00     0.018 C 
HETATM    9  C19 UNL     1      10.522  -8.905  16.571  1.00  0.00     0.126 C 
HETATM   10  C20 UNL     1      10.506  -7.817  15.535  1.00  0.00     0.033 C 
HETATM   11  C21 UNL     1      11.121  -8.348  14.277  1.00  0.00     0.012 C 
HETATM   12  C22 UNL     1      10.449  -9.573  13.763  1.00  0.00    -0.033 C 
HETATM   13  C23 UNL     1       9.148  -9.112  13.090  1.00  0.00     0.016 C 
ENDROOT
BRANCH   1  14
HETATM   14  C10 UNL     1      11.314  -9.499  11.414  1.00  0.00    -0.021 C 
HETATM   15  C9  UNL     1      10.734 -10.008  10.338  1.00  0.00    -0.004 C 
BRANCH  15  16
HETATM   16  C8  UNL     1      10.740  -9.343   9.052  1.00  0.00    -0.004 C 
HETATM   17  C7  UNL     1      10.173  -8.174   8.903  1.00  0.00    -0.027 C 
BRANCH  17  18
HETATM   18  C6  UNL     1      10.143  -7.435   7.608  1.00  0.00     0.029 C 
BRANCH  18  19
HETATM   19  C5  UNL     1      10.583  -6.000   7.800  1.00  0.00     0.028 C 
BRANCH  19  20
HETATM   20  C3  UNL     1      11.851  -5.937   8.648  1.00  0.00     0.072 C 
HETATM   21  C4  UNL     1      13.001  -6.145   7.698  1.00  0.00     0.031 C 
BRANCH  20  22
HETATM   22  N1  UNL     1      11.857  -4.700   9.360  1.00  0.00    -0.418 N 
ATOM     23  H1  UNL     1      11.658  -3.817   8.890  1.00  0.00     0.153 HD
BRANCH  22  24
HETATM   24  C2  UNL     1      12.150  -4.747  10.748  1.00  0.00     0.109 C 
HETATM   25  C1  UNL     1      11.626  -5.906  11.519  1.00  0.00     0.026 C 
ENDBRANCH  22  24
ENDBRANCH  20  22
ENDBRANCH  19  20
ENDBRANCH  18  19
ENDBRANCH  17  18
ENDBRANCH  15  16
ENDBRANCH   1  14
BRANCH   9  26
HETATM   26  O1  UNL     1      10.062  -8.457  17.806  1.00  0.00    -0.395 OA
ATOM     27  H1  UNL     1      10.771  -8.478  18.438  1.00  0.00     0.210 HD
ENDBRANCH   9  26
TORSDOF 8
ENDMDL
MODEL 2
REMARK VINA RESULT: -7.855867890      1.894      3.586
REMARK  8 active torsions:
REMARK  status: ('A' for Active; 'I' for Inactive)
REMARK    1  A    between atoms: C2_2  and  N1_3 
REMARK    2  A    between atoms: N1_3  and  C3_5 
REMARK    3  A    between atoms: C3_5  and  C5_7 
REMARK    4  A    between atoms: C5_7  and  C6_8 
REMARK    5  A    between atoms: C6_8  and  C7_9 
REMARK    6  A    between atoms: C8_10  and  C9_11 
REMARK    7  A    between atoms: C10_12  and  C11_13 
REMARK    8  A    between atoms: C19_21  and  O1_22 
ROOT
HETATM    1  C11 UNL     1      11.060  -8.675  14.680  1.00  0.00     0.016 C 
HETATM    2  C12 UNL     1       9.544  -8.654  14.738  1.00  0.00     0.009 C 
HETATM    3  C13 UNL     1       9.041  -9.628  15.747  1.00  0.00     0.001 C 
HETATM    4  C14 UNL     1      10.100 -10.128  16.701  1.00  0.00     0.006 C 
HETATM    5  C15 UNL     1      11.318 -10.676  16.022  1.00  0.00     0.004 C 
HETATM    6  C16 UNL     1      11.423 -12.181  16.065  1.00  0.00    -0.017 C 
HETATM    7  C17 UNL     1      12.883 -12.636  16.088  1.00  0.00     0.018 C 
HETATM    8  C18 UNL     1      10.817 -12.674  17.374  1.00  0.00     0.018 C 
HETATM    9  C19 UNL     1      10.658 -12.825  14.940  1.00  0.00     0.126 C 
HETATM   10  C20 UNL     1      11.169 -12.333  13.616  1.00  0.00     0.033 C 
HETATM   11  C21 UNL     1      10.936 -10.856  13.536  1.00  0.00     0.012 C 
HETATM   12  C22 UNL     1      11.561 -10.098  14.654  1.00  0.00    -0.033 C 
HETATM   13  C23 UNL     1      13.062 -10.012  14.344  1.00  0.00     0.016 C 
ENDROOT
BRANCH   1  14
HETATM   14  C10 UNL     1      11.540  -7.824  13.603  1.00  0.00    -0.021 C 
HETATM   15  C9  UNL     1      10.733  -7.494  12.607  1.00  0.00    -0.004 C 
BRANCH  15  16
HETATM   16  C8  UNL     1      11.149  -6.653  11.505  1.00  0.00    -0.004 C 
HETATM   17  C7  UNL     1      12.061  -5.732  11.676  1.00  0.00    -0.027 C 
BRANCH  17  18
HETATM   18  C6  UNL     1      12.535  -4.832  10.585  1.00  0.00     0.029 C 
BRANCH  18  19
HETATM   19  C5  UNL     1      11.532  -4.788   9.453  1.00  0.00     0.028 C 
BRANCH  19  20
HETATM   20  C3  UNL     1      12.174  -5.258   8.150  1.00  0.00     0.072 C 
HETATM   21  C4  UNL     1      13.660  -5.084   8.328  1.00  0.00     0.031 C 
BRANCH  20  22
HETATM   22  N1  UNL     1      11.739  -6.592   7.889  1.00  0.00    -0.418 N 
ATOM     23  H1  UNL     1      12.408  -7.342   7.707  1.00  0.00     0.153 HD
BRANCH  22  24
HETATM   24  C2  UNL     1      10.341  -6.835   7.892  1.00  0.00     0.109 C 
HETATM   25  C1  UNL     1       9.893  -8.250   8.002  1.00  0.00     0.026 C 
ENDBRANCH  22  24
ENDBRANCH  20  22
ENDBRANCH  19  20
ENDBRANCH  18  19
ENDBRANCH  17  18
ENDBRANCH  15  16
ENDBRANCH   1  14
BRANCH   9  26
HETATM   26  O1  UNL     1      10.742 -14.210  15.050  1.00  0.00    -0.395 OA
ATOM     27  H1  UNL     1      11.144 -14.569  14.268  1.00  0.00     0.210 HD
ENDBRANCH   9  26
TORSDOF 8
ENDMDL
MODEL 3
REMARK VINA RESULT: -7.812410677      2.359      4.138
REMARK  8 active torsions:
REMARK  status: ('A' for Active; 'I' for Inactive)
REMARK    1  A    between atoms: C2_2  and  N1_3 
REMARK    2  A    between atoms: N1_3  and  C3_5 
REMARK    3  A    between atoms: C3_5  and  C5_7 
REMARK    4  A    between atoms: C5_7  and  C6_8 
REMARK    5  A    between atoms: C6_8  and  C7_9 
REMARK    6  A    between atoms: C8_10  and  C9_11 
REMARK    7  A    between atoms: C10_12  and  C11_13 
REMARK    8  A    between atoms: C19_21  and  O1_22 
ROOT
HETATM    1  C11 UNL     1      11.989  -9.983  14.283  1.00  0.00     0.016 C 
HETATM    2  C12 UNL     1      10.723 -10.025  15.117  1.00  0.00     0.009 C 
HETATM    3  C13 UNL     1      10.719 -11.217  16.011  1.00  0.00     0.001 C 
HETATM    4  C14 UNL     1      12.066 -11.885  16.152  1.00  0.00     0.006 C 
HETATM    5  C15 UNL     1      12.714 -12.226  14.845  1.00  0.00     0.004 C 
HETATM    6  C16 UNL     1      12.692 -13.697  14.511  1.00  0.00    -0.017 C 
HETATM    7  C17 UNL     1      13.913 -14.099  13.681  1.00  0.00     0.018 C 
HETATM    8  C18 UNL     1      12.795 -14.492  15.808  1.00  0.00     0.018 C 
HETATM    9  C19 UNL     1      11.407 -14.096  13.836  1.00  0.00     0.126 C 
HETATM   10  C20 UNL     1      11.214 -13.301  12.576  1.00  0.00     0.033 C 
HETATM   11  C21 UNL     1      11.106 -11.852  12.939  1.00  0.00     0.012 C 
HETATM   12  C22 UNL     1      12.278 -11.346  13.705  1.00  0.00    -0.033 C 
HETATM   13  C23 UNL     1      13.412 -11.144  12.690  1.00  0.00     0.016 C 
ENDROOT
BRANCH   1  14
HETATM   14  C10 UNL     1      11.928  -8.896  13.319  1.00  0.00    -0.021 C 
HETATM   15  C9  UNL     1      10.792  -8.244  13.124  1.00  0.00    -0.004 C 
BRANCH  15  16
HETATM   16  C8  UNL     1      10.664  -7.155  12.179  1.00  0.00    -0.004 C 
HETATM   17  C7  UNL     1      11.652  -6.320  11.986  1.00  0.00    -0.027 C 
BRANCH  17  18
HETATM   18  C6  UNL     1      11.587  -5.177  11.029  1.00  0.00     0.029 C 
BRANCH  18  19
HETATM   19  C5  UNL     1      12.658  -5.305   9.969  1.00  0.00     0.028 C 
BRANCH  19  20
HETATM   20  C3  UNL     1      12.031  -5.371   8.578  1.00  0.00     0.072 C 
HETATM   21  C4  UNL     1      13.086  -5.943   7.669  1.00  0.00     0.031 C 
BRANCH  20  22
HETATM   22  N1  UNL     1      10.821  -6.122   8.664  1.00  0.00    -0.418 N 
ATOM     23  H1  UNL     1      10.029  -5.790   9.216  1.00  0.00     0.153 HD
BRANCH  22  24
HETATM   24  C2  UNL     1      10.761  -7.348   7.953  1.00  0.00     0.109 C 
HETATM   25  C1  UNL     1      10.650  -8.598   8.753  1.00  0.00     0.026 C 
ENDBRANCH  22  24
ENDBRANCH  20  22
ENDBRANCH  19  20
ENDBRANCH  18  19
ENDBRANCH  17  18
ENDBRANCH  15  16
ENDBRANCH   1  14
BRANCH   9  26
HETATM   26  O1  UNL     1      11.411 -15.466  13.593  1.00  0.00    -0.395 OA
ATOM     27  H1  UNL     1      10.544 -15.821  13.750  1.00  0.00     0.210 HD
ENDBRANCH   9  26
TORSDOF 8
ENDMDL
MODEL 4
REMARK VINA RESULT: -7.746936702      2.040      3.385
REMARK  8 active torsions:
REMARK  status: ('A' for Active; 'I' for Inactive)
REMARK    1  A    between atoms: C2_2  and  N1_3 
REMARK    2  A    between atoms: N1_3  and  C3_5 
REMARK    3  A    between atoms: C3_5  and  C5_7 
REMARK    4  A    between atoms: C5_7  and  C6_8 
REMARK    5  A    between atoms: C6_8  and  C7_9 
REMARK    6  A    between atoms: C8_10  and  C9_11 
REMARK    7  A    between atoms: C10_12  and  C11_13 
REMARK    8  A    between atoms: C19_21  and  O1_22 
ROOT
HETATM    1  C11 UNL     1      11.408  -9.839  13.426  1.00  0.00     0.016 C 
HETATM    2  C12 UNL     1      10.104  -9.863  14.201  1.00  0.00     0.009 C 
HETATM    3  C13 UNL     1      10.273 -10.579  15.497  1.00  0.00     0.001 C 
HETATM    4  C14 UNL     1      11.713 -10.791  15.900  1.00  0.00     0.006 C 
HETATM    5  C15 UNL     1      12.550 -11.441  14.840  1.00  0.00     0.004 C 
HETATM    6  C16 UNL     1      12.887 -12.886  15.121  1.00  0.00    -0.017 C 
HETATM    7  C17 UNL     1      14.244 -13.266  14.527  1.00  0.00     0.018 C 
HETATM    8  C18 UNL     1      13.031 -13.067  16.628  1.00  0.00     0.018 C 
HETATM    9  C19 UNL     1      11.797 -13.813  14.655  1.00  0.00     0.126 C 
HETATM   10  C20 UNL     1      11.562 -13.640  13.182  1.00  0.00     0.033 C 
HETATM   11  C21 UNL     1      11.100 -12.237  12.935  1.00  0.00     0.012 C 
HETATM   12  C22 UNL     1      12.047 -11.206  13.441  1.00  0.00    -0.033 C 
HETATM   13  C23 UNL     1      13.206 -11.142  12.436  1.00  0.00     0.016 C 
ENDROOT
BRANCH   1  14
HETATM   14  C10 UNL     1      11.205  -9.260  12.108  1.00  0.00    -0.021 C 
HETATM   15  C9  UNL     1       9.989  -9.198  11.588  1.00  0.00    -0.004 C 
BRANCH  15  16
HETATM   16  C8  UNL     1       9.721  -8.634  10.282  1.00  0.00    -0.004 C 
HETATM   17  C7  UNL     1      10.679  -8.507   9.401  1.00  0.00    -0.027 C 
BRANCH  17  18
HETATM   18  C6  UNL     1      10.472  -7.935   8.039  1.00  0.00     0.029 C 
BRANCH  18  19
HETATM   19  C5  UNL     1      10.660  -6.434   8.054  1.00  0.00     0.028 C 
BRANCH  19  20
HETATM   20  C3  UNL     1      11.982  -6.065   8.724  1.00  0.00     0.072 C 
HETATM   21  C4  UNL     1      13.024  -6.093   7.636  1.00  0.00     0.031 C 
BRANCH  20  22
HETATM   22  N1  UNL     1      11.818  -4.812   9.386  1.00  0.00    -0.418 N 
ATOM     23  H1  UNL     1      11.417  -4.006   8.905  1.00  0.00     0.153 HD
BRANCH  22  24
HETATM   24  C2  UNL     1      12.234  -4.730  10.740  1.00  0.00     0.109 C 
HETATM   25  C1  UNL     1      11.754  -5.789  11.669  1.00  0.00     0.026 C 
ENDBRANCH  22  24
ENDBRANCH  20  22
ENDBRANCH  19  20
ENDBRANCH  18  19
ENDBRANCH  17  18
ENDBRANCH  15  16
ENDBRANCH   1  14
BRANCH   9  26
HETATM   26  O1  UNL     1      12.128 -15.126  14.980  1.00  0.00    -0.395 OA
ATOM     27  H1  UNL     1      11.363 -15.574  15.319  1.00  0.00     0.210 HD
ENDBRANCH   9  26
TORSDOF 8
ENDMDL
MODEL 5
REMARK VINA RESULT: -7.489038692      2.427      4.239
REMARK  8 active torsions:
REMARK  status: ('A' for Active; 'I' for Inactive)
REMARK    1  A    between atoms: C2_2  and  N1_3 
REMARK    2  A    between atoms: N1_3  and  C3_5 
REMARK    3  A    between atoms: C3_5  and  C5_7 
REMARK    4  A    between atoms: C5_7  and  C6_8 
REMARK    5  A    between atoms: C6_8  and  C7_9 
REMARK    6  A    between atoms: C8_10  and  C9_11 
REMARK    7  A    between atoms: C10_12  and  C11_13 
REMARK    8  A    between atoms: C19_21  and  O1_22 
ROOT
HETATM    1  C11 UNL     1      11.775  -9.911  14.266  1.00  0.00     0.016 C 
HETATM    2  C12 UNL     1      10.420  -9.897  14.947  1.00  0.00     0.009 C 
HETATM    3  C13 UNL     1      10.316 -11.003  15.940  1.00  0.00     0.001 C 
HETATM    4  C14 UNL     1      11.640 -11.635  16.298  1.00  0.00     0.006 C 
HETATM    5  C15 UNL     1      12.440 -12.083  15.112  1.00  0.00     0.004 C 
HETATM    6  C16 UNL     1      12.463 -13.579  14.913  1.00  0.00    -0.017 C 
HETATM    7  C17 UNL     1      13.775 -14.035  14.272  1.00  0.00     0.018 C 
HETATM    8  C18 UNL     1      12.416 -14.252  16.280  1.00  0.00     0.018 C 
HETATM    9  C19 UNL     1      11.268 -14.056  14.132  1.00  0.00     0.126 C 
HETATM   10  C20 UNL     1      11.221 -13.381  12.791  1.00  0.00     0.033 C 
HETATM   11  C21 UNL     1      11.064 -11.907  13.005  1.00  0.00     0.012 C 
HETATM   12  C22 UNL     1      12.136 -11.317  13.852  1.00  0.00    -0.033 C 
HETATM   13  C23 UNL     1      13.381 -11.190  12.963  1.00  0.00     0.016 C 
ENDROOT
BRANCH   1  14
HETATM   14  C10 UNL     1      11.823  -8.917  13.206  1.00  0.00    -0.021 C 
HETATM   15  C9  UNL     1      11.479  -7.663  13.455  1.00  0.00    -0.004 C 
BRANCH  15  16
HETATM   16  C8  UNL     1      11.503  -6.626  12.445  1.00  0.00    -0.004 C 
HETATM   17  C7  UNL     1      11.458  -6.932  11.174  1.00  0.00    -0.027 C 
BRANCH  17  18
HETATM   18  C6  UNL     1      11.480  -5.916  10.083  1.00  0.00     0.029 C 
BRANCH  18  19
HETATM   19  C5  UNL     1      11.484  -6.587   8.726  1.00  0.00     0.028 C 
BRANCH  19  20
HETATM   20  C3  UNL     1      10.403  -7.663   8.658  1.00  0.00     0.072 C 
HETATM   21  C4  UNL     1       9.744  -7.510   7.312  1.00  0.00     0.031 C 
BRANCH  20  22
HETATM   22  N1  UNL     1      11.013  -8.930   8.903  1.00  0.00    -0.418 N 
ATOM     23  H1  UNL     1      12.011  -9.077   8.749  1.00  0.00     0.153 HD
BRANCH  22  24
HETATM   24  C2  UNL     1      10.176  -9.977   9.371  1.00  0.00     0.109 C 
HETATM   25  C1  UNL     1       9.194  -9.643  10.437  1.00  0.00     0.026 C 
ENDBRANCH  22  24
ENDBRANCH  20  22
ENDBRANCH  19  20
ENDBRANCH  18  19
ENDBRANCH  17  18
ENDBRANCH  15  16
ENDBRANCH   1  14
BRANCH   9  26
HETATM   26  O1  UNL     1      11.306 -15.442  14.018  1.00  0.00    -0.395 OA
ATOM     27  H1  UNL     1      12.043 -15.699  13.475  1.00  0.00     0.210 HD
ENDBRANCH   9  26
TORSDOF 8
ENDMDL
