MODEL 1
REMARK VINA RESULT: -7.848135140      0.000      0.000
REMARK  6 active torsions:
REMARK  status: ('A' for Active; 'I' for Inactive)
REMARK    1  A    between atoms: C6_6  and  N1_7 
REMARK    2  A    between atoms: N1_7  and  C7_9 
REMARK    3  A    between atoms: C7_9  and  C8_10 
REMARK    4  A    between atoms: C8_10  and  C9_11 
REMARK    5  A    between atoms: C9_11  and  N2_12 
REMARK    6  A    between atoms: N2_12  and  C10_14 
ROOT
HETATM    1  C8  UNL     1       8.579  -8.189  14.033  1.00  0.00     0.063 C 
ENDROOT
BRANCH   1   2
HETATM    2  C7  UNL     1       8.880  -7.804  12.614  1.00  0.00     0.057 C 
BRANCH   2   3
HETATM    3  N1  UNL     1      10.181  -7.450  12.294  1.00  0.00    -0.398 N 
ATOM      4  H1  UNL     1      10.867  -7.472  13.049  1.00  0.00     0.159 HD
BRANCH   3   5
HETATM    5  C6  UNL     1      10.635  -7.071  11.051  1.00  0.00     0.081 C 
HETATM    6  C5  UNL     1      10.437  -8.024   9.906  1.00  0.00     0.026 C 
HETATM    7  C4  UNL     1      11.231  -7.676   8.698  1.00  0.00     0.011 C 
HETATM    8  C2  UNL     1      11.715  -6.280   8.590  1.00  0.00    -0.041 C 
HETATM    9  C1  UNL     1      12.918  -6.305   7.632  1.00  0.00     0.015 C 
HETATM   10  C3  UNL     1      10.663  -5.437   7.858  1.00  0.00     0.015 C 
HETATM   11  C21 UNL     1      12.173  -5.630   9.844  1.00  0.00    -0.039 C 
HETATM   12  C20 UNL     1      12.071  -6.610  11.016  1.00  0.00     0.034 C 
HETATM   13  C22 UNL     1      11.358  -4.412  10.229  1.00  0.00     0.015 C 
HETATM   14  C23 UNL     1      13.621  -5.187   9.806  1.00  0.00     0.015 C 
ENDBRANCH   3   5
ENDBRANCH   2   3
ENDBRANCH   1   2
BRANCH   1  15
HETATM   15  C9  UNL     1       9.912  -8.330  14.775  1.00  0.00     0.119 C 
BRANCH  15  16
HETATM   16  N2  UNL     1      10.091  -9.667  15.172  1.00  0.00    -0.412 N 
ATOM     17  H2  UNL     1       9.488 -10.079  15.884  1.00  0.00     0.154 HD
BRANCH  16  18
HETATM   18  C10 UNL     1      11.117 -10.431  14.571  1.00  0.00     0.026 C 
HETATM   19  C11 UNL     1      12.462  -9.773  14.544  1.00  0.00     0.035 C 
HETATM   20  C12 UNL     1      13.499 -10.756  14.036  1.00  0.00    -0.012 C 
HETATM   21  C13 UNL     1      13.145 -11.141  12.630  1.00  0.00     0.009 C 
HETATM   22  C17 UNL     1      13.569 -11.965  14.931  1.00  0.00     0.009 C 
HETATM   23  C14 UNL     1      11.796 -11.814  12.618  1.00  0.00    -0.012 C 
HETATM   24  C15 UNL     1      11.880 -13.063  13.434  1.00  0.00     0.009 C 
HETATM   25  C19 UNL     1      10.785 -10.833  13.140  1.00  0.00     0.035 C 
HETATM   26  C16 UNL     1      12.237 -12.668  14.845  1.00  0.00    -0.012 C 
HETATM   27  C18 UNL     1      11.187 -11.744  15.360  1.00  0.00     0.035 C 
ENDBRANCH  16  18
ENDBRANCH  15  16
ENDBRANCH   1  15
TORSDOF 6
ENDMDL
MODEL 2
REMARK VINA RESULT: -7.703365777      2.260      4.023
REMARK  6 active torsions:
REMARK  status: ('A' for Active; 'I' for Inactive)
REMARK    1  A    between atoms: C6_6  and  N1_7 
REMARK    2  A    between atoms: N1_7  and  C7_9 
REMARK    3  A    between atoms: C7_9  and  C8_10 
REMARK    4  A    between atoms: C8_10  and  C9_11 
REMARK    5  A    between atoms: C9_11  and  N2_12 
REMARK    6  A    between atoms: N2_12  and  C10_14 
ROOT
HETATM    1  C8  UNL     1       9.891 -10.043  17.578  1.00  0.00     0.063 C 
ENDROOT
BRANCH   1   2
HETATM    2  C7  UNL     1       8.952 -10.039  16.407  1.00  0.00     0.057 C 
BRANCH   2   3
HETATM    3  N1  UNL     1       8.830  -8.872  15.670  1.00  0.00    -0.398 N 
ATOM      4  H1  UNL     1       8.277  -8.120  16.082  1.00  0.00     0.159 HD
BRANCH   3   5
HETATM    5  C6  UNL     1       9.385  -8.633  14.434  1.00  0.00     0.081 C 
HETATM    6  C5  UNL     1       8.491  -8.105  13.348  1.00  0.00     0.026 C 
HETATM    7  C4  UNL     1       9.091  -8.184  11.990  1.00  0.00     0.011 C 
HETATM    8  C2  UNL     1      10.566  -8.311  11.914  1.00  0.00    -0.041 C 
HETATM    9  C1  UNL     1      10.883  -8.926  10.540  1.00  0.00     0.015 C 
HETATM   10  C3  UNL     1      11.190  -6.911  11.857  1.00  0.00     0.015 C 
HETATM   11  C21 UNL     1      11.218  -9.169  12.934  1.00  0.00    -0.039 C 
HETATM   12  C20 UNL     1      10.166  -9.788  13.857  1.00  0.00     0.034 C 
HETATM   13  C22 UNL     1      12.188  -8.421  13.827  1.00  0.00     0.015 C 
HETATM   14  C23 UNL     1      11.985 -10.337  12.347  1.00  0.00     0.015 C 
ENDBRANCH   3   5
ENDBRANCH   2   3
ENDBRANCH   1   2
BRANCH   1  15
HETATM   15  C9  UNL     1      10.312 -11.492  17.840  1.00  0.00     0.119 C 
BRANCH  15  16
HETATM   16  N2  UNL     1      10.354 -12.197  16.623  1.00  0.00    -0.412 N 
ATOM     17  H2  UNL     1       9.523 -12.263  16.036  1.00  0.00     0.154 HD
BRANCH  16  18
HETATM   18  C10 UNL     1      11.563 -12.812  16.226  1.00  0.00     0.026 C 
HETATM   19  C11 UNL     1      12.251 -13.602  17.297  1.00  0.00     0.035 C 
HETATM   20  C12 UNL     1      13.432 -14.344  16.702  1.00  0.00    -0.012 C 
HETATM   21  C13 UNL     1      14.409 -13.339  16.168  1.00  0.00     0.009 C 
HETATM   22  C17 UNL     1      12.976 -15.288  15.620  1.00  0.00     0.009 C 
HETATM   23  C14 UNL     1      13.752 -12.527  15.081  1.00  0.00    -0.012 C 
HETATM   24  C15 UNL     1      13.375 -13.445  13.964  1.00  0.00     0.009 C 
HETATM   25  C19 UNL     1      12.577 -11.813  15.684  1.00  0.00     0.035 C 
HETATM   26  C16 UNL     1      12.393 -14.453  14.508  1.00  0.00    -0.012 C 
HETATM   27  C18 UNL     1      11.210 -13.722  15.043  1.00  0.00     0.035 C 
ENDBRANCH  16  18
ENDBRANCH  15  16
ENDBRANCH   1  15
TORSDOF 6
ENDMDL
MODEL 3
REMARK VINA RESULT: -7.693509903      2.253      3.817
REMARK  6 active torsions:
REMARK  status: ('A' for Active; 'I' for Inactive)
REMARK    1  A    between atoms: C6_6  and  N1_7 
REMARK    2  A    between atoms: N1_7  and  C7_9 
REMARK    3  A    between atoms: C7_9  and  C8_10 
REMARK    4  A    between atoms: C8_10  and  C9_11 
REMARK    5  A    between atoms: C9_11  and  N2_12 
REMARK    6  A    between atoms: N2_12  and  C10_14 
ROOT
HETATM    1  C8  UNL     1       9.920 -10.080  17.526  1.00  0.00     0.063 C 
ENDROOT
BRANCH   1   2
HETATM    2  C7  UNL     1       8.953 -10.071  16.378  1.00  0.00     0.057 C 
BRANCH   2   3
HETATM    3  N1  UNL     1       8.820  -8.903  15.644  1.00  0.00    -0.398 N 
ATOM      4  H1  UNL     1       8.254  -8.160  16.055  1.00  0.00     0.159 HD
BRANCH   3   5
HETATM    5  C6  UNL     1       9.380  -8.653  14.413  1.00  0.00     0.081 C 
HETATM    6  C5  UNL     1       8.488  -8.132  13.322  1.00  0.00     0.026 C 
HETATM    7  C4  UNL     1       9.099  -8.198  11.969  1.00  0.00     0.011 C 
HETATM    8  C2  UNL     1      10.575  -8.308  11.903  1.00  0.00    -0.041 C 
HETATM    9  C1  UNL     1      10.910  -8.914  10.529  1.00  0.00     0.015 C 
HETATM   10  C3  UNL     1      11.183  -6.899  11.855  1.00  0.00     0.015 C 
HETATM   11  C21 UNL     1      11.231  -9.161  12.924  1.00  0.00    -0.039 C 
HETATM   12  C20 UNL     1      10.180  -9.797  13.838  1.00  0.00     0.034 C 
HETATM   13  C22 UNL     1      12.185  -8.405  13.827  1.00  0.00     0.015 C 
HETATM   14  C23 UNL     1      12.016 -10.318  12.339  1.00  0.00     0.015 C 
ENDBRANCH   3   5
ENDBRANCH   2   3
ENDBRANCH   1   2
BRANCH   1  15
HETATM   15  C9  UNL     1      10.383 -11.524  17.740  1.00  0.00     0.119 C 
BRANCH  15  16
HETATM   16  N2  UNL     1      10.304 -12.229  16.526  1.00  0.00    -0.412 N 
ATOM     17  H2  UNL     1       9.411 -12.327  16.043  1.00  0.00     0.154 HD
BRANCH  16  18
HETATM   18  C10 UNL     1      11.478 -12.798  15.983  1.00  0.00     0.026 C 
HETATM   19  C11 UNL     1      12.560 -11.816  15.650  1.00  0.00     0.035 C 
HETATM   20  C12 UNL     1      13.816 -12.563  15.243  1.00  0.00    -0.012 C 
HETATM   21  C13 UNL     1      13.519 -13.360  14.007  1.00  0.00     0.009 C 
HETATM   22  C17 UNL     1      14.294 -13.450  16.362  1.00  0.00     0.009 C 
HETATM   23  C14 UNL     1      12.436 -14.365  14.306  1.00  0.00    -0.012 C 
HETATM   24  C15 UNL     1      12.935 -15.305  15.355  1.00  0.00     0.009 C 
HETATM   25  C19 UNL     1      11.207 -13.609  14.723  1.00  0.00     0.035 C 
HETATM   26  C16 UNL     1      13.232 -14.496  16.594  1.00  0.00    -0.012 C 
HETATM   27  C18 UNL     1      11.982 -13.807  17.022  1.00  0.00     0.035 C 
ENDBRANCH  16  18
ENDBRANCH  15  16
ENDBRANCH   1  15
TORSDOF 6
ENDMDL
MODEL 4
REMARK VINA RESULT: -7.680278325      2.255      4.142
REMARK  6 active torsions:
REMARK  status: ('A' for Active; 'I' for Inactive)
REMARK    1  A    between atoms: C6_6  and  N1_7 
REMARK    2  A    between atoms: N1_7  and  C7_9 
REMARK    3  A    between atoms: C7_9  and  C8_10 
REMARK    4  A    between atoms: C8_10  and  C9_11 
REMARK    5  A    between atoms: C9_11  and  N2_12 
REMARK    6  A    between atoms: N2_12  and  C10_14 
ROOT
HETATM    1  C8  UNL     1       9.892 -10.068  17.525  1.00  0.00     0.063 C 
ENDROOT
BRANCH   1   2
HETATM    2  C7  UNL     1       8.929 -10.048  16.373  1.00  0.00     0.057 C 
BRANCH   2   3
HETATM    3  N1  UNL     1       8.812  -8.878  15.639  1.00  0.00    -0.398 N 
ATOM      4  H1  UNL     1       8.261  -8.125  16.051  1.00  0.00     0.159 HD
BRANCH   3   5
HETATM    5  C6  UNL     1       9.372  -8.638  14.405  1.00  0.00     0.081 C 
HETATM    6  C5  UNL     1       8.479  -8.120  13.313  1.00  0.00     0.026 C 
HETATM    7  C4  UNL     1       9.088  -8.197  11.959  1.00  0.00     0.011 C 
HETATM    8  C2  UNL     1      10.563  -8.313  11.891  1.00  0.00    -0.041 C 
HETATM    9  C1  UNL     1      10.893  -8.929  10.520  1.00  0.00     0.015 C 
HETATM   10  C3  UNL     1      11.176  -6.907  11.833  1.00  0.00     0.015 C 
HETATM   11  C21 UNL     1      11.218  -9.162  12.917  1.00  0.00    -0.039 C 
HETATM   12  C20 UNL     1      10.166  -9.788  13.836  1.00  0.00     0.034 C 
HETATM   13  C22 UNL     1      12.177  -8.404  13.813  1.00  0.00     0.015 C 
HETATM   14  C23 UNL     1      11.997 -10.325  12.337  1.00  0.00     0.015 C 
ENDBRANCH   3   5
ENDBRANCH   2   3
ENDBRANCH   1   2
BRANCH   1  15
HETATM   15  C9  UNL     1      10.378 -11.510  17.705  1.00  0.00     0.119 C 
BRANCH  15  16
HETATM   16  N2  UNL     1      10.323 -12.183  16.472  1.00  0.00    -0.412 N 
ATOM     17  H2  UNL     1       9.482 -12.138  15.896  1.00  0.00     0.154 HD
BRANCH  16  18
HETATM   18  C10 UNL     1      11.447 -12.923  16.041  1.00  0.00     0.026 C 
HETATM   19  C11 UNL     1      11.195 -13.841  14.885  1.00  0.00     0.035 C 
HETATM   20  C12 UNL     1      12.506 -14.439  14.414  1.00  0.00    -0.012 C 
HETATM   21  C13 UNL     1      13.090 -15.252  15.532  1.00  0.00     0.009 C 
HETATM   22  C17 UNL     1      13.457 -13.357  13.975  1.00  0.00     0.009 C 
HETATM   23  C14 UNL     1      13.364 -14.358  16.714  1.00  0.00    -0.012 C 
HETATM   24  C15 UNL     1      14.373 -13.333  16.311  1.00  0.00     0.009 C 
HETATM   25  C19 UNL     1      12.058 -13.762  17.155  1.00  0.00     0.035 C 
HETATM   26  C16 UNL     1      13.781 -12.520  15.187  1.00  0.00    -0.012 C 
HETATM   27  C18 UNL     1      12.519 -11.890  15.670  1.00  0.00     0.035 C 
ENDBRANCH  16  18
ENDBRANCH  15  16
ENDBRANCH   1  15
TORSDOF 6
ENDMDL
MODEL 5
REMARK VINA RESULT: -7.645478934      0.319      1.499
REMARK  6 active torsions:
REMARK  status: ('A' for Active; 'I' for Inactive)
REMARK    1  A    between atoms: C6_6  and  N1_7 
REMARK    2  A    between atoms: N1_7  and  C7_9 
REMARK    3  A    between atoms: C7_9  and  C8_10 
REMARK    4  A    between atoms: C8_10  and  C9_11 
REMARK    5  A    between atoms: C9_11  and  N2_12 
REMARK    6  A    between atoms: N2_12  and  C10_14 
ROOT
HETATM    1  C8  UNL     1       8.905  -8.120  14.446  1.00  0.00     0.063 C 
ENDROOT
BRANCH   1   2
HETATM    2  C7  UNL     1       9.107  -7.768  13.001  1.00  0.00     0.057 C 
BRANCH   2   3
HETATM    3  N1  UNL     1      10.379  -7.406  12.587  1.00  0.00    -0.398 N 
ATOM      4  H1  UNL     1      11.103  -7.358  13.304  1.00  0.00     0.159 HD
BRANCH   3   5
HETATM    5  C6  UNL     1      10.755  -7.104  11.298  1.00  0.00     0.081 C 
HETATM    6  C5  UNL     1      10.593  -8.166  10.248  1.00  0.00     0.026 C 
HETATM    7  C4  UNL     1      11.312  -7.867   8.982  1.00  0.00     0.011 C 
HETATM    8  C2  UNL     1      11.679  -6.453   8.735  1.00  0.00    -0.041 C 
HETATM    9  C1  UNL     1      12.845  -6.470   7.731  1.00  0.00     0.015 C 
HETATM   10  C3  UNL     1      10.538  -5.760   7.980  1.00  0.00     0.015 C 
HETATM   11  C21 UNL     1      12.129  -5.663   9.908  1.00  0.00    -0.039 C 
HETATM   12  C20 UNL     1      12.148  -6.540  11.162  1.00  0.00     0.034 C 
HETATM   13  C22 UNL     1      11.235  -4.480  10.223  1.00  0.00     0.015 C 
HETATM   14  C23 UNL     1      13.536  -5.116   9.771  1.00  0.00     0.015 C 
ENDBRANCH   3   5
ENDBRANCH   2   3
ENDBRANCH   1   2
BRANCH   1  15
HETATM   15  C9  UNL     1      10.271  -8.484  15.036  1.00  0.00     0.119 C 
BRANCH  15  16
HETATM   16  N2  UNL     1      10.293  -9.851  15.365  1.00  0.00    -0.412 N 
ATOM     17  H2  UNL     1       9.719 -10.208  16.129  1.00  0.00     0.154 HD
BRANCH  16  18
HETATM   18  C10 UNL     1      11.119 -10.724  14.621  1.00  0.00     0.026 C 
HETATM   19  C11 UNL     1      10.653 -10.997  13.223  1.00  0.00     0.035 C 
HETATM   20  C12 UNL     1      11.706 -11.800  12.484  1.00  0.00    -0.012 C 
HETATM   21  C13 UNL     1      11.880 -13.117  13.179  1.00  0.00     0.009 C 
HETATM   22  C17 UNL     1      13.006 -11.041  12.421  1.00  0.00     0.009 C 
HETATM   23  C14 UNL     1      12.356 -12.881  14.590  1.00  0.00    -0.012 C 
HETATM   24  C15 UNL     1      13.687 -12.206  14.537  1.00  0.00     0.009 C 
HETATM   25  C19 UNL     1      11.309 -12.072  15.302  1.00  0.00     0.035 C 
HETATM   26  C16 UNL     1      13.505 -10.883  13.836  1.00  0.00    -0.012 C 
HETATM   27  C18 UNL     1      12.509 -10.076  14.596  1.00  0.00     0.035 C 
ENDBRANCH  16  18
ENDBRANCH  15  16
ENDBRANCH   1  15
TORSDOF 6
ENDMDL
