MODEL 1
REMARK VINA RESULT: -5.818278035      0.000      0.000
REMARK  16 active torsions:
REMARK  status: ('A' for Active; 'I' for Inactive)
REMARK    1  A    between atoms: C2_2  and  C3_3 
REMARK    2  A    between atoms: C3_3  and  C4_4 
REMARK    3  A    between atoms: C4_4  and  C5_5 
REMARK    4  A    between atoms: C5_5  and  C6_6 
REMARK       I    between atoms: C6_6  and  N1_8 
REMARK    5  A    between atoms: N1_8  and  C7_10 
REMARK    6  A    between atoms: C8_11  and  O2_12 
REMARK    7  A    between atoms: C8_11  and  N2_14 
REMARK    8  A    between atoms: C10_16  and  C11_17 
REMARK    9  A    between atoms: C15_24  and  C16_25 
REMARK   10  A    between atoms: C16_25  and  C17_26 
REMARK   11  A    between atoms: C17_26  and  C18_27 
REMARK   12  A    between atoms: C18_27  and  C19_28 
REMARK   13  A    between atoms: C20_31  and  C21_32 
REMARK   14  A    between atoms: C21_32  and  C22_33 
REMARK   15  A    between atoms: C24_38  and  C25_39 
REMARK   16  A    between atoms: C25_39  and  C27_41 
ROOT
HETATM    1  N2  UNL     1      25.538  27.220  18.320  1.00  0.00    -0.322 N 
HETATM    2  C9  UNL     1      26.336  26.334  17.544  1.00  0.00     0.099 C 
HETATM    3  C10 UNL     1      27.204  25.314  18.080  1.00  0.00     0.170 C 
HETATM    4  O3  UNL     1      26.757  23.976  17.867  1.00  0.00    -0.310 OA
HETATM    5  C13 UNL     1      26.178  23.315  18.921  1.00  0.00     0.268 C 
HETATM    6  O4  UNL     1      25.334  22.419  18.723  1.00  0.00    -0.264 OA
HETATM    7  C14 UNL     1      26.593  23.704  20.285  1.00  0.00     0.186 C 
HETATM    8  S1  UNL     1      25.634  24.848  21.132  1.00  0.00    -0.144 SA
HETATM    9  C15 UNL     1      24.672  26.117  20.392  1.00  0.00     0.065 C 
HETATM   10  C20 UNL     1      23.827  26.562  21.612  1.00  0.00     0.154 C 
HETATM   11  O7  UNL     1      24.592  26.864  22.716  1.00  0.00    -0.312 OA
HETATM   12  C23 UNL     1      25.743  27.168  23.370  1.00  0.00     0.289 C 
HETATM   13  O8  UNL     1      25.601  27.352  24.637  1.00  0.00    -0.262 OA
HETATM   14  C24 UNL     1      27.100  27.343  22.968  1.00  0.00     0.235 C 
HETATM   15  O9  UNL     1      27.283  27.423  21.557  1.00  0.00    -0.304 OA
HETATM   16  C29 UNL     1      26.700  27.628  20.379  1.00  0.00     0.284 C 
HETATM   17  O10 UNL     1      27.373  28.298  19.510  1.00  0.00    -0.263 OA
HETATM   18  C30 UNL     1      25.403  27.275  19.757  1.00  0.00     0.211 C 
ENDROOT
BRANCH   1  19
HETATM   19  C8  UNL     1      24.840  28.141  17.500  1.00  0.00     0.158 C 
HETATM   20  C7  UNL     1      23.895  27.735  16.487  1.00  0.00     0.147 C 
BRANCH  20  21
HETATM   21  N1  UNL     1      23.314  28.685  15.787  1.00  0.00    -0.333 N 
HETATM   22  C6  UNL     1      21.910  28.648  15.667  1.00  0.00     0.221 C 
HETATM   23  O1  UNL     1      21.161  28.694  16.673  1.00  0.00    -0.273 OA
ATOM     24  H1  UNL     1      23.861  29.423  15.344  1.00  0.00     0.168 HD
BRANCH  22  25
HETATM   25  C5  UNL     1      21.324  28.551  14.319  1.00  0.00     0.103 C 
BRANCH  25  26
HETATM   26  C4  UNL     1      20.165  27.579  14.346  1.00  0.00     0.013 C 
BRANCH  26  27
HETATM   27  C3  UNL     1      20.806  26.201  14.563  1.00  0.00     0.027 C 
BRANCH  27  28
HETATM   28  C2  UNL     1      19.838  25.468  15.446  1.00  0.00    -0.037 C 
HETATM   29  C1  UNL     1      19.913  24.158  15.629  1.00  0.00     0.007 C 
ENDBRANCH  27  28
ENDBRANCH  26  27
ENDBRANCH  25  26
ENDBRANCH  22  25
ENDBRANCH  20  21
BRANCH  19  30
HETATM   30  O2  UNL     1      25.040  29.417  17.653  1.00  0.00    -0.345 OA
ATOM     31  H2  UNL     1      25.377  29.708  18.492  1.00  0.00     0.219 HD
ENDBRANCH  19  30
ENDBRANCH   1  19
BRANCH   3  32
HETATM   32  C11 UNL     1      28.502  25.328  17.237  1.00  0.00     0.033 C 
HETATM   33  C12 UNL     1      28.445  26.423  16.197  1.00  0.00     0.008 C 
ENDBRANCH   3  32
BRANCH   9  34
HETATM   34  C16 UNL     1      23.667  25.588  19.395  1.00  0.00     0.026 C 
BRANCH  34  35
HETATM   35  C17 UNL     1      22.636  24.640  19.941  1.00  0.00     0.012 C 
BRANCH  35  36
HETATM   36  C18 UNL     1      21.347  24.843  19.113  1.00  0.00     0.113 C 
BRANCH  36  37
HETATM   37  C19 UNL     1      20.212  24.167  19.748  1.00  0.00     0.172 C 
HETATM   38  O5  UNL     1      19.676  24.727  20.737  1.00  0.00    -0.648 OA
HETATM   39  O6  UNL     1      19.669  22.950  19.353  1.00  0.00    -0.648 OA
ENDBRANCH  36  37
ENDBRANCH  35  36
ENDBRANCH  34  35
ENDBRANCH   9  34
BRANCH  10  40
HETATM   40  C21 UNL     1      22.668  27.409  21.294  1.00  0.00     0.045 C 
BRANCH  40  41
HETATM   41  C22 UNL     1      21.473  27.268  22.207  1.00  0.00     0.088 C 
HETATM   42  S2  UNL     1      21.727  27.665  23.913  1.00  0.00    -0.098 SA
ENDBRANCH  40  41
ENDBRANCH  10  40
BRANCH  14  43
HETATM   43  C25 UNL     1      28.222  26.490  23.412  1.00  0.00     0.021 C 
HETATM   44  C26 UNL     1      29.192  27.323  24.310  1.00  0.00     0.013 C 
BRANCH  43  45
HETATM   45  C27 UNL     1      28.099  25.195  24.055  1.00  0.00     0.003 C 
HETATM   46  C28 UNL     1      28.647  23.971  23.421  1.00  0.00     0.005 C 
ENDBRANCH  43  45
ENDBRANCH  14  43
TORSDOF 16
ENDMDL
MODEL 2
REMARK VINA RESULT: -5.743979878      3.012      7.047
REMARK  16 active torsions:
REMARK  status: ('A' for Active; 'I' for Inactive)
REMARK    1  A    between atoms: C2_2  and  C3_3 
REMARK    2  A    between atoms: C3_3  and  C4_4 
REMARK    3  A    between atoms: C4_4  and  C5_5 
REMARK    4  A    between atoms: C5_5  and  C6_6 
REMARK       I    between atoms: C6_6  and  N1_8 
REMARK    5  A    between atoms: N1_8  and  C7_10 
REMARK    6  A    between atoms: C8_11  and  O2_12 
REMARK    7  A    between atoms: C8_11  and  N2_14 
REMARK    8  A    between atoms: C10_16  and  C11_17 
REMARK    9  A    between atoms: C15_24  and  C16_25 
REMARK   10  A    between atoms: C16_25  and  C17_26 
REMARK   11  A    between atoms: C17_26  and  C18_27 
REMARK   12  A    between atoms: C18_27  and  C19_28 
REMARK   13  A    between atoms: C20_31  and  C21_32 
REMARK   14  A    between atoms: C21_32  and  C22_33 
REMARK   15  A    between atoms: C24_38  and  C25_39 
REMARK   16  A    between atoms: C25_39  and  C27_41 
ROOT
HETATM    1  N2  UNL     1      26.534  24.333  18.891  1.00  0.00    -0.322 N 
HETATM    2  C9  UNL     1      27.912  24.646  19.056  1.00  0.00     0.099 C 
HETATM    3  C10 UNL     1      28.504  25.938  18.807  1.00  0.00     0.170 C 
HETATM    4  O3  UNL     1      28.928  26.636  19.976  1.00  0.00    -0.310 OA
HETATM    5  C13 UNL     1      28.137  27.658  20.438  1.00  0.00     0.268 C 
HETATM    6  O4  UNL     1      28.125  27.956  21.649  1.00  0.00    -0.264 OA
HETATM    7  C14 UNL     1      27.312  28.385  19.451  1.00  0.00     0.186 C 
HETATM    8  S1  UNL     1      25.681  27.897  19.238  1.00  0.00    -0.144 SA
HETATM    9  C15 UNL     1      25.065  26.270  19.483  1.00  0.00     0.065 C 
HETATM   10  C20 UNL     1      23.542  26.551  19.458  1.00  0.00     0.154 C 
HETATM   11  O7  UNL     1      23.140  27.254  18.345  1.00  0.00    -0.312 OA
HETATM   12  C23 UNL     1      23.279  27.754  17.089  1.00  0.00     0.289 C 
HETATM   13  O8  UNL     1      22.263  28.426  16.670  1.00  0.00    -0.262 OA
HETATM   14  C24 UNL     1      24.308  27.700  16.104  1.00  0.00     0.235 C 
HETATM   15  O9  UNL     1      25.338  26.756  16.389  1.00  0.00    -0.304 OA
HETATM   16  C29 UNL     1      25.689  25.689  17.101  1.00  0.00     0.284 C 
HETATM   17  O10 UNL     1      26.410  24.807  16.504  1.00  0.00    -0.263 OA
HETATM   18  C30 UNL     1      25.461  25.210  18.484  1.00  0.00     0.211 C 
ENDROOT
BRANCH   1  19
HETATM   19  C8  UNL     1      26.277  22.966  19.163  1.00  0.00     0.158 C 
HETATM   20  C7  UNL     1      27.165  22.138  19.943  1.00  0.00     0.147 C 
BRANCH  20  21
HETATM   21  N1  UNL     1      26.819  20.882  20.123  1.00  0.00    -0.333 N 
HETATM   22  C6  UNL     1      27.775  19.888  19.831  1.00  0.00     0.221 C 
HETATM   23  O1  UNL     1      28.883  19.846  20.418  1.00  0.00    -0.273 OA
ATOM     24  H1  UNL     1      25.890  20.635  20.462  1.00  0.00     0.168 HD
BRANCH  22  25
HETATM   25  C5  UNL     1      27.448  18.881  18.806  1.00  0.00     0.103 C 
BRANCH  25  26
HETATM   26  C4  UNL     1      25.959  18.903  18.540  1.00  0.00     0.013 C 
BRANCH  26  27
HETATM   27  C3  UNL     1      25.468  17.493  18.899  1.00  0.00     0.027 C 
BRANCH  27  28
HETATM   28  C2  UNL     1      24.677  17.678  20.161  1.00  0.00    -0.037 C 
HETATM   29  C1  UNL     1      25.141  17.287  21.340  1.00  0.00     0.007 C 
ENDBRANCH  27  28
ENDBRANCH  26  27
ENDBRANCH  25  26
ENDBRANCH  22  25
ENDBRANCH  20  21
BRANCH  19  30
HETATM   30  O2  UNL     1      25.194  22.412  18.702  1.00  0.00    -0.345 OA
ATOM     31  H2  UNL     1      24.379  22.883  18.823  1.00  0.00     0.219 HD
ENDBRANCH  19  30
ENDBRANCH   1  19
BRANCH   3  32
HETATM   32  C11 UNL     1      29.861  25.692  18.103  1.00  0.00     0.033 C 
HETATM   33  C12 UNL     1      29.745  25.964  16.621  1.00  0.00     0.008 C 
ENDBRANCH   3  32
BRANCH   9  34
HETATM   34  C16 UNL     1      25.340  25.739  20.871  1.00  0.00     0.026 C 
BRANCH  34  35
HETATM   35  C17 UNL     1      25.183  26.725  21.994  1.00  0.00     0.012 C 
BRANCH  35  36
HETATM   36  C18 UNL     1      24.199  26.104  23.011  1.00  0.00     0.113 C 
BRANCH  36  37
HETATM   37  C19 UNL     1      23.243  27.108  23.487  1.00  0.00     0.172 C 
HETATM   38  O5  UNL     1      23.454  27.630  24.611  1.00  0.00    -0.648 OA
HETATM   39  O6  UNL     1      22.113  27.541  22.804  1.00  0.00    -0.648 OA
ENDBRANCH  36  37
ENDBRANCH  35  36
ENDBRANCH  34  35
ENDBRANCH   9  34
BRANCH  10  40
HETATM   40  C21 UNL     1      22.695  25.455  19.952  1.00  0.00     0.045 C 
BRANCH  40  41
HETATM   41  C22 UNL     1      21.203  25.682  19.874  1.00  0.00     0.088 C 
HETATM   42  S2  UNL     1      20.344  24.862  18.562  1.00  0.00    -0.098 SA
ENDBRANCH  40  41
ENDBRANCH  10  40
BRANCH  14  43
HETATM   43  C25 UNL     1      25.050  28.875  15.600  1.00  0.00     0.021 C 
HETATM   44  C26 UNL     1      26.494  28.445  15.182  1.00  0.00     0.013 C 
BRANCH  43  45
HETATM   45  C27 UNL     1      24.593  29.786  14.568  1.00  0.00     0.003 C 
HETATM   46  C28 UNL     1      24.141  31.158  14.905  1.00  0.00     0.005 C 
ENDBRANCH  43  45
ENDBRANCH  14  43
TORSDOF 16
ENDMDL
MODEL 3
REMARK VINA RESULT: -5.717638028      2.218      5.804
REMARK  16 active torsions:
REMARK  status: ('A' for Active; 'I' for Inactive)
REMARK    1  A    between atoms: C2_2  and  C3_3 
REMARK    2  A    between atoms: C3_3  and  C4_4 
REMARK    3  A    between atoms: C4_4  and  C5_5 
REMARK    4  A    between atoms: C5_5  and  C6_6 
REMARK       I    between atoms: C6_6  and  N1_8 
REMARK    5  A    between atoms: N1_8  and  C7_10 
REMARK    6  A    between atoms: C8_11  and  O2_12 
REMARK    7  A    between atoms: C8_11  and  N2_14 
REMARK    8  A    between atoms: C10_16  and  C11_17 
REMARK    9  A    between atoms: C15_24  and  C16_25 
REMARK   10  A    between atoms: C16_25  and  C17_26 
REMARK   11  A    between atoms: C17_26  and  C18_27 
REMARK   12  A    between atoms: C18_27  and  C19_28 
REMARK   13  A    between atoms: C20_31  and  C21_32 
REMARK   14  A    between atoms: C21_32  and  C22_33 
REMARK   15  A    between atoms: C24_38  and  C25_39 
REMARK   16  A    between atoms: C25_39  and  C27_41 
ROOT
HETATM    1  N2  UNL     1      25.054  26.047  18.757  1.00  0.00    -0.322 N 
HETATM    2  C9  UNL     1      24.303  26.562  19.851  1.00  0.00     0.099 C 
HETATM    3  C10 UNL     1      24.531  26.240  21.238  1.00  0.00     0.170 C 
HETATM    4  O3  UNL     1      25.072  27.304  22.019  1.00  0.00    -0.310 OA
HETATM    5  C13 UNL     1      26.410  27.264  22.321  1.00  0.00     0.268 C 
HETATM    6  O4  UNL     1      27.049  28.317  22.516  1.00  0.00    -0.264 OA
HETATM    7  C14 UNL     1      27.053  25.938  22.408  1.00  0.00     0.186 C 
HETATM    8  S1  UNL     1      27.867  25.335  21.022  1.00  0.00    -0.144 SA
HETATM    9  C15 UNL     1      27.462  25.719  19.357  1.00  0.00     0.065 C 
HETATM   10  C20 UNL     1      28.714  25.160  18.638  1.00  0.00     0.154 C 
HETATM   11  O7  UNL     1      28.990  23.853  18.971  1.00  0.00    -0.312 OA
HETATM   12  C23 UNL     1      28.705  22.628  19.483  1.00  0.00     0.289 C 
HETATM   13  O8  UNL     1      29.669  21.778  19.393  1.00  0.00    -0.262 OA
HETATM   14  C24 UNL     1      27.558  22.049  20.101  1.00  0.00     0.235 C 
HETATM   15  O9  UNL     1      26.376  22.838  19.988  1.00  0.00    -0.304 OA
HETATM   16  C29 UNL     1      25.773  23.836  19.348  1.00  0.00     0.284 C 
HETATM   17  O10 UNL     1      24.515  23.697  19.115  1.00  0.00    -0.263 OA
HETATM   18  C30 UNL     1      26.183  25.147  18.794  1.00  0.00     0.211 C 
ENDROOT
BRANCH   1  19
HETATM   19  C8  UNL     1      24.550  26.513  17.518  1.00  0.00     0.158 C 
HETATM   20  C7  UNL     1      23.762  27.715  17.389  1.00  0.00     0.147 C 
BRANCH  20  21
HETATM   21  N1  UNL     1      23.347  28.040  16.184  1.00  0.00    -0.333 N 
HETATM   22  C6  UNL     1      21.977  27.885  15.895  1.00  0.00     0.221 C 
HETATM   23  O1  UNL     1      21.092  28.489  16.550  1.00  0.00    -0.273 OA
ATOM     24  H1  UNL     1      23.996  28.394  15.481  1.00  0.00     0.168 HD
BRANCH  22  25
HETATM   25  C5  UNL     1      21.589  26.984  14.795  1.00  0.00     0.103 C 
BRANCH  25  26
HETATM   26  C4  UNL     1      20.427  26.125  15.238  1.00  0.00     0.013 C 
BRANCH  26  27
HETATM   27  C3  UNL     1      19.268  26.509  14.308  1.00  0.00     0.027 C 
BRANCH  27  28
HETATM   28  C2  UNL     1      18.059  25.865  14.922  1.00  0.00    -0.037 C 
HETATM   29  C1  UNL     1      18.053  24.588  15.278  1.00  0.00     0.007 C 
ENDBRANCH  27  28
ENDBRANCH  26  27
ENDBRANCH  25  26
ENDBRANCH  22  25
ENDBRANCH  20  21
BRANCH  19  30
HETATM   30  O2  UNL     1      24.800  25.843  16.431  1.00  0.00    -0.345 OA
ATOM     31  H2  UNL     1      24.056  25.524  15.934  1.00  0.00     0.219 HD
ENDBRANCH  19  30
ENDBRANCH   1  19
BRANCH   3  32
HETATM   32  C11 UNL     1      23.143  26.066  21.901  1.00  0.00     0.033 C 
HETATM   33  C12 UNL     1      22.159  25.468  20.921  1.00  0.00     0.008 C 
ENDBRANCH   3  32
BRANCH   9  34
HETATM   34  C16 UNL     1      27.480  27.203  19.073  1.00  0.00     0.026 C 
BRANCH  34  35
HETATM   35  C17 UNL     1      28.694  27.949  19.552  1.00  0.00     0.012 C 
BRANCH  35  36
HETATM   36  C18 UNL     1      28.679  29.333  18.866  1.00  0.00     0.113 C 
BRANCH  36  37
HETATM   37  C19 UNL     1      27.503  30.104  19.280  1.00  0.00     0.172 C 
HETATM   38  O5  UNL     1      27.546  30.683  20.394  1.00  0.00    -0.648 OA
HETATM   39  O6  UNL     1      26.332  30.254  18.547  1.00  0.00    -0.648 OA
ENDBRANCH  36  37
ENDBRANCH  35  36
ENDBRANCH  34  35
ENDBRANCH   9  34
BRANCH  10  40
HETATM   40  C21 UNL     1      28.876  25.588  17.240  1.00  0.00     0.045 C 
BRANCH  40  41
HETATM   41  C22 UNL     1      30.298  25.724  16.748  1.00  0.00     0.088 C 
HETATM   42  S2  UNL     1      30.522  25.848  14.997  1.00  0.00    -0.098 SA
ENDBRANCH  40  41
ENDBRANCH  10  40
BRANCH  14  43
HETATM   43  C25 UNL     1      27.513  21.562  21.496  1.00  0.00     0.021 C 
HETATM   44  C26 UNL     1      27.445  20.000  21.505  1.00  0.00     0.013 C 
BRANCH  43  45
HETATM   45  C27 UNL     1      28.442  21.925  22.550  1.00  0.00     0.003 C 
HETATM   46  C28 UNL     1      27.964  22.541  23.811  1.00  0.00     0.005 C 
ENDBRANCH  43  45
ENDBRANCH  14  43
TORSDOF 16
ENDMDL
MODEL 4
REMARK VINA RESULT: -5.650274032      1.635      1.775
REMARK  16 active torsions:
REMARK  status: ('A' for Active; 'I' for Inactive)
REMARK    1  A    between atoms: C2_2  and  C3_3 
REMARK    2  A    between atoms: C3_3  and  C4_4 
REMARK    3  A    between atoms: C4_4  and  C5_5 
REMARK    4  A    between atoms: C5_5  and  C6_6 
REMARK       I    between atoms: C6_6  and  N1_8 
REMARK    5  A    between atoms: N1_8  and  C7_10 
REMARK    6  A    between atoms: C8_11  and  O2_12 
REMARK    7  A    between atoms: C8_11  and  N2_14 
REMARK    8  A    between atoms: C10_16  and  C11_17 
REMARK    9  A    between atoms: C15_24  and  C16_25 
REMARK   10  A    between atoms: C16_25  and  C17_26 
REMARK   11  A    between atoms: C17_26  and  C18_27 
REMARK   12  A    between atoms: C18_27  and  C19_28 
REMARK   13  A    between atoms: C20_31  and  C21_32 
REMARK   14  A    between atoms: C21_32  and  C22_33 
REMARK   15  A    between atoms: C24_38  and  C25_39 
REMARK   16  A    between atoms: C25_39  and  C27_41 
ROOT
HETATM    1  N2  UNL     1      24.578  26.848  18.748  1.00  0.00    -0.322 N 
HETATM    2  C9  UNL     1      25.131  26.194  17.611  1.00  0.00     0.099 C 
HETATM    3  C10 UNL     1      26.388  25.486  17.592  1.00  0.00     0.170 C 
HETATM    4  O3  UNL     1      26.274  24.069  17.476  1.00  0.00    -0.310 OA
HETATM    5  C13 UNL     1      26.452  23.313  18.607  1.00  0.00     0.268 C 
HETATM    6  O4  UNL     1      25.890  22.207  18.728  1.00  0.00    -0.264 OA
HETATM    7  C14 UNL     1      27.328  23.859  19.664  1.00  0.00     0.186 C 
HETATM    8  S1  UNL     1      26.602  24.716  20.962  1.00  0.00    -0.144 SA
HETATM    9  C15 UNL     1      25.104  25.627  20.868  1.00  0.00     0.065 C 
HETATM   10  C20 UNL     1      24.836  25.863  22.375  1.00  0.00     0.154 C 
HETATM   11  O7  UNL     1      25.911  26.414  23.035  1.00  0.00    -0.312 OA
HETATM   12  C23 UNL     1      27.103  27.059  23.120  1.00  0.00     0.289 C 
HETATM   13  O8  UNL     1      27.521  27.246  24.325  1.00  0.00    -0.262 OA
HETATM   14  C24 UNL     1      28.016  27.596  22.165  1.00  0.00     0.235 C 
HETATM   15  O9  UNL     1      27.495  27.668  20.840  1.00  0.00    -0.304 OA
HETATM   16  C29 UNL     1      26.402  27.652  20.082  1.00  0.00     0.284 C 
HETATM   17  O10 UNL     1      26.386  28.449  19.073  1.00  0.00    -0.263 OA
HETATM   18  C30 UNL     1      25.115  26.919  20.086  1.00  0.00     0.211 C 
ENDROOT
BRANCH   1  19
HETATM   19  C8  UNL     1      23.360  27.498  18.429  1.00  0.00     0.158 C 
HETATM   20  C7  UNL     1      22.819  27.548  17.091  1.00  0.00     0.147 C 
BRANCH  20  21
HETATM   21  N1  UNL     1      21.682  28.186  16.922  1.00  0.00    -0.333 N 
HETATM   22  C6  UNL     1      20.559  27.434  16.524  1.00  0.00     0.221 C 
HETATM   23  O1  UNL     1      20.121  26.485  17.219  1.00  0.00    -0.273 OA
ATOM     24  H1  UNL     1      21.614  29.193  17.074  1.00  0.00     0.168 HD
BRANCH  22  25
HETATM   25  C5  UNL     1      19.894  27.784  15.256  1.00  0.00     0.103 C 
BRANCH  25  26
HETATM   26  C4  UNL     1      19.700  26.530  14.432  1.00  0.00     0.013 C 
BRANCH  26  27
HETATM   27  C3  UNL     1      18.185  26.432  14.206  1.00  0.00     0.027 C 
BRANCH  27  28
HETATM   28  C2  UNL     1      17.769  25.202  14.960  1.00  0.00    -0.037 C 
HETATM   29  C1  UNL     1      16.928  25.261  15.983  1.00  0.00     0.007 C 
ENDBRANCH  27  28
ENDBRANCH  26  27
ENDBRANCH  25  26
ENDBRANCH  22  25
ENDBRANCH  20  21
BRANCH  19  30
HETATM   30  O2  UNL     1      22.677  28.079  19.371  1.00  0.00    -0.345 OA
ATOM     31  H2  UNL     1      22.865  28.994  19.544  1.00  0.00     0.219 HD
ENDBRANCH  19  30
ENDBRANCH   1  19
BRANCH   3  32
HETATM   32  C11 UNL     1      27.090  25.835  16.257  1.00  0.00     0.033 C 
HETATM   33  C12 UNL     1      26.450  27.050  15.625  1.00  0.00     0.008 C 
ENDBRANCH   3  32
BRANCH   9  34
HETATM   34  C16 UNL     1      23.937  24.795  20.390  1.00  0.00     0.026 C 
BRANCH  34  35
HETATM   35  C17 UNL     1      22.653  24.967  21.152  1.00  0.00     0.012 C 
BRANCH  35  36
HETATM   36  C18 UNL     1      21.497  24.807  20.139  1.00  0.00     0.113 C 
BRANCH  36  37
HETATM   37  C19 UNL     1      20.317  25.559  20.577  1.00  0.00     0.172 C 
HETATM   38  O5  UNL     1      20.481  26.757  20.920  1.00  0.00    -0.648 OA
HETATM   39  O6  UNL     1      19.021  25.063  20.650  1.00  0.00    -0.648 OA
ENDBRANCH  36  37
ENDBRANCH  35  36
ENDBRANCH  34  35
ENDBRANCH   9  34
BRANCH  10  40
HETATM   40  C21 UNL     1      23.481  26.331  22.703  1.00  0.00     0.045 C 
BRANCH  40  41
HETATM   41  C22 UNL     1      23.331  27.058  24.019  1.00  0.00     0.088 C 
HETATM   42  S2  UNL     1      21.760  27.809  24.336  1.00  0.00    -0.098 SA
ENDBRANCH  40  41
ENDBRANCH  10  40
BRANCH  14  43
HETATM   43  C25 UNL     1      29.398  27.116  21.965  1.00  0.00     0.021 C 
HETATM   44  C26 UNL     1      30.408  28.193  22.478  1.00  0.00     0.013 C 
BRANCH  43  45
HETATM   45  C27 UNL     1      29.924  25.838  22.406  1.00  0.00     0.003 C 
HETATM   46  C28 UNL     1      30.494  24.869  21.438  1.00  0.00     0.005 C 
ENDBRANCH  43  45
ENDBRANCH  14  43
TORSDOF 16
ENDMDL
MODEL 5
REMARK VINA RESULT: -5.650246935      2.451      5.923
REMARK  16 active torsions:
REMARK  status: ('A' for Active; 'I' for Inactive)
REMARK    1  A    between atoms: C2_2  and  C3_3 
REMARK    2  A    between atoms: C3_3  and  C4_4 
REMARK    3  A    between atoms: C4_4  and  C5_5 
REMARK    4  A    between atoms: C5_5  and  C6_6 
REMARK       I    between atoms: C6_6  and  N1_8 
REMARK    5  A    between atoms: N1_8  and  C7_10 
REMARK    6  A    between atoms: C8_11  and  O2_12 
REMARK    7  A    between atoms: C8_11  and  N2_14 
REMARK    8  A    between atoms: C10_16  and  C11_17 
REMARK    9  A    between atoms: C15_24  and  C16_25 
REMARK   10  A    between atoms: C16_25  and  C17_26 
REMARK   11  A    between atoms: C17_26  and  C18_27 
REMARK   12  A    between atoms: C18_27  and  C19_28 
REMARK   13  A    between atoms: C20_31  and  C21_32 
REMARK   14  A    between atoms: C21_32  and  C22_33 
REMARK   15  A    between atoms: C24_38  and  C25_39 
REMARK   16  A    between atoms: C25_39  and  C27_41 
ROOT
HETATM    1  N2  UNL     1      25.367  25.852  18.507  1.00  0.00    -0.322 N 
HETATM    2  C9  UNL     1      24.582  26.330  19.594  1.00  0.00     0.099 C 
HETATM    3  C10 UNL     1      24.878  26.113  20.988  1.00  0.00     0.170 C 
HETATM    4  O3  UNL     1      25.302  27.276  21.698  1.00  0.00    -0.310 OA
HETATM    5  C13 UNL     1      26.641  27.416  21.964  1.00  0.00     0.268 C 
HETATM    6  O4  UNL     1      27.149  28.548  22.087  1.00  0.00    -0.264 OA
HETATM    7  C14 UNL     1      27.444  26.184  22.100  1.00  0.00     0.186 C 
HETATM    8  S1  UNL     1      28.295  25.612  20.724  1.00  0.00    -0.144 SA
HETATM    9  C15 UNL     1      27.809  25.853  19.054  1.00  0.00     0.065 C 
HETATM   10  C20 UNL     1      29.105  25.413  18.328  1.00  0.00     0.154 C 
HETATM   11  O7  UNL     1      29.547  24.169  18.720  1.00  0.00    -0.312 OA
HETATM   12  C23 UNL     1      29.426  22.947  19.301  1.00  0.00     0.289 C 
HETATM   13  O8  UNL     1      30.485  22.217  19.227  1.00  0.00    -0.262 OA
HETATM   14  C24 UNL     1      28.373  22.267  19.980  1.00  0.00     0.235 C 
HETATM   15  O9  UNL     1      27.101  22.899  19.861  1.00  0.00    -0.304 OA
HETATM   16  C29 UNL     1      26.365  23.780  19.189  1.00  0.00     0.284 C 
HETATM   17  O10 UNL     1      25.129  23.477  18.999  1.00  0.00    -0.263 OA
HETATM   18  C30 UNL     1      26.598  25.099  18.558  1.00  0.00     0.211 C 
ENDROOT
BRANCH   1  19
HETATM   19  C8  UNL     1      24.782  26.185  17.260  1.00  0.00     0.158 C 
HETATM   20  C7  UNL     1      23.516  26.869  17.140  1.00  0.00     0.147 C 
BRANCH  20  21
HETATM   21  N1  UNL     1      23.076  27.118  15.927  1.00  0.00    -0.333 N 
HETATM   22  C6  UNL     1      23.347  28.386  15.376  1.00  0.00     0.221 C 
HETATM   23  O1  UNL     1      24.522  28.800  15.220  1.00  0.00    -0.273 OA
ATOM     24  H1  UNL     1      22.554  26.417  15.401  1.00  0.00     0.168 HD
BRANCH  22  25
HETATM   25  C5  UNL     1      22.211  29.237  14.980  1.00  0.00     0.103 C 
BRANCH  25  26
HETATM   26  C4  UNL     1      21.383  28.513  13.942  1.00  0.00     0.013 C 
BRANCH  26  27
HETATM   27  C3  UNL     1      20.033  28.246  14.623  1.00  0.00     0.027 C 
BRANCH  27  28
HETATM   28  C2  UNL     1      19.712  26.820  14.281  1.00  0.00    -0.037 C 
HETATM   29  C1  UNL     1      18.531  26.284  14.556  1.00  0.00     0.007 C 
ENDBRANCH  27  28
ENDBRANCH  26  27
ENDBRANCH  25  26
ENDBRANCH  22  25
ENDBRANCH  20  21
BRANCH  19  30
HETATM   30  O2  UNL     1      25.399  25.873  16.158  1.00  0.00    -0.345 OA
ATOM     31  H2  UNL     1      26.110  25.248  16.219  1.00  0.00     0.219 HD
ENDBRANCH  19  30
ENDBRANCH   1  19
BRANCH   3  32
HETATM   32  C11 UNL     1      23.537  25.807  21.699  1.00  0.00     0.033 C 
HETATM   33  C12 UNL     1      22.530  25.259  20.714  1.00  0.00     0.008 C 
ENDBRANCH   3  32
BRANCH   9  34
HETATM   34  C16 UNL     1      27.638  27.311  18.694  1.00  0.00     0.026 C 
BRANCH  34  35
HETATM   35  C17 UNL     1      28.750  28.227  19.121  1.00  0.00     0.012 C 
BRANCH  35  36
HETATM   36  C18 UNL     1      28.648  29.503  18.255  1.00  0.00     0.113 C 
BRANCH  36  37
HETATM   37  C19 UNL     1      27.386  30.203  18.511  1.00  0.00     0.172 C 
HETATM   38  O5  UNL     1      27.207  30.687  19.657  1.00  0.00    -0.648 OA
HETATM   39  O6  UNL     1      26.357  30.382  17.594  1.00  0.00    -0.648 OA
ENDBRANCH  36  37
ENDBRANCH  35  36
ENDBRANCH  34  35
ENDBRANCH   9  34
BRANCH  10  40
HETATM   40  C21 UNL     1      29.181  25.781  16.906  1.00  0.00     0.045 C 
BRANCH  40  41
HETATM   41  C22 UNL     1      30.571  25.908  16.328  1.00  0.00     0.088 C 
HETATM   42  S2  UNL     1      30.772  25.431  14.636  1.00  0.00    -0.098 SA
ENDBRANCH  40  41
ENDBRANCH  10  40
BRANCH  14  43
HETATM   43  C25 UNL     1      28.420  21.855  21.398  1.00  0.00     0.021 C 
HETATM   44  C26 UNL     1      27.165  22.409  22.148  1.00  0.00     0.013 C 
BRANCH  43  45
HETATM   45  C27 UNL     1      28.603  20.499  21.881  1.00  0.00     0.003 C 
HETATM   46  C28 UNL     1      27.477  19.533  21.895  1.00  0.00     0.005 C 
ENDBRANCH  43  45
ENDBRANCH  14  43
TORSDOF 16
ENDMDL
