MODEL 1
REMARK VINA RESULT: -9.524332260      0.000      0.000
REMARK  14 active torsions:
REMARK  status: ('A' for Active; 'I' for Inactive)
REMARK    1  A    between atoms: C2_2  and  C3_3 
REMARK    2  A    between atoms: C5_5  and  O1_6 
REMARK    3  A    between atoms: C5_5  and  C6_8 
REMARK    4  A    between atoms: C6_8  and  N1_9 
REMARK    5  A    between atoms: C14_18  and  N3_19 
REMARK    6  A    between atoms: N3_19  and  C15_21 
REMARK    7  A    between atoms: C15_21  and  C16_22 
REMARK    8  A    between atoms: C16_22  and  O2_23 
REMARK    9  A    between atoms: O2_23  and  C17_24 
REMARK   10  A    between atoms: N5_32  and  C23_33 
REMARK   11  A    between atoms: C24_36  and  C25_37 
REMARK   12  A    between atoms: C25_37  and  C26_38 
REMARK   13  A    between atoms: N7_40  and  C28_41 
REMARK   14  A    between atoms: C28_41  and  C29_42 
ROOT
HETATM    1  C17 UNL     1      14.005  19.921  19.132  1.00  0.00     0.142 A 
HETATM    2  C18 UNL     1      14.200  19.131  18.032  1.00  0.00     0.057 A 
HETATM    3  C19 UNL     1      14.648  19.678  16.837  1.00  0.00     0.013 A 
HETATM    4  C20 UNL     1      14.887  21.043  16.810  1.00  0.00    -0.032 A 
HETATM    5  C21 UNL     1      14.686  21.836  17.939  1.00  0.00     0.036 A 
HETATM    6  N4  UNL     1      14.250  21.238  19.060  1.00  0.00    -0.339 N 
ATOM      7  H4  UNL     1      14.099  21.810  19.891  1.00  0.00     0.168 HD
HETATM    8  C22 UNL     1      14.963  23.300  17.945  1.00  0.00     0.199 C 
HETATM    9  N5  UNL     1      15.513  23.699  16.669  1.00  0.00    -0.212 N 
HETATM   10  C36 UNL     1      14.849  23.089  15.502  1.00  0.00     0.146 C 
HETATM   11  C37 UNL     1      15.341  21.633  15.525  1.00  0.00     0.061 C 
ENDROOT
BRANCH   1  12
HETATM   12  O2  UNL     1      13.551  19.316  20.319  1.00  0.00    -0.331 OA
BRANCH  12  13
HETATM   13  C16 UNL     1      12.754  18.184  20.129  1.00  0.00     0.221 C 
BRANCH  13  14
HETATM   14  C15 UNL     1      11.296  18.422  19.923  1.00  0.00     0.082 C 
BRANCH  14  15
HETATM   15  N3  UNL     1      10.719  17.662  18.926  1.00  0.00    -0.395 N 
ATOM     16  H3  UNL     1       9.878  17.138  19.170  1.00  0.00     0.159 HD
BRANCH  15  17
HETATM   17  C14 UNL     1      11.185  17.546  17.609  1.00  0.00     0.088 C 
HETATM   18  C3  UNL     1      10.945  16.225  17.007  1.00  0.00     0.033 C 
HETATM   19  C4  UNL     1      10.848  16.170  15.496  1.00  0.00     0.050 C 
HETATM   20  C5  UNL     1      10.027  17.310  15.008  1.00  0.00     0.085 C 
HETATM   21  C12 UNL     1      10.826  18.554  15.329  1.00  0.00     0.041 C 
HETATM   22  C13 UNL     1      10.639  18.738  16.835  1.00  0.00     0.029 C 
BRANCH  18  23
HETATM   23  C2  UNL     1       9.867  15.381  17.580  1.00  0.00    -0.030 C 
HETATM   24  C1  UNL     1       9.729  14.076  17.346  1.00  0.00     0.007 C 
ENDBRANCH  18  23
BRANCH  20  25
HETATM   25  O1  UNL     1       8.891  17.412  15.901  1.00  0.00    -0.388 OA
ATOM     26  H1  UNL     1       8.224  16.830  15.557  1.00  0.00     0.210 HD
ENDBRANCH  20  25
BRANCH  20  27
HETATM   27  C6  UNL     1       9.470  17.170  13.657  1.00  0.00     0.310 C 
BRANCH  27  28
HETATM   28  N1  UNL     1       9.640  18.141  12.659  1.00  0.00     0.094 N 
HETATM   29  C7  UNL     1      10.729  17.655  11.781  1.00  0.00     0.302 C 
HETATM   30  C8  UNL     1      10.354  17.632  10.340  1.00  0.00     0.302 C 
HETATM   31  N2  UNL     1       9.093  17.031  10.032  1.00  0.00     0.087 N 
HETATM   32  C9  UNL     1       9.141  15.656   9.651  1.00  0.00     0.310 C 
HETATM   33  C10 UNL     1       8.075  17.338  11.022  1.00  0.00     0.302 C 
HETATM   34  C11 UNL     1       8.525  18.523  11.858  1.00  0.00     0.302 C 
ENDBRANCH  27  28
ENDBRANCH  20  27
ENDBRANCH  15  17
ENDBRANCH  14  15
ENDBRANCH  13  14
ENDBRANCH  12  13
ENDBRANCH   1  12
BRANCH   9  35
HETATM   35  C23 UNL     1      16.619  24.573  16.491  1.00  0.00     0.686 A 
HETATM   36  N6  UNL     1      17.618  24.649  17.368  1.00  0.00    -0.180 N 
HETATM   37  C24 UNL     1      18.676  25.506  17.189  1.00  0.00     0.103 A 
ATOM     38  H6  UNL     1      17.597  24.054  18.197  1.00  0.00     0.185 HD
HETATM   39  N7  UNL     1      18.771  26.315  16.121  1.00  0.00    -0.287 N 
HETATM   40  C35 UNL     1      17.733  26.228  15.230  1.00  0.00     0.342 A 
HETATM   41  O3  UNL     1      17.787  26.985  14.226  1.00  0.00    -0.246 OA
HETATM   42  N8  UNL     1      16.707  25.386  15.421  1.00  0.00    -0.141 N 
ATOM     43  H8  UNL     1      15.961  25.360  14.725  1.00  0.00     0.189 HD
BRANCH  37  44
HETATM   44  C25 UNL     1      19.698  25.458  18.242  1.00  0.00     0.077 C 
BRANCH  44  45
HETATM   45  C26 UNL     1      19.458  24.433  19.301  1.00  0.00     0.003 C 
HETATM   46  C27 UNL     1      19.814  24.791  20.688  1.00  0.00     0.005 C 
ENDBRANCH  44  45
ENDBRANCH  37  44
BRANCH  39  47
HETATM   47  C28 UNL     1      19.897  27.158  15.886  1.00  0.00     0.139 C 
BRANCH  47  48
HETATM   48  C29 UNL     1      20.630  27.001  14.607  1.00  0.00     0.004 C 
HETATM   49  C30 UNL     1      21.807  26.055  14.894  1.00  0.00     0.006 C 
HETATM   50  C31 UNL     1      22.851  26.706  15.738  1.00  0.00     0.000 C 
HETATM   51  C32 UNL     1      23.032  28.173  15.518  1.00  0.00     0.000 C 
HETATM   52  C33 UNL     1      22.502  28.654  14.206  1.00  0.00     0.000 C 
HETATM   53  C34 UNL     1      21.110  28.193  13.878  1.00  0.00     0.006 C 
ENDBRANCH  47  48
ENDBRANCH  39  47
ENDBRANCH   9  35
TORSDOF 14
ENDMDL
MODEL 2
REMARK VINA RESULT: -9.481731501      3.714     13.914
REMARK  14 active torsions:
REMARK  status: ('A' for Active; 'I' for Inactive)
REMARK    1  A    between atoms: C2_2  and  C3_3 
REMARK    2  A    between atoms: C5_5  and  O1_6 
REMARK    3  A    between atoms: C5_5  and  C6_8 
REMARK    4  A    between atoms: C6_8  and  N1_9 
REMARK    5  A    between atoms: C14_18  and  N3_19 
REMARK    6  A    between atoms: N3_19  and  C15_21 
REMARK    7  A    between atoms: C15_21  and  C16_22 
REMARK    8  A    between atoms: C16_22  and  O2_23 
REMARK    9  A    between atoms: O2_23  and  C17_24 
REMARK   10  A    between atoms: N5_32  and  C23_33 
REMARK   11  A    between atoms: C24_36  and  C25_37 
REMARK   12  A    between atoms: C25_37  and  C26_38 
REMARK   13  A    between atoms: N7_40  and  C28_41 
REMARK   14  A    between atoms: C28_41  and  C29_42 
ROOT
HETATM    1  C17 UNL     1      19.852  27.058  14.782  1.00  0.00     0.142 A 
HETATM    2  C18 UNL     1      20.761  26.084  14.476  1.00  0.00     0.057 A 
HETATM    3  C19 UNL     1      20.642  24.809  15.012  1.00  0.00     0.013 A 
HETATM    4  C20 UNL     1      19.572  24.571  15.861  1.00  0.00    -0.032 A 
HETATM    5  C21 UNL     1      18.650  25.573  16.162  1.00  0.00     0.036 A 
HETATM    6  N4  UNL     1      18.830  26.782  15.607  1.00  0.00    -0.339 N 
ATOM      7  H4  UNL     1      18.162  27.523  15.822  1.00  0.00     0.168 HD
HETATM    8  C22 UNL     1      17.476  25.336  17.047  1.00  0.00     0.199 C 
HETATM    9  N5  UNL     1      17.435  23.946  17.444  1.00  0.00    -0.212 N 
HETATM   10  C36 UNL     1      18.746  23.378  17.808  1.00  0.00     0.146 C 
HETATM   11  C37 UNL     1      19.458  23.215  16.455  1.00  0.00     0.061 C 
ENDROOT
BRANCH   1  12
HETATM   12  O2  UNL     1      20.018  28.333  14.209  1.00  0.00    -0.331 OA
BRANCH  12  13
HETATM   13  C16 UNL     1      21.280  28.564  13.656  1.00  0.00     0.221 C 
BRANCH  13  14
HETATM   14  C15 UNL     1      22.176  29.494  14.405  1.00  0.00     0.082 C 
BRANCH  14  15
HETATM   15  N3  UNL     1      23.294  28.904  14.958  1.00  0.00    -0.395 N 
ATOM     16  H3  UNL     1      24.196  29.325  14.741  1.00  0.00     0.159 HD
BRANCH  15  17
HETATM   17  C14 UNL     1      23.298  27.776  15.791  1.00  0.00     0.088 C 
HETATM   18  C3  UNL     1      24.637  27.209  16.018  1.00  0.00     0.033 C 
HETATM   19  C4  UNL     1      24.840  26.427  17.299  1.00  0.00     0.050 C 
HETATM   20  C5  UNL     1      24.196  27.147  18.430  1.00  0.00     0.085 C 
HETATM   21  C12 UNL     1      22.711  27.103  18.146  1.00  0.00     0.041 C 
HETATM   22  C13 UNL     1      22.512  28.142  17.042  1.00  0.00     0.029 C 
BRANCH  18  23
HETATM   23  C2  UNL     1      25.814  28.091  15.812  1.00  0.00    -0.030 C 
HETATM   24  C1  UNL     1      26.833  27.806  15.001  1.00  0.00     0.007 C 
ENDBRANCH  18  23
BRANCH  20  25
HETATM   25  O1  UNL     1      24.519  28.548  18.263  1.00  0.00    -0.388 OA
ATOM     26  H1  UNL     1      25.279  28.717  18.809  1.00  0.00     0.210 HD
ENDBRANCH  20  25
BRANCH  20  27
HETATM   27  C6  UNL     1      24.659  26.780  19.773  1.00  0.00     0.310 C 
BRANCH  27  28
HETATM   28  N1  UNL     1      24.435  25.514  20.337  1.00  0.00     0.094 N 
HETATM   29  C7  UNL     1      25.633  25.196  21.147  1.00  0.00     0.302 C 
HETATM   30  C8  UNL     1      25.308  24.809  22.547  1.00  0.00     0.302 C 
HETATM   31  N2  UNL     1      24.394  25.666  23.236  1.00  0.00     0.087 N 
HETATM   32  C9  UNL     1      24.988  26.673  24.055  1.00  0.00     0.310 C 
HETATM   33  C10 UNL     1      23.331  26.153  22.373  1.00  0.00     0.302 C 
HETATM   34  C11 UNL     1      23.265  25.297  21.121  1.00  0.00     0.302 C 
ENDBRANCH  27  28
ENDBRANCH  20  27
ENDBRANCH  15  17
ENDBRANCH  14  15
ENDBRANCH  13  14
ENDBRANCH  12  13
ENDBRANCH   1  12
BRANCH   9  35
HETATM   35  C23 UNL     1      16.269  23.135  17.470  1.00  0.00     0.686 A 
HETATM   36  N6  UNL     1      15.564  22.863  16.373  1.00  0.00    -0.180 N 
HETATM   37  C24 UNL     1      14.432  22.086  16.412  1.00  0.00     0.103 A 
ATOM     38  H6  UNL     1      15.873  23.243  15.478  1.00  0.00     0.185 HD
HETATM   39  N7  UNL     1      13.969  21.551  17.554  1.00  0.00    -0.287 N 
HETATM   40  C35 UNL     1      14.703  21.845  18.674  1.00  0.00     0.342 A 
HETATM   41  O3  UNL     1      14.285  21.368  19.762  1.00  0.00    -0.246 OA
HETATM   42  N8  UNL     1      15.805  22.606  18.618  1.00  0.00    -0.141 N 
ATOM     43  H8  UNL     1      16.315  22.791  19.481  1.00  0.00     0.189 HD
BRANCH  37  44
HETATM   44  C25 UNL     1      13.780  21.874  15.114  1.00  0.00     0.077 C 
BRANCH  44  45
HETATM   45  C26 UNL     1      14.590  21.103  14.125  1.00  0.00     0.003 C 
HETATM   46  C27 UNL     1      15.017  21.808  12.899  1.00  0.00     0.005 C 
ENDBRANCH  44  45
ENDBRANCH  37  44
BRANCH  39  47
HETATM   47  C28 UNL     1      12.837  20.685  17.600  1.00  0.00     0.139 C 
BRANCH  47  48
HETATM   48  C29 UNL     1      13.045  19.249  17.297  1.00  0.00     0.004 C 
HETATM   49  C30 UNL     1      11.704  18.549  17.563  1.00  0.00     0.006 C 
HETATM   50  C31 UNL     1      11.388  18.486  19.020  1.00  0.00     0.000 C 
HETATM   51  C32 UNL     1      12.567  18.339  19.927  1.00  0.00     0.000 C 
HETATM   52  C33 UNL     1      13.789  17.816  19.244  1.00  0.00     0.000 C 
HETATM   53  C34 UNL     1      14.140  18.506  17.956  1.00  0.00     0.006 C 
ENDBRANCH  47  48
ENDBRANCH  39  47
ENDBRANCH   9  35
TORSDOF 14
ENDMDL
MODEL 3
REMARK VINA RESULT: -9.466398166      3.085     14.023
REMARK  14 active torsions:
REMARK  status: ('A' for Active; 'I' for Inactive)
REMARK    1  A    between atoms: C2_2  and  C3_3 
REMARK    2  A    between atoms: C5_5  and  O1_6 
REMARK    3  A    between atoms: C5_5  and  C6_8 
REMARK    4  A    between atoms: C6_8  and  N1_9 
REMARK    5  A    between atoms: C14_18  and  N3_19 
REMARK    6  A    between atoms: N3_19  and  C15_21 
REMARK    7  A    between atoms: C15_21  and  C16_22 
REMARK    8  A    between atoms: C16_22  and  O2_23 
REMARK    9  A    between atoms: O2_23  and  C17_24 
REMARK   10  A    between atoms: N5_32  and  C23_33 
REMARK   11  A    between atoms: C24_36  and  C25_37 
REMARK   12  A    between atoms: C25_37  and  C26_38 
REMARK   13  A    between atoms: N7_40  and  C28_41 
REMARK   14  A    between atoms: C28_41  and  C29_42 
ROOT
HETATM    1  C17 UNL     1      17.461  25.090  15.686  1.00  0.00     0.142 A 
HETATM    2  C18 UNL     1      18.499  24.219  15.866  1.00  0.00     0.057 A 
HETATM    3  C19 UNL     1      18.306  23.014  16.530  1.00  0.00     0.013 A 
HETATM    4  C20 UNL     1      17.030  22.739  16.995  1.00  0.00    -0.032 A 
HETATM    5  C21 UNL     1      15.979  23.635  16.801  1.00  0.00     0.036 A 
HETATM    6  N4  UNL     1      16.240  24.781  16.151  1.00  0.00    -0.339 N 
ATOM      7  H4  UNL     1      15.479  25.444  16.006  1.00  0.00     0.168 HD
HETATM    8  C22 UNL     1      14.593  23.350  17.264  1.00  0.00     0.199 C 
HETATM    9  N5  UNL     1      14.532  22.026  17.844  1.00  0.00    -0.212 N 
HETATM   10  C36 UNL     1      15.673  21.691  18.716  1.00  0.00     0.146 C 
HETATM   11  C37 UNL     1      16.829  21.463  17.727  1.00  0.00     0.061 C 
ENDROOT
BRANCH   1  12
HETATM   12  O2  UNL     1      17.710  26.297  15.004  1.00  0.00    -0.331 OA
BRANCH  12  13
HETATM   13  C16 UNL     1      18.865  26.296  14.219  1.00  0.00     0.221 C 
BRANCH  13  14
HETATM   14  C15 UNL     1      19.776  27.468  14.373  1.00  0.00     0.082 C 
BRANCH  14  15
HETATM   15  N3  UNL     1      20.079  27.800  15.677  1.00  0.00    -0.395 N 
ATOM     16  H3  UNL     1      19.312  27.791  16.349  1.00  0.00     0.159 HD
BRANCH  15  17
HETATM   17  C14 UNL     1      21.348  28.149  16.161  1.00  0.00     0.088 C 
HETATM   18  C3  UNL     1      21.759  27.391  17.354  1.00  0.00     0.033 C 
HETATM   19  C4  UNL     1      23.248  27.242  17.590  1.00  0.00     0.050 C 
HETATM   20  C5  UNL     1      23.926  26.925  16.304  1.00  0.00     0.085 C 
HETATM   21  C12 UNL     1      23.762  28.158  15.443  1.00  0.00     0.041 C 
HETATM   22  C13 UNL     1      22.306  28.098  14.980  1.00  0.00     0.029 C 
BRANCH  18  23
HETATM   23  C2  UNL     1      21.107  26.083  17.610  1.00  0.00    -0.030 C 
HETATM   24  C1  UNL     1      21.069  25.482  18.800  1.00  0.00     0.007 C 
ENDBRANCH  18  23
BRANCH  20  25
HETATM   25  O1  UNL     1      23.098  25.945  15.632  1.00  0.00    -0.388 OA
ATOM     26  H1  UNL     1      23.611  25.612  14.905  1.00  0.00     0.210 HD
ENDBRANCH  20  25
BRANCH  20  27
HETATM   27  C6  UNL     1      25.261  26.324  16.412  1.00  0.00     0.310 C 
BRANCH  27  28
HETATM   28  N1  UNL     1      25.933  26.178  17.635  1.00  0.00     0.094 N 
HETATM   29  C7  UNL     1      26.720  24.927  17.535  1.00  0.00     0.302 C 
HETATM   30  C8  UNL     1      28.159  25.112  17.871  1.00  0.00     0.302 C 
HETATM   31  N2  UNL     1      28.810  26.219  17.244  1.00  0.00     0.087 N 
HETATM   32  C9  UNL     1      29.521  25.919  16.043  1.00  0.00     0.310 C 
HETATM   33  C10 UNL     1      27.952  27.387  17.150  1.00  0.00     0.302 C 
HETATM   34  C11 UNL     1      26.777  27.229  18.098  1.00  0.00     0.302 C 
ENDBRANCH  27  28
ENDBRANCH  20  27
ENDBRANCH  15  17
ENDBRANCH  14  15
ENDBRANCH  13  14
ENDBRANCH  12  13
ENDBRANCH   1  12
BRANCH   9  35
HETATM   35  C23 UNL     1      13.506  21.074  17.605  1.00  0.00     0.686 A 
HETATM   36  N6  UNL     1      12.998  20.860  16.392  1.00  0.00    -0.180 N 
HETATM   37  C24 UNL     1      11.998  19.943  16.177  1.00  0.00     0.103 A 
ATOM     38  H6  UNL     1      13.361  21.392  15.601  1.00  0.00     0.185 HD
HETATM   39  N7  UNL     1      11.475  19.205  17.170  1.00  0.00    -0.287 N 
HETATM   40  C35 UNL     1      12.006  19.441  18.412  1.00  0.00     0.342 A 
HETATM   41  O3  UNL     1      11.526  18.774  19.365  1.00  0.00    -0.246 OA
HETATM   42  N8  UNL     1      12.981  20.341  18.605  1.00  0.00    -0.141 N 
ATOM     43  H8  UNL     1      13.341  20.476  19.550  1.00  0.00     0.189 HD
BRANCH  37  44
HETATM   44  C25 UNL     1      11.559  19.821  14.781  1.00  0.00     0.077 C 
BRANCH  44  45
HETATM   45  C26 UNL     1      10.868  21.026  14.234  1.00  0.00     0.003 C 
HETATM   46  C27 UNL     1       9.475  21.265  14.664  1.00  0.00     0.005 C 
ENDBRANCH  44  45
ENDBRANCH  37  44
BRANCH  39  47
HETATM   47  C28 UNL     1      10.488  18.200  16.950  1.00  0.00     0.139 C 
BRANCH  47  48
HETATM   48  C29 UNL     1      10.946  16.802  16.770  1.00  0.00     0.004 C 
HETATM   49  C30 UNL     1      10.551  16.395  15.342  1.00  0.00     0.006 C 
HETATM   50  C31 UNL     1       9.075  16.229  15.198  1.00  0.00     0.000 C 
HETATM   51  C32 UNL     1       8.366  15.710  16.408  1.00  0.00     0.000 C 
HETATM   52  C33 UNL     1       9.264  15.012  17.377  1.00  0.00     0.000 C 
HETATM   53  C34 UNL     1      10.523  15.756  17.725  1.00  0.00     0.006 C 
ENDBRANCH  47  48
ENDBRANCH  39  47
ENDBRANCH   9  35
TORSDOF 14
ENDMDL
MODEL 4
REMARK VINA RESULT: -9.464664872      2.149      3.978
REMARK  14 active torsions:
REMARK  status: ('A' for Active; 'I' for Inactive)
REMARK    1  A    between atoms: C2_2  and  C3_3 
REMARK    2  A    between atoms: C5_5  and  O1_6 
REMARK    3  A    between atoms: C5_5  and  C6_8 
REMARK    4  A    between atoms: C6_8  and  N1_9 
REMARK    5  A    between atoms: C14_18  and  N3_19 
REMARK    6  A    between atoms: N3_19  and  C15_21 
REMARK    7  A    between atoms: C15_21  and  C16_22 
REMARK    8  A    between atoms: C16_22  and  O2_23 
REMARK    9  A    between atoms: O2_23  and  C17_24 
REMARK   10  A    between atoms: N5_32  and  C23_33 
REMARK   11  A    between atoms: C24_36  and  C25_37 
REMARK   12  A    between atoms: C25_37  and  C26_38 
REMARK   13  A    between atoms: N7_40  and  C28_41 
REMARK   14  A    between atoms: C28_41  and  C29_42 
ROOT
HETATM    1  C17 UNL     1      15.103  21.926  17.823  1.00  0.00     0.142 A 
HETATM    2  C18 UNL     1      15.249  21.418  16.562  1.00  0.00     0.057 A 
HETATM    3  C19 UNL     1      15.969  22.112  15.598  1.00  0.00     0.013 A 
HETATM    4  C20 UNL     1      16.525  23.326  15.968  1.00  0.00    -0.032 A 
HETATM    5  C21 UNL     1      16.370  23.831  17.258  1.00  0.00     0.036 A 
HETATM    6  N4  UNL     1      15.660  23.105  18.138  1.00  0.00    -0.339 N 
ATOM      7  H4  UNL     1      15.539  23.466  19.084  1.00  0.00     0.168 HD
HETATM    8  C22 UNL     1      16.982  25.118  17.690  1.00  0.00     0.199 C 
HETATM    9  N5  UNL     1      17.775  25.669  16.613  1.00  0.00    -0.212 N 
HETATM   10  C36 UNL     1      17.146  25.572  15.283  1.00  0.00     0.146 C 
HETATM   11  C37 UNL     1      17.273  24.081  14.930  1.00  0.00     0.061 C 
ENDROOT
BRANCH   1  12
HETATM   12  O2  UNL     1      14.365  21.181  18.763  1.00  0.00    -0.331 OA
BRANCH  12  13
HETATM   13  C16 UNL     1      13.919  19.939  18.304  1.00  0.00     0.221 C 
BRANCH  13  14
HETATM   14  C15 UNL     1      12.441  19.744  18.242  1.00  0.00     0.082 C 
BRANCH  14  15
HETATM   15  N3  UNL     1      11.778  20.600  17.387  1.00  0.00    -0.395 N 
ATOM     16  H3  UNL     1      12.071  21.576  17.388  1.00  0.00     0.159 HD
BRANCH  15  17
HETATM   17  C14 UNL     1      10.736  20.247  16.517  1.00  0.00     0.088 C 
HETATM   18  C3  UNL     1      10.776  20.949  15.225  1.00  0.00     0.033 C 
HETATM   19  C4  UNL     1      10.120  20.255  14.050  1.00  0.00     0.050 C 
HETATM   20  C5  UNL     1      10.476  18.811  14.061  1.00  0.00     0.085 C 
HETATM   21  C12 UNL     1       9.822  18.240  15.300  1.00  0.00     0.041 C 
HETATM   22  C13 UNL     1      10.709  18.727  16.447  1.00  0.00     0.029 C 
BRANCH  18  23
HETATM   23  C2  UNL     1      12.074  21.513  14.776  1.00  0.00    -0.030 C 
HETATM   24  C1  UNL     1      12.196  22.586  13.995  1.00  0.00     0.007 C 
ENDBRANCH  18  23
BRANCH  20  25
HETATM   25  O1  UNL     1      11.888  18.738  14.375  1.00  0.00    -0.388 OA
ATOM     26  H1  UNL     1      12.295  19.492  13.963  1.00  0.00     0.210 HD
ENDBRANCH  20  25
BRANCH  20  27
HETATM   27  C6  UNL     1      10.305  18.095  12.791  1.00  0.00     0.310 C 
BRANCH  27  28
HETATM   28  N1  UNL     1      10.237  16.696  12.709  1.00  0.00     0.094 N 
HETATM   29  C7  UNL     1       9.160  16.384  11.742  1.00  0.00     0.302 C 
HETATM   30  C8  UNL     1       9.595  15.460  10.658  1.00  0.00     0.302 C 
HETATM   31  N2  UNL     1      10.829  15.789  10.015  1.00  0.00     0.087 N 
HETATM   32  C9  UNL     1      10.715  16.542   8.807  1.00  0.00     0.310 C 
HETATM   33  C10 UNL     1      11.820  16.303  10.945  1.00  0.00     0.302 C 
HETATM   34  C11 UNL     1      11.407  15.960  12.364  1.00  0.00     0.302 C 
ENDBRANCH  27  28
ENDBRANCH  20  27
ENDBRANCH  15  17
ENDBRANCH  14  15
ENDBRANCH  13  14
ENDBRANCH  12  13
ENDBRANCH   1  12
BRANCH   9  35
HETATM   35  C23 UNL     1      19.069  26.236  16.756  1.00  0.00     0.686 A 
HETATM   36  N6  UNL     1      19.819  26.580  15.710  1.00  0.00    -0.180 N 
HETATM   37  C24 UNL     1      21.073  27.118  15.863  1.00  0.00     0.103 A 
ATOM     38  H6  UNL     1      19.451  26.438  14.769  1.00  0.00     0.185 HD
HETATM   39  N7  UNL     1      21.619  27.335  17.071  1.00  0.00    -0.287 N 
HETATM   40  C35 UNL     1      20.836  26.971  18.136  1.00  0.00     0.342 A 
HETATM   41  O3  UNL     1      21.327  27.150  19.282  1.00  0.00    -0.246 OA
HETATM   42  N8  UNL     1      19.614  26.446  17.970  1.00  0.00    -0.141 N 
ATOM     43  H8  UNL     1      19.074  26.195  18.798  1.00  0.00     0.189 HD
BRANCH  37  44
HETATM   44  C25 UNL     1      21.761  27.451  14.609  1.00  0.00     0.077 C 
BRANCH  44  45
HETATM   45  C26 UNL     1      21.571  28.858  14.145  1.00  0.00     0.003 C 
HETATM   46  C27 UNL     1      22.758  29.735  14.128  1.00  0.00     0.005 C 
ENDBRANCH  44  45
ENDBRANCH  37  44
BRANCH  39  47
HETATM   47  C28 UNL     1      22.890  27.958  17.246  1.00  0.00     0.139 C 
BRANCH  47  48
HETATM   48  C29 UNL     1      24.086  27.086  17.332  1.00  0.00     0.004 C 
HETATM   49  C30 UNL     1      25.090  27.814  18.239  1.00  0.00     0.006 C 
HETATM   50  C31 UNL     1      25.667  29.020  17.576  1.00  0.00     0.000 C 
HETATM   51  C32 UNL     1      25.849  28.914  16.096  1.00  0.00     0.000 C 
HETATM   52  C33 UNL     1      25.874  27.507  15.594  1.00  0.00     0.000 C 
HETATM   53  C34 UNL     1      24.761  26.633  16.098  1.00  0.00     0.006 C 
ENDBRANCH  47  48
ENDBRANCH  39  47
ENDBRANCH   9  35
TORSDOF 14
ENDMDL
MODEL 5
REMARK VINA RESULT: -9.457165768      3.924     14.851
REMARK  14 active torsions:
REMARK  status: ('A' for Active; 'I' for Inactive)
REMARK    1  A    between atoms: C2_2  and  C3_3 
REMARK    2  A    between atoms: C5_5  and  O1_6 
REMARK    3  A    between atoms: C5_5  and  C6_8 
REMARK    4  A    between atoms: C6_8  and  N1_9 
REMARK    5  A    between atoms: C14_18  and  N3_19 
REMARK    6  A    between atoms: N3_19  and  C15_21 
REMARK    7  A    between atoms: C15_21  and  C16_22 
REMARK    8  A    between atoms: C16_22  and  O2_23 
REMARK    9  A    between atoms: O2_23  and  C17_24 
REMARK   10  A    between atoms: N5_32  and  C23_33 
REMARK   11  A    between atoms: C24_36  and  C25_37 
REMARK   12  A    between atoms: C25_37  and  C26_38 
REMARK   13  A    between atoms: N7_40  and  C28_41 
REMARK   14  A    between atoms: C28_41  and  C29_42 
ROOT
HETATM    1  C17 UNL     1      21.027  25.639  18.089  1.00  0.00     0.142 A 
HETATM    2  C18 UNL     1      20.424  26.796  17.679  1.00  0.00     0.057 A 
HETATM    3  C19 UNL     1      19.244  26.761  16.949  1.00  0.00     0.013 A 
HETATM    4  C20 UNL     1      18.711  25.515  16.657  1.00  0.00    -0.032 A 
HETATM    5  C21 UNL     1      19.335  24.343  17.084  1.00  0.00     0.036 A 
HETATM    6  N4  UNL     1      20.474  24.455  17.785  1.00  0.00    -0.339 N 
ATOM      7  H4  UNL     1      20.939  23.603  18.100  1.00  0.00     0.168 HD
HETATM    8  C22 UNL     1      18.767  22.993  16.810  1.00  0.00     0.199 C 
HETATM    9  N5  UNL     1      17.496  23.124  16.132  1.00  0.00    -0.212 N 
HETATM   10  C36 UNL     1      17.474  24.151  15.074  1.00  0.00     0.146 C 
HETATM   11  C37 UNL     1      17.463  25.475  15.854  1.00  0.00     0.061 C 
ENDROOT
BRANCH   1  12
HETATM   12  O2  UNL     1      22.221  25.731  18.828  1.00  0.00    -0.331 OA
BRANCH  12  13
HETATM   13  C16 UNL     1      22.968  26.888  18.589  1.00  0.00     0.221 C 
BRANCH  13  14
HETATM   14  C15 UNL     1      24.115  26.756  17.644  1.00  0.00     0.082 C 
BRANCH  14  15
HETATM   15  N3  UNL     1      23.785  26.879  16.310  1.00  0.00    -0.395 N 
ATOM     16  H3  UNL     1      23.035  26.284  15.960  1.00  0.00     0.159 HD
BRANCH  15  17
HETATM   17  C14 UNL     1      24.390  27.749  15.392  1.00  0.00     0.088 C 
HETATM   18  C3  UNL     1      23.437  28.594  14.655  1.00  0.00     0.033 C 
HETATM   19  C4  UNL     1      23.961  29.913  14.125  1.00  0.00     0.050 C 
HETATM   20  C5  UNL     1      24.804  30.566  15.161  1.00  0.00     0.085 C 
HETATM   21  C12 UNL     1      26.014  29.673  15.324  1.00  0.00     0.041 C 
HETATM   22  C13 UNL     1      25.494  28.486  16.136  1.00  0.00     0.029 C 
BRANCH  18  23
HETATM   23  C2  UNL     1      22.099  28.824  15.255  1.00  0.00    -0.030 C 
HETATM   24  C1  UNL     1      20.967  28.905  14.557  1.00  0.00     0.007 C 
ENDBRANCH  18  23
BRANCH  20  25
HETATM   25  O1  UNL     1      24.108  30.405  16.421  1.00  0.00    -0.388 OA
ATOM     26  H1  UNL     1      24.050  31.271  16.810  1.00  0.00     0.210 HD
ENDBRANCH  20  25
BRANCH  20  27
HETATM   27  C6  UNL     1      25.021  32.009  14.998  1.00  0.00     0.310 C 
BRANCH  27  28
HETATM   28  N1  UNL     1      25.650  32.799  15.973  1.00  0.00     0.094 N 
HETATM   29  C7  UNL     1      26.666  33.611  15.264  1.00  0.00     0.302 C 
HETATM   30  C8  UNL     1      26.551  35.069  15.544  1.00  0.00     0.302 C 
HETATM   31  N2  UNL     1      25.237  35.623  15.438  1.00  0.00     0.087 N 
HETATM   32  C9  UNL     1      24.919  36.225  14.184  1.00  0.00     0.310 C 
HETATM   33  C10 UNL     1      24.213  34.724  15.942  1.00  0.00     0.302 C 
HETATM   34  C11 UNL     1      24.859  33.650  16.798  1.00  0.00     0.302 C 
ENDBRANCH  27  28
ENDBRANCH  20  27
ENDBRANCH  15  17
ENDBRANCH  14  15
ENDBRANCH  13  14
ENDBRANCH  12  13
ENDBRANCH   1  12
BRANCH   9  35
HETATM   35  C23 UNL     1      16.325  22.381  16.437  1.00  0.00     0.686 A 
HETATM   36  N6  UNL     1      15.618  21.746  15.503  1.00  0.00    -0.180 N 
HETATM   37  C24 UNL     1      14.481  21.039  15.810  1.00  0.00     0.103 A 
ATOM     38  H6  UNL     1      15.930  21.787  14.532  1.00  0.00     0.185 HD
HETATM   39  N7  UNL     1      14.015  20.941  17.066  1.00  0.00    -0.287 N 
HETATM   40  C35 UNL     1      14.751  21.604  18.014  1.00  0.00     0.342 A 
HETATM   41  O3  UNL     1      14.330  21.541  19.198  1.00  0.00    -0.246 OA
HETATM   42  N8  UNL     1      15.858  22.290  17.697  1.00  0.00    -0.141 N 
ATOM     43  H8  UNL     1      16.369  22.763  18.442  1.00  0.00     0.189 HD
BRANCH  37  44
HETATM   44  C25 UNL     1      13.828  20.390  14.667  1.00  0.00     0.077 C 
BRANCH  44  45
HETATM   45  C26 UNL     1      13.191  21.326  13.694  1.00  0.00     0.003 C 
HETATM   46  C27 UNL     1      12.005  22.078  14.151  1.00  0.00     0.005 C 
ENDBRANCH  44  45
ENDBRANCH  37  44
BRANCH  39  47
HETATM   47  C28 UNL     1      12.877  20.153  17.409  1.00  0.00     0.139 C 
BRANCH  47  48
HETATM   48  C29 UNL     1      13.072  18.696  17.604  1.00  0.00     0.004 C 
HETATM   49  C30 UNL     1      11.678  18.100  17.849  1.00  0.00     0.006 C 
HETATM   50  C31 UNL     1      11.130  18.491  19.181  1.00  0.00     0.000 C 
HETATM   51  C32 UNL     1      12.143  18.646  20.270  1.00  0.00     0.000 C 
HETATM   52  C33 UNL     1      13.435  17.950  19.993  1.00  0.00     0.000 C 
HETATM   53  C34 UNL     1      14.015  18.207  18.631  1.00  0.00     0.006 C 
ENDBRANCH  47  48
ENDBRANCH  39  47
ENDBRANCH   9  35
TORSDOF 14
ENDMDL
