MODEL 1
REMARK VINA RESULT: -8.624814604      0.000      0.000
REMARK  10 active torsions:
REMARK  status: ('A' for Active; 'I' for Inactive)
REMARK       I    between atoms: C1_2  and  N1_3 
REMARK    1  A    between atoms: C1_2  and  C9_13 
REMARK    2  A    between atoms: N1_3  and  C2_5 
REMARK    3  A    between atoms: C2_5  and  C3_6 
REMARK    4  A    between atoms: C3_6  and  N2_7 
REMARK    5  A    between atoms: C9_13  and  C10_14 
REMARK    6  A    between atoms: C9_13  and  C16_20 
REMARK    7  A    between atoms: C10_14  and  C11_15 
REMARK       I    between atoms: C16_20  and  N3_22 
REMARK    8  A    between atoms: N3_22  and  C17_24 
REMARK       I    between atoms: N4_32  and  C25_33 
REMARK    9  A    between atoms: C25_33  and  C26_35 
REMARK   10  A    between atoms: C26_35  and  C27_36 
ROOT
HETATM    1  C16 UNL     1      -6.732  16.601  -0.706  1.00  0.00     0.235 C 
HETATM    2  O2  UNL     1      -6.006  15.598  -0.658  1.00  0.00    -0.272 OA
HETATM    3  N3  UNL     1      -7.230  17.153  -1.893  1.00  0.00    -0.326 N 
ATOM      4  H3  UNL     1      -7.813  17.983  -1.785  1.00  0.00     0.169 HD
ENDROOT
BRANCH   1   5
HETATM    5  C9  UNL     1      -7.064  17.216   0.634  1.00  0.00     0.170 C 
BRANCH   5   6
HETATM    6  C1  UNL     1      -5.843  17.075   1.454  1.00  0.00     0.231 C 
HETATM    7  O1  UNL     1      -5.939  16.689   2.634  1.00  0.00    -0.273 OA
HETATM    8  N1  UNL     1      -4.548  17.362   0.958  1.00  0.00    -0.359 N 
ATOM      9  H1  UNL     1      -4.441  17.678  -0.005  1.00  0.00     0.162 HD
BRANCH   8  10
HETATM   10  C2  UNL     1      -3.383  17.216   1.786  1.00  0.00     0.142 C 
BRANCH  10  11
HETATM   11  C3  UNL     1      -2.950  15.789   1.792  1.00  0.00     0.141 C 
BRANCH  11  12
HETATM   12  N2  UNL     1      -2.400  15.330   3.015  1.00  0.00    -0.392 N 
HETATM   13  C4  UNL     1      -3.268  15.340   4.134  1.00  0.00     0.122 C 
HETATM   14  C5  UNL     1      -3.759  14.005   4.589  1.00  0.00     0.020 C 
HETATM   15  C6  UNL     1      -2.703  12.946   4.578  1.00  0.00     0.007 C 
HETATM   16  C7  UNL     1      -1.872  12.949   3.315  1.00  0.00     0.044 C 
HETATM   17  C8  UNL     1      -1.403  14.336   2.956  1.00  0.00     0.058 C 
ENDBRANCH  11  12
ENDBRANCH  10  11
ENDBRANCH   8  10
ENDBRANCH   5   6
BRANCH   5  18
HETATM   18  C10 UNL     1      -7.451  18.623   0.398  1.00  0.00     0.028 C 
BRANCH  18  19
HETATM   19  C11 UNL     1      -7.801  19.448   1.581  1.00  0.00    -0.013 C 
HETATM   20  C12 UNL     1      -6.540  20.188   2.035  1.00  0.00     0.005 C 
HETATM   21  C13 UNL     1      -6.369  21.191   0.918  1.00  0.00     0.000 C 
HETATM   22  C14 UNL     1      -7.756  21.452   0.382  1.00  0.00     0.000 C 
HETATM   23  C15 UNL     1      -8.693  20.626   1.254  1.00  0.00     0.005 C 
ENDBRANCH  18  19
ENDBRANCH   5  18
ENDBRANCH   1   5
BRANCH   3  24
HETATM   24  C17 UNL     1      -7.031  16.711  -3.221  1.00  0.00     0.035 A 
HETATM   25  C18 UNL     1      -7.570  15.568  -3.764  1.00  0.00     0.030 A 
HETATM   26  C19 UNL     1      -7.309  15.176  -5.082  1.00  0.00     0.011 A 
HETATM   27  C20 UNL     1      -6.499  15.919  -5.902  1.00  0.00    -0.034 A 
HETATM   28  C21 UNL     1      -5.959  17.063  -5.357  1.00  0.00    -0.046 A 
HETATM   29  C33 UNL     1      -6.261  15.467  -7.275  1.00  0.00     0.164 C 
HETATM   30  C22 UNL     1      -6.200  17.462  -4.076  1.00  0.00     0.037 A 
HETATM   31  C23 UNL     1      -5.068  17.875  -6.229  1.00  0.00     0.059 C 
HETATM   32  C24 UNL     1      -4.189  16.863  -6.971  1.00  0.00     0.130 C 
HETATM   33  N4  UNL     1      -5.068  16.090  -7.820  1.00  0.00    -0.348 N 
HETATM   34  C25 UNL     1      -4.774  15.921  -9.222  1.00  0.00     0.220 C 
HETATM   35  O3  UNL     1      -3.713  16.477  -9.632  1.00  0.00    -0.273 OA
BRANCH  34  36
HETATM   36  C26 UNL     1      -5.676  15.144 -10.094  1.00  0.00     0.107 C 
BRANCH  36  37
HETATM   37  C27 UNL     1      -5.125  13.837 -10.553  1.00  0.00    -0.006 C 
HETATM   38  C28 UNL     1      -5.352  12.698  -9.620  1.00  0.00     0.005 C 
HETATM   39  C29 UNL     1      -6.831  12.506  -9.345  1.00  0.00     0.000 C 
HETATM   40  C30 UNL     1      -7.592  12.492 -10.633  1.00  0.00     0.000 C 
HETATM   41  C31 UNL     1      -6.696  12.353 -11.831  1.00  0.00     0.000 C 
HETATM   42  C32 UNL     1      -5.647  13.437 -11.913  1.00  0.00     0.005 C 
ENDBRANCH  36  37
ENDBRANCH  34  36
ENDBRANCH   3  24
TORSDOF 10
ENDMDL
MODEL 2
REMARK VINA RESULT: -8.469957479      1.148      1.432
REMARK  10 active torsions:
REMARK  status: ('A' for Active; 'I' for Inactive)
REMARK       I    between atoms: C1_2  and  N1_3 
REMARK    1  A    between atoms: C1_2  and  C9_13 
REMARK    2  A    between atoms: N1_3  and  C2_5 
REMARK    3  A    between atoms: C2_5  and  C3_6 
REMARK    4  A    between atoms: C3_6  and  N2_7 
REMARK    5  A    between atoms: C9_13  and  C10_14 
REMARK    6  A    between atoms: C9_13  and  C16_20 
REMARK    7  A    between atoms: C10_14  and  C11_15 
REMARK       I    between atoms: C16_20  and  N3_22 
REMARK    8  A    between atoms: N3_22  and  C17_24 
REMARK       I    between atoms: N4_32  and  C25_33 
REMARK    9  A    between atoms: C25_33  and  C26_35 
REMARK   10  A    between atoms: C26_35  and  C27_36 
ROOT
HETATM    1  C16 UNL     1      -6.816  16.428  -1.072  1.00  0.00     0.235 C 
HETATM    2  O2  UNL     1      -7.016  15.209  -0.962  1.00  0.00    -0.272 OA
HETATM    3  N3  UNL     1      -6.798  17.113  -2.293  1.00  0.00    -0.326 N 
ATOM      4  H3  UNL     1      -6.617  18.116  -2.236  1.00  0.00     0.169 HD
ENDROOT
BRANCH   1   5
HETATM    5  C9  UNL     1      -6.588  17.159   0.230  1.00  0.00     0.170 C 
BRANCH   5   6
HETATM    6  C1  UNL     1      -5.126  17.164   0.438  1.00  0.00     0.231 C 
HETATM    7  O1  UNL     1      -4.372  17.397  -0.526  1.00  0.00    -0.273 OA
HETATM    8  N1  UNL     1      -4.528  16.914   1.696  1.00  0.00    -0.359 N 
ATOM      9  H1  UNL     1      -5.122  16.723   2.502  1.00  0.00     0.162 HD
BRANCH   8  10
HETATM   10  C2  UNL     1      -3.100  16.924   1.860  1.00  0.00     0.142 C 
BRANCH  10  11
HETATM   11  C3  UNL     1      -2.607  15.527   2.030  1.00  0.00     0.141 C 
BRANCH  11  12
HETATM   12  N2  UNL     1      -2.312  15.149   3.364  1.00  0.00    -0.392 N 
HETATM   13  C4  UNL     1      -3.359  15.305   4.305  1.00  0.00     0.122 C 
HETATM   14  C5  UNL     1      -4.011  14.043   4.767  1.00  0.00     0.020 C 
HETATM   15  C6  UNL     1      -3.043  12.933   5.028  1.00  0.00     0.007 C 
HETATM   16  C7  UNL     1      -2.006  12.780   3.938  1.00  0.00     0.044 C 
HETATM   17  C8  UNL     1      -1.389  14.103   3.562  1.00  0.00     0.058 C 
ENDBRANCH  11  12
ENDBRANCH  10  11
ENDBRANCH   8  10
ENDBRANCH   5   6
BRANCH   5  18
HETATM   18  C10 UNL     1      -7.164  18.514   0.091  1.00  0.00     0.028 C 
BRANCH  18  19
HETATM   19  C11 UNL     1      -7.734  19.148   1.306  1.00  0.00    -0.013 C 
HETATM   20  C12 UNL     1      -6.578  19.726   2.127  1.00  0.00     0.005 C 
HETATM   21  C13 UNL     1      -6.155  20.890   1.263  1.00  0.00     0.000 C 
HETATM   22  C14 UNL     1      -7.394  21.319   0.513  1.00  0.00     0.000 C 
HETATM   23  C15 UNL     1      -8.511  20.414   1.018  1.00  0.00     0.005 C 
ENDBRANCH  18  19
ENDBRANCH   5  18
ENDBRANCH   1   5
BRANCH   3  24
HETATM   24  C17 UNL     1      -6.997  16.598  -3.595  1.00  0.00     0.035 A 
HETATM   25  C18 UNL     1      -8.030  15.773  -3.971  1.00  0.00     0.030 A 
HETATM   26  C19 UNL     1      -8.151  15.278  -5.274  1.00  0.00     0.011 A 
HETATM   27  C20 UNL     1      -7.239  15.596  -6.247  1.00  0.00    -0.034 A 
HETATM   28  C21 UNL     1      -6.203  16.422  -5.870  1.00  0.00    -0.046 A 
HETATM   29  C33 UNL     1      -7.413  15.055  -7.598  1.00  0.00     0.164 C 
HETATM   30  C22 UNL     1      -6.068  16.914  -4.606  1.00  0.00     0.037 A 
HETATM   31  C23 UNL     1      -5.198  16.769  -6.911  1.00  0.00     0.059 C 
HETATM   32  C24 UNL     1      -4.931  15.465  -7.671  1.00  0.00     0.130 C 
HETATM   33  N4  UNL     1      -6.165  15.111  -8.337  1.00  0.00    -0.348 N 
HETATM   34  C25 UNL     1      -6.177  14.803  -9.745  1.00  0.00     0.220 C 
HETATM   35  O3  UNL     1      -5.054  14.855 -10.329  1.00  0.00    -0.273 OA
BRANCH  34  36
HETATM   36  C26 UNL     1      -7.436  14.453 -10.431  1.00  0.00     0.107 C 
BRANCH  36  37
HETATM   37  C27 UNL     1      -7.433  13.119 -11.097  1.00  0.00    -0.006 C 
HETATM   38  C28 UNL     1      -7.289  11.958 -10.174  1.00  0.00     0.005 C 
HETATM   39  C29 UNL     1      -8.390  11.953  -9.130  1.00  0.00     0.000 C 
HETATM   40  C30 UNL     1      -9.720  12.136  -9.789  1.00  0.00     0.000 C 
HETATM   41  C31 UNL     1      -9.653  11.962 -11.281  1.00  0.00     0.000 C 
HETATM   42  C32 UNL     1      -8.665  12.893 -11.942  1.00  0.00     0.005 C 
ENDBRANCH  36  37
ENDBRANCH  34  36
ENDBRANCH   3  24
TORSDOF 10
ENDMDL
MODEL 3
REMARK VINA RESULT: -8.388906007      2.059      2.586
REMARK  10 active torsions:
REMARK  status: ('A' for Active; 'I' for Inactive)
REMARK       I    between atoms: C1_2  and  N1_3 
REMARK    1  A    between atoms: C1_2  and  C9_13 
REMARK    2  A    between atoms: N1_3  and  C2_5 
REMARK    3  A    between atoms: C2_5  and  C3_6 
REMARK    4  A    between atoms: C3_6  and  N2_7 
REMARK    5  A    between atoms: C9_13  and  C10_14 
REMARK    6  A    between atoms: C9_13  and  C16_20 
REMARK    7  A    between atoms: C10_14  and  C11_15 
REMARK       I    between atoms: C16_20  and  N3_22 
REMARK    8  A    between atoms: N3_22  and  C17_24 
REMARK       I    between atoms: N4_32  and  C25_33 
REMARK    9  A    between atoms: C25_33  and  C26_35 
REMARK   10  A    between atoms: C26_35  and  C27_36 
ROOT
HETATM    1  C16 UNL     1      -7.034  16.509  -1.044  1.00  0.00     0.235 C 
HETATM    2  O2  UNL     1      -7.310  15.302  -0.985  1.00  0.00    -0.272 OA
HETATM    3  N3  UNL     1      -7.112  17.277  -2.213  1.00  0.00    -0.326 N 
ATOM      4  H3  UNL     1      -6.851  18.258  -2.117  1.00  0.00     0.169 HD
ENDROOT
BRANCH   1   5
HETATM    5  C9  UNL     1      -6.593  17.129   0.262  1.00  0.00     0.170 C 
BRANCH   5   6
HETATM    6  C1  UNL     1      -5.120  17.024   0.280  1.00  0.00     0.231 C 
HETATM    7  O1  UNL     1      -4.493  17.017  -0.797  1.00  0.00    -0.273 OA
HETATM    8  N1  UNL     1      -4.372  16.929   1.478  1.00  0.00    -0.359 N 
ATOM      9  H1  UNL     1      -4.860  16.935   2.373  1.00  0.00     0.162 HD
BRANCH   8  10
HETATM   10  C2  UNL     1      -2.938  16.825   1.457  1.00  0.00     0.142 C 
BRANCH  10  11
HETATM   11  C3  UNL     1      -2.535  15.425   1.776  1.00  0.00     0.141 C 
BRANCH  11  12
HETATM   12  N2  UNL     1      -2.286  15.166   3.147  1.00  0.00    -0.392 N 
HETATM   13  C4  UNL     1      -3.358  15.419   4.037  1.00  0.00     0.122 C 
HETATM   14  C5  UNL     1      -4.043  14.213   4.591  1.00  0.00     0.020 C 
HETATM   15  C6  UNL     1      -3.100  13.119   4.981  1.00  0.00     0.007 C 
HETATM   16  C7  UNL     1      -2.034  12.855   3.943  1.00  0.00     0.044 C 
HETATM   17  C8  UNL     1      -1.385  14.131   3.468  1.00  0.00     0.058 C 
ENDBRANCH  11  12
ENDBRANCH  10  11
ENDBRANCH   8  10
ENDBRANCH   5   6
BRANCH   5  18
HETATM   18  C10 UNL     1      -7.079  18.526   0.282  1.00  0.00     0.028 C 
BRANCH  18  19
HETATM   19  C11 UNL     1      -7.257  19.173   1.605  1.00  0.00    -0.013 C 
HETATM   20  C12 UNL     1      -6.057  20.092   1.850  1.00  0.00     0.005 C 
HETATM   21  C13 UNL     1      -6.324  21.197   0.856  1.00  0.00     0.000 C 
HETATM   22  C14 UNL     1      -7.824  21.243   0.682  1.00  0.00     0.000 C 
HETATM   23  C15 UNL     1      -8.377  20.191   1.634  1.00  0.00     0.005 C 
ENDBRANCH  18  19
ENDBRANCH   5  18
ENDBRANCH   1   5
BRANCH   3  24
HETATM   24  C17 UNL     1      -7.507  16.870  -3.508  1.00  0.00     0.035 A 
HETATM   25  C18 UNL     1      -8.782  16.968  -4.015  1.00  0.00     0.030 A 
HETATM   26  C19 UNL     1      -9.108  16.520  -5.300  1.00  0.00     0.011 A 
HETATM   27  C20 UNL     1      -8.166  15.959  -6.122  1.00  0.00    -0.034 A 
HETATM   28  C21 UNL     1      -6.890  15.860  -5.614  1.00  0.00    -0.046 A 
HETATM   29  C33 UNL     1      -8.559  15.510  -7.461  1.00  0.00     0.164 C 
HETATM   30  C22 UNL     1      -6.551  16.290  -4.365  1.00  0.00     0.037 A 
HETATM   31  C23 UNL     1      -5.857  15.243  -6.489  1.00  0.00     0.059 C 
HETATM   32  C24 UNL     1      -6.542  14.039  -7.143  1.00  0.00     0.130 C 
HETATM   33  N4  UNL     1      -7.592  14.563  -7.987  1.00  0.00    -0.348 N 
HETATM   34  C25 UNL     1      -7.701  14.154  -9.366  1.00  0.00     0.220 C 
HETATM   35  O3  UNL     1      -6.837  13.316  -9.760  1.00  0.00    -0.273 OA
BRANCH  34  36
HETATM   36  C26 UNL     1      -8.763  14.698 -10.234  1.00  0.00     0.107 C 
BRANCH  36  37
HETATM   37  C27 UNL     1      -9.637  13.669 -10.867  1.00  0.00    -0.006 C 
HETATM   38  C28 UNL     1     -10.577  12.984  -9.936  1.00  0.00     0.005 C 
HETATM   39  C29 UNL     1     -11.474  13.986  -9.233  1.00  0.00     0.000 C 
HETATM   40  C30 UNL     1     -12.071  14.924 -10.234  1.00  0.00     0.000 C 
HETATM   41  C31 UNL     1     -11.891  14.451 -11.649  1.00  0.00     0.000 C 
HETATM   42  C32 UNL     1     -10.443  14.226 -12.017  1.00  0.00     0.005 C 
ENDBRANCH  36  37
ENDBRANCH  34  36
ENDBRANCH   3  24
TORSDOF 10
ENDMDL
MODEL 4
REMARK VINA RESULT: -8.264196266      1.022      1.505
REMARK  10 active torsions:
REMARK  status: ('A' for Active; 'I' for Inactive)
REMARK       I    between atoms: C1_2  and  N1_3 
REMARK    1  A    between atoms: C1_2  and  C9_13 
REMARK    2  A    between atoms: N1_3  and  C2_5 
REMARK    3  A    between atoms: C2_5  and  C3_6 
REMARK    4  A    between atoms: C3_6  and  N2_7 
REMARK    5  A    between atoms: C9_13  and  C10_14 
REMARK    6  A    between atoms: C9_13  and  C16_20 
REMARK    7  A    between atoms: C10_14  and  C11_15 
REMARK       I    between atoms: C16_20  and  N3_22 
REMARK    8  A    between atoms: N3_22  and  C17_24 
REMARK       I    between atoms: N4_32  and  C25_33 
REMARK    9  A    between atoms: C25_33  and  C26_35 
REMARK   10  A    between atoms: C26_35  and  C27_36 
ROOT
HETATM    1  C16 UNL     1      -6.720  16.591  -0.694  1.00  0.00     0.235 C 
HETATM    2  O2  UNL     1      -5.996  15.586  -0.643  1.00  0.00    -0.272 OA
HETATM    3  N3  UNL     1      -7.206  17.149  -1.883  1.00  0.00    -0.326 N 
ATOM      4  H3  UNL     1      -7.788  17.981  -1.777  1.00  0.00     0.169 HD
ENDROOT
BRANCH   1   5
HETATM    5  C9  UNL     1      -7.063  17.201   0.645  1.00  0.00     0.170 C 
BRANCH   5   6
HETATM    6  C1  UNL     1      -5.848  17.061   1.473  1.00  0.00     0.231 C 
HETATM    7  O1  UNL     1      -5.952  16.672   2.652  1.00  0.00    -0.273 OA
HETATM    8  N1  UNL     1      -4.550  17.349   0.988  1.00  0.00    -0.359 N 
ATOM      9  H1  UNL     1      -4.436  17.667   0.026  1.00  0.00     0.162 HD
BRANCH   8  10
HETATM   10  C2  UNL     1      -3.390  17.204   1.824  1.00  0.00     0.142 C 
BRANCH  10  11
HETATM   11  C3  UNL     1      -2.951  15.779   1.825  1.00  0.00     0.141 C 
BRANCH  11  12
HETATM   12  N2  UNL     1      -2.415  15.313   3.051  1.00  0.00    -0.392 N 
HETATM   13  C4  UNL     1      -3.294  15.322   4.162  1.00  0.00     0.122 C 
HETATM   14  C5  UNL     1      -3.794  13.987   4.608  1.00  0.00     0.020 C 
HETATM   15  C6  UNL     1      -2.741  12.925   4.602  1.00  0.00     0.007 C 
HETATM   16  C7  UNL     1      -1.898  12.929   3.348  1.00  0.00     0.044 C 
HETATM   17  C8  UNL     1      -1.421  14.316   2.998  1.00  0.00     0.058 C 
ENDBRANCH  11  12
ENDBRANCH  10  11
ENDBRANCH   8  10
ENDBRANCH   5   6
BRANCH   5  18
HETATM   18  C10 UNL     1      -7.451  18.609   0.411  1.00  0.00     0.028 C 
BRANCH  18  19
HETATM   19  C11 UNL     1      -7.800  19.432   1.595  1.00  0.00    -0.013 C 
HETATM   20  C12 UNL     1      -6.538  20.171   2.049  1.00  0.00     0.005 C 
HETATM   21  C13 UNL     1      -6.367  21.175   0.934  1.00  0.00     0.000 C 
HETATM   22  C14 UNL     1      -7.755  21.438   0.399  1.00  0.00     0.000 C 
HETATM   23  C15 UNL     1      -8.692  20.611   1.270  1.00  0.00     0.005 C 
ENDBRANCH  18  19
ENDBRANCH   5  18
ENDBRANCH   1   5
BRANCH   3  24
HETATM   24  C17 UNL     1      -6.996  16.712  -3.211  1.00  0.00     0.035 A 
HETATM   25  C18 UNL     1      -7.518  15.564  -3.759  1.00  0.00     0.030 A 
HETATM   26  C19 UNL     1      -7.246  15.178  -5.077  1.00  0.00     0.011 A 
HETATM   27  C20 UNL     1      -6.442  15.932  -5.891  1.00  0.00    -0.034 A 
HETATM   28  C21 UNL     1      -5.919  17.082  -5.341  1.00  0.00    -0.046 A 
HETATM   29  C33 UNL     1      -6.193  15.487  -7.264  1.00  0.00     0.164 C 
HETATM   30  C22 UNL     1      -6.170  17.475  -4.061  1.00  0.00     0.037 A 
HETATM   31  C23 UNL     1      -5.034  17.907  -6.209  1.00  0.00     0.059 C 
HETATM   32  C24 UNL     1      -4.139  16.907  -6.948  1.00  0.00     0.130 C 
HETATM   33  N4  UNL     1      -5.005  16.125  -7.803  1.00  0.00    -0.348 N 
HETATM   34  C25 UNL     1      -4.703  15.963  -9.203  1.00  0.00     0.220 C 
HETATM   35  O3  UNL     1      -3.646  16.532  -9.607  1.00  0.00    -0.273 OA
BRANCH  34  36
HETATM   36  C26 UNL     1      -5.591  15.176 -10.081  1.00  0.00     0.107 C 
BRANCH  36  37
HETATM   37  C27 UNL     1      -6.369  15.984 -11.064  1.00  0.00    -0.006 C 
HETATM   38  C28 UNL     1      -7.467  15.248 -11.752  1.00  0.00     0.005 C 
HETATM   39  C29 UNL     1      -8.447  14.670 -10.748  1.00  0.00     0.000 C 
HETATM   40  C30 UNL     1      -8.846  15.723  -9.762  1.00  0.00     0.000 C 
HETATM   41  C31 UNL     1      -8.441  17.103 -10.195  1.00  0.00     0.000 C 
HETATM   42  C32 UNL     1      -6.958  17.232 -10.449  1.00  0.00     0.005 C 
ENDBRANCH  36  37
ENDBRANCH  34  36
ENDBRANCH   3  24
TORSDOF 10
ENDMDL
MODEL 5
REMARK VINA RESULT: -8.209547145      1.793      2.360
REMARK  10 active torsions:
REMARK  status: ('A' for Active; 'I' for Inactive)
REMARK       I    between atoms: C1_2  and  N1_3 
REMARK    1  A    between atoms: C1_2  and  C9_13 
REMARK    2  A    between atoms: N1_3  and  C2_5 
REMARK    3  A    between atoms: C2_5  and  C3_6 
REMARK    4  A    between atoms: C3_6  and  N2_7 
REMARK    5  A    between atoms: C9_13  and  C10_14 
REMARK    6  A    between atoms: C9_13  and  C16_20 
REMARK    7  A    between atoms: C10_14  and  C11_15 
REMARK       I    between atoms: C16_20  and  N3_22 
REMARK    8  A    between atoms: N3_22  and  C17_24 
REMARK       I    between atoms: N4_32  and  C25_33 
REMARK    9  A    between atoms: C25_33  and  C26_35 
REMARK   10  A    between atoms: C26_35  and  C27_36 
ROOT
HETATM    1  C16 UNL     1      -6.148  17.376   0.210  1.00  0.00     0.235 C 
HETATM    2  O2  UNL     1      -6.528  16.249   0.558  1.00  0.00    -0.272 OA
HETATM    3  N3  UNL     1      -6.140  17.827  -1.115  1.00  0.00    -0.326 N 
ATOM      4  H3  UNL     1      -5.795  18.777  -1.259  1.00  0.00     0.169 HD
ENDROOT
BRANCH   1   5
HETATM    5  C9  UNL     1      -5.677  18.268   1.335  1.00  0.00     0.170 C 
BRANCH   5   6
HETATM    6  C1  UNL     1      -4.275  17.882   1.595  1.00  0.00     0.231 C 
HETATM    7  O1  UNL     1      -3.594  18.551   2.395  1.00  0.00    -0.273 OA
HETATM    8  N1  UNL     1      -3.657  16.772   0.971  1.00  0.00    -0.359 N 
ATOM      9  H1  UNL     1      -4.192  16.206   0.314  1.00  0.00     0.162 HD
BRANCH   8  10
HETATM   10  C2  UNL     1      -2.289  16.427   1.247  1.00  0.00     0.142 C 
BRANCH  10  11
HETATM   11  C3  UNL     1      -2.223  15.037   1.783  1.00  0.00     0.141 C 
BRANCH  11  12
HETATM   12  N2  UNL     1      -2.119  14.938   3.193  1.00  0.00    -0.392 N 
HETATM   13  C4  UNL     1      -3.272  15.299   3.932  1.00  0.00     0.122 C 
HETATM   14  C5  UNL     1      -4.030  14.169   4.547  1.00  0.00     0.020 C 
HETATM   15  C6  UNL     1      -3.151  13.123   5.156  1.00  0.00     0.007 C 
HETATM   16  C7  UNL     1      -1.989  12.734   4.271  1.00  0.00     0.044 C 
HETATM   17  C8  UNL     1      -1.274  13.942   3.722  1.00  0.00     0.058 C 
ENDBRANCH  11  12
ENDBRANCH  10  11
ENDBRANCH   8  10
ENDBRANCH   5   6
BRANCH   5  18
HETATM   18  C10 UNL     1      -5.824  19.670   0.888  1.00  0.00     0.028 C 
BRANCH  18  19
HETATM   19  C11 UNL     1      -6.784  20.530   1.622  1.00  0.00    -0.013 C 
HETATM   20  C12 UNL     1      -6.975  21.821   0.821  1.00  0.00     0.005 C 
HETATM   21  C13 UNL     1      -7.760  21.316  -0.367  1.00  0.00     0.000 C 
HETATM   22  C14 UNL     1      -8.529  20.114   0.127  1.00  0.00     0.000 C 
HETATM   23  C15 UNL     1      -8.202  20.001   1.610  1.00  0.00     0.005 C 
ENDBRANCH  18  19
ENDBRANCH   5  18
ENDBRANCH   1   5
BRANCH   3  24
HETATM   24  C17 UNL     1      -6.546  17.140  -2.282  1.00  0.00     0.035 A 
HETATM   25  C18 UNL     1      -7.346  16.021  -2.304  1.00  0.00     0.030 A 
HETATM   26  C19 UNL     1      -7.688  15.374  -3.497  1.00  0.00     0.011 A 
HETATM   27  C20 UNL     1      -7.241  15.829  -4.710  1.00  0.00    -0.034 A 
HETATM   28  C21 UNL     1      -6.440  16.949  -4.688  1.00  0.00    -0.046 A 
HETATM   29  C33 UNL     1      -7.632  15.119  -5.931  1.00  0.00     0.164 C 
HETATM   30  C22 UNL     1      -6.095  17.593  -3.537  1.00  0.00     0.037 A 
HETATM   31  C23 UNL     1      -5.936  17.450  -5.996  1.00  0.00     0.059 C 
HETATM   32  C24 UNL     1      -5.525  16.200  -6.781  1.00  0.00     0.130 C 
HETATM   33  N4  UNL     1      -6.733  15.443  -7.023  1.00  0.00    -0.348 N 
HETATM   34  C25 UNL     1      -7.063  14.993  -8.353  1.00  0.00     0.220 C 
HETATM   35  O3  UNL     1      -6.232  15.296  -9.258  1.00  0.00    -0.273 OA
BRANCH  34  36
HETATM   36  C26 UNL     1      -8.302  14.232  -8.606  1.00  0.00     0.107 C 
BRANCH  36  37
HETATM   37  C27 UNL     1      -9.198  14.826  -9.640  1.00  0.00    -0.006 C 
HETATM   38  C28 UNL     1      -9.412  13.977 -10.846  1.00  0.00     0.005 C 
HETATM   39  C29 UNL     1      -9.978  12.622 -10.465  1.00  0.00     0.000 C 
HETATM   40  C30 UNL     1     -11.142  12.798  -9.541  1.00  0.00     0.000 C 
HETATM   41  C31 UNL     1     -11.629  14.218  -9.489  1.00  0.00     0.000 C 
HETATM   42  C32 UNL     1     -10.552  15.198  -9.085  1.00  0.00     0.005 C 
ENDBRANCH  36  37
ENDBRANCH  34  36
ENDBRANCH   3  24
TORSDOF 10
ENDMDL
