MODEL 1
REMARK VINA RESULT: -8.219863715      0.000      0.000
REMARK  10 active torsions:
REMARK  status: ('A' for Active; 'I' for Inactive)
REMARK    1  A    between atoms: C2_2  and  N1_3 
REMARK    2  A    between atoms: C2_2  and  C23_29 
REMARK       I    between atoms: N1_3  and  C3_5 
REMARK    3  A    between atoms: C3_5  and  C4_7 
REMARK       I    between atoms: N2_11  and  C8_12 
REMARK    4  A    between atoms: C8_12  and  C9_14 
REMARK    5  A    between atoms: C9_14  and  O3_15 
REMARK    6  A    between atoms: O3_15  and  C10_16 
REMARK    7  A    between atoms: C11_17  and  C12_18 
REMARK    8  A    between atoms: C18_24  and  C19_25 
REMARK       I    between atoms: C23_29  and  N3_31 
REMARK    9  A    between atoms: N3_31  and  C24_33 
REMARK   10  A    between atoms: C28_37  and  C29_38 
ROOT
HETATM    1  C4  UNL     1      -7.596  17.448  -2.248  1.00  0.00     0.096 C 
HETATM    2  C5  UNL     1      -8.967  17.120  -2.723  1.00  0.00     0.017 C 
HETATM    3  C6  UNL     1      -9.283  15.673  -2.948  1.00  0.00     0.021 C 
HETATM    4  C7  UNL     1      -8.160  14.872  -3.550  1.00  0.00     0.126 C 
HETATM    5  N2  UNL     1      -7.132  15.817  -3.936  1.00  0.00    -0.349 N 
HETATM    6  C8  UNL     1      -6.733  15.999  -5.278  1.00  0.00     0.244 C 
HETATM    7  O2  UNL     1      -5.859  16.819  -5.636  1.00  0.00    -0.271 OA
HETATM    8  C22 UNL     1      -6.525  16.566  -2.857  1.00  0.00     0.139 C 
ENDROOT
BRANCH   1   9
HETATM    9  C3  UNL     1      -7.451  17.524  -0.771  1.00  0.00     0.224 C 
HETATM   10  N1  UNL     1      -7.407  18.745  -0.111  1.00  0.00    -0.348 N 
ATOM     11  H1  UNL     1      -7.477  19.590  -0.677  1.00  0.00     0.163 HD
HETATM   12  O1  UNL     1      -7.367  16.458  -0.110  1.00  0.00    -0.273 OA
BRANCH  10  13
HETATM   13  C2  UNL     1      -7.269  18.909   1.323  1.00  0.00     0.172 C 
HETATM   14  C1  UNL     1      -8.075  20.123   1.722  1.00  0.00     0.042 C 
BRANCH  13  15
HETATM   15  C23 UNL     1      -5.873  18.957   1.762  1.00  0.00     0.240 C 
HETATM   16  O4  UNL     1      -5.313  20.046   2.041  1.00  0.00    -0.271 OA
HETATM   17  N3  UNL     1      -5.118  17.776   1.885  1.00  0.00    -0.354 N 
ATOM     18  H3  UNL     1      -5.556  16.881   1.666  1.00  0.00     0.162 HD
BRANCH  17  19
HETATM   19  C24 UNL     1      -3.747  17.798   2.310  1.00  0.00     0.088 C 
HETATM   20  C25 UNL     1      -2.800  18.281   1.268  1.00  0.00     0.025 C 
HETATM   21  C26 UNL     1      -2.602  17.336   0.124  1.00  0.00     0.002 C 
HETATM   22  C27 UNL     1      -3.027  15.932   0.346  1.00  0.00     0.005 C 
HETATM   23  C28 UNL     1      -2.972  15.449   1.761  1.00  0.00    -0.005 C 
HETATM   24  C32 UNL     1      -3.243  16.463   2.810  1.00  0.00     0.009 C 
HETATM   25  C33 UNL     1      -4.243  15.931   3.835  1.00  0.00     0.012 C 
BRANCH  23  26
HETATM   26  C29 UNL     1      -1.676  14.693   1.991  1.00  0.00    -0.018 C 
HETATM   27  C30 UNL     1      -0.463  15.556   1.973  1.00  0.00     0.010 C 
HETATM   28  C31 UNL     1      -1.701  13.995   3.351  1.00  0.00     0.010 C 
ENDBRANCH  23  26
ENDBRANCH  17  19
ENDBRANCH  13  15
ENDBRANCH  10  13
ENDBRANCH   1   9
BRANCH   6  29
HETATM   29  C9  UNL     1      -7.375  15.175  -6.384  1.00  0.00     0.278 C 
BRANCH  29  30
HETATM   30  O3  UNL     1      -7.958  16.037  -7.293  1.00  0.00    -0.341 OA
BRANCH  30  31
HETATM   31  C10 UNL     1      -9.145  15.860  -7.924  1.00  0.00     0.082 A 
HETATM   32  C11 UNL     1      -9.318  15.008  -8.997  1.00  0.00    -0.021 A 
HETATM   33  C15 UNL     1     -10.596  14.907  -9.564  1.00  0.00     0.010 A 
HETATM   34  C16 UNL     1     -11.681  15.613  -9.106  1.00  0.00     0.001 A 
HETATM   35  C17 UNL     1     -11.480  16.452  -8.039  1.00  0.00     0.010 A 
HETATM   36  C18 UNL     1     -10.233  16.589  -7.439  1.00  0.00    -0.021 A 
BRANCH  32  37
HETATM   37  C12 UNL     1      -8.190  14.231  -9.541  1.00  0.00     0.013 C 
HETATM   38  C13 UNL     1      -8.478  12.753  -9.174  1.00  0.00     0.015 C 
HETATM   39  C14 UNL     1      -8.168  14.203 -11.066  1.00  0.00     0.015 C 
ENDBRANCH  32  37
BRANCH  36  40
HETATM   40  C19 UNL     1     -10.088  17.483  -6.269  1.00  0.00     0.013 C 
HETATM   41  C20 UNL     1      -9.745  18.904  -6.730  1.00  0.00     0.015 C 
HETATM   42  C21 UNL     1     -11.387  17.483  -5.499  1.00  0.00     0.015 C 
ENDBRANCH  36  40
ENDBRANCH  30  31
ENDBRANCH  29  30
ENDBRANCH   6  29
TORSDOF 10
ENDMDL
MODEL 2
REMARK VINA RESULT: -8.197524595      0.144      2.585
REMARK  10 active torsions:
REMARK  status: ('A' for Active; 'I' for Inactive)
REMARK    1  A    between atoms: C2_2  and  N1_3 
REMARK    2  A    between atoms: C2_2  and  C23_29 
REMARK       I    between atoms: N1_3  and  C3_5 
REMARK    3  A    between atoms: C3_5  and  C4_7 
REMARK       I    between atoms: N2_11  and  C8_12 
REMARK    4  A    between atoms: C8_12  and  C9_14 
REMARK    5  A    between atoms: C9_14  and  O3_15 
REMARK    6  A    between atoms: O3_15  and  C10_16 
REMARK    7  A    between atoms: C11_17  and  C12_18 
REMARK    8  A    between atoms: C18_24  and  C19_25 
REMARK       I    between atoms: C23_29  and  N3_31 
REMARK    9  A    between atoms: N3_31  and  C24_33 
REMARK   10  A    between atoms: C28_37  and  C29_38 
ROOT
HETATM    1  C4  UNL     1      -7.609  17.439  -2.237  1.00  0.00     0.096 C 
HETATM    2  C5  UNL     1      -8.980  17.106  -2.708  1.00  0.00     0.017 C 
HETATM    3  C6  UNL     1      -9.291  15.657  -2.933  1.00  0.00     0.021 C 
HETATM    4  C7  UNL     1      -8.166  14.861  -3.538  1.00  0.00     0.126 C 
HETATM    5  N2  UNL     1      -7.143  15.811  -3.927  1.00  0.00    -0.349 N 
HETATM    6  C8  UNL     1      -6.749  15.996  -5.270  1.00  0.00     0.244 C 
HETATM    7  O2  UNL     1      -5.880  16.820  -5.630  1.00  0.00    -0.271 OA
HETATM    8  C22 UNL     1      -6.537  16.562  -2.850  1.00  0.00     0.139 C 
ENDROOT
BRANCH   1   9
HETATM    9  C3  UNL     1      -7.461  17.515  -0.761  1.00  0.00     0.224 C 
HETATM   10  N1  UNL     1      -7.402  18.736  -0.101  1.00  0.00    -0.348 N 
ATOM     11  H1  UNL     1      -7.464  19.582  -0.668  1.00  0.00     0.163 HD
HETATM   12  O1  UNL     1      -7.387  16.449  -0.098  1.00  0.00    -0.273 OA
BRANCH  10  13
HETATM   13  C2  UNL     1      -7.259  18.900   1.332  1.00  0.00     0.172 C 
HETATM   14  C1  UNL     1      -8.065  20.112   1.735  1.00  0.00     0.042 C 
BRANCH  13  15
HETATM   15  C23 UNL     1      -5.861  18.949   1.766  1.00  0.00     0.240 C 
HETATM   16  O4  UNL     1      -5.303  20.039   2.047  1.00  0.00    -0.271 OA
HETATM   17  N3  UNL     1      -5.104  17.769   1.883  1.00  0.00    -0.354 N 
ATOM     18  H3  UNL     1      -5.540  16.874   1.663  1.00  0.00     0.162 HD
BRANCH  17  19
HETATM   19  C24 UNL     1      -3.731  17.793   2.304  1.00  0.00     0.088 C 
HETATM   20  C25 UNL     1      -2.788  18.275   1.258  1.00  0.00     0.025 C 
HETATM   21  C26 UNL     1      -2.594  17.329   0.114  1.00  0.00     0.002 C 
HETATM   22  C27 UNL     1      -3.017  15.925   0.339  1.00  0.00     0.005 C 
HETATM   23  C28 UNL     1      -2.956  15.444   1.754  1.00  0.00    -0.005 C 
HETATM   24  C32 UNL     1      -3.225  16.459   2.803  1.00  0.00     0.009 C 
HETATM   25  C33 UNL     1      -4.221  15.928   3.832  1.00  0.00     0.012 C 
BRANCH  23  26
HETATM   26  C29 UNL     1      -1.659  14.689   1.981  1.00  0.00    -0.018 C 
HETATM   27  C30 UNL     1      -0.447  15.553   1.957  1.00  0.00     0.010 C 
HETATM   28  C31 UNL     1      -1.679  13.992   3.341  1.00  0.00     0.010 C 
ENDBRANCH  23  26
ENDBRANCH  17  19
ENDBRANCH  13  15
ENDBRANCH  10  13
ENDBRANCH   1   9
BRANCH   6  29
HETATM   29  C9  UNL     1      -7.391  15.169  -6.375  1.00  0.00     0.278 C 
BRANCH  29  30
HETATM   30  O3  UNL     1      -7.936  16.031  -7.308  1.00  0.00    -0.341 OA
BRANCH  30  31
HETATM   31  C10 UNL     1      -9.197  15.987  -7.804  1.00  0.00     0.082 A 
HETATM   32  C11 UNL     1     -10.239  16.746  -7.308  1.00  0.00    -0.021 A 
HETATM   33  C15 UNL     1     -11.498  16.616  -7.909  1.00  0.00     0.010 A 
HETATM   34  C16 UNL     1     -11.747  15.771  -8.963  1.00  0.00     0.001 A 
HETATM   35  C17 UNL     1     -10.693  15.029  -9.435  1.00  0.00     0.010 A 
HETATM   36  C18 UNL     1      -9.424  15.121  -8.876  1.00  0.00    -0.021 A 
BRANCH  32  37
HETATM   37  C12 UNL     1     -10.038  17.664  -6.173  1.00  0.00     0.013 C 
HETATM   38  C13 UNL     1      -9.660  19.032  -6.795  1.00  0.00     0.015 C 
HETATM   39  C14 UNL     1     -11.331  17.977  -5.426  1.00  0.00     0.015 C 
ENDBRANCH  32  37
BRANCH  36  40
HETATM   40  C19 UNL     1      -8.321  14.320  -9.452  1.00  0.00     0.013 C 
HETATM   41  C20 UNL     1      -8.580  12.826  -9.229  1.00  0.00     0.015 C 
HETATM   42  C21 UNL     1      -8.229  14.619 -10.930  1.00  0.00     0.015 C 
ENDBRANCH  36  40
ENDBRANCH  30  31
ENDBRANCH  29  30
ENDBRANCH   6  29
TORSDOF 10
ENDMDL
MODEL 3
REMARK VINA RESULT: -8.150929082      2.827      9.915
REMARK  10 active torsions:
REMARK  status: ('A' for Active; 'I' for Inactive)
REMARK    1  A    between atoms: C2_2  and  N1_3 
REMARK    2  A    between atoms: C2_2  and  C23_29 
REMARK       I    between atoms: N1_3  and  C3_5 
REMARK    3  A    between atoms: C3_5  and  C4_7 
REMARK       I    between atoms: N2_11  and  C8_12 
REMARK    4  A    between atoms: C8_12  and  C9_14 
REMARK    5  A    between atoms: C9_14  and  O3_15 
REMARK    6  A    between atoms: O3_15  and  C10_16 
REMARK    7  A    between atoms: C11_17  and  C12_18 
REMARK    8  A    between atoms: C18_24  and  C19_25 
REMARK       I    between atoms: C23_29  and  N3_31 
REMARK    9  A    between atoms: N3_31  and  C24_33 
REMARK   10  A    between atoms: C28_37  and  C29_38 
ROOT
HETATM    1  C4  UNL     1      -8.514  20.087   0.721  1.00  0.00     0.096 C 
HETATM    2  C5  UNL     1      -7.764  20.912   1.706  1.00  0.00     0.017 C 
HETATM    3  C6  UNL     1      -6.293  21.076   1.478  1.00  0.00     0.021 C 
HETATM    4  C7  UNL     1      -5.594  19.842   0.972  1.00  0.00     0.126 C 
HETATM    5  N2  UNL     1      -6.553  18.758   1.050  1.00  0.00    -0.349 N 
HETATM    6  C8  UNL     1      -6.358  17.629   1.876  1.00  0.00     0.244 C 
HETATM    7  O2  UNL     1      -7.178  16.690   1.970  1.00  0.00    -0.271 OA
HETATM    8  C22 UNL     1      -7.729  18.893   0.218  1.00  0.00     0.139 C 
ENDROOT
BRANCH   1   9
HETATM    9  C3  UNL     1      -9.106  20.852  -0.407  1.00  0.00     0.224 C 
HETATM   10  N1  UNL     1     -10.476  20.857  -0.638  1.00  0.00    -0.348 N 
ATOM     11  H1  UNL     1     -11.063  20.313  -0.005  1.00  0.00     0.163 HD
HETATM   12  O1  UNL     1      -8.348  21.509  -1.165  1.00  0.00    -0.273 OA
BRANCH  10  13
HETATM   13  C2  UNL     1     -11.135  21.575  -1.711  1.00  0.00     0.172 C 
HETATM   14  C1  UNL     1     -12.457  22.076  -1.180  1.00  0.00     0.042 C 
BRANCH  13  15
HETATM   15  C23 UNL     1     -11.253  20.785  -2.940  1.00  0.00     0.240 C 
HETATM   16  O4  UNL     1     -11.853  21.233  -3.948  1.00  0.00    -0.271 OA
HETATM   17  N3  UNL     1     -10.691  19.498  -3.022  1.00  0.00    -0.354 N 
ATOM     18  H3  UNL     1     -10.197  19.118  -2.215  1.00  0.00     0.162 HD
BRANCH  17  19
HETATM   19  C24 UNL     1     -10.797  18.705  -4.214  1.00  0.00     0.088 C 
HETATM   20  C25 UNL     1     -11.720  17.544  -4.087  1.00  0.00     0.025 C 
HETATM   21  C26 UNL     1     -11.219  16.446  -3.202  1.00  0.00     0.002 C 
HETATM   22  C27 UNL     1      -9.767  16.453  -2.900  1.00  0.00     0.005 C 
HETATM   23  C28 UNL     1      -8.885  17.064  -3.943  1.00  0.00    -0.005 C 
HETATM   24  C32 UNL     1      -9.469  18.186  -4.719  1.00  0.00     0.009 C 
HETATM   25  C33 UNL     1      -8.497  19.361  -4.792  1.00  0.00     0.012 C 
BRANCH  23  26
HETATM   26  C29 UNL     1      -8.309  15.972  -4.826  1.00  0.00    -0.018 C 
HETATM   27  C30 UNL     1      -8.679  16.099  -6.262  1.00  0.00     0.010 C 
HETATM   28  C31 UNL     1      -6.782  15.984  -4.759  1.00  0.00     0.010 C 
ENDBRANCH  23  26
ENDBRANCH  17  19
ENDBRANCH  13  15
ENDBRANCH  10  13
ENDBRANCH   1   9
BRANCH   6  29
HETATM   29  C9  UNL     1      -5.096  17.508   2.718  1.00  0.00     0.278 C 
BRANCH  29  30
HETATM   30  O3  UNL     1      -4.683  16.189   2.702  1.00  0.00    -0.341 OA
BRANCH  30  31
HETATM   31  C10 UNL     1      -3.412  15.745   2.537  1.00  0.00     0.082 A 
HETATM   32  C11 UNL     1      -2.577  16.184   1.529  1.00  0.00    -0.021 A 
HETATM   33  C15 UNL     1      -1.281  15.653   1.465  1.00  0.00     0.010 A 
HETATM   34  C16 UNL     1      -0.805  14.719   2.352  1.00  0.00     0.001 A 
HETATM   35  C17 UNL     1      -1.658  14.301   3.342  1.00  0.00     0.010 A 
HETATM   36  C18 UNL     1      -2.951  14.796   3.452  1.00  0.00    -0.021 A 
BRANCH  32  37
HETATM   37  C12 UNL     1      -3.032  17.178   0.542  1.00  0.00     0.013 C 
HETATM   38  C13 UNL     1      -1.778  17.562  -0.284  1.00  0.00     0.015 C 
HETATM   39  C14 UNL     1      -3.963  16.585  -0.512  1.00  0.00     0.015 C 
ENDBRANCH  32  37
BRANCH  36  40
HETATM   40  C19 UNL     1      -3.812  14.332   4.563  1.00  0.00     0.013 C 
HETATM   41  C20 UNL     1      -3.210  13.080   5.210  1.00  0.00     0.015 C 
HETATM   42  C21 UNL     1      -3.925  15.443   5.580  1.00  0.00     0.015 C 
ENDBRANCH  36  40
ENDBRANCH  30  31
ENDBRANCH  29  30
ENDBRANCH   6  29
TORSDOF 10
ENDMDL
MODEL 4
REMARK VINA RESULT: -7.974808976      2.545      3.943
REMARK  10 active torsions:
REMARK  status: ('A' for Active; 'I' for Inactive)
REMARK    1  A    between atoms: C2_2  and  N1_3 
REMARK    2  A    between atoms: C2_2  and  C23_29 
REMARK       I    between atoms: N1_3  and  C3_5 
REMARK    3  A    between atoms: C3_5  and  C4_7 
REMARK       I    between atoms: N2_11  and  C8_12 
REMARK    4  A    between atoms: C8_12  and  C9_14 
REMARK    5  A    between atoms: C9_14  and  O3_15 
REMARK    6  A    between atoms: O3_15  and  C10_16 
REMARK    7  A    between atoms: C11_17  and  C12_18 
REMARK    8  A    between atoms: C18_24  and  C19_25 
REMARK       I    between atoms: C23_29  and  N3_31 
REMARK    9  A    between atoms: N3_31  and  C24_33 
REMARK   10  A    between atoms: C28_37  and  C29_38 
ROOT
HETATM    1  C4  UNL     1      -9.539  17.566  -3.704  1.00  0.00     0.096 C 
HETATM    2  C5  UNL     1      -9.529  16.207  -3.100  1.00  0.00     0.017 C 
HETATM    3  C6  UNL     1      -8.194  15.632  -2.737  1.00  0.00     0.021 C 
HETATM    4  C7  UNL     1      -7.094  15.933  -3.718  1.00  0.00     0.126 C 
HETATM    5  N2  UNL     1      -7.720  16.545  -4.873  1.00  0.00    -0.349 N 
HETATM    6  C8  UNL     1      -7.692  15.953  -6.155  1.00  0.00     0.244 C 
HETATM    7  O2  UNL     1      -8.237  16.454  -7.162  1.00  0.00    -0.271 OA
HETATM    8  C22 UNL     1      -8.374  17.813  -4.640  1.00  0.00     0.139 C 
ENDROOT
BRANCH   1   9
HETATM    9  C3  UNL     1      -9.691  18.678  -2.731  1.00  0.00     0.224 C 
HETATM   10  N1  UNL     1      -8.612  19.475  -2.369  1.00  0.00    -0.348 N 
ATOM     11  H1  UNL     1      -7.709  19.268  -2.797  1.00  0.00     0.163 HD
HETATM   12  O1  UNL     1     -10.820  18.900  -2.226  1.00  0.00    -0.273 OA
BRANCH  10  13
HETATM   13  C2  UNL     1      -8.671  20.578  -1.431  1.00  0.00     0.172 C 
HETATM   14  C1  UNL     1      -7.776  21.674  -1.958  1.00  0.00     0.042 C 
BRANCH  13  15
HETATM   15  C23 UNL     1      -8.366  20.177  -0.056  1.00  0.00     0.240 C 
HETATM   16  O4  UNL     1      -9.007  20.643   0.919  1.00  0.00    -0.271 OA
HETATM   17  N3  UNL     1      -7.342  19.249   0.211  1.00  0.00    -0.354 N 
ATOM     18  H3  UNL     1      -6.813  18.855  -0.567  1.00  0.00     0.162 HD
BRANCH  17  19
HETATM   19  C24 UNL     1      -7.023  18.842   1.551  1.00  0.00     0.088 C 
HETATM   20  C25 UNL     1      -6.005  19.700   2.215  1.00  0.00     0.025 C 
HETATM   21  C26 UNL     1      -4.620  19.558   1.666  1.00  0.00     0.002 C 
HETATM   22  C27 UNL     1      -4.355  18.349   0.848  1.00  0.00     0.005 C 
HETATM   23  C28 UNL     1      -5.180  17.144   1.176  1.00  0.00    -0.005 C 
HETATM   24  C32 UNL     1      -6.559  17.407   1.656  1.00  0.00     0.009 C 
HETATM   25  C33 UNL     1      -7.568  16.526   0.922  1.00  0.00     0.012 C 
BRANCH  23  26
HETATM   26  C29 UNL     1      -4.398  16.227   2.099  1.00  0.00    -0.018 C 
HETATM   27  C30 UNL     1      -2.924  16.429   2.043  1.00  0.00     0.010 C 
HETATM   28  C31 UNL     1      -4.820  16.448   3.551  1.00  0.00     0.010 C 
ENDBRANCH  23  26
ENDBRANCH  17  19
ENDBRANCH  13  15
ENDBRANCH  10  13
ENDBRANCH   1   9
BRANCH   6  29
HETATM   29  C9  UNL     1      -6.971  14.630  -6.369  1.00  0.00     0.278 C 
BRANCH  29  30
HETATM   30  O3  UNL     1      -5.649  14.894  -6.675  1.00  0.00    -0.341 OA
BRANCH  30  31
HETATM   31  C10 UNL     1      -5.163  15.287  -7.878  1.00  0.00     0.082 A 
HETATM   32  C11 UNL     1      -5.266  14.527  -9.026  1.00  0.00    -0.021 A 
HETATM   33  C15 UNL     1      -4.728  15.043 -10.213  1.00  0.00     0.010 A 
HETATM   34  C16 UNL     1      -4.104  16.264 -10.289  1.00  0.00     0.001 A 
HETATM   35  C17 UNL     1      -4.016  16.997  -9.132  1.00  0.00     0.010 A 
HETATM   36  C18 UNL     1      -4.534  16.533  -7.929  1.00  0.00    -0.021 A 
BRANCH  32  37
HETATM   37  C12 UNL     1      -5.917  13.205  -9.008  1.00  0.00     0.013 C 
HETATM   38  C13 UNL     1      -7.191  13.347  -9.878  1.00  0.00     0.015 C 
HETATM   39  C14 UNL     1      -5.116  12.139  -9.750  1.00  0.00     0.015 C 
ENDBRANCH  32  37
BRANCH  36  40
HETATM   40  C19 UNL     1      -4.438  17.385  -6.723  1.00  0.00     0.013 C 
HETATM   41  C20 UNL     1      -2.977  17.761  -6.456  1.00  0.00     0.015 C 
HETATM   42  C21 UNL     1      -5.266  18.629  -6.947  1.00  0.00     0.015 C 
ENDBRANCH  36  40
ENDBRANCH  30  31
ENDBRANCH  29  30
ENDBRANCH   6  29
TORSDOF 10
ENDMDL
MODEL 5
REMARK VINA RESULT: -7.943060240      2.714      9.510
REMARK  10 active torsions:
REMARK  status: ('A' for Active; 'I' for Inactive)
REMARK    1  A    between atoms: C2_2  and  N1_3 
REMARK    2  A    between atoms: C2_2  and  C23_29 
REMARK       I    between atoms: N1_3  and  C3_5 
REMARK    3  A    between atoms: C3_5  and  C4_7 
REMARK       I    between atoms: N2_11  and  C8_12 
REMARK    4  A    between atoms: C8_12  and  C9_14 
REMARK    5  A    between atoms: C9_14  and  O3_15 
REMARK    6  A    between atoms: O3_15  and  C10_16 
REMARK    7  A    between atoms: C11_17  and  C12_18 
REMARK    8  A    between atoms: C18_24  and  C19_25 
REMARK       I    between atoms: C23_29  and  N3_31 
REMARK    9  A    between atoms: N3_31  and  C24_33 
REMARK   10  A    between atoms: C28_37  and  C29_38 
ROOT
HETATM    1  C4  UNL     1      -7.747  15.167  -3.994  1.00  0.00     0.096 C 
HETATM    2  C5  UNL     1      -9.112  15.046  -3.416  1.00  0.00     0.017 C 
HETATM    3  C6  UNL     1      -9.748  16.300  -2.900  1.00  0.00     0.021 C 
HETATM    4  C7  UNL     1      -8.805  17.236  -2.192  1.00  0.00     0.126 C 
HETATM    5  N2  UNL     1      -7.551  16.527  -2.036  1.00  0.00    -0.349 N 
HETATM    6  C8  UNL     1      -7.010  16.211  -0.770  1.00  0.00     0.244 C 
HETATM    7  O2  UNL     1      -5.938  15.587  -0.611  1.00  0.00    -0.271 OA
HETATM    8  C22 UNL     1      -6.873  16.164  -3.261  1.00  0.00     0.139 C 
ENDROOT
BRANCH   1   9
HETATM    9  C3  UNL     1      -7.711  15.399  -5.460  1.00  0.00     0.224 C 
HETATM   10  N1  UNL     1      -6.864  14.672  -6.288  1.00  0.00    -0.348 N 
ATOM     11  H1  UNL     1      -6.266  13.971  -5.851  1.00  0.00     0.163 HD
HETATM   12  O1  UNL     1      -8.464  16.273  -5.960  1.00  0.00    -0.273 OA
BRANCH  10  13
HETATM   13  C2  UNL     1      -6.767  14.834  -7.725  1.00  0.00     0.172 C 
HETATM   14  C1  UNL     1      -6.411  13.489  -8.312  1.00  0.00     0.042 C 
BRANCH  13  15
HETATM   15  C23 UNL     1      -5.855  15.910  -8.119  1.00  0.00     0.240 C 
HETATM   16  O4  UNL     1      -5.343  15.945  -9.266  1.00  0.00    -0.271 OA
HETATM   17  N3  UNL     1      -5.529  16.941  -7.218  1.00  0.00    -0.354 N 
ATOM     18  H3  UNL     1      -5.938  16.932  -6.284  1.00  0.00     0.162 HD
BRANCH  17  19
HETATM   19  C24 UNL     1      -4.635  18.004  -7.581  1.00  0.00     0.088 C 
HETATM   20  C25 UNL     1      -3.250  17.831  -7.064  1.00  0.00     0.025 C 
HETATM   21  C26 UNL     1      -3.115  18.000  -5.584  1.00  0.00     0.002 C 
HETATM   22  C27 UNL     1      -4.234  18.687  -4.893  1.00  0.00     0.005 C 
HETATM   23  C28 UNL     1      -4.999  19.677  -5.713  1.00  0.00    -0.005 C 
HETATM   24  C32 UNL     1      -5.118  19.374  -7.161  1.00  0.00     0.009 C 
HETATM   25  C33 UNL     1      -6.561  19.535  -7.633  1.00  0.00     0.012 C 
BRANCH  23  26
HETATM   26  C29 UNL     1      -4.475  21.076  -5.443  1.00  0.00    -0.018 C 
HETATM   27  C30 UNL     1      -3.817  21.711  -6.619  1.00  0.00     0.010 C 
HETATM   28  C31 UNL     1      -5.617  22.000  -5.022  1.00  0.00     0.010 C 
ENDBRANCH  23  26
ENDBRANCH  17  19
ENDBRANCH  13  15
ENDBRANCH  10  13
ENDBRANCH   1   9
BRANCH   6  29
HETATM   29  C9  UNL     1      -7.738  16.632   0.498  1.00  0.00     0.278 C 
BRANCH  29  30
HETATM   30  O3  UNL     1      -6.805  16.803   1.504  1.00  0.00    -0.341 OA
BRANCH  30  31
HETATM   31  C10 UNL     1      -5.952  17.849   1.641  1.00  0.00     0.082 A 
HETATM   32  C11 UNL     1      -6.306  19.159   1.388  1.00  0.00    -0.021 A 
HETATM   33  C15 UNL     1      -5.336  20.155   1.570  1.00  0.00     0.010 A 
HETATM   34  C16 UNL     1      -4.054  19.890   1.986  1.00  0.00     0.001 A 
HETATM   35  C17 UNL     1      -3.731  18.578   2.230  1.00  0.00     0.010 A 
HETATM   36  C18 UNL     1      -4.655  17.554   2.066  1.00  0.00    -0.021 A 
BRANCH  32  37
HETATM   37  C12 UNL     1      -7.663  19.506   0.930  1.00  0.00     0.013 C 
HETATM   38  C13 UNL     1      -8.150  20.639   1.868  1.00  0.00     0.015 C 
HETATM   39  C14 UNL     1      -7.675  20.174  -0.442  1.00  0.00     0.015 C 
ENDBRANCH  32  37
BRANCH  36  40
HETATM   40  C19 UNL     1      -4.256  16.163   2.378  1.00  0.00     0.013 C 
HETATM   41  C20 UNL     1      -2.825  15.903   1.896  1.00  0.00     0.015 C 
HETATM   42  C21 UNL     1      -4.349  15.960   3.872  1.00  0.00     0.015 C 
ENDBRANCH  36  40
ENDBRANCH  30  31
ENDBRANCH  29  30
ENDBRANCH   6  29
TORSDOF 10
ENDMDL
