MODEL 1
REMARK VINA RESULT: -7.689927753      0.000      0.000
REMARK  9 active torsions:
REMARK  status: ('A' for Active; 'I' for Inactive)
REMARK    1  A    between atoms: O1_2  and  C2_3 
REMARK    2  A    between atoms: C4_7  and  C5_8 
REMARK    3  A    between atoms: C7_11  and  C8_12 
REMARK    4  A    between atoms: C9_13  and  C10_14 
REMARK    5  A    between atoms: C11_15  and  O2_16 
REMARK    6  A    between atoms: C13_20  and  O4_21 
REMARK    7  A    between atoms: C14_23  and  O5_24 
REMARK    8  A    between atoms: C15_26  and  C16_27 
REMARK    9  A    between atoms: C16_27  and  C17_28 
ROOT
HETATM    1  C5  UNL     1      -1.376   4.646  10.756  1.00  0.00     0.176 C 
HETATM    2  C6  UNL     1      -1.584   3.291  10.269  1.00  0.00     0.064 C 
HETATM    3  N2  UNL     1      -1.764   2.198   9.892  1.00  0.00    -0.197 NA
ENDROOT
BRANCH   1   4
HETATM    4  C4  UNL     1      -2.683   5.306  10.944  1.00  0.00     0.004 C 
HETATM    5  N1  UNL     1      -2.860   6.462  11.426  1.00  0.00    -0.387 N 
HETATM    6  C3  UNL     1      -4.201   6.761  11.466  1.00  0.00     0.118 A 
ATOM      7  H1  UNL     1      -2.114   7.084  11.738  1.00  0.00     0.159 HD
HETATM    8  C2  UNL     1      -5.258   7.183  10.634  1.00  0.00     0.151 A 
HETATM    9  C19 UNL     1      -4.580   6.082  10.116  1.00  0.00     0.055 A 
HETATM   10  C7  UNL     1      -4.056   4.768  10.548  1.00  0.00     0.063 C 
BRANCH   8  11
HETATM   11  O1  UNL     1      -6.591   7.031  11.005  1.00  0.00    -0.388 OA
HETATM   12  C1  UNL     1      -7.144   8.149  11.604  1.00  0.00     0.202 C 
ENDBRANCH   8  11
BRANCH  10  13
HETATM   13  C8  UNL     1      -4.729   4.016  11.571  1.00  0.00    -0.019 C 
HETATM   14  C9  UNL     1      -4.048   3.282  12.453  1.00  0.00    -0.022 C 
BRANCH  14  15
HETATM   15  C10 UNL     1      -4.685   2.479  13.535  1.00  0.00     0.047 C 
HETATM   16  C11 UNL     1      -4.249   1.049  13.444  1.00  0.00     0.158 C 
HETATM   17  C12 UNL     1      -4.040   0.536  14.839  1.00  0.00     0.194 A 
HETATM   18  O3  UNL     1      -5.148   0.055  15.503  1.00  0.00    -0.347 OA
HETATM   19  C14 UNL     1      -4.069   1.752  15.739  1.00  0.00     0.140 A 
HETATM   20  C13 UNL     1      -5.290   1.107  16.378  1.00  0.00     0.294 A 
HETATM   21  C15 UNL     1      -4.360   2.952  14.913  1.00  0.00     0.045 C 
BRANCH  16  22
HETATM   22  O2  UNL     1      -3.082   0.917  12.676  1.00  0.00    -0.392 OA
ATOM     23  H2  UNL     1      -3.126   1.445  11.887  1.00  0.00     0.210 HD
ENDBRANCH  16  22
BRANCH  20  24
HETATM   24  O4  UNL     1      -5.105   0.746  17.703  1.00  0.00    -0.368 OA
ATOM     25  H4  UNL     1      -4.841   1.472  18.256  1.00  0.00     0.212 HD
ENDBRANCH  20  24
BRANCH  19  26
HETATM   26  O5  UNL     1      -2.994   1.748  16.585  1.00  0.00    -0.382 OA
ATOM     27  H5  UNL     1      -3.273   1.909  17.479  1.00  0.00     0.211 HD
ENDBRANCH  19  26
BRANCH  21  28
HETATM   28  C16 UNL     1      -3.356   4.049  14.940  1.00  0.00     0.086 C 
BRANCH  28  29
HETATM   29  C17 UNL     1      -3.980   5.375  14.938  1.00  0.00     0.123 C 
HETATM   30  C18 UNL     1      -5.448   5.557  15.172  1.00  0.00     0.091 C 
HETATM   31  O6  UNL     1      -3.339   6.423  14.748  1.00  0.00    -0.298 OA
ENDBRANCH  28  29
ENDBRANCH  21  28
ENDBRANCH  14  15
ENDBRANCH  10  13
ENDBRANCH   1   4
TORSDOF 9
ENDMDL
MODEL 2
REMARK VINA RESULT: -7.544443549      1.143      1.382
REMARK  9 active torsions:
REMARK  status: ('A' for Active; 'I' for Inactive)
REMARK    1  A    between atoms: O1_2  and  C2_3 
REMARK    2  A    between atoms: C4_7  and  C5_8 
REMARK    3  A    between atoms: C7_11  and  C8_12 
REMARK    4  A    between atoms: C9_13  and  C10_14 
REMARK    5  A    between atoms: C11_15  and  O2_16 
REMARK    6  A    between atoms: C13_20  and  O4_21 
REMARK    7  A    between atoms: C14_23  and  O5_24 
REMARK    8  A    between atoms: C15_26  and  C16_27 
REMARK    9  A    between atoms: C16_27  and  C17_28 
ROOT
HETATM    1  C5  UNL     1      -0.926   4.548  11.066  1.00  0.00     0.176 C 
HETATM    2  C6  UNL     1      -0.087   5.532  11.731  1.00  0.00     0.064 C 
HETATM    3  N2  UNL     1       0.583   6.338  12.253  1.00  0.00    -0.197 NA
ENDROOT
BRANCH   1   4
HETATM    4  C4  UNL     1      -2.286   5.097  10.898  1.00  0.00     0.004 C 
HETATM    5  N1  UNL     1      -2.621   6.302  11.087  1.00  0.00    -0.387 N 
HETATM    6  C3  UNL     1      -3.965   6.466  10.848  1.00  0.00     0.118 A 
ATOM      7  H1  UNL     1      -1.985   7.045  11.375  1.00  0.00     0.159 HD
HETATM    8  C2  UNL     1      -4.884   6.605   9.788  1.00  0.00     0.151 A 
HETATM    9  C19 UNL     1      -4.054   5.498   9.631  1.00  0.00     0.055 A 
HETATM   10  C7  UNL     1      -3.530   4.355  10.411  1.00  0.00     0.063 C 
BRANCH   8  11
HETATM   11  O1  UNL     1      -6.248   6.396   9.965  1.00  0.00    -0.388 OA
HETATM   12  C1  UNL     1      -7.051   7.328   9.333  1.00  0.00     0.202 C 
ENDBRANCH   8  11
BRANCH  10  13
HETATM   13  C8  UNL     1      -4.321   3.757  11.450  1.00  0.00    -0.019 C 
HETATM   14  C9  UNL     1      -3.754   3.133  12.484  1.00  0.00    -0.022 C 
BRANCH  14  15
HETATM   15  C10 UNL     1      -4.518   2.492  13.591  1.00  0.00     0.047 C 
HETATM   16  C11 UNL     1      -4.295   1.010  13.584  1.00  0.00     0.158 C 
HETATM   17  C12 UNL     1      -4.185   0.549  15.008  1.00  0.00     0.194 A 
HETATM   18  O3  UNL     1      -5.362   0.272  15.670  1.00  0.00    -0.347 OA
HETATM   19  C14 UNL     1      -4.048   1.803  15.843  1.00  0.00     0.140 A 
HETATM   20  C13 UNL     1      -5.359   1.380  16.486  1.00  0.00     0.294 A 
HETATM   21  C15 UNL     1      -4.147   2.987  14.949  1.00  0.00     0.045 C 
BRANCH  16  22
HETATM   22  O2  UNL     1      -3.149   0.668  12.849  1.00  0.00    -0.392 OA
ATOM     23  H2  UNL     1      -2.528   0.185  13.382  1.00  0.00     0.210 HD
ENDBRANCH  16  22
BRANCH  20  24
HETATM   24  O4  UNL     1      -5.250   1.068  17.831  1.00  0.00    -0.368 OA
ATOM     25  H4  UNL     1      -5.637   1.722  18.401  1.00  0.00     0.212 HD
ENDBRANCH  20  24
BRANCH  19  26
HETATM   26  O5  UNL     1      -2.998   1.689  16.711  1.00  0.00    -0.382 OA
ATOM     27  H5  UNL     1      -2.177   1.863  16.265  1.00  0.00     0.211 HD
ENDBRANCH  19  26
BRANCH  21  28
HETATM   28  C16 UNL     1      -2.993   3.925  14.942  1.00  0.00     0.086 C 
BRANCH  28  29
HETATM   29  C17 UNL     1      -3.409   5.318  14.757  1.00  0.00     0.123 C 
HETATM   30  C18 UNL     1      -4.758   5.802  15.187  1.00  0.00     0.091 C 
HETATM   31  O6  UNL     1      -2.677   6.178  14.238  1.00  0.00    -0.298 OA
ENDBRANCH  28  29
ENDBRANCH  21  28
ENDBRANCH  14  15
ENDBRANCH  10  13
ENDBRANCH   1   4
TORSDOF 9
ENDMDL
MODEL 3
REMARK VINA RESULT: -7.272514414      3.132      4.810
REMARK  9 active torsions:
REMARK  status: ('A' for Active; 'I' for Inactive)
REMARK    1  A    between atoms: O1_2  and  C2_3 
REMARK    2  A    between atoms: C4_7  and  C5_8 
REMARK    3  A    between atoms: C7_11  and  C8_12 
REMARK    4  A    between atoms: C9_13  and  C10_14 
REMARK    5  A    between atoms: C11_15  and  O2_16 
REMARK    6  A    between atoms: C13_20  and  O4_21 
REMARK    7  A    between atoms: C14_23  and  O5_24 
REMARK    8  A    between atoms: C15_26  and  C16_27 
REMARK    9  A    between atoms: C16_27  and  C17_28 
ROOT
HETATM    1  C5  UNL     1      -1.251   7.164  13.538  1.00  0.00     0.176 C 
HETATM    2  C6  UNL     1      -1.073   8.410  14.267  1.00  0.00     0.064 C 
HETATM    3  N2  UNL     1      -0.948   9.420  14.845  1.00  0.00    -0.197 NA
ENDROOT
BRANCH   1   4
HETATM    4  C4  UNL     1      -2.589   6.613  13.828  1.00  0.00     0.004 C 
HETATM    5  N1  UNL     1      -3.257   6.820  14.882  1.00  0.00    -0.387 N 
HETATM    6  C3  UNL     1      -4.456   6.149  14.826  1.00  0.00     0.118 A 
ATOM      7  H1  UNL     1      -2.950   7.402  15.662  1.00  0.00     0.159 HD
HETATM    8  C2  UNL     1      -5.741   6.242  14.254  1.00  0.00     0.151 A 
HETATM    9  C19 UNL     1      -4.727   6.386  13.311  1.00  0.00     0.055 A 
HETATM   10  C7  UNL     1      -3.453   5.750  12.910  1.00  0.00     0.063 C 
BRANCH   8  11
HETATM   11  O1  UNL     1      -6.586   5.140  14.162  1.00  0.00    -0.388 OA
HETATM   12  C1  UNL     1      -6.330   4.151  15.095  1.00  0.00     0.202 C 
ENDBRANCH   8  11
BRANCH  10  13
HETATM   13  C8  UNL     1      -3.266   4.334  13.061  1.00  0.00    -0.019 C 
HETATM   14  C9  UNL     1      -3.898   3.462  12.272  1.00  0.00    -0.022 C 
BRANCH  14  15
HETATM   15  C10 UNL     1      -3.748   1.984  12.378  1.00  0.00     0.047 C 
HETATM   16  C11 UNL     1      -5.033   1.305  12.013  1.00  0.00     0.158 C 
HETATM   17  C12 UNL     1      -4.702   0.073  11.222  1.00  0.00     0.194 A 
HETATM   18  O3  UNL     1      -4.413  -1.071  11.936  1.00  0.00    -0.347 OA
HETATM   19  C14 UNL     1      -3.235   0.186  10.871  1.00  0.00     0.140 A 
HETATM   20  C13 UNL     1      -3.058  -1.080  11.695  1.00  0.00     0.294 A 
HETATM   21  C15 UNL     1      -2.685   1.417  11.496  1.00  0.00     0.045 C 
BRANCH  16  22
HETATM   22  O2  UNL     1      -5.876   2.161  11.288  1.00  0.00    -0.392 OA
ATOM     23  H2  UNL     1      -5.937   3.016  11.698  1.00  0.00     0.210 HD
ENDBRANCH  16  22
BRANCH  20  24
HETATM   24  O4  UNL     1      -2.641  -2.176  10.958  1.00  0.00    -0.368 OA
ATOM     25  H4  UNL     1      -2.906  -2.138  10.046  1.00  0.00     0.212 HD
ENDBRANCH  20  24
BRANCH  19  26
HETATM   26  O5  UNL     1      -3.042  -0.047   9.537  1.00  0.00    -0.382 OA
ATOM     27  H5  UNL     1      -2.378  -0.714   9.408  1.00  0.00     0.211 HD
ENDBRANCH  19  26
BRANCH  21  28
HETATM   28  C16 UNL     1      -2.075   2.422  10.586  1.00  0.00     0.086 C 
BRANCH  28  29
HETATM   29  C17 UNL     1      -0.757   2.864  11.047  1.00  0.00     0.123 C 
HETATM   30  C18 UNL     1       0.152   3.677  10.177  1.00  0.00     0.091 C 
HETATM   31  O6  UNL     1      -0.313   2.600  12.177  1.00  0.00    -0.298 OA
ENDBRANCH  28  29
ENDBRANCH  21  28
ENDBRANCH  14  15
ENDBRANCH  10  13
ENDBRANCH   1   4
TORSDOF 9
ENDMDL
MODEL 4
REMARK VINA RESULT: -7.056594844      2.131      3.620
REMARK  9 active torsions:
REMARK  status: ('A' for Active; 'I' for Inactive)
REMARK    1  A    between atoms: O1_2  and  C2_3 
REMARK    2  A    between atoms: C4_7  and  C5_8 
REMARK    3  A    between atoms: C7_11  and  C8_12 
REMARK    4  A    between atoms: C9_13  and  C10_14 
REMARK    5  A    between atoms: C11_15  and  O2_16 
REMARK    6  A    between atoms: C13_20  and  O4_21 
REMARK    7  A    between atoms: C14_23  and  O5_24 
REMARK    8  A    between atoms: C15_26  and  C16_27 
REMARK    9  A    between atoms: C16_27  and  C17_28 
ROOT
HETATM    1  C5  UNL     1      -4.429   6.260   9.706  1.00  0.00     0.176 C 
HETATM    2  C6  UNL     1      -3.524   5.421   8.936  1.00  0.00     0.064 C 
HETATM    3  N2  UNL     1      -2.786   4.762   8.310  1.00  0.00    -0.197 NA
ENDROOT
BRANCH   1   4
HETATM    4  C4  UNL     1      -3.650   7.071  10.662  1.00  0.00     0.004 C 
HETATM    5  N1  UNL     1      -2.477   7.507  10.472  1.00  0.00    -0.387 N 
HETATM    6  C3  UNL     1      -2.050   8.218  11.568  1.00  0.00     0.118 A 
ATOM      7  H1  UNL     1      -1.928   7.353   9.626  1.00  0.00     0.159 HD
HETATM    8  C2  UNL     1      -2.186   9.481  12.180  1.00  0.00     0.151 A 
HETATM    9  C19 UNL     1      -3.416   8.894  11.891  1.00  0.00     0.055 A 
HETATM   10  C7  UNL     1      -4.109   7.594  12.021  1.00  0.00     0.063 C 
BRANCH   8  11
HETATM   11  O1  UNL     1      -1.845   9.692  13.513  1.00  0.00    -0.388 OA
HETATM   12  C1  UNL     1      -0.851   8.853  13.983  1.00  0.00     0.202 C 
ENDBRANCH   8  11
BRANCH  10  13
HETATM   13  C8  UNL     1      -3.827   6.725  13.130  1.00  0.00    -0.019 C 
HETATM   14  C9  UNL     1      -4.529   5.608  13.333  1.00  0.00    -0.022 C 
BRANCH  14  15
HETATM   15  C10 UNL     1      -4.287   4.667  14.463  1.00  0.00     0.047 C 
HETATM   16  C11 UNL     1      -5.574   4.362  15.167  1.00  0.00     0.158 C 
HETATM   17  C12 UNL     1      -5.570   2.907  15.536  1.00  0.00     0.194 A 
HETATM   18  O3  UNL     1      -4.952   2.563  16.720  1.00  0.00    -0.347 OA
HETATM   19  C14 UNL     1      -4.408   2.291  14.789  1.00  0.00     0.140 A 
HETATM   20  C13 UNL     1      -3.838   1.978  16.163  1.00  0.00     0.294 A 
HETATM   21  C15 UNL     1      -3.692   3.362  14.048  1.00  0.00     0.045 C 
BRANCH  16  22
HETATM   22  O2  UNL     1      -6.683   4.679  14.367  1.00  0.00    -0.392 OA
ATOM     23  H2  UNL     1      -7.451   4.183  14.628  1.00  0.00     0.210 HD
ENDBRANCH  16  22
BRANCH  20  24
HETATM   24  O4  UNL     1      -3.739   0.623  16.434  1.00  0.00    -0.368 OA
ATOM     25  H4  UNL     1      -2.847   0.297  16.401  1.00  0.00     0.212 HD
ENDBRANCH  20  24
BRANCH  19  26
HETATM   26  O5  UNL     1      -4.806   1.158  14.135  1.00  0.00    -0.382 OA
ATOM     27  H5  UNL     1      -4.054   0.624  13.905  1.00  0.00     0.211 HD
ENDBRANCH  19  26
BRANCH  21  28
HETATM   28  C16 UNL     1      -3.581   3.206  12.573  1.00  0.00     0.086 C 
BRANCH  28  29
HETATM   29  C17 UNL     1      -2.191   3.080  12.129  1.00  0.00     0.123 C 
HETATM   30  C18 UNL     1      -1.347   4.279  11.827  1.00  0.00     0.091 C 
HETATM   31  O6  UNL     1      -1.626   1.983  11.978  1.00  0.00    -0.298 OA
ENDBRANCH  28  29
ENDBRANCH  21  28
ENDBRANCH  14  15
ENDBRANCH  10  13
ENDBRANCH   1   4
TORSDOF 9
ENDMDL
MODEL 5
REMARK VINA RESULT: -7.047149935      2.240      3.917
REMARK  9 active torsions:
REMARK  status: ('A' for Active; 'I' for Inactive)
REMARK    1  A    between atoms: O1_2  and  C2_3 
REMARK    2  A    between atoms: C4_7  and  C5_8 
REMARK    3  A    between atoms: C7_11  and  C8_12 
REMARK    4  A    between atoms: C9_13  and  C10_14 
REMARK    5  A    between atoms: C11_15  and  O2_16 
REMARK    6  A    between atoms: C13_20  and  O4_21 
REMARK    7  A    between atoms: C14_23  and  O5_24 
REMARK    8  A    between atoms: C15_26  and  C16_27 
REMARK    9  A    between atoms: C16_27  and  C17_28 
ROOT
HETATM    1  C5  UNL     1      -3.986   6.424   9.693  1.00  0.00     0.176 C 
HETATM    2  C6  UNL     1      -5.427   6.555   9.840  1.00  0.00     0.064 C 
HETATM    3  N2  UNL     1      -6.585   6.655   9.977  1.00  0.00    -0.197 NA
ENDROOT
BRANCH   1   4
HETATM    4  C4  UNL     1      -3.312   7.232  10.728  1.00  0.00     0.004 C 
HETATM    5  N1  UNL     1      -2.147   7.719  10.638  1.00  0.00    -0.387 N 
HETATM    6  C3  UNL     1      -1.830   8.408  11.784  1.00  0.00     0.118 A 
ATOM      7  H1  UNL     1      -1.533   7.615   9.830  1.00  0.00     0.159 HD
HETATM    8  C2  UNL     1      -2.061   9.643  12.424  1.00  0.00     0.151 A 
HETATM    9  C19 UNL     1      -3.241   9.020  12.027  1.00  0.00     0.055 A 
HETATM   10  C7  UNL     1      -3.889   7.690  12.065  1.00  0.00     0.063 C 
BRANCH   8  11
HETATM   11  O1  UNL     1      -1.825   9.822  13.784  1.00  0.00    -0.388 OA
HETATM   12  C1  UNL     1      -0.847   8.993  14.303  1.00  0.00     0.202 C 
ENDBRANCH   8  11
BRANCH  10  13
HETATM   13  C8  UNL     1      -3.652   6.795  13.164  1.00  0.00    -0.019 C 
HETATM   14  C9  UNL     1      -4.422   5.724  13.365  1.00  0.00    -0.022 C 
BRANCH  14  15
HETATM   15  C10 UNL     1      -4.231   4.760  14.485  1.00  0.00     0.047 C 
HETATM   16  C11 UNL     1      -5.544   4.460  15.141  1.00  0.00     0.158 C 
HETATM   17  C12 UNL     1      -5.571   2.999  15.484  1.00  0.00     0.194 A 
HETATM   18  O3  UNL     1      -4.997   2.625  16.681  1.00  0.00    -0.347 OA
HETATM   19  C14 UNL     1      -4.393   2.380  14.764  1.00  0.00     0.140 A 
HETATM   20  C13 UNL     1      -3.873   2.035  16.150  1.00  0.00     0.294 A 
HETATM   21  C15 UNL     1      -3.640   3.455  14.066  1.00  0.00     0.045 C 
BRANCH  16  22
HETATM   22  O2  UNL     1      -6.622   4.806  14.312  1.00  0.00    -0.392 OA
ATOM     23  H2  UNL     1      -6.427   4.629  13.399  1.00  0.00     0.210 HD
ENDBRANCH  16  22
BRANCH  20  24
HETATM   24  O4  UNL     1      -3.801   0.674  16.399  1.00  0.00    -0.368 OA
ATOM     25  H4  UNL     1      -3.586   0.161  15.628  1.00  0.00     0.212 HD
ENDBRANCH  20  24
BRANCH  19  26
HETATM   26  O5  UNL     1      -4.784   1.264  14.076  1.00  0.00    -0.382 OA
ATOM     27  H5  UNL     1      -4.717   1.409  13.140  1.00  0.00     0.211 HD
ENDBRANCH  19  26
BRANCH  21  28
HETATM   28  C16 UNL     1      -3.482   3.323  12.594  1.00  0.00     0.086 C 
BRANCH  28  29
HETATM   29  C17 UNL     1      -2.082   3.156  12.195  1.00  0.00     0.123 C 
HETATM   30  C18 UNL     1      -1.142   4.319  12.113  1.00  0.00     0.091 C 
HETATM   31  O6  UNL     1      -1.589   2.053  11.905  1.00  0.00    -0.298 OA
ENDBRANCH  28  29
ENDBRANCH  21  28
ENDBRANCH  14  15
ENDBRANCH  10  13
ENDBRANCH   1   4
TORSDOF 9
ENDMDL
