MODEL 1
REMARK VINA RESULT: -7.473725927      0.000      0.000
REMARK  10 active torsions:
REMARK  status: ('A' for Active; 'I' for Inactive)
REMARK    1  A    between atoms: C2_2  and  C3_3 
REMARK    2  A    between atoms: C5_5  and  N1_6 
REMARK    3  A    between atoms: N1_6  and  C6_7 
REMARK       I    between atoms: N1_6  and  C10_11 
REMARK    4  A    between atoms: C6_7  and  C7_8 
REMARK    5  A    between atoms: C10_11  and  O2_13 
REMARK    6  A    between atoms: C13_16  and  O3_17 
REMARK    7  A    between atoms: O3_17  and  C14_18 
REMARK    8  A    between atoms: C16_21  and  O5_22 
REMARK    9  A    between atoms: C17_24  and  O6_25 
REMARK   10  A    between atoms: C18_27  and  O7_28 
ROOT
HETATM    1  C3  UNL     1      -3.325   6.311  14.155  1.00  0.00     0.126 C 
HETATM    2  C4  UNL     1      -4.022   6.804  12.906  1.00  0.00     0.057 C 
HETATM    3  C5  UNL     1      -3.593   5.997  11.695  1.00  0.00     0.096 C 
HETATM    4  C12 UNL     1      -4.021   4.582  12.016  1.00  0.00     0.086 C 
HETATM    5  C13 UNL     1      -3.073   4.191  13.169  1.00  0.00     0.265 C 
HETATM    6  O8  UNL     1      -3.259   4.958  14.270  1.00  0.00    -0.356 OA
ENDROOT
BRANCH   5   7
HETATM    7  O3  UNL     1      -3.345   2.872  13.519  1.00  0.00    -0.329 OA
BRANCH   7   8
HETATM    8  C14 UNL     1      -3.470   2.105  12.385  1.00  0.00     0.294 C 
HETATM    9  O4  UNL     1      -2.345   1.267  12.207  1.00  0.00    -0.356 OA
HETATM   10  C15 UNL     1      -2.386   0.874  10.856  1.00  0.00     0.205 C 
HETATM   11  C16 UNL     1      -3.529  -0.082  10.678  1.00  0.00     0.173 C 
HETATM   12  C17 UNL     1      -4.832   0.594  11.052  1.00  0.00     0.182 C 
HETATM   13  C18 UNL     1      -4.660   1.163  12.457  1.00  0.00     0.204 C 
BRANCH  11  14
HETATM   14  O5  UNL     1      -3.314  -1.215  11.461  1.00  0.00    -0.391 OA
ATOM     15  H5  UNL     1      -3.248  -1.979  10.901  1.00  0.00     0.210 HD
ENDBRANCH  11  14
BRANCH  12  16
HETATM   16  O6  UNL     1      -4.992   1.690  10.205  1.00  0.00    -0.390 OA
ATOM     17  H6  UNL     1      -5.845   2.068  10.386  1.00  0.00     0.210 HD
ENDBRANCH  12  16
BRANCH  13  18
HETATM   18  O7  UNL     1      -4.361   0.168  13.377  1.00  0.00    -0.388 OA
ATOM     19  H7  UNL     1      -5.169  -0.284  13.589  1.00  0.00     0.210 HD
ENDBRANCH  13  18
ENDBRANCH   7   8
ENDBRANCH   5   7
BRANCH   3  20
HETATM   20  N1  UNL     1      -4.110   6.531  10.486  1.00  0.00    -0.323 N 
HETATM   21  C10 UNL     1      -3.812   5.949   9.237  1.00  0.00     0.362 C 
HETATM   22  O1  UNL     1      -4.289   6.453   8.155  1.00  0.00    -0.238 OA
BRANCH  20  23
HETATM   23  C6  UNL     1      -4.976   7.686  10.523  1.00  0.00     0.133 C 
BRANCH  23  24
HETATM   24  C7  UNL     1      -6.431   7.414  10.479  1.00  0.00     0.004 A 
HETATM   25  C8  UNL     1      -7.490   8.351  10.133  1.00  0.00     0.007 A 
HETATM   26  C9  UNL     1      -7.238   8.129  11.604  1.00  0.00     0.007 A 
ENDBRANCH  23  24
ENDBRANCH  20  23
BRANCH  21  27
HETATM   27  O2  UNL     1      -3.016   4.832   9.027  1.00  0.00    -0.309 OA
HETATM   28  C11 UNL     1      -1.664   4.922   8.603  1.00  0.00     0.215 C 
ENDBRANCH  21  27
ENDBRANCH   3  20
BRANCH   1  29
HETATM   29  C2  UNL     1      -2.077   7.040  14.500  1.00  0.00     0.027 C 
HETATM   30  C1  UNL     1      -2.170   8.299  15.252  1.00  0.00     0.007 C 
ENDBRANCH   1  29
TORSDOF 10
ENDMDL
MODEL 2
REMARK VINA RESULT: -7.287948806      3.132      5.419
REMARK  10 active torsions:
REMARK  status: ('A' for Active; 'I' for Inactive)
REMARK    1  A    between atoms: C2_2  and  C3_3 
REMARK    2  A    between atoms: C5_5  and  N1_6 
REMARK    3  A    between atoms: N1_6  and  C6_7 
REMARK       I    between atoms: N1_6  and  C10_11 
REMARK    4  A    between atoms: C6_7  and  C7_8 
REMARK    5  A    between atoms: C10_11  and  O2_13 
REMARK    6  A    between atoms: C13_16  and  O3_17 
REMARK    7  A    between atoms: O3_17  and  C14_18 
REMARK    8  A    between atoms: C16_21  and  O5_22 
REMARK    9  A    between atoms: C17_24  and  O6_25 
REMARK   10  A    between atoms: C18_27  and  O7_28 
ROOT
HETATM    1  C3  UNL     1      -3.605   2.450  12.242  1.00  0.00     0.126 C 
HETATM    2  C4  UNL     1      -3.118   3.855  11.965  1.00  0.00     0.057 C 
HETATM    3  C5  UNL     1      -3.686   4.833  12.977  1.00  0.00     0.096 C 
HETATM    4  C12 UNL     1      -3.159   4.344  14.308  1.00  0.00     0.086 C 
HETATM    5  C13 UNL     1      -3.913   3.012  14.505  1.00  0.00     0.265 C 
HETATM    6  O8  UNL     1      -3.599   2.097  13.556  1.00  0.00    -0.356 OA
ENDROOT
BRANCH   5   7
HETATM    7  O3  UNL     1      -3.540   2.487  15.739  1.00  0.00    -0.329 OA
BRANCH   7   8
HETATM    8  C14 UNL     1      -4.646   2.355  16.544  1.00  0.00     0.294 C 
HETATM    9  O4  UNL     1      -5.830   2.694  15.848  1.00  0.00    -0.356 OA
HETATM   10  C15 UNL     1      -6.793   2.930  16.848  1.00  0.00     0.205 C 
HETATM   11  C16 UNL     1      -7.154   1.614  17.473  1.00  0.00     0.173 C 
HETATM   12  C17 UNL     1      -5.925   0.979  18.089  1.00  0.00     0.182 C 
HETATM   13  C18 UNL     1      -4.853   0.922  17.005  1.00  0.00     0.204 C 
BRANCH  11  14
HETATM   14  O5  UNL     1      -7.715   0.780  16.508  1.00  0.00    -0.391 OA
ATOM     15  H5  UNL     1      -8.333   1.273  15.983  1.00  0.00     0.210 HD
ENDBRANCH  11  14
BRANCH  12  16
HETATM   16  O6  UNL     1      -5.447   1.854  19.064  1.00  0.00    -0.390 OA
ATOM     17  H6  UNL     1      -4.538   1.630  19.226  1.00  0.00     0.210 HD
ENDBRANCH  12  16
BRANCH  13  18
HETATM   18  O7  UNL     1      -5.273   0.179  15.912  1.00  0.00    -0.388 OA
ATOM     19  H7  UNL     1      -6.192  -0.026  16.035  1.00  0.00     0.210 HD
ENDBRANCH  13  18
ENDBRANCH   7   8
ENDBRANCH   5   7
BRANCH   3  20
HETATM   20  N1  UNL     1      -3.373   6.179  12.655  1.00  0.00    -0.323 N 
HETATM   21  C10 UNL     1      -4.348   7.060  12.147  1.00  0.00     0.362 C 
HETATM   22  O1  UNL     1      -4.039   8.274  11.858  1.00  0.00    -0.238 OA
BRANCH  20  23
HETATM   23  C6  UNL     1      -2.032   6.673  12.862  1.00  0.00     0.133 C 
BRANCH  23  24
HETATM   24  C7  UNL     1      -1.708   7.130  14.232  1.00  0.00     0.004 A 
HETATM   25  C8  UNL     1      -2.498   8.017  15.074  1.00  0.00     0.007 A 
HETATM   26  C9  UNL     1      -1.350   8.644  14.322  1.00  0.00     0.007 A 
ENDBRANCH  23  24
ENDBRANCH  20  23
BRANCH  21  27
HETATM   27  O2  UNL     1      -5.680   6.754  11.907  1.00  0.00    -0.309 OA
HETATM   28  C11 UNL     1      -6.662   7.747  11.652  1.00  0.00     0.215 C 
ENDBRANCH  21  27
ENDBRANCH   3  20
BRANCH   1  29
HETATM   29  C2  UNL     1      -4.818   2.051  11.483  1.00  0.00     0.027 C 
HETATM   30  C1  UNL     1      -4.893   0.695  10.920  1.00  0.00     0.007 C 
ENDBRANCH   1  29
TORSDOF 10
ENDMDL
MODEL 3
REMARK VINA RESULT: -7.115033175      2.071      3.191
REMARK  10 active torsions:
REMARK  status: ('A' for Active; 'I' for Inactive)
REMARK    1  A    between atoms: C2_2  and  C3_3 
REMARK    2  A    between atoms: C5_5  and  N1_6 
REMARK    3  A    between atoms: N1_6  and  C6_7 
REMARK       I    between atoms: N1_6  and  C10_11 
REMARK    4  A    between atoms: C6_7  and  C7_8 
REMARK    5  A    between atoms: C10_11  and  O2_13 
REMARK    6  A    between atoms: C13_16  and  O3_17 
REMARK    7  A    between atoms: O3_17  and  C14_18 
REMARK    8  A    between atoms: C16_21  and  O5_22 
REMARK    9  A    between atoms: C17_24  and  O6_25 
REMARK   10  A    between atoms: C18_27  and  O7_28 
ROOT
HETATM    1  C3  UNL     1      -6.158   4.129  14.765  1.00  0.00     0.126 C 
HETATM    2  C4  UNL     1      -5.850   5.236  13.781  1.00  0.00     0.057 C 
HETATM    3  C5  UNL     1      -4.355   5.482  13.696  1.00  0.00     0.096 C 
HETATM    4  C12 UNL     1      -3.786   4.169  13.208  1.00  0.00     0.086 C 
HETATM    5  C13 UNL     1      -4.014   3.229  14.410  1.00  0.00     0.265 C 
HETATM    6  O8  UNL     1      -5.330   3.053  14.683  1.00  0.00    -0.356 OA
ENDROOT
BRANCH   5   7
HETATM    7  O3  UNL     1      -3.478   1.986  14.090  1.00  0.00    -0.329 OA
BRANCH   7   8
HETATM    8  C14 UNL     1      -3.553   1.781  12.733  1.00  0.00     0.294 C 
HETATM    9  O4  UNL     1      -2.382   1.157  12.243  1.00  0.00    -0.356 OA
HETATM   10  C15 UNL     1      -2.393   1.388  10.854  1.00  0.00     0.205 C 
HETATM   11  C16 UNL     1      -3.480   0.550  10.247  1.00  0.00     0.173 C 
HETATM   12  C17 UNL     1      -4.821   0.935  10.837  1.00  0.00     0.182 C 
HETATM   13  C18 UNL     1      -4.689   0.846  12.355  1.00  0.00     0.204 C 
BRANCH  11  14
HETATM   14  O5  UNL     1      -3.207  -0.798  10.468  1.00  0.00    -0.391 OA
ATOM     15  H5  UNL     1      -2.333  -0.889  10.829  1.00  0.00     0.210 HD
ENDBRANCH  11  14
BRANCH  12  16
HETATM   16  O6  UNL     1      -5.036   2.281  10.544  1.00  0.00    -0.390 OA
ATOM     17  H6  UNL     1      -5.955   2.464  10.703  1.00  0.00     0.210 HD
ENDBRANCH  12  16
BRANCH  13  18
HETATM   18  O7  UNL     1      -4.341  -0.434  12.762  1.00  0.00    -0.388 OA
ATOM     19  H7  UNL     1      -4.313  -0.440  13.711  1.00  0.00     0.210 HD
ENDBRANCH  13  18
ENDBRANCH   7   8
ENDBRANCH   5   7
BRANCH   3  20
HETATM   20  N1  UNL     1      -4.043   6.616  12.900  1.00  0.00    -0.323 N 
HETATM   21  C10 UNL     1      -3.070   7.552  13.302  1.00  0.00     0.362 C 
HETATM   22  O1  UNL     1      -2.809   8.573  12.566  1.00  0.00    -0.238 OA
BRANCH  20  23
HETATM   23  C6  UNL     1      -4.720   6.816  11.640  1.00  0.00     0.133 C 
BRANCH  23  24
HETATM   24  C7  UNL     1      -5.664   7.955  11.579  1.00  0.00     0.004 A 
HETATM   25  C8  UNL     1      -7.088   7.934  11.881  1.00  0.00     0.007 A 
HETATM   26  C9  UNL     1      -6.705   7.847  10.425  1.00  0.00     0.007 A 
ENDBRANCH  23  24
ENDBRANCH  20  23
BRANCH  21  27
HETATM   27  O2  UNL     1      -2.319   7.500  14.468  1.00  0.00    -0.309 OA
HETATM   28  C11 UNL     1      -2.021   8.653  15.240  1.00  0.00     0.215 C 
ENDBRANCH  21  27
ENDBRANCH   3  20
BRANCH   1  29
HETATM   29  C2  UNL     1      -6.470   4.589  16.143  1.00  0.00     0.027 C 
HETATM   30  C1  UNL     1      -6.931   3.608  17.134  1.00  0.00     0.007 C 
ENDBRANCH   1  29
TORSDOF 10
ENDMDL
MODEL 4
REMARK VINA RESULT: -7.082763154      2.179      3.747
REMARK  10 active torsions:
REMARK  status: ('A' for Active; 'I' for Inactive)
REMARK    1  A    between atoms: C2_2  and  C3_3 
REMARK    2  A    between atoms: C5_5  and  N1_6 
REMARK    3  A    between atoms: N1_6  and  C6_7 
REMARK       I    between atoms: N1_6  and  C10_11 
REMARK    4  A    between atoms: C6_7  and  C7_8 
REMARK    5  A    between atoms: C10_11  and  O2_13 
REMARK    6  A    between atoms: C13_16  and  O3_17 
REMARK    7  A    between atoms: O3_17  and  C14_18 
REMARK    8  A    between atoms: C16_21  and  O5_22 
REMARK    9  A    between atoms: C17_24  and  O6_25 
REMARK   10  A    between atoms: C18_27  and  O7_28 
ROOT
HETATM    1  C3  UNL     1      -5.985   4.288  14.882  1.00  0.00     0.126 C 
HETATM    2  C4  UNL     1      -5.361   5.463  14.162  1.00  0.00     0.057 C 
HETATM    3  C5  UNL     1      -3.853   5.465  14.338  1.00  0.00     0.096 C 
HETATM    4  C12 UNL     1      -3.401   4.163  13.714  1.00  0.00     0.086 C 
HETATM    5  C13 UNL     1      -3.960   3.106  14.688  1.00  0.00     0.265 C 
HETATM    6  O8  UNL     1      -5.315   3.113  14.734  1.00  0.00    -0.356 OA
ENDROOT
BRANCH   5   7
HETATM    7  O3  UNL     1      -3.559   1.852  14.237  1.00  0.00    -0.329 OA
BRANCH   7   8
HETATM    8  C14 UNL     1      -3.684   1.787  12.869  1.00  0.00     0.294 C 
HETATM    9  O4  UNL     1      -2.508   1.280  12.270  1.00  0.00    -0.356 OA
HETATM   10  C15 UNL     1      -2.591   1.654  10.915  1.00  0.00     0.205 C 
HETATM   11  C16 UNL     1      -3.663   0.830  10.265  1.00  0.00     0.173 C 
HETATM   12  C17 UNL     1      -4.993   1.080  10.945  1.00  0.00     0.182 C 
HETATM   13  C18 UNL     1      -4.790   0.839  12.438  1.00  0.00     0.204 C 
BRANCH  11  14
HETATM   14  O5  UNL     1      -3.316  -0.518  10.330  1.00  0.00    -0.391 OA
ATOM     15  H5  UNL     1      -3.363  -0.900   9.461  1.00  0.00     0.210 HD
ENDBRANCH  11  14
BRANCH  12  16
HETATM   16  O6  UNL     1      -5.285   2.436  10.806  1.00  0.00    -0.390 OA
ATOM     17  H6  UNL     1      -4.470   2.886  10.619  1.00  0.00     0.210 HD
ENDBRANCH  12  16
BRANCH  13  18
HETATM   18  O7  UNL     1      -4.364  -0.457  12.692  1.00  0.00    -0.388 OA
ATOM     19  H7  UNL     1      -4.743  -1.023  12.031  1.00  0.00     0.210 HD
ENDBRANCH  13  18
ENDBRANCH   7   8
ENDBRANCH   5   7
BRANCH   3  20
HETATM   20  N1  UNL     1      -3.254   6.637  13.805  1.00  0.00    -0.323 N 
HETATM   21  C10 UNL     1      -3.739   7.241  12.628  1.00  0.00     0.362 C 
HETATM   22  O1  UNL     1      -3.177   8.299  12.163  1.00  0.00    -0.238 OA
BRANCH  20  23
HETATM   23  C6  UNL     1      -2.132   7.241  14.483  1.00  0.00     0.133 C 
BRANCH  23  24
HETATM   24  C7  UNL     1      -2.423   8.463  15.268  1.00  0.00     0.004 A 
HETATM   25  C8  UNL     1      -1.897   9.801  15.041  1.00  0.00     0.007 A 
HETATM   26  C9  UNL     1      -1.213   8.977  16.104  1.00  0.00     0.007 A 
ENDBRANCH  23  24
ENDBRANCH  20  23
BRANCH  21  27
HETATM   27  O2  UNL     1      -4.814   6.802  11.868  1.00  0.00    -0.309 OA
HETATM   28  C11 UNL     1      -4.654   6.175  10.604  1.00  0.00     0.215 C 
ENDBRANCH  21  27
ENDBRANCH   3  20
BRANCH   1  29
HETATM   29  C2  UNL     1      -6.457   4.581  16.260  1.00  0.00     0.027 C 
HETATM   30  C1  UNL     1      -6.905   3.471  17.111  1.00  0.00     0.007 C 
ENDBRANCH   1  29
TORSDOF 10
ENDMDL
MODEL 5
REMARK VINA RESULT: -7.075452995      3.121      5.919
REMARK  10 active torsions:
REMARK  status: ('A' for Active; 'I' for Inactive)
REMARK    1  A    between atoms: C2_2  and  C3_3 
REMARK    2  A    between atoms: C5_5  and  N1_6 
REMARK    3  A    between atoms: N1_6  and  C6_7 
REMARK       I    between atoms: N1_6  and  C10_11 
REMARK    4  A    between atoms: C6_7  and  C7_8 
REMARK    5  A    between atoms: C10_11  and  O2_13 
REMARK    6  A    between atoms: C13_16  and  O3_17 
REMARK    7  A    between atoms: O3_17  and  C14_18 
REMARK    8  A    between atoms: C16_21  and  O5_22 
REMARK    9  A    between atoms: C17_24  and  O6_25 
REMARK   10  A    between atoms: C18_27  and  O7_28 
ROOT
HETATM    1  C3  UNL     1      -4.437   5.351  14.675  1.00  0.00     0.126 C 
HETATM    2  C4  UNL     1      -4.139   4.001  15.289  1.00  0.00     0.057 C 
HETATM    3  C5  UNL     1      -4.654   2.880  14.404  1.00  0.00     0.096 C 
HETATM    4  C12 UNL     1      -3.895   3.049  13.106  1.00  0.00     0.086 C 
HETATM    5  C13 UNL     1      -4.474   4.363  12.541  1.00  0.00     0.265 C 
HETATM    6  O8  UNL     1      -4.207   5.427  13.337  1.00  0.00    -0.356 OA
ENDROOT
BRANCH   5   7
HETATM    7  O3  UNL     1      -3.878   4.597  11.306  1.00  0.00    -0.329 OA
BRANCH   7   8
HETATM    8  C14 UNL     1      -2.610   4.067  11.292  1.00  0.00     0.294 C 
HETATM    9  O4  UNL     1      -2.382   3.313  10.117  1.00  0.00    -0.356 OA
HETATM   10  C15 UNL     1      -1.268   2.502  10.407  1.00  0.00     0.205 C 
HETATM   11  C16 UNL     1      -0.051   3.378  10.467  1.00  0.00     0.173 C 
HETATM   12  C17 UNL     1      -0.217   4.421  11.552  1.00  0.00     0.182 C 
HETATM   13  C18 UNL     1      -1.536   5.142  11.289  1.00  0.00     0.204 C 
BRANCH  11  14
HETATM   14  O5  UNL     1       0.151   3.978   9.226  1.00  0.00    -0.391 OA
ATOM     15  H5  UNL     1      -0.360   3.522   8.566  1.00  0.00     0.210 HD
ENDBRANCH  11  14
BRANCH  12  16
HETATM   16  O6  UNL     1      -0.378   3.746  12.761  1.00  0.00    -0.390 OA
ATOM     17  H6  UNL     1      -0.858   4.319  13.346  1.00  0.00     0.210 HD
ENDBRANCH  12  16
BRANCH  13  18
HETATM   18  O7  UNL     1      -1.545   5.749  10.041  1.00  0.00    -0.388 OA
ATOM     19  H7  UNL     1      -0.924   5.289   9.489  1.00  0.00     0.210 HD
ENDBRANCH  13  18
ENDBRANCH   7   8
ENDBRANCH   5   7
BRANCH   3  20
HETATM   20  N1  UNL     1      -4.527   1.609  15.023  1.00  0.00    -0.323 N 
HETATM   21  C10 UNL     1      -4.528   0.419  14.267  1.00  0.00     0.362 C 
HETATM   22  O1  UNL     1      -4.417  -0.721  14.851  1.00  0.00    -0.238 OA
BRANCH  20  23
HETATM   23  C6  UNL     1      -4.378   1.519  16.456  1.00  0.00     0.133 C 
BRANCH  23  24
HETATM   24  C7  UNL     1      -5.571   1.071  17.211  1.00  0.00     0.004 A 
HETATM   25  C8  UNL     1      -6.941   1.537  17.050  1.00  0.00     0.007 A 
HETATM   26  C9  UNL     1      -6.146   2.150  18.176  1.00  0.00     0.007 A 
ENDBRANCH  23  24
ENDBRANCH  20  23
BRANCH  21  27
HETATM   27  O2  UNL     1      -4.643   0.329  12.887  1.00  0.00    -0.309 OA
HETATM   28  C11 UNL     1      -3.969  -0.661  12.124  1.00  0.00     0.215 C 
ENDBRANCH  21  27
ENDBRANCH   3  20
BRANCH   1  29
HETATM   29  C2  UNL     1      -5.698   5.982  15.141  1.00  0.00     0.027 C 
HETATM   30  C1  UNL     1      -6.635   5.190  15.950  1.00  0.00     0.007 C 
ENDBRANCH   1  29
TORSDOF 10
ENDMDL
