MODEL 1
REMARK VINA RESULT: -7.865590946      0.000      0.000
REMARK  7 active torsions:
REMARK  status: ('A' for Active; 'I' for Inactive)
REMARK    1  A    between atoms: C2_2  and  O1_3 
REMARK    2  A    between atoms: O1_3  and  C3_4 
REMARK    3  A    between atoms: C6_8  and  C8_10 
REMARK    4  A    between atoms: C10_14  and  O5_15 
REMARK    5  A    between atoms: O5_15  and  C11_16 
REMARK    6  A    between atoms: C13_19  and  C14_20 
REMARK    7  A    between atoms: C16_25  and  O10_26 
ROOT
HETATM    1  C3  UNL     1      -4.459   4.052  13.648  1.00  0.00     0.144 C 
HETATM    2  C4  UNL     1      -3.365   4.651  14.441  1.00  0.00     0.297 C 
HETATM    3  O2  UNL     1      -2.326   5.117  13.594  1.00  0.00    -0.357 OA
HETATM    4  C5  UNL     1      -1.690   4.030  12.988  1.00  0.00     0.192 C 
HETATM    5  C6  UNL     1      -2.690   3.423  12.029  1.00  0.00     0.075 C 
HETATM    6  C7  UNL     1      -3.107   4.573  11.099  1.00  0.00     0.029 C 
HETATM    7  C9  UNL     1      -3.944   2.954  12.697  1.00  0.00     0.080 C 
HETATM    8  C10 UNL     1      -3.800   1.757  13.580  1.00  0.00     0.164 C 
HETATM    9  C13 UNL     1      -4.376   2.135  14.932  1.00  0.00     0.125 C 
HETATM   10  C15 UNL     1      -3.295   2.726  15.783  1.00  0.00     0.197 C 
HETATM   11  O9  UNL     1      -2.760   3.881  15.383  1.00  0.00    -0.357 OA
HETATM   12  C16 UNL     1      -5.369   3.219  14.523  1.00  0.00     0.182 C 
ENDROOT
BRANCH   5  13
HETATM   13  C8  UNL     1      -2.113   2.384  11.179  1.00  0.00     0.184 C 
HETATM   14  O3  UNL     1      -2.515   2.183  10.017  1.00  0.00    -0.647 OA
HETATM   15  O4  UNL     1      -1.087   1.593  11.669  1.00  0.00    -0.647 OA
ENDBRANCH   5  13
BRANCH   1  16
HETATM   16  O1  UNL     1      -5.113   4.955  12.874  1.00  0.00    -0.372 OA
BRANCH  16  17
HETATM   17  C2  UNL     1      -5.306   6.213  13.355  1.00  0.00     0.164 C 
HETATM   18  C1  UNL     1      -5.485   7.121  12.122  1.00  0.00     0.033 C 
ENDBRANCH  16  17
ENDBRANCH   1  16
BRANCH   8  19
HETATM   19  O5  UNL     1      -4.671   0.733  13.075  1.00  0.00    -0.314 OA
BRANCH  19  20
HETATM   20  C11 UNL     1      -4.480   0.082  11.889  1.00  0.00     0.255 C 
HETATM   21  C12 UNL     1      -3.470  -1.012  11.809  1.00  0.00     0.126 C 
HETATM   22  O6  UNL     1      -5.146   0.403  10.894  1.00  0.00    -0.266 OA
ENDBRANCH  19  20
ENDBRANCH   8  19
BRANCH  12  23
HETATM   23  O10 UNL     1      -5.840   3.915  15.629  1.00  0.00    -0.391 OA
ATOM     24  H10 UNL     1      -6.748   3.720  15.828  1.00  0.00     0.210 HD
ENDBRANCH  12  23
BRANCH   9  25
HETATM   25  C14 UNL     1      -5.055   1.002  15.586  1.00  0.00     0.189 C 
HETATM   26  O7  UNL     1      -6.190   1.117  16.119  1.00  0.00    -0.647 OA
HETATM   27  O8  UNL     1      -4.451  -0.230  15.628  1.00  0.00    -0.647 OA
ENDBRANCH   9  25
TORSDOF 7
ENDMDL
MODEL 2
REMARK VINA RESULT: -7.510980426      1.802      4.560
REMARK  7 active torsions:
REMARK  status: ('A' for Active; 'I' for Inactive)
REMARK    1  A    between atoms: C2_2  and  O1_3 
REMARK    2  A    between atoms: O1_3  and  C3_4 
REMARK    3  A    between atoms: C6_8  and  C8_10 
REMARK    4  A    between atoms: C10_14  and  O5_15 
REMARK    5  A    between atoms: O5_15  and  C11_16 
REMARK    6  A    between atoms: C13_19  and  C14_20 
REMARK    7  A    between atoms: C16_25  and  O10_26 
ROOT
HETATM    1  C3  UNL     1      -2.537   3.579  11.376  1.00  0.00     0.144 C 
HETATM    2  C4  UNL     1      -3.523   3.975  10.349  1.00  0.00     0.297 C 
HETATM    3  O2  UNL     1      -3.961   5.308  10.558  1.00  0.00    -0.357 OA
HETATM    4  C5  UNL     1      -4.715   5.376  11.732  1.00  0.00     0.192 C 
HETATM    5  C6  UNL     1      -3.758   5.130  12.877  1.00  0.00     0.075 C 
HETATM    6  C7  UNL     1      -2.653   6.186  12.714  1.00  0.00     0.029 C 
HETATM    7  C9  UNL     1      -3.074   3.801  12.804  1.00  0.00     0.080 C 
HETATM    8  C10 UNL     1      -3.945   2.610  13.044  1.00  0.00     0.164 C 
HETATM    9  C13 UNL     1      -3.759   1.681  11.859  1.00  0.00     0.125 C 
HETATM   10  C15 UNL     1      -4.757   2.028  10.797  1.00  0.00     0.197 C 
HETATM   11  O9  UNL     1      -4.651   3.227  10.223  1.00  0.00    -0.357 OA
HETATM   12  C16 UNL     1      -2.357   2.078  11.407  1.00  0.00     0.182 C 
ENDROOT
BRANCH   5  13
HETATM   13  C8  UNL     1      -4.361   5.353  14.189  1.00  0.00     0.184 C 
HETATM   14  O3  UNL     1      -3.673   5.469  15.221  1.00  0.00    -0.647 OA
HETATM   15  O4  UNL     1      -5.739   5.440  14.301  1.00  0.00    -0.647 OA
ENDBRANCH   5  13
BRANCH   1  16
HETATM   16  O1  UNL     1      -1.373   4.272  11.293  1.00  0.00    -0.372 OA
BRANCH  16  17
HETATM   17  C2  UNL     1      -0.228   3.690  11.741  1.00  0.00     0.164 C 
HETATM   18  C1  UNL     1       0.865   4.043  10.713  1.00  0.00     0.033 C 
ENDBRANCH  16  17
ENDBRANCH   1  16
BRANCH   8  19
HETATM   19  O5  UNL     1      -3.408   1.895  14.168  1.00  0.00    -0.314 OA
BRANCH  19  20
HETATM   20  C11 UNL     1      -3.907   1.976  15.437  1.00  0.00     0.255 C 
HETATM   21  C12 UNL     1      -5.364   2.228  15.636  1.00  0.00     0.126 C 
HETATM   22  O6  UNL     1      -3.150   1.838  16.409  1.00  0.00    -0.266 OA
ENDBRANCH  19  20
ENDBRANCH   8  19
BRANCH  12  23
HETATM   23  O10 UNL     1      -2.059   1.544  10.159  1.00  0.00    -0.391 OA
ATOM     24  H10 UNL     1      -1.159   1.699   9.897  1.00  0.00     0.210 HD
ENDBRANCH  12  23
BRANCH   9  25
HETATM   25  C14 UNL     1      -3.818   0.261  12.249  1.00  0.00     0.189 C 
HETATM   26  O7  UNL     1      -4.672  -0.175  13.066  1.00  0.00    -0.647 OA
HETATM   27  O8  UNL     1      -2.925  -0.636  11.718  1.00  0.00    -0.647 OA
ENDBRANCH   9  25
TORSDOF 7
ENDMDL
MODEL 3
REMARK VINA RESULT: -7.077149648      1.269      1.585
REMARK  7 active torsions:
REMARK  status: ('A' for Active; 'I' for Inactive)
REMARK    1  A    between atoms: C2_2  and  O1_3 
REMARK    2  A    between atoms: O1_3  and  C3_4 
REMARK    3  A    between atoms: C6_8  and  C8_10 
REMARK    4  A    between atoms: C10_14  and  O5_15 
REMARK    5  A    between atoms: O5_15  and  C11_16 
REMARK    6  A    between atoms: C13_19  and  C14_20 
REMARK    7  A    between atoms: C16_25  and  O10_26 
ROOT
HETATM    1  C3  UNL     1      -3.880   5.064  12.834  1.00  0.00     0.144 C 
HETATM    2  C4  UNL     1      -2.657   5.676  13.395  1.00  0.00     0.297 C 
HETATM    3  O2  UNL     1      -1.604   5.660  12.443  1.00  0.00    -0.357 OA
HETATM    4  C5  UNL     1      -1.197   4.342  12.216  1.00  0.00     0.192 C 
HETATM    5  C6  UNL     1      -2.337   3.654  11.500  1.00  0.00     0.075 C 
HETATM    6  C7  UNL     1      -2.606   4.509  10.252  1.00  0.00     0.029 C 
HETATM    7  C9  UNL     1      -3.613   3.650  12.283  1.00  0.00     0.080 C 
HETATM    8  C10 UNL     1      -3.623   2.785  13.502  1.00  0.00     0.164 C 
HETATM    9  C13 UNL     1      -4.050   3.665  14.663  1.00  0.00     0.125 C 
HETATM   10  C15 UNL     1      -2.837   4.290  15.281  1.00  0.00     0.197 C 
HETATM   11  O9  UNL     1      -2.139   5.146  14.533  1.00  0.00    -0.357 OA
HETATM   12  C16 UNL     1      -4.866   4.723  13.929  1.00  0.00     0.182 C 
ENDROOT
BRANCH   5  13
HETATM   13  C8  UNL     1      -1.993   2.315  11.026  1.00  0.00     0.184 C 
HETATM   14  O3  UNL     1      -2.504   1.827  10.000  1.00  0.00    -0.647 OA
HETATM   15  O4  UNL     1      -1.072   1.557  11.730  1.00  0.00    -0.647 OA
ENDBRANCH   5  13
BRANCH   1  16
HETATM   16  O1  UNL     1      -4.415   5.780  11.813  1.00  0.00    -0.372 OA
BRANCH  16  17
HETATM   17  C2  UNL     1      -4.478   7.134  11.923  1.00  0.00     0.164 C 
HETATM   18  C1  UNL     1      -5.952   7.516  11.682  1.00  0.00     0.033 C 
ENDBRANCH  16  17
ENDBRANCH   1  16
BRANCH   8  19
HETATM   19  O5  UNL     1      -4.682   1.827  13.349  1.00  0.00    -0.314 OA
BRANCH  19  20
HETATM   20  C11 UNL     1      -4.497   0.473  13.352  1.00  0.00     0.255 C 
HETATM   21  C12 UNL     1      -4.160  -0.222  12.077  1.00  0.00     0.126 C 
HETATM   22  O6  UNL     1      -4.609  -0.163  14.411  1.00  0.00    -0.266 OA
ENDBRANCH  19  20
ENDBRANCH   8  19
BRANCH  12  23
HETATM   23  O10 UNL     1      -5.150   5.805  14.755  1.00  0.00    -0.391 OA
ATOM     24  H10 UNL     1      -5.680   5.565  15.506  1.00  0.00     0.210 HD
ENDBRANCH  12  23
BRANCH   9  25
HETATM   25  C14 UNL     1      -4.872   2.934  15.643  1.00  0.00     0.189 C 
HETATM   26  O7  UNL     1      -6.128   3.014  15.658  1.00  0.00    -0.647 OA
HETATM   27  O8  UNL     1      -4.272   2.132  16.583  1.00  0.00    -0.647 OA
ENDBRANCH   9  25
TORSDOF 7
ENDMDL
MODEL 4
REMARK VINA RESULT: -6.925100565      1.634      4.434
REMARK  7 active torsions:
REMARK  status: ('A' for Active; 'I' for Inactive)
REMARK    1  A    between atoms: C2_2  and  O1_3 
REMARK    2  A    between atoms: O1_3  and  C3_4 
REMARK    3  A    between atoms: C6_8  and  C8_10 
REMARK    4  A    between atoms: C10_14  and  O5_15 
REMARK    5  A    between atoms: O5_15  and  C11_16 
REMARK    6  A    between atoms: C13_19  and  C14_20 
REMARK    7  A    between atoms: C16_25  and  O10_26 
ROOT
HETATM    1  C3  UNL     1      -2.528   5.331  13.099  1.00  0.00     0.144 C 
HETATM    2  C4  UNL     1      -3.205   6.186  12.102  1.00  0.00     0.297 C 
HETATM    3  O2  UNL     1      -4.266   6.914  12.701  1.00  0.00    -0.357 OA
HETATM    4  C5  UNL     1      -5.285   6.036  13.076  1.00  0.00     0.192 C 
HETATM    5  C6  UNL     1      -4.739   5.199  14.212  1.00  0.00     0.075 C 
HETATM    6  C7  UNL     1      -4.284   6.210  15.276  1.00  0.00     0.029 C 
HETATM    7  C9  UNL     1      -3.521   4.414  13.838  1.00  0.00     0.080 C 
HETATM    8  C10 UNL     1      -3.745   3.287  12.882  1.00  0.00     0.164 C 
HETATM    9  C13 UNL     1      -2.779   3.489  11.730  1.00  0.00     0.125 C 
HETATM   10  C15 UNL     1      -3.432   4.333  10.678  1.00  0.00     0.197 C 
HETATM   11  O9  UNL     1      -3.736   5.590  11.002  1.00  0.00    -0.357 OA
HETATM   12  C16 UNL     1      -1.675   4.281  12.423  1.00  0.00     0.182 C 
ENDROOT
BRANCH   5  13
HETATM   13  C8  UNL     1      -5.752   4.354  14.841  1.00  0.00     0.184 C 
HETATM   14  O3  UNL     1      -6.860   4.145  14.311  1.00  0.00    -0.647 OA
HETATM   15  O4  UNL     1      -5.483   3.762  16.065  1.00  0.00    -0.647 OA
ENDBRANCH   5  13
BRANCH   1  16
HETATM   16  O1  UNL     1      -1.876   6.040  14.055  1.00  0.00    -0.372 OA
BRANCH  16  17
HETATM   17  C2  UNL     1      -1.188   7.155  13.690  1.00  0.00     0.164 C 
HETATM   18  C1  UNL     1      -1.489   8.217  14.765  1.00  0.00     0.033 C 
ENDBRANCH  16  17
ENDBRANCH   1  16
BRANCH   8  19
HETATM   19  O5  UNL     1      -3.315   2.076  13.524  1.00  0.00    -0.314 OA
BRANCH  19  20
HETATM   20  C11 UNL     1      -4.149   1.048  13.859  1.00  0.00     0.255 C 
HETATM   21  C12 UNL     1      -4.429   0.771  15.297  1.00  0.00     0.126 C 
HETATM   22  O6  UNL     1      -4.666   0.357  12.968  1.00  0.00    -0.266 OA
ENDBRANCH  19  20
ENDBRANCH   8  19
BRANCH  12  23
HETATM   23  O10 UNL     1      -0.785   4.820  11.501  1.00  0.00    -0.391 OA
ATOM     24  H10 UNL     1      -1.192   5.455  10.924  1.00  0.00     0.210 HD
ENDBRANCH  12  23
BRANCH   9  25
HETATM   25  C14 UNL     1      -2.272   2.212  11.196  1.00  0.00     0.189 C 
HETATM   26  O7  UNL     1      -2.929   1.522  10.372  1.00  0.00    -0.647 OA
HETATM   27  O8  UNL     1      -1.048   1.736  11.595  1.00  0.00    -0.647 OA
ENDBRANCH   9  25
TORSDOF 7
ENDMDL
MODEL 5
REMARK VINA RESULT: -6.844870151      1.322      1.829
REMARK  7 active torsions:
REMARK  status: ('A' for Active; 'I' for Inactive)
REMARK    1  A    between atoms: C2_2  and  O1_3 
REMARK    2  A    between atoms: O1_3  and  C3_4 
REMARK    3  A    between atoms: C6_8  and  C8_10 
REMARK    4  A    between atoms: C10_14  and  O5_15 
REMARK    5  A    between atoms: O5_15  and  C11_16 
REMARK    6  A    between atoms: C13_19  and  C14_20 
REMARK    7  A    between atoms: C16_25  and  O10_26 
ROOT
HETATM    1  C3  UNL     1      -3.377   5.503  12.630  1.00  0.00     0.144 C 
HETATM    2  C4  UNL     1      -2.270   5.783  13.567  1.00  0.00     0.297 C 
HETATM    3  O2  UNL     1      -1.018   5.718  12.902  1.00  0.00    -0.357 OA
HETATM    4  C5  UNL     1      -0.756   4.399  12.523  1.00  0.00     0.192 C 
HETATM    5  C6  UNL     1      -1.755   4.053  11.441  1.00  0.00     0.075 C 
HETATM    6  C7  UNL     1      -1.564   5.125  10.356  1.00  0.00     0.029 C 
HETATM    7  C9  UNL     1      -3.179   4.166  11.890  1.00  0.00     0.080 C 
HETATM    8  C10 UNL     1      -3.630   3.141  12.879  1.00  0.00     0.164 C 
HETATM    9  C13 UNL     1      -4.216   3.895  14.059  1.00  0.00     0.125 C 
HETATM   10  C15 UNL     1      -3.132   4.181  15.052  1.00  0.00     0.197 C 
HETATM   11  O9  UNL     1      -2.148   4.997  14.669  1.00  0.00    -0.357 OA
HETATM   12  C16 UNL     1      -4.654   5.188  13.377  1.00  0.00     0.182 C 
ENDROOT
BRANCH   5  13
HETATM   13  C8  UNL     1      -1.493   2.763  10.807  1.00  0.00     0.184 C 
HETATM   14  O3  UNL     1      -1.710   2.566   9.596  1.00  0.00    -0.647 OA
HETATM   15  O4  UNL     1      -0.986   1.720  11.565  1.00  0.00    -0.647 OA
ENDBRANCH   5  13
BRANCH   1  16
HETATM   16  O1  UNL     1      -3.519   6.455  11.673  1.00  0.00    -0.372 OA
BRANCH  16  17
HETATM   17  C2  UNL     1      -4.731   6.608  11.074  1.00  0.00     0.164 C 
HETATM   18  C1  UNL     1      -5.091   8.101  11.209  1.00  0.00     0.033 C 
ENDBRANCH  16  17
ENDBRANCH   1  16
BRANCH   8  19
HETATM   19  O5  UNL     1      -4.737   2.432  12.301  1.00  0.00    -0.314 OA
BRANCH  19  20
HETATM   20  C11 UNL     1      -4.617   1.263  11.604  1.00  0.00     0.255 C 
HETATM   21  C12 UNL     1      -4.261   0.011  12.331  1.00  0.00     0.126 C 
HETATM   22  O6  UNL     1      -4.805   1.253  10.378  1.00  0.00    -0.266 OA
ENDBRANCH  19  20
ENDBRANCH   8  19
BRANCH  12  23
HETATM   23  O10 UNL     1      -4.987   6.163  14.310  1.00  0.00    -0.391 OA
ATOM     24  H10 UNL     1      -4.508   6.072  15.125  1.00  0.00     0.210 HD
ENDBRANCH  12  23
BRANCH   9  25
HETATM   25  C14 UNL     1      -5.361   3.188  14.659  1.00  0.00     0.189 C 
HETATM   26  O7  UNL     1      -6.540   3.620  14.565  1.00  0.00    -0.647 OA
HETATM   27  O8  UNL     1      -5.163   2.019  15.350  1.00  0.00    -0.647 OA
ENDBRANCH   9  25
TORSDOF 7
ENDMDL
