MODEL 1
REMARK VINA RESULT: -8.482169739      0.000      0.000
REMARK  9 active torsions:
REMARK  status: ('A' for Active; 'I' for Inactive)
REMARK    1  A    between atoms: C2_2  and  C3_3 
REMARK    2  A    between atoms: C3_3  and  C5_5 
REMARK    3  A    between atoms: C5_5  and  O2_7 
REMARK    4  A    between atoms: O2_7  and  C6_8 
REMARK    5  A    between atoms: C9_12  and  C10_13 
REMARK    6  A    between atoms: C10_13  and  C11_15 
REMARK    7  A    between atoms: C13_17  and  C15_19 
REMARK    8  A    between atoms: C16_23  and  O8_24 
REMARK    9  A    between atoms: C17_26  and  O9_27 
ROOT
HETATM    1  C6  UNL     1      -4.711   2.733  13.805  1.00  0.00     0.191 C 
HETATM    2  C7  UNL     1      -3.725   3.873  13.611  1.00  0.00     0.150 C 
HETATM    3  C8  UNL     1      -3.252   4.267  15.001  1.00  0.00     0.042 C 
HETATM    4  O3  UNL     1      -2.610   3.410  12.922  1.00  0.00    -0.368 OA
HETATM    5  C9  UNL     1      -2.910   2.812  11.728  1.00  0.00     0.225 C 
HETATM    6  C16 UNL     1      -4.386   2.859  11.394  1.00  0.00     0.185 C 
HETATM    7  C17 UNL     1      -5.119   2.120  12.490  1.00  0.00     0.181 C 
ENDROOT
BRANCH   5   8
HETATM    8  C10 UNL     1      -2.080   3.407  10.661  1.00  0.00     0.186 C 
HETATM    9  O4  UNL     1      -2.617   3.929   9.712  1.00  0.00    -0.292 OA
BRANCH   8  10
HETATM   10  C11 UNL     1      -0.607   3.372  10.741  1.00  0.00     0.199 C 
HETATM   11  C12 UNL     1       0.023   4.572  11.414  1.00  0.00     0.089 C 
HETATM   12  C13 UNL     1       0.853   4.588  10.136  1.00  0.00     0.148 C 
HETATM   13  C14 UNL     1       0.801   5.937   9.426  1.00  0.00     0.058 C 
HETATM   14  O7  UNL     1       0.068   3.607   9.564  1.00  0.00    -0.356 OA
BRANCH  12  15
HETATM   15  C15 UNL     1       2.266   4.181  10.387  1.00  0.00     0.209 C 
HETATM   16  O5  UNL     1       2.768   4.499  11.494  1.00  0.00    -0.646 OA
HETATM   17  O6  UNL     1       3.025   3.482   9.466  1.00  0.00    -0.646 OA
ENDBRANCH  12  15
ENDBRANCH   8  10
ENDBRANCH   5   8
BRANCH   6  18
HETATM   18  O8  UNL     1      -4.576   2.170  10.208  1.00  0.00    -0.390 OA
ATOM     19  H8  UNL     1      -5.505   1.994  10.118  1.00  0.00     0.210 HD
ENDBRANCH   6  18
BRANCH   7  20
HETATM   20  O9  UNL     1      -4.848   0.776  12.398  1.00  0.00    -0.390 OA
ATOM     21  H9  UNL     1      -4.641   0.487  11.517  1.00  0.00     0.210 HD
ENDBRANCH   7  20
BRANCH   1  22
HETATM   22  O2  UNL     1      -4.067   1.813  14.661  1.00  0.00    -0.310 OA
BRANCH  22  23
HETATM   23  C5  UNL     1      -4.729   1.052  15.607  1.00  0.00     0.263 C 
HETATM   24  O1  UNL     1      -4.733  -0.189  15.428  1.00  0.00    -0.265 OA
BRANCH  23  25
HETATM   25  C3  UNL     1      -5.414   1.628  16.786  1.00  0.00     0.081 C 
HETATM   26  C4  UNL     1      -5.858   0.522  17.726  1.00  0.00     0.020 C 
BRANCH  25  27
HETATM   27  C2  UNL     1      -6.599   2.424  16.298  1.00  0.00     0.010 C 
HETATM   28  C1  UNL     1      -6.849   3.648  17.152  1.00  0.00     0.006 C 
ENDBRANCH  25  27
ENDBRANCH  23  25
ENDBRANCH  22  23
ENDBRANCH   1  22
TORSDOF 9
ENDMDL
MODEL 2
REMARK VINA RESULT: -8.368952356      0.642      1.163
REMARK  9 active torsions:
REMARK  status: ('A' for Active; 'I' for Inactive)
REMARK    1  A    between atoms: C2_2  and  C3_3 
REMARK    2  A    between atoms: C3_3  and  C5_5 
REMARK    3  A    between atoms: C5_5  and  O2_7 
REMARK    4  A    between atoms: O2_7  and  C6_8 
REMARK    5  A    between atoms: C9_12  and  C10_13 
REMARK    6  A    between atoms: C10_13  and  C11_15 
REMARK    7  A    between atoms: C13_17  and  C15_19 
REMARK    8  A    between atoms: C16_23  and  O8_24 
REMARK    9  A    between atoms: C17_26  and  O9_27 
ROOT
HETATM    1  C6  UNL     1      -4.568   2.826  13.828  1.00  0.00     0.191 C 
HETATM    2  C7  UNL     1      -3.546   3.927  13.602  1.00  0.00     0.150 C 
HETATM    3  C8  UNL     1      -3.017   4.305  14.976  1.00  0.00     0.042 C 
HETATM    4  O3  UNL     1      -2.470   3.422  12.881  1.00  0.00    -0.368 OA
HETATM    5  C9  UNL     1      -2.827   2.835  11.697  1.00  0.00     0.225 C 
HETATM    6  C16 UNL     1      -4.310   2.937  11.407  1.00  0.00     0.185 C 
HETATM    7  C17 UNL     1      -5.038   2.227  12.526  1.00  0.00     0.181 C 
ENDROOT
BRANCH   5   8
HETATM    8  C10 UNL     1      -2.008   3.398  10.605  1.00  0.00     0.186 C 
HETATM    9  O4  UNL     1      -2.554   3.841   9.621  1.00  0.00    -0.292 OA
BRANCH   8  10
HETATM   10  C11 UNL     1      -0.537   3.424  10.700  1.00  0.00     0.199 C 
HETATM   11  C12 UNL     1       0.059   4.784  10.996  1.00  0.00     0.089 C 
HETATM   12  C13 UNL     1       0.904   4.445   9.775  1.00  0.00     0.148 C 
HETATM   13  C14 UNL     1       0.833   5.525   8.700  1.00  0.00     0.058 C 
HETATM   14  O7  UNL     1       0.149   3.320   9.510  1.00  0.00    -0.356 OA
BRANCH  12  15
HETATM   15  C15 UNL     1       2.323   4.164  10.143  1.00  0.00     0.209 C 
HETATM   16  O5  UNL     1       3.029   3.568   9.292  1.00  0.00    -0.646 OA
HETATM   17  O6  UNL     1       2.874   4.530  11.357  1.00  0.00    -0.646 OA
ENDBRANCH  12  15
ENDBRANCH   8  10
ENDBRANCH   5   8
BRANCH   6  18
HETATM   18  O8  UNL     1      -4.561   2.254  10.229  1.00  0.00    -0.390 OA
ATOM     19  H8  UNL     1      -3.747   1.861   9.939  1.00  0.00     0.210 HD
ENDBRANCH   6  18
BRANCH   7  20
HETATM   20  O9  UNL     1      -4.820   0.873  12.429  1.00  0.00    -0.390 OA
ATOM     21  H9  UNL     1      -3.920   0.644  12.232  1.00  0.00     0.210 HD
ENDBRANCH   7  20
BRANCH   1  22
HETATM   22  O2  UNL     1      -3.933   1.882  14.665  1.00  0.00    -0.310 OA
BRANCH  22  23
HETATM   23  C5  UNL     1      -4.443   1.474  15.884  1.00  0.00     0.263 C 
HETATM   24  O1  UNL     1      -3.633   0.947  16.683  1.00  0.00    -0.265 OA
BRANCH  23  25
HETATM   25  C3  UNL     1      -5.864   1.627  16.269  1.00  0.00     0.081 C 
HETATM   26  C4  UNL     1      -6.243   3.097  16.296  1.00  0.00     0.020 C 
BRANCH  25  27
HETATM   27  C2  UNL     1      -6.052   1.000  17.628  1.00  0.00     0.010 C 
HETATM   28  C1  UNL     1      -6.250   2.040  18.709  1.00  0.00     0.006 C 
ENDBRANCH  25  27
ENDBRANCH  23  25
ENDBRANCH  22  23
ENDBRANCH   1  22
TORSDOF 9
ENDMDL
MODEL 3
REMARK VINA RESULT: -8.064287686      1.119      1.389
REMARK  9 active torsions:
REMARK  status: ('A' for Active; 'I' for Inactive)
REMARK    1  A    between atoms: C2_2  and  C3_3 
REMARK    2  A    between atoms: C3_3  and  C5_5 
REMARK    3  A    between atoms: C5_5  and  O2_7 
REMARK    4  A    between atoms: O2_7  and  C6_8 
REMARK    5  A    between atoms: C9_12  and  C10_13 
REMARK    6  A    between atoms: C10_13  and  C11_15 
REMARK    7  A    between atoms: C13_17  and  C15_19 
REMARK    8  A    between atoms: C16_23  and  O8_24 
REMARK    9  A    between atoms: C17_26  and  O9_27 
ROOT
HETATM    1  C6  UNL     1      -4.264   2.826  13.302  1.00  0.00     0.191 C 
HETATM    2  C7  UNL     1      -3.778   4.149  12.734  1.00  0.00     0.150 C 
HETATM    3  C8  UNL     1      -3.807   5.141  13.886  1.00  0.00     0.042 C 
HETATM    4  O3  UNL     1      -2.451   4.027  12.341  1.00  0.00    -0.368 OA
HETATM    5  C9  UNL     1      -2.230   3.004  11.458  1.00  0.00     0.225 C 
HETATM    6  C16 UNL     1      -3.499   2.285  11.052  1.00  0.00     0.185 C 
HETATM    7  C17 UNL     1      -4.108   1.703  12.307  1.00  0.00     0.181 C 
ENDROOT
BRANCH   5   8
HETATM    8  C10 UNL     1      -1.485   3.518  10.290  1.00  0.00     0.186 C 
HETATM    9  O4  UNL     1      -2.094   3.991   9.360  1.00  0.00    -0.292 OA
BRANCH   8  10
HETATM   10  C11 UNL     1      -0.012   3.461  10.249  1.00  0.00     0.199 C 
HETATM   11  C12 UNL     1       0.687   4.243  11.340  1.00  0.00     0.089 C 
HETATM   12  C13 UNL     1       1.436   4.827  10.148  1.00  0.00     0.148 C 
HETATM   13  C14 UNL     1       1.373   6.351  10.111  1.00  0.00     0.058 C 
HETATM   14  O7  UNL     1       0.594   4.196   9.254  1.00  0.00    -0.356 OA
BRANCH  12  15
HETATM   15  C15 UNL     1       2.852   4.360  10.099  1.00  0.00     0.209 C 
HETATM   16  O5  UNL     1       3.668   4.920  10.872  1.00  0.00    -0.646 OA
HETATM   17  O6  UNL     1       3.287   3.356   9.254  1.00  0.00    -0.646 OA
ENDBRANCH  12  15
ENDBRANCH   8  10
ENDBRANCH   5   8
BRANCH   6  18
HETATM   18  O8  UNL     1      -3.147   1.238  10.218  1.00  0.00    -0.390 OA
ATOM     19  H8  UNL     1      -2.275   0.951  10.461  1.00  0.00     0.210 HD
ENDBRANCH   6  18
BRANCH   7  20
HETATM   20  O9  UNL     1      -3.326   0.668  12.759  1.00  0.00    -0.390 OA
ATOM     21  H9  UNL     1      -2.837   0.230  12.072  1.00  0.00     0.210 HD
ENDBRANCH   7  20
BRANCH   1  22
HETATM   22  O2  UNL     1      -3.515   2.618  14.481  1.00  0.00    -0.310 OA
BRANCH  22  23
HETATM   23  C5  UNL     1      -4.055   2.128  15.656  1.00  0.00     0.263 C 
HETATM   24  O1  UNL     1      -3.245   1.690  16.506  1.00  0.00    -0.265 OA
BRANCH  23  25
HETATM   25  C3  UNL     1      -5.508   2.098  15.939  1.00  0.00     0.081 C 
HETATM   26  C4  UNL     1      -6.004   3.492  16.278  1.00  0.00     0.020 C 
BRANCH  25  27
HETATM   27  C2  UNL     1      -5.743   1.150  17.088  1.00  0.00     0.010 C 
HETATM   28  C1  UNL     1      -7.207   1.062  17.460  1.00  0.00     0.006 C 
ENDBRANCH  25  27
ENDBRANCH  23  25
ENDBRANCH  22  23
ENDBRANCH   1  22
TORSDOF 9
ENDMDL
MODEL 4
REMARK VINA RESULT: -8.063163899      1.107      1.401
REMARK  9 active torsions:
REMARK  status: ('A' for Active; 'I' for Inactive)
REMARK    1  A    between atoms: C2_2  and  C3_3 
REMARK    2  A    between atoms: C3_3  and  C5_5 
REMARK    3  A    between atoms: C5_5  and  O2_7 
REMARK    4  A    between atoms: O2_7  and  C6_8 
REMARK    5  A    between atoms: C9_12  and  C10_13 
REMARK    6  A    between atoms: C10_13  and  C11_15 
REMARK    7  A    between atoms: C13_17  and  C15_19 
REMARK    8  A    between atoms: C16_23  and  O8_24 
REMARK    9  A    between atoms: C17_26  and  O9_27 
ROOT
HETATM    1  C6  UNL     1      -4.582   2.637  13.830  1.00  0.00     0.191 C 
HETATM    2  C7  UNL     1      -3.546   3.732  13.639  1.00  0.00     0.150 C 
HETATM    3  C8  UNL     1      -3.155   4.196  15.033  1.00  0.00     0.042 C 
HETATM    4  O3  UNL     1      -2.403   3.194  13.059  1.00  0.00    -0.368 OA
HETATM    5  C9  UNL     1      -2.641   2.534  11.883  1.00  0.00     0.225 C 
HETATM    6  C16 UNL     1      -4.088   2.606  11.444  1.00  0.00     0.185 C 
HETATM    7  C17 UNL     1      -4.920   1.958  12.527  1.00  0.00     0.181 C 
ENDROOT
BRANCH   5   8
HETATM    8  C10 UNL     1      -1.720   3.037  10.844  1.00  0.00     0.186 C 
HETATM    9  O4  UNL     1      -1.644   2.456   9.787  1.00  0.00    -0.292 OA
BRANCH   8  10
HETATM   10  C11 UNL     1      -0.894   4.236  11.083  1.00  0.00     0.199 C 
HETATM   11  C12 UNL     1      -0.348   4.892   9.832  1.00  0.00     0.089 C 
HETATM   12  C13 UNL     1       0.964   4.769  10.597  1.00  0.00     0.148 C 
HETATM   13  C14 UNL     1       2.039   4.039   9.797  1.00  0.00     0.058 C 
HETATM   14  O7  UNL     1       0.369   4.011  11.584  1.00  0.00    -0.356 OA
BRANCH  12  15
HETATM   15  C15 UNL     1       1.465   6.098  11.055  1.00  0.00     0.209 C 
HETATM   16  O5  UNL     1       2.215   6.731  10.271  1.00  0.00    -0.646 OA
HETATM   17  O6  UNL     1       1.140   6.644  12.283  1.00  0.00    -0.646 OA
ENDBRANCH  12  15
ENDBRANCH   8  10
ENDBRANCH   5   8
BRANCH   6  18
HETATM   18  O8  UNL     1      -4.221   1.852  10.290  1.00  0.00    -0.390 OA
ATOM     19  H8  UNL     1      -4.899   1.204  10.440  1.00  0.00     0.210 HD
ENDBRANCH   6  18
BRANCH   7  20
HETATM   20  O9  UNL     1      -4.691   0.603  12.534  1.00  0.00    -0.390 OA
ATOM     21  H9  UNL     1      -4.590   0.237  13.405  1.00  0.00     0.210 HD
ENDBRANCH   7  20
BRANCH   1  22
HETATM   22  O2  UNL     1      -4.030   1.751  14.781  1.00  0.00    -0.310 OA
BRANCH  22  23
HETATM   23  C5  UNL     1      -4.783   1.057  15.710  1.00  0.00     0.263 C 
HETATM   24  O1  UNL     1      -4.880  -0.182  15.542  1.00  0.00    -0.265 OA
BRANCH  23  25
HETATM   25  C3  UNL     1      -5.462   1.700  16.859  1.00  0.00     0.081 C 
HETATM   26  C4  UNL     1      -5.890   0.649  17.868  1.00  0.00     0.020 C 
BRANCH  25  27
HETATM   27  C2  UNL     1      -6.656   2.458  16.334  1.00  0.00     0.010 C 
HETATM   28  C1  UNL     1      -6.860   3.767  17.065  1.00  0.00     0.006 C 
ENDBRANCH  25  27
ENDBRANCH  23  25
ENDBRANCH  22  23
ENDBRANCH   1  22
TORSDOF 9
ENDMDL
MODEL 5
REMARK VINA RESULT: -7.995314070      3.309      7.554
REMARK  9 active torsions:
REMARK  status: ('A' for Active; 'I' for Inactive)
REMARK    1  A    between atoms: C2_2  and  C3_3 
REMARK    2  A    between atoms: C3_3  and  C5_5 
REMARK    3  A    between atoms: C5_5  and  O2_7 
REMARK    4  A    between atoms: O2_7  and  C6_8 
REMARK    5  A    between atoms: C9_12  and  C10_13 
REMARK    6  A    between atoms: C10_13  and  C11_15 
REMARK    7  A    between atoms: C13_17  and  C15_19 
REMARK    8  A    between atoms: C16_23  and  O8_24 
REMARK    9  A    between atoms: C17_26  and  O9_27 
ROOT
HETATM    1  C6  UNL     1      -3.830   5.558  11.177  1.00  0.00     0.191 C 
HETATM    2  C7  UNL     1      -3.253   6.009  12.508  1.00  0.00     0.150 C 
HETATM    3  C8  UNL     1      -3.512   7.505  12.599  1.00  0.00     0.042 C 
HETATM    4  O3  UNL     1      -3.960   5.415  13.547  1.00  0.00    -0.368 OA
HETATM    5  C9  UNL     1      -4.006   4.049  13.471  1.00  0.00     0.225 C 
HETATM    6  C16 UNL     1      -3.210   3.492  12.310  1.00  0.00     0.185 C 
HETATM    7  C17 UNL     1      -3.807   4.057  11.041  1.00  0.00     0.181 C 
ENDROOT
BRANCH   5   8
HETATM    8  C10 UNL     1      -3.582   3.472  14.763  1.00  0.00     0.186 C 
HETATM    9  O4  UNL     1      -2.583   3.891  15.300  1.00  0.00    -0.292 OA
BRANCH   8  10
HETATM   10  C11 UNL     1      -4.361   2.396  15.402  1.00  0.00     0.199 C 
HETATM   11  C12 UNL     1      -5.838   2.394  15.069  1.00  0.00     0.089 C 
HETATM   12  C13 UNL     1      -5.964   2.347  16.587  1.00  0.00     0.148 C 
HETATM   13  C14 UNL     1      -6.839   3.472  17.133  1.00  0.00     0.058 C 
HETATM   14  O7  UNL     1      -4.607   2.545  16.749  1.00  0.00    -0.356 OA
BRANCH  12  15
HETATM   15  C15 UNL     1      -6.457   1.022  17.062  1.00  0.00     0.209 C 
HETATM   16  O5  UNL     1      -7.672   0.938  17.372  1.00  0.00    -0.646 OA
HETATM   17  O6  UNL     1      -5.644  -0.092  17.169  1.00  0.00    -0.646 OA
ENDBRANCH  12  15
ENDBRANCH   8  10
ENDBRANCH   5   8
BRANCH   6  18
HETATM   18  O8  UNL     1      -3.385   2.118  12.294  1.00  0.00    -0.390 OA
ATOM     19  H8  UNL     1      -4.063   1.917  11.660  1.00  0.00     0.210 HD
ENDBRANCH   6  18
BRANCH   7  20
HETATM   20  O9  UNL     1      -5.047   3.501  10.830  1.00  0.00    -0.390 OA
ATOM     21  H9  UNL     1      -5.158   3.133   9.962  1.00  0.00     0.210 HD
ENDBRANCH   7  20
BRANCH   1  22
HETATM   22  O2  UNL     1      -5.137   6.091  11.128  1.00  0.00    -0.310 OA
BRANCH  22  23
HETATM   23  C5  UNL     1      -5.644   6.780  10.041  1.00  0.00     0.263 C 
HETATM   24  O1  UNL     1      -5.218   6.439   8.912  1.00  0.00    -0.265 OA
BRANCH  23  25
HETATM   25  C3  UNL     1      -6.637   7.872  10.155  1.00  0.00     0.081 C 
HETATM   26  C4  UNL     1      -7.131   7.984  11.586  1.00  0.00     0.020 C 
BRANCH  25  27
HETATM   27  C2  UNL     1      -7.778   7.568   9.216  1.00  0.00     0.010 C 
HETATM   28  C1  UNL     1      -8.368   8.827   8.616  1.00  0.00     0.006 C 
ENDBRANCH  25  27
ENDBRANCH  23  25
ENDBRANCH  22  23
ENDBRANCH   1  22
TORSDOF 9
ENDMDL
