MODEL 1
REMARK VINA RESULT: -6.540712677      0.000      0.000
REMARK  10 active torsions:
REMARK  status: ('A' for Active; 'I' for Inactive)
REMARK    1  A    between atoms: O1_2  and  C2_3 
REMARK    2  A    between atoms: C2_3  and  C3_5 
REMARK    3  A    between atoms: C4_7  and  N1_8 
REMARK    4  A    between atoms: N1_8  and  C5_10 
REMARK    5  A    between atoms: C5_10  and  C6_11 
REMARK    6  A    between atoms: C5_10  and  C7_13 
REMARK    7  A    between atoms: C7_13  and  O4_14 
REMARK    8  A    between atoms: C7_13  and  N2_16 
REMARK    9  A    between atoms: C9_18  and  C10_19 
REMARK   10  A    between atoms: C10_19  and  O5_20 
ROOT
HETATM    1  N1  UNL     1      -2.447   2.729  12.348  1.00  0.00    -0.394 N 
ATOM      2  H1  UNL     1      -1.731   2.069  12.648  1.00  0.00     0.155 HD
ENDROOT
BRANCH   1   3
HETATM    3  C4  UNL     1      -2.088   4.043  12.395  1.00  0.00     0.154 C 
HETATM    4  S1  UNL     1      -3.344   4.921  11.316  1.00  0.00    -0.128 SA
HETATM    5  C3  UNL     1      -3.706   6.299  12.465  1.00  0.00     0.154 C 
HETATM    6  C15 UNL     1      -3.293   5.678  13.770  1.00  0.00     0.026 C 
HETATM    7  C12 UNL     1      -2.001   4.943  13.496  1.00  0.00     0.085 C 
HETATM    8  C14 UNL     1      -2.904   6.797  14.712  1.00  0.00     0.017 C 
HETATM    9  S2  UNL     1      -1.046   6.453  12.932  1.00  0.00    -0.161 SA
HETATM   10  C13 UNL     1      -1.858   7.639  14.076  1.00  0.00     0.075 C 
BRANCH   5  11
HETATM   11  C2  UNL     1      -5.101   6.723  12.423  1.00  0.00     0.272 C 
HETATM   12  O2  UNL     1      -5.962   6.083  13.086  1.00  0.00    -0.264 OA
BRANCH  11  13
HETATM   13  O1  UNL     1      -5.491   7.806  11.672  1.00  0.00    -0.326 OA
HETATM   14  C1  UNL     1      -6.821   8.209  11.462  1.00  0.00     0.213 C 
ENDBRANCH  11  13
ENDBRANCH   5  11
ENDBRANCH   1   3
BRANCH   1  15
HETATM   15  C5  UNL     1      -3.638   2.169  11.954  1.00  0.00     0.199 C 
BRANCH  15  16
HETATM   16  C6  UNL     1      -3.476   0.861  11.287  1.00  0.00     0.260 C 
HETATM   17  O3  UNL     1      -3.734   0.563  10.160  1.00  0.00    -0.304 OA
ENDBRANCH  15  16
BRANCH  15  18
HETATM   18  C7  UNL     1      -4.642   1.932  13.091  1.00  0.00     0.385 C 
BRANCH  18  19
HETATM   19  O4  UNL     1      -5.512   3.030  13.182  1.00  0.00    -0.366 OA
ATOM     20  H4  UNL     1      -6.168   2.859  13.849  1.00  0.00     0.212 HD
ENDBRANCH  18  19
BRANCH  18  21
HETATM   21  N2  UNL     1      -3.993   1.811  14.379  1.00  0.00     0.120 N 
HETATM   22  C8  UNL     1      -4.628   2.550  15.457  1.00  0.00     0.284 C 
HETATM   23  C9  UNL     1      -4.694   1.338  16.352  1.00  0.00     0.066 C 
HETATM   24  C11 UNL     1      -4.416   0.590  15.069  1.00  0.00     0.284 C 
BRANCH  23  25
HETATM   25  C10 UNL     1      -6.033   1.068  16.991  1.00  0.00     0.172 C 
BRANCH  25  26
HETATM   26  O5  UNL     1      -6.030  -0.156  17.669  1.00  0.00    -0.400 OA
ATOM     27  H5  UNL     1      -5.764  -0.864  17.095  1.00  0.00     0.209 HD
ENDBRANCH  25  26
ENDBRANCH  23  25
ENDBRANCH  18  21
ENDBRANCH  15  18
ENDBRANCH   1  15
TORSDOF 10
ENDMDL
MODEL 2
REMARK VINA RESULT: -6.235521608      1.627      1.977
REMARK  10 active torsions:
REMARK  status: ('A' for Active; 'I' for Inactive)
REMARK    1  A    between atoms: O1_2  and  C2_3 
REMARK    2  A    between atoms: C2_3  and  C3_5 
REMARK    3  A    between atoms: C4_7  and  N1_8 
REMARK    4  A    between atoms: N1_8  and  C5_10 
REMARK    5  A    between atoms: C5_10  and  C6_11 
REMARK    6  A    between atoms: C5_10  and  C7_13 
REMARK    7  A    between atoms: C7_13  and  O4_14 
REMARK    8  A    between atoms: C7_13  and  N2_16 
REMARK    9  A    between atoms: C9_18  and  C10_19 
REMARK   10  A    between atoms: C10_19  and  O5_20 
ROOT
HETATM    1  N1  UNL     1      -2.797   1.723  12.255  1.00  0.00    -0.394 N 
ATOM      2  H1  UNL     1      -2.052   1.043  12.102  1.00  0.00     0.155 HD
ENDROOT
BRANCH   1   3
HETATM    3  C4  UNL     1      -2.487   3.010  11.934  1.00  0.00     0.154 C 
HETATM    4  S1  UNL     1      -4.120   3.785  11.436  1.00  0.00    -0.128 SA
HETATM    5  C3  UNL     1      -3.944   5.328  12.402  1.00  0.00     0.154 C 
HETATM    6  C15 UNL     1      -2.960   4.882  13.447  1.00  0.00     0.026 C 
HETATM    7  C12 UNL     1      -1.923   4.054  12.724  1.00  0.00     0.085 C 
HETATM    8  C14 UNL     1      -2.207   6.104  13.926  1.00  0.00     0.017 C 
HETATM    9  S2  UNL     1      -1.373   5.420  11.565  1.00  0.00    -0.161 SA
HETATM   10  C13 UNL     1      -1.593   6.795  12.763  1.00  0.00     0.075 C 
BRANCH   5  11
HETATM   11  C2  UNL     1      -5.210   5.809  12.943  1.00  0.00     0.272 C 
HETATM   12  O2  UNL     1      -5.732   6.852  12.462  1.00  0.00    -0.264 OA
BRANCH  11  13
HETATM   13  O1  UNL     1      -5.840   5.147  13.969  1.00  0.00    -0.326 OA
HETATM   14  C1  UNL     1      -6.073   5.673  15.251  1.00  0.00     0.213 C 
ENDBRANCH  11  13
ENDBRANCH   5  11
ENDBRANCH   1   3
BRANCH   1  15
HETATM   15  C5  UNL     1      -3.969   1.210  12.753  1.00  0.00     0.199 C 
BRANCH  15  16
HETATM   16  C6  UNL     1      -4.331  -0.098  12.171  1.00  0.00     0.260 C 
HETATM   17  O3  UNL     1      -3.621  -1.025  11.924  1.00  0.00    -0.304 OA
ENDBRANCH  15  16
BRANCH  15  18
HETATM   18  C7  UNL     1      -3.983   1.003  14.275  1.00  0.00     0.385 C 
BRANCH  18  19
HETATM   19  O4  UNL     1      -4.840  -0.063  14.593  1.00  0.00    -0.366 OA
ATOM     20  H4  UNL     1      -4.448  -0.880  14.306  1.00  0.00     0.212 HD
ENDBRANCH  18  19
BRANCH  18  21
HETATM   21  N2  UNL     1      -4.486   2.163  14.980  1.00  0.00     0.120 N 
HETATM   22  C8  UNL     1      -5.824   2.013  15.527  1.00  0.00     0.284 C 
HETATM   23  C9  UNL     1      -5.391   2.446  16.906  1.00  0.00     0.066 C 
HETATM   24  C11 UNL     1      -4.005   2.186  16.364  1.00  0.00     0.284 C 
BRANCH  23  25
HETATM   25  C10 UNL     1      -5.829   1.554  18.041  1.00  0.00     0.172 C 
BRANCH  25  26
HETATM   26  O5  UNL     1      -6.220   2.308  19.152  1.00  0.00    -0.400 OA
ATOM     27  H5  UNL     1      -5.475   2.515  19.704  1.00  0.00     0.209 HD
ENDBRANCH  25  26
ENDBRANCH  23  25
ENDBRANCH  18  21
ENDBRANCH  15  18
ENDBRANCH   1  15
TORSDOF 10
ENDMDL
MODEL 3
REMARK VINA RESULT: -6.139763761      3.712      5.765
REMARK  10 active torsions:
REMARK  status: ('A' for Active; 'I' for Inactive)
REMARK    1  A    between atoms: O1_2  and  C2_3 
REMARK    2  A    between atoms: C2_3  and  C3_5 
REMARK    3  A    between atoms: C4_7  and  N1_8 
REMARK    4  A    between atoms: N1_8  and  C5_10 
REMARK    5  A    between atoms: C5_10  and  C6_11 
REMARK    6  A    between atoms: C5_10  and  C7_13 
REMARK    7  A    between atoms: C7_13  and  O4_14 
REMARK    8  A    between atoms: C7_13  and  N2_16 
REMARK    9  A    between atoms: C9_18  and  C10_19 
REMARK   10  A    between atoms: C10_19  and  O5_20 
ROOT
HETATM    1  N1  UNL     1      -2.105   3.497  12.242  1.00  0.00    -0.394 N 
ATOM      2  H1  UNL     1      -1.373   3.076  12.814  1.00  0.00     0.155 HD
ENDROOT
BRANCH   1   3
HETATM    3  C4  UNL     1      -1.674   4.394  11.310  1.00  0.00     0.154 C 
HETATM    4  S1  UNL     1       0.014   4.940  11.916  1.00  0.00    -0.128 SA
HETATM    5  C3  UNL     1       0.889   4.790  10.317  1.00  0.00     0.154 C 
HETATM    6  C15 UNL     1      -0.005   3.810   9.610  1.00  0.00     0.026 C 
HETATM    7  C12 UNL     1      -1.422   4.236   9.916  1.00  0.00     0.085 C 
HETATM    8  C14 UNL     1       0.148   4.033   8.121  1.00  0.00     0.017 C 
HETATM    9  S2  UNL     1      -1.268   5.944   9.161  1.00  0.00    -0.161 SA
HETATM   10  C13 UNL     1      -0.132   5.457   7.802  1.00  0.00     0.075 C 
BRANCH   5  11
HETATM   11  C2  UNL     1       2.269   4.339  10.462  1.00  0.00     0.272 C 
HETATM   12  O2  UNL     1       2.775   3.602   9.573  1.00  0.00    -0.264 OA
BRANCH  11  13
HETATM   13  O1  UNL     1       3.022   4.701  11.553  1.00  0.00    -0.326 OA
HETATM   14  C1  UNL     1       4.161   5.524  11.513  1.00  0.00     0.213 C 
ENDBRANCH  11  13
ENDBRANCH   5  11
ENDBRANCH   1   3
BRANCH   1  15
HETATM   15  C5  UNL     1      -3.383   3.080  12.519  1.00  0.00     0.199 C 
BRANCH  15  16
HETATM   16  C6  UNL     1      -4.263   4.167  12.994  1.00  0.00     0.260 C 
HETATM   17  O3  UNL     1      -5.303   4.084  13.575  1.00  0.00    -0.304 OA
ENDBRANCH  15  16
BRANCH  15  18
HETATM   18  C7  UNL     1      -4.121   2.440  11.334  1.00  0.00     0.385 C 
BRANCH  18  19
HETATM   19  O4  UNL     1      -5.132   3.307  10.890  1.00  0.00    -0.366 OA
ATOM     20  H4  UNL     1      -5.724   2.834  10.316  1.00  0.00     0.212 HD
ENDBRANCH  18  19
BRANCH  18  21
HETATM   21  N2  UNL     1      -4.771   1.200  11.700  1.00  0.00     0.120 N 
HETATM   22  C8  UNL     1      -4.578   0.107  10.762  1.00  0.00     0.284 C 
HETATM   23  C9  UNL     1      -4.104  -0.836  11.840  1.00  0.00     0.066 C 
HETATM   24  C11 UNL     1      -3.951   0.435  12.642  1.00  0.00     0.284 C 
BRANCH  23  25
HETATM   25  C10 UNL     1      -2.828  -1.582  11.542  1.00  0.00     0.172 C 
BRANCH  25  26
HETATM   26  O5  UNL     1      -3.031  -2.965  11.586  1.00  0.00    -0.400 OA
ATOM     27  H5  UNL     1      -2.536  -3.405  10.904  1.00  0.00     0.209 HD
ENDBRANCH  25  26
ENDBRANCH  23  25
ENDBRANCH  18  21
ENDBRANCH  15  18
ENDBRANCH   1  15
TORSDOF 10
ENDMDL
MODEL 4
REMARK VINA RESULT: -6.087126228      3.629      5.434
REMARK  10 active torsions:
REMARK  status: ('A' for Active; 'I' for Inactive)
REMARK    1  A    between atoms: O1_2  and  C2_3 
REMARK    2  A    between atoms: C2_3  and  C3_5 
REMARK    3  A    between atoms: C4_7  and  N1_8 
REMARK    4  A    between atoms: N1_8  and  C5_10 
REMARK    5  A    between atoms: C5_10  and  C6_11 
REMARK    6  A    between atoms: C5_10  and  C7_13 
REMARK    7  A    between atoms: C7_13  and  O4_14 
REMARK    8  A    between atoms: C7_13  and  N2_16 
REMARK    9  A    between atoms: C9_18  and  C10_19 
REMARK   10  A    between atoms: C10_19  and  O5_20 
ROOT
HETATM    1  N1  UNL     1      -2.180   3.424  12.514  1.00  0.00    -0.394 N 
ATOM      2  H1  UNL     1      -1.550   3.240  13.294  1.00  0.00     0.155 HD
ENDROOT
BRANCH   1   3
HETATM    3  C4  UNL     1      -1.621   4.066  11.450  1.00  0.00     0.154 C 
HETATM    4  S1  UNL     1      -0.997   5.691  12.146  1.00  0.00    -0.128 SA
HETATM    5  C3  UNL     1       0.656   5.654  11.364  1.00  0.00     0.154 C 
HETATM    6  C15 UNL     1       0.807   4.179  11.122  1.00  0.00     0.026 C 
HETATM    7  C12 UNL     1      -0.530   3.696  10.610  1.00  0.00     0.085 C 
HETATM    8  C14 UNL     1       1.751   3.996   9.953  1.00  0.00     0.017 C 
HETATM    9  S2  UNL     1      -0.562   4.807   9.102  1.00  0.00    -0.161 SA
HETATM   10  C13 UNL     1       1.246   4.759   8.783  1.00  0.00     0.075 C 
BRANCH   5  11
HETATM   11  C2  UNL     1       1.698   6.229  12.208  1.00  0.00     0.272 C 
HETATM   12  O2  UNL     1       1.601   7.430  12.579  1.00  0.00    -0.264 OA
BRANCH  11  13
HETATM   13  O1  UNL     1       2.783   5.483  12.601  1.00  0.00    -0.326 OA
HETATM   14  C1  UNL     1       3.953   6.001  13.185  1.00  0.00     0.213 C 
ENDBRANCH  11  13
ENDBRANCH   5  11
ENDBRANCH   1   3
BRANCH   1  15
HETATM   15  C5  UNL     1      -3.471   2.989  12.684  1.00  0.00     0.199 C 
BRANCH  15  16
HETATM   16  C6  UNL     1      -4.387   4.045  13.159  1.00  0.00     0.260 C 
HETATM   17  O3  UNL     1      -5.455   3.927  13.680  1.00  0.00    -0.304 OA
ENDBRANCH  15  16
BRANCH  15  18
HETATM   18  C7  UNL     1      -4.126   2.411  11.421  1.00  0.00     0.385 C 
BRANCH  18  19
HETATM   19  O4  UNL     1      -5.107   3.301  10.955  1.00  0.00    -0.366 OA
ATOM     20  H4  UNL     1      -5.958   2.880  10.993  1.00  0.00     0.212 HD
ENDBRANCH  18  19
BRANCH  18  21
HETATM   21  N2  UNL     1      -4.796   1.154  11.678  1.00  0.00     0.120 N 
HETATM   22  C8  UNL     1      -4.529   0.108  10.705  1.00  0.00     0.284 C 
HETATM   23  C9  UNL     1      -4.132  -0.885  11.769  1.00  0.00     0.066 C 
HETATM   24  C11 UNL     1      -4.044   0.345  12.640  1.00  0.00     0.284 C 
BRANCH  23  25
HETATM   25  C10 UNL     1      -2.834  -1.615  11.532  1.00  0.00     0.172 C 
BRANCH  25  26
HETATM   26  O5  UNL     1      -3.015  -3.000  11.602  1.00  0.00    -0.400 OA
ATOM     27  H5  UNL     1      -2.334  -3.408  12.125  1.00  0.00     0.209 HD
ENDBRANCH  25  26
ENDBRANCH  23  25
ENDBRANCH  18  21
ENDBRANCH  15  18
ENDBRANCH   1  15
TORSDOF 10
ENDMDL
MODEL 5
REMARK VINA RESULT: -6.058337278      2.572      3.344
REMARK  10 active torsions:
REMARK  status: ('A' for Active; 'I' for Inactive)
REMARK    1  A    between atoms: O1_2  and  C2_3 
REMARK    2  A    between atoms: C2_3  and  C3_5 
REMARK    3  A    between atoms: C4_7  and  N1_8 
REMARK    4  A    between atoms: N1_8  and  C5_10 
REMARK    5  A    between atoms: C5_10  and  C6_11 
REMARK    6  A    between atoms: C5_10  and  C7_13 
REMARK    7  A    between atoms: C7_13  and  O4_14 
REMARK    8  A    between atoms: C7_13  and  N2_16 
REMARK    9  A    between atoms: C9_18  and  C10_19 
REMARK   10  A    between atoms: C10_19  and  O5_20 
ROOT
HETATM    1  N1  UNL     1      -4.118   2.605  13.139  1.00  0.00    -0.394 N 
ATOM      2  H1  UNL     1      -4.686   2.360  12.328  1.00  0.00     0.155 HD
ENDROOT
BRANCH   1   3
HETATM    3  C4  UNL     1      -3.068   3.436  12.887  1.00  0.00     0.154 C 
HETATM    4  S1  UNL     1      -2.512   2.992  11.153  1.00  0.00    -0.128 SA
HETATM    5  C3  UNL     1      -2.368   4.701  10.516  1.00  0.00     0.154 C 
HETATM    6  C15 UNL     1      -3.288   5.421  11.462  1.00  0.00     0.026 C 
HETATM    7  C12 UNL     1      -3.002   4.859  12.836  1.00  0.00     0.085 C 
HETATM    8  C14 UNL     1      -2.837   6.863  11.538  1.00  0.00     0.017 C 
HETATM    9  S2  UNL     1      -1.195   5.353  12.865  1.00  0.00    -0.161 SA
HETATM   10  C13 UNL     1      -1.403   6.916  11.921  1.00  0.00     0.075 C 
BRANCH   5  11
HETATM   11  C2  UNL     1      -2.747   4.819   9.112  1.00  0.00     0.272 C 
HETATM   12  O2  UNL     1      -3.968   4.799   8.798  1.00  0.00    -0.264 OA
BRANCH  11  13
HETATM   13  O1  UNL     1      -1.795   4.949   8.129  1.00  0.00    -0.326 OA
HETATM   14  C1  UNL     1      -1.957   5.677   6.937  1.00  0.00     0.213 C 
ENDBRANCH  11  13
ENDBRANCH   5  11
ENDBRANCH   1   3
BRANCH   1  15
HETATM   15  C5  UNL     1      -4.520   2.050  14.329  1.00  0.00     0.199 C 
BRANCH  15  16
HETATM   16  C6  UNL     1      -4.235   0.604  14.426  1.00  0.00     0.260 C 
HETATM   17  O3  UNL     1      -4.762  -0.215  15.117  1.00  0.00    -0.304 OA
ENDBRANCH  15  16
BRANCH  15  18
HETATM   18  C7  UNL     1      -3.886   2.681  15.577  1.00  0.00     0.385 C 
BRANCH  18  19
HETATM   19  O4  UNL     1      -3.239   1.685  16.326  1.00  0.00    -0.366 OA
ATOM     20  H4  UNL     1      -3.198   0.883  15.817  1.00  0.00     0.212 HD
ENDBRANCH  18  19
BRANCH  18  21
HETATM   21  N2  UNL     1      -4.875   3.277  16.450  1.00  0.00     0.120 N 
HETATM   22  C8  UNL     1      -6.240   3.227  15.954  1.00  0.00     0.284 C 
HETATM   23  C9  UNL     1      -6.760   2.606  17.227  1.00  0.00     0.066 C 
HETATM   24  C11 UNL     1      -5.298   2.333  17.488  1.00  0.00     0.284 C 
BRANCH  23  25
HETATM   25  C10 UNL     1      -7.634   1.389  17.054  1.00  0.00     0.172 C 
BRANCH  25  26
HETATM   26  O5  UNL     1      -6.865   0.223  16.980  1.00  0.00    -0.400 OA
ATOM     27  H5  UNL     1      -6.223   0.282  16.282  1.00  0.00     0.209 HD
ENDBRANCH  25  26
ENDBRANCH  23  25
ENDBRANCH  18  21
ENDBRANCH  15  18
ENDBRANCH   1  15
TORSDOF 10
ENDMDL
