MODEL 1
REMARK VINA RESULT: -3.912536213      0.000      0.000
REMARK  1 active torsions:
REMARK  status: ('A' for Active; 'I' for Inactive)
REMARK    1  A    between atoms: N1_1  and  C1_5 
ROOT
HETATM    1  C1  UNL     1     -34.021 -39.264  55.230  1.00  0.00     0.192 C 
HETATM    2  C2  UNL     1     -33.533 -39.476  56.616  1.00  0.00     0.033 C 
HETATM    3  C3  UNL     1     -34.485 -39.150  57.707  1.00  0.00     0.002 C 
HETATM    4  C4  UNL     1     -34.991 -40.369  58.447  1.00  0.00     0.001 C 
HETATM    5  C5  UNL     1     -35.711 -41.338  57.559  1.00  0.00     0.010 C 
HETATM    6  C6  UNL     1     -36.718 -40.722  56.656  1.00  0.00     0.074 C 
HETATM    7  S1  UNL     1     -36.281 -40.825  54.922  1.00  0.00    -0.167 SA
HETATM    8  C7  UNL     1     -34.544 -40.541  54.594  1.00  0.00     0.106 C 
ENDROOT
BRANCH   1   9
HETATM    9  N1  UNL     1     -35.005 -38.235  55.077  1.00  0.00    -0.074 N 
ATOM     10  H13 UNL     1     -34.553 -37.351  54.848  1.00  0.00     0.274 HD
ATOM     11  H12 UNL     1     -35.542 -38.389  54.223  1.00  0.00     0.274 HD
ATOM     12  H11 UNL     1     -35.636 -38.112  55.869  1.00  0.00     0.274 HD
ENDBRANCH   1   9
TORSDOF 1
ENDMDL
MODEL 2
REMARK VINA RESULT: -3.797801798      2.299      3.624
REMARK  1 active torsions:
REMARK  status: ('A' for Active; 'I' for Inactive)
REMARK    1  A    between atoms: N1_1  and  C1_5 
ROOT
HETATM    1  C1  UNL     1     -35.553 -38.509  57.971  1.00  0.00     0.192 C 
HETATM    2  C2  UNL     1     -35.922 -37.190  57.399  1.00  0.00     0.033 C 
HETATM    3  C3  UNL     1     -34.845 -36.455  56.689  1.00  0.00     0.002 C 
HETATM    4  C4  UNL     1     -35.055 -36.377  55.193  1.00  0.00     0.001 C 
HETATM    5  C5  UNL     1     -35.123 -37.724  54.539  1.00  0.00     0.010 C 
HETATM    6  C6  UNL     1     -34.049 -38.667  54.946  1.00  0.00     0.074 C 
HETATM    7  S1  UNL     1     -34.649 -40.074  55.880  1.00  0.00    -0.167 SA
HETATM    8  C7  UNL     1     -35.930 -39.666  57.062  1.00  0.00     0.106 C 
ENDROOT
BRANCH   1   9
HETATM    9  N1  UNL     1     -34.180 -38.651  58.352  1.00  0.00    -0.074 N 
ATOM     10  H13 UNL     1     -33.958 -39.634  58.502  1.00  0.00     0.274 HD
ATOM     11  H12 UNL     1     -33.573 -38.449  57.557  1.00  0.00     0.274 HD
ATOM     12  H11 UNL     1     -33.891 -38.099  59.160  1.00  0.00     0.274 HD
ENDBRANCH   1   9
TORSDOF 1
ENDMDL
MODEL 3
REMARK VINA RESULT: -3.765641944      1.785      2.728
REMARK  1 active torsions:
REMARK  status: ('A' for Active; 'I' for Inactive)
REMARK    1  A    between atoms: N1_1  and  C1_5 
ROOT
HETATM    1  C1  UNL     1     -35.977 -40.409  54.867  1.00  0.00     0.192 C 
HETATM    2  C2  UNL     1     -36.335 -40.315  56.304  1.00  0.00     0.033 C 
HETATM    3  C3  UNL     1     -35.436 -41.016  57.255  1.00  0.00     0.002 C 
HETATM    4  C4  UNL     1     -34.623 -40.076  58.118  1.00  0.00     0.001 C 
HETATM    5  C5  UNL     1     -33.738 -39.167  57.320  1.00  0.00     0.010 C 
HETATM    6  C6  UNL     1     -32.947 -39.843  56.259  1.00  0.00     0.074 C 
HETATM    7  S1  UNL     1     -33.430 -39.371  54.599  1.00  0.00    -0.167 SA
HETATM    8  C7  UNL     1     -35.198 -39.200  54.379  1.00  0.00     0.106 C 
ENDROOT
BRANCH   1   9
HETATM    9  N1  UNL     1     -35.272 -41.596  54.487  1.00  0.00    -0.074 N 
ATOM     10  H13 UNL     1     -34.713 -41.936  55.269  1.00  0.00     0.274 HD
ATOM     11  H12 UNL     1     -35.925 -42.373  54.382  1.00  0.00     0.274 HD
ATOM     12  H11 UNL     1     -34.691 -41.512  53.653  1.00  0.00     0.274 HD
ENDBRANCH   1   9
TORSDOF 1
ENDMDL
MODEL 4
REMARK VINA RESULT: -3.533508614      1.797      2.903
REMARK  1 active torsions:
REMARK  status: ('A' for Active; 'I' for Inactive)
REMARK    1  A    between atoms: N1_1  and  C1_5 
ROOT
HETATM    1  C1  UNL     1     -36.499 -40.639  56.556  1.00  0.00     0.192 C 
HETATM    2  C2  UNL     1     -36.188 -39.367  57.255  1.00  0.00     0.033 C 
HETATM    3  C3  UNL     1     -34.843 -39.269  57.876  1.00  0.00     0.002 C 
HETATM    4  C4  UNL     1     -33.926 -38.292  57.173  1.00  0.00     0.001 C 
HETATM    5  C5  UNL     1     -33.683 -38.645  55.738  1.00  0.00     0.010 C 
HETATM    6  C6  UNL     1     -33.338 -40.071  55.498  1.00  0.00     0.074 C 
HETATM    7  S1  UNL     1     -34.592 -40.965  54.582  1.00  0.00    -0.167 SA
HETATM    8  C7  UNL     1     -36.268 -40.553  55.057  1.00  0.00     0.106 C 
ENDROOT
BRANCH   1   9
HETATM    9  N1  UNL     1     -35.827 -41.798  57.060  1.00  0.00    -0.074 N 
ATOM     10  H13 UNL     1     -36.465 -42.351  57.632  1.00  0.00     0.274 HD
ATOM     11  H12 UNL     1     -35.647 -42.456  56.303  1.00  0.00     0.274 HD
ATOM     12  H11 UNL     1     -34.966 -41.614  57.576  1.00  0.00     0.274 HD
ENDBRANCH   1   9
TORSDOF 1
ENDMDL
MODEL 5
REMARK VINA RESULT: -3.514226476      1.907      2.952
REMARK  1 active torsions:
REMARK  status: ('A' for Active; 'I' for Inactive)
REMARK    1  A    between atoms: N1_1  and  C1_5 
ROOT
HETATM    1  C1  UNL     1     -34.611 -38.960  57.939  1.00  0.00     0.192 C 
HETATM    2  C2  UNL     1     -33.543 -38.582  56.980  1.00  0.00     0.033 C 
HETATM    3  C3  UNL     1     -32.887 -39.697  56.252  1.00  0.00     0.002 C 
HETATM    4  C4  UNL     1     -33.227 -39.736  54.778  1.00  0.00     0.001 C 
HETATM    5  C5  UNL     1     -34.694 -39.893  54.518  1.00  0.00     0.010 C 
HETATM    6  C6  UNL     1     -35.356 -40.959  55.315  1.00  0.00     0.074 C 
HETATM    7  S1  UNL     1     -36.537 -40.331  56.507  1.00  0.00    -0.167 SA
HETATM    8  C7  UNL     1     -36.003 -38.840  57.341  1.00  0.00     0.106 C 
ENDROOT
BRANCH   1   9
HETATM    9  N1  UNL     1     -34.474 -40.256  58.531  1.00  0.00    -0.074 N 
ATOM     10  H13 UNL     1     -33.488 -40.472  58.675  1.00  0.00     0.274 HD
ATOM     11  H12 UNL     1     -34.796 -40.235  59.499  1.00  0.00     0.274 HD
ATOM     12  H11 UNL     1     -34.929 -41.018  58.028  1.00  0.00     0.274 HD
ENDBRANCH   1   9
TORSDOF 1
ENDMDL
