MODEL 1
REMARK VINA RESULT: -4.983524636      0.000      0.000
REMARK  1 active torsions:
REMARK  status: ('A' for Active; 'I' for Inactive)
REMARK    1  A    between atoms: C6_7  and  N2_8 
ROOT
HETATM    1  N1  UNL     1     -34.986 -42.193  53.110  1.00  0.00    -0.197 NA
HETATM    2  C1  UNL     1     -35.000 -41.411  53.954  1.00  0.00     0.070 C 
HETATM    3  C2  UNL     1     -34.996 -40.409  55.024  1.00  0.00     0.138 C 
HETATM    4  C3  UNL     1     -33.608 -40.244  55.609  1.00  0.00     0.025 C 
HETATM    5  C4  UNL     1     -33.537 -38.861  56.214  1.00  0.00     0.004 C 
HETATM    6  C5  UNL     1     -33.992 -38.815  57.633  1.00  0.00     0.033 C 
HETATM    7  C6  UNL     1     -35.464 -39.000  57.811  1.00  0.00     0.189 C 
HETATM    8  C7  UNL     1     -35.918 -40.420  57.574  1.00  0.00     0.086 C 
HETATM    9  C8  UNL     1     -35.896 -40.793  56.140  1.00  0.00    -0.001 C 
HETATM   10  N3  UNL     1     -36.828 -41.592  55.806  1.00  0.00    -0.404 N 
ATOM     11  H31 UNL     1     -37.446 -41.856  56.573  1.00  0.00     0.155 HD
ATOM     12  H32 UNL     1     -36.813 -41.848  54.818  1.00  0.00     0.155 HD
ENDROOT
BRANCH   7  13
HETATM   13  N2  UNL     1     -36.269 -38.091  57.052  1.00  0.00    -0.075 N 
ATOM     14  H23 UNL     1     -35.705 -37.624  56.342  1.00  0.00     0.274 HD
ATOM     15  H22 UNL     1     -36.914 -38.603  56.452  1.00  0.00     0.274 HD
ATOM     16  H21 UNL     1     -36.772 -37.406  57.614  1.00  0.00     0.274 HD
ENDBRANCH   7  13
TORSDOF 1
ENDMDL
MODEL 2
REMARK VINA RESULT: -4.876435284      1.706      3.211
REMARK  1 active torsions:
REMARK  status: ('A' for Active; 'I' for Inactive)
REMARK    1  A    between atoms: C6_7  and  N2_8 
ROOT
HETATM    1  N1  UNL     1     -37.138 -42.112  58.813  1.00  0.00    -0.197 NA
HETATM    2  C1  UNL     1     -36.382 -41.453  58.250  1.00  0.00     0.070 C 
HETATM    3  C2  UNL     1     -35.415 -40.600  57.550  1.00  0.00     0.138 C 
HETATM    4  C3  UNL     1     -35.525 -39.161  58.015  1.00  0.00     0.025 C 
HETATM    5  C4  UNL     1     -34.191 -38.502  57.754  1.00  0.00     0.004 C 
HETATM    6  C5  UNL     1     -34.083 -37.911  56.389  1.00  0.00     0.033 C 
HETATM    7  C6  UNL     1     -33.989 -38.918  55.290  1.00  0.00     0.189 C 
HETATM    8  C7  UNL     1     -35.294 -39.629  55.022  1.00  0.00     0.086 C 
HETATM    9  C8  UNL     1     -35.641 -40.602  56.083  1.00  0.00    -0.001 C 
HETATM   10  N3  UNL     1     -36.244 -41.636  55.651  1.00  0.00    -0.404 N 
ATOM     11  H31 UNL     1     -36.399 -41.637  54.643  1.00  0.00     0.155 HD
ATOM     12  H32 UNL     1     -36.483 -42.306  56.382  1.00  0.00     0.155 HD
ENDROOT
BRANCH   7  13
HETATM   13  N2  UNL     1     -32.933 -39.871  55.451  1.00  0.00    -0.075 N 
ATOM     14  H23 UNL     1     -33.313 -40.812  55.548  1.00  0.00     0.274 HD
ATOM     15  H22 UNL     1     -32.416 -39.980  54.580  1.00  0.00     0.274 HD
ATOM     16  H21 UNL     1     -32.295 -39.664  56.220  1.00  0.00     0.274 HD
ENDBRANCH   7  13
TORSDOF 1
ENDMDL
MODEL 3
REMARK VINA RESULT: -4.836556622      1.585      3.436
REMARK  1 active torsions:
REMARK  status: ('A' for Active; 'I' for Inactive)
REMARK    1  A    between atoms: C6_7  and  N2_8 
ROOT
HETATM    1  N1  UNL     1     -36.904 -41.785  59.551  1.00  0.00    -0.197 NA
HETATM    2  C1  UNL     1     -36.229 -41.478  58.672  1.00  0.00     0.070 C 
HETATM    3  C2  UNL     1     -35.356 -41.075  57.565  1.00  0.00     0.138 C 
HETATM    4  C3  UNL     1     -34.765 -39.702  57.812  1.00  0.00     0.025 C 
HETATM    5  C4  UNL     1     -33.482 -39.616  57.017  1.00  0.00     0.004 C 
HETATM    6  C5  UNL     1     -33.685 -39.129  55.623  1.00  0.00     0.033 C 
HETATM    7  C6  UNL     1     -34.372 -40.106  54.725  1.00  0.00     0.189 C 
HETATM    8  C7  UNL     1     -35.844 -40.256  55.026  1.00  0.00     0.086 C 
HETATM    9  C8  UNL     1     -36.094 -41.007  56.279  1.00  0.00    -0.001 C 
HETATM   10  N3  UNL     1     -37.141 -41.730  56.241  1.00  0.00    -0.404 N 
ATOM     11  H31 UNL     1     -37.648 -41.683  55.357  1.00  0.00     0.155 HD
ATOM     12  H32 UNL     1     -37.313 -42.247  57.103  1.00  0.00     0.155 HD
ENDROOT
BRANCH   7  13
HETATM   13  N2  UNL     1     -33.746 -41.392  54.665  1.00  0.00    -0.075 N 
ATOM     14  H23 UNL     1     -32.848 -41.374  55.149  1.00  0.00     0.274 HD
ATOM     15  H22 UNL     1     -34.246 -42.059  55.251  1.00  0.00     0.274 HD
ATOM     16  H21 UNL     1     -33.634 -41.761  53.721  1.00  0.00     0.274 HD
ENDBRANCH   7  13
TORSDOF 1
ENDMDL
MODEL 4
REMARK VINA RESULT: -4.805816751      1.687      2.195
REMARK  1 active torsions:
REMARK  status: ('A' for Active; 'I' for Inactive)
REMARK    1  A    between atoms: C6_7  and  N2_8 
ROOT
HETATM    1  N1  UNL     1     -38.371 -42.414  55.430  1.00  0.00    -0.197 NA
HETATM    2  C1  UNL     1     -37.608 -41.650  55.825  1.00  0.00     0.070 C 
HETATM    3  C2  UNL     1     -36.629 -40.670  56.308  1.00  0.00     0.138 C 
HETATM    4  C3  UNL     1     -35.448 -40.572  55.364  1.00  0.00     0.025 C 
HETATM    5  C4  UNL     1     -34.832 -39.206  55.556  1.00  0.00     0.004 C 
HETATM    6  C5  UNL     1     -33.801 -39.170  56.633  1.00  0.00     0.033 C 
HETATM    7  C6  UNL     1     -34.354 -39.300  58.015  1.00  0.00     0.189 C 
HETATM    8  C7  UNL     1     -34.830 -40.696  58.336  1.00  0.00     0.086 C 
HETATM    9  C8  UNL     1     -36.093 -41.040  57.641  1.00  0.00    -0.001 C 
HETATM   10  N3  UNL     1     -36.860 -41.795  58.320  1.00  0.00    -0.404 N 
ATOM     11  H31 UNL     1     -36.491 -42.049  59.236  1.00  0.00     0.155 HD
ATOM     12  H32 UNL     1     -37.730 -42.032  57.841  1.00  0.00     0.155 HD
ENDROOT
BRANCH   7  13
HETATM   13  N2  UNL     1     -35.371 -38.345  58.335  1.00  0.00    -0.075 N 
ATOM     14  H23 UNL     1     -35.943 -38.680  59.110  1.00  0.00     0.274 HD
ATOM     15  H22 UNL     1     -34.960 -37.518  58.767  1.00  0.00     0.274 HD
ATOM     16  H21 UNL     1     -35.960 -38.079  57.547  1.00  0.00     0.274 HD
ENDBRANCH   7  13
TORSDOF 1
ENDMDL
MODEL 5
REMARK VINA RESULT: -4.686164366      1.418      3.592
REMARK  1 active torsions:
REMARK  status: ('A' for Active; 'I' for Inactive)
REMARK    1  A    between atoms: C6_7  and  N2_8 
ROOT
HETATM    1  N1  UNL     1     -35.966 -40.355  59.072  1.00  0.00    -0.197 NA
HETATM    2  C1  UNL     1     -35.437 -40.442  58.054  1.00  0.00     0.070 C 
HETATM    3  C2  UNL     1     -34.744 -40.547  56.766  1.00  0.00     0.138 C 
HETATM    4  C3  UNL     1     -33.623 -39.532  56.669  1.00  0.00     0.025 C 
HETATM    5  C4  UNL     1     -32.619 -40.065  55.674  1.00  0.00     0.004 C 
HETATM    6  C5  UNL     1     -32.917 -39.669  54.267  1.00  0.00     0.033 C 
HETATM    7  C6  UNL     1     -34.111 -40.347  53.679  1.00  0.00     0.189 C 
HETATM    8  C7  UNL     1     -35.419 -39.838  54.237  1.00  0.00     0.086 C 
HETATM    9  C8  UNL     1     -35.660 -40.295  55.626  1.00  0.00    -0.001 C 
HETATM   10  N3  UNL     1     -36.887 -40.513  55.886  1.00  0.00    -0.404 N 
ATOM     11  H31 UNL     1     -37.516 -40.340  55.103  1.00  0.00     0.155 HD
ATOM     12  H32 UNL     1     -37.053 -40.828  56.842  1.00  0.00     0.155 HD
ENDROOT
BRANCH   7  13
HETATM   13  N2  UNL     1     -34.069 -41.777  53.744  1.00  0.00    -0.075 N 
ATOM     14  H23 UNL     1     -34.698 -42.119  54.470  1.00  0.00     0.274 HD
ATOM     15  H22 UNL     1     -34.514 -42.183  52.922  1.00  0.00     0.274 HD
ATOM     16  H21 UNL     1     -33.135 -42.164  53.871  1.00  0.00     0.274 HD
ENDBRANCH   7  13
TORSDOF 1
ENDMDL
