MODEL 1
REMARK VINA RESULT: -4.820760585      0.000      0.000
REMARK  2 active torsions:
REMARK  status: ('A' for Active; 'I' for Inactive)
REMARK    1  A    between atoms: N1_1  and  C1_5 
REMARK    2  A    between atoms: C8_12  and  O1_13 
ROOT
HETATM    1  C1  UNL     1     -35.238 -39.113  57.819  1.00  0.00     0.129 C 
HETATM    2  C2  UNL     1     -35.709 -37.715  58.250  1.00  0.00     0.039 C 
HETATM    3  C3  UNL     1     -35.452 -36.904  57.005  1.00  0.00     0.003 C 
HETATM    4  C4  UNL     1     -34.185 -37.491  56.435  1.00  0.00     0.007 C 
HETATM    5  C5  UNL     1     -33.943 -38.798  57.163  1.00  0.00     0.021 C 
HETATM    6  C6  UNL     1     -33.442 -39.803  56.200  1.00  0.00     0.009 C 
HETATM    7  C7  UNL     1     -34.491 -40.433  55.335  1.00  0.00     0.032 C 
HETATM    8  C8  UNL     1     -35.602 -40.942  56.247  1.00  0.00     0.120 C 
HETATM    9  C9  UNL     1     -36.224 -39.712  56.861  1.00  0.00     0.070 C 
ENDROOT
BRANCH   1  10
HETATM   10  N1  UNL     1     -35.111 -39.882  59.036  1.00  0.00    -0.070 N 
ATOM     11  H13 UNL     1     -34.658 -40.786  58.901  1.00  0.00     0.275 HD
ATOM     12  H12 UNL     1     -34.429 -39.500  59.690  1.00  0.00     0.275 HD
ATOM     13  H11 UNL     1     -36.052 -39.951  59.423  1.00  0.00     0.275 HD
ENDBRANCH   1  10
BRANCH   8  14
HETATM   14  O1  UNL     1     -36.523 -41.722  55.554  1.00  0.00    -0.396 OA
ATOM     15  H1  UNL     1     -37.002 -42.301  56.134  1.00  0.00     0.210 HD
ENDBRANCH   8  14
TORSDOF 2
ENDMDL
MODEL 2
REMARK VINA RESULT: -4.699172599      2.055      3.262
REMARK  2 active torsions:
REMARK  status: ('A' for Active; 'I' for Inactive)
REMARK    1  A    between atoms: N1_1  and  C1_5 
REMARK    2  A    between atoms: C8_12  and  O1_13 
ROOT
HETATM    1  C1  UNL     1     -34.615 -39.537  55.140  1.00  0.00     0.129 C 
HETATM    2  C2  UNL     1     -33.862 -40.072  53.912  1.00  0.00     0.039 C 
HETATM    3  C3  UNL     1     -32.779 -40.904  54.551  1.00  0.00     0.003 C 
HETATM    4  C4  UNL     1     -32.410 -40.139  55.797  1.00  0.00     0.007 C 
HETATM    5  C5  UNL     1     -33.491 -39.098  56.006  1.00  0.00     0.021 C 
HETATM    6  C6  UNL     1     -33.788 -38.991  57.451  1.00  0.00     0.009 C 
HETATM    7  C7  UNL     1     -34.669 -40.072  58.000  1.00  0.00     0.032 C 
HETATM    8  C8  UNL     1     -35.905 -40.161  57.114  1.00  0.00     0.120 C 
HETATM    9  C9  UNL     1     -35.414 -40.639  55.770  1.00  0.00     0.070 C 
ENDROOT
BRANCH   1  10
HETATM   10  N1  UNL     1     -35.446 -38.458  54.658  1.00  0.00    -0.070 N 
ATOM     11  H13 UNL     1     -35.402 -37.620  55.237  1.00  0.00     0.275 HD
ATOM     12  H12 UNL     1     -35.101 -38.031  53.799  1.00  0.00     0.275 HD
ATOM     13  H11 UNL     1     -36.386 -38.845  54.572  1.00  0.00     0.275 HD
ENDBRANCH   1  10
BRANCH   8  14
HETATM   14  O1  UNL     1     -36.875 -40.996  57.661  1.00  0.00    -0.396 OA
ATOM     15  H1  UNL     1     -37.365 -41.454  56.989  1.00  0.00     0.210 HD
ENDBRANCH   8  14
TORSDOF 2
ENDMDL
MODEL 3
REMARK VINA RESULT: -4.694683402      2.304      3.759
REMARK  2 active torsions:
REMARK  status: ('A' for Active; 'I' for Inactive)
REMARK    1  A    between atoms: N1_1  and  C1_5 
REMARK    2  A    between atoms: C8_12  and  O1_13 
ROOT
HETATM    1  C1  UNL     1     -34.129 -39.726  55.944  1.00  0.00     0.129 C 
HETATM    2  C2  UNL     1     -34.473 -40.517  54.673  1.00  0.00     0.039 C 
HETATM    3  C3  UNL     1     -35.978 -40.563  54.735  1.00  0.00     0.003 C 
HETATM    4  C4  UNL     1     -36.286 -40.691  56.205  1.00  0.00     0.007 C 
HETATM    5  C5  UNL     1     -35.000 -40.388  56.948  1.00  0.00     0.021 C 
HETATM    6  C6  UNL     1     -35.315 -39.596  58.158  1.00  0.00     0.009 C 
HETATM    7  C7  UNL     1     -35.565 -38.138  57.915  1.00  0.00     0.032 C 
HETATM    8  C8  UNL     1     -34.399 -37.594  57.099  1.00  0.00     0.120 C 
HETATM    9  C9  UNL     1     -34.481 -38.280  55.758  1.00  0.00     0.070 C 
ENDROOT
BRANCH   1  10
HETATM   10  N1  UNL     1     -32.714 -39.926  56.167  1.00  0.00    -0.070 N 
ATOM     11  H13 UNL     1     -32.125 -39.503  55.450  1.00  0.00     0.275 HD
ATOM     12  H12 UNL     1     -32.347 -39.395  56.956  1.00  0.00     0.275 HD
ATOM     13  H11 UNL     1     -32.585 -40.934  56.258  1.00  0.00     0.275 HD
ENDBRANCH   1  10
BRANCH   8  14
HETATM   14  O1  UNL     1     -34.441 -36.207  56.999  1.00  0.00    -0.396 OA
ATOM     15  H1  UNL     1     -33.910 -35.890  56.278  1.00  0.00     0.210 HD
ENDBRANCH   8  14
TORSDOF 2
ENDMDL
MODEL 4
REMARK VINA RESULT: -4.494240911      1.314      1.541
REMARK  2 active torsions:
REMARK  status: ('A' for Active; 'I' for Inactive)
REMARK    1  A    between atoms: N1_1  and  C1_5 
REMARK    2  A    between atoms: C8_12  and  O1_13 
ROOT
HETATM    1  C1  UNL     1     -34.639 -38.383  57.039  1.00  0.00     0.129 C 
HETATM    2  C2  UNL     1     -34.713 -36.855  56.897  1.00  0.00     0.039 C 
HETATM    3  C3  UNL     1     -35.288 -36.700  55.512  1.00  0.00     0.003 C 
HETATM    4  C4  UNL     1     -34.674 -37.831  54.727  1.00  0.00     0.007 C 
HETATM    5  C5  UNL     1     -34.045 -38.771  55.734  1.00  0.00     0.021 C 
HETATM    6  C6  UNL     1     -34.277 -40.168  55.305  1.00  0.00     0.009 C 
HETATM    7  C7  UNL     1     -35.645 -40.704  55.601  1.00  0.00     0.032 C 
HETATM    8  C8  UNL     1     -35.938 -40.446  57.074  1.00  0.00     0.120 C 
HETATM    9  C9  UNL     1     -36.016 -38.947  57.222  1.00  0.00     0.070 C 
ENDROOT
BRANCH   1  10
HETATM   10  N1  UNL     1     -33.782 -38.635  58.176  1.00  0.00    -0.070 N 
ATOM     11  H13 UNL     1     -33.100 -37.897  58.344  1.00  0.00     0.275 HD
ATOM     12  H12 UNL     1     -34.264 -38.563  59.072  1.00  0.00     0.275 HD
ATOM     13  H11 UNL     1     -33.362 -39.550  58.012  1.00  0.00     0.275 HD
ENDBRANCH   1  10
BRANCH   8  14
HETATM   14  O1  UNL     1     -37.101 -41.090  57.490  1.00  0.00    -0.396 OA
ATOM     15  H1  UNL     1     -37.383 -40.788  58.344  1.00  0.00     0.210 HD
ENDBRANCH   8  14
TORSDOF 2
ENDMDL
MODEL 5
REMARK VINA RESULT: -4.484979915      1.981      3.054
REMARK  2 active torsions:
REMARK  status: ('A' for Active; 'I' for Inactive)
REMARK    1  A    between atoms: N1_1  and  C1_5 
REMARK    2  A    between atoms: C8_12  and  O1_13 
ROOT
HETATM    1  C1  UNL     1     -34.789 -39.386  55.027  1.00  0.00     0.129 C 
HETATM    2  C2  UNL     1     -33.301 -39.278  54.662  1.00  0.00     0.039 C 
HETATM    3  C3  UNL     1     -32.643 -39.949  55.841  1.00  0.00     0.003 C 
HETATM    4  C4  UNL     1     -33.500 -39.555  57.018  1.00  0.00     0.007 C 
HETATM    5  C5  UNL     1     -34.774 -38.963  56.451  1.00  0.00     0.021 C 
HETATM    6  C6  UNL     1     -35.922 -39.408  57.272  1.00  0.00     0.009 C 
HETATM    7  C7  UNL     1     -36.398 -40.802  56.995  1.00  0.00     0.032 C 
HETATM    8  C8  UNL     1     -36.620 -40.929  55.493  1.00  0.00     0.120 C 
HETATM    9  C9  UNL     1     -35.254 -40.803  54.865  1.00  0.00     0.070 C 
ENDROOT
BRANCH   1  10
HETATM   10  N1  UNL     1     -35.482 -38.473  54.147  1.00  0.00    -0.070 N 
ATOM     11  H13 UNL     1     -35.796 -38.903  53.278  1.00  0.00     0.275 HD
ATOM     12  H12 UNL     1     -36.403 -38.199  54.487  1.00  0.00     0.275 HD
ATOM     13  H11 UNL     1     -34.849 -37.685  54.006  1.00  0.00     0.275 HD
ENDBRANCH   1  10
BRANCH   8  14
HETATM   14  O1  UNL     1     -37.255 -42.123  55.163  1.00  0.00    -0.396 OA
ATOM     15  H1  UNL     1     -36.638 -42.781  54.867  1.00  0.00     0.210 HD
ENDBRANCH   8  14
TORSDOF 2
ENDMDL
