MODEL 1
REMARK VINA RESULT: -5.186235542      0.000      0.000
REMARK  1 active torsions:
REMARK  status: ('A' for Active; 'I' for Inactive)
REMARK    1  A    between atoms: C1_2  and  C2_4 
ROOT
HETATM    1  C2  UNL     1     -35.324  34.784  56.166  1.00  0.00     0.087 C 
HETATM    2  C3  UNL     1     -36.785  34.548  56.342  1.00  0.00     0.015 C 
HETATM    3  C4  UNL     1     -37.419  35.359  57.418  1.00  0.00     0.001 C 
HETATM    4  C5  UNL     1     -37.170  36.815  57.355  1.00  0.00     0.000 C 
HETATM    5  C6  UNL     1     -36.826  37.354  56.011  1.00  0.00     0.000 C 
HETATM    6  C7  UNL     1     -35.346  37.626  55.925  1.00  0.00     0.000 C 
HETATM    7  C8  UNL     1     -34.634  36.798  54.914  1.00  0.00     0.001 C 
HETATM    8  C9  UNL     1     -35.111  35.395  54.793  1.00  0.00     0.015 C 
ENDROOT
BRANCH   1   9
HETATM    9  C1  UNL     1     -34.561  33.502  56.186  1.00  0.00     0.177 C 
HETATM   10  O1  UNL     1     -34.035  33.133  57.273  1.00  0.00    -0.648 OA
HETATM   11  O2  UNL     1     -34.450  32.755  55.028  1.00  0.00    -0.648 OA
ENDBRANCH   1   9
TORSDOF 1
ENDMDL
MODEL 2
REMARK VINA RESULT: -5.150727573      2.614      3.802
REMARK  1 active torsions:
REMARK  status: ('A' for Active; 'I' for Inactive)
REMARK    1  A    between atoms: C1_2  and  C2_4 
ROOT
HETATM    1  C2  UNL     1     -35.188  35.938  55.405  1.00  0.00     0.087 C 
HETATM    2  C3  UNL     1     -35.949  35.123  56.394  1.00  0.00     0.015 C 
HETATM    3  C4  UNL     1     -36.902  34.149  55.793  1.00  0.00     0.001 C 
HETATM    4  C5  UNL     1     -36.337  33.252  54.761  1.00  0.00     0.000 C 
HETATM    5  C6  UNL     1     -34.867  33.031  54.833  1.00  0.00     0.000 C 
HETATM    6  C7  UNL     1     -34.168  33.837  53.769  1.00  0.00     0.000 C 
HETATM    7  C8  UNL     1     -33.249  34.879  54.301  1.00  0.00     0.001 C 
HETATM    8  C9  UNL     1     -33.720  35.572  55.529  1.00  0.00     0.015 C 
ENDROOT
BRANCH   1   9
HETATM    9  C1  UNL     1     -35.293  37.395  55.709  1.00  0.00     0.177 C 
HETATM   10  O1  UNL     1     -34.695  38.210  54.952  1.00  0.00    -0.648 OA
HETATM   11  O2  UNL     1     -36.032  37.815  56.799  1.00  0.00    -0.648 OA
ENDBRANCH   1   9
TORSDOF 1
ENDMDL
MODEL 3
REMARK VINA RESULT: -5.108502978      1.546      1.878
REMARK  1 active torsions:
REMARK  status: ('A' for Active; 'I' for Inactive)
REMARK    1  A    between atoms: C1_2  and  C2_4 
ROOT
HETATM    1  C2  UNL     1     -34.649  35.207  54.739  1.00  0.00     0.087 C 
HETATM    2  C3  UNL     1     -35.930  34.458  54.883  1.00  0.00     0.015 C 
HETATM    3  C4  UNL     1     -36.479  34.430  56.268  1.00  0.00     0.001 C 
HETATM    4  C5  UNL     1     -36.611  35.745  56.932  1.00  0.00     0.000 C 
HETATM    5  C6  UNL     1     -36.723  36.919  56.023  1.00  0.00     0.000 C 
HETATM    6  C7  UNL     1     -35.413  37.662  55.972  1.00  0.00     0.000 C 
HETATM    7  C8  UNL     1     -34.772  37.671  54.630  1.00  0.00     0.001 C 
HETATM    8  C9  UNL     1     -34.910  36.411  53.852  1.00  0.00     0.015 C 
ENDROOT
BRANCH   1   9
HETATM    9  C1  UNL     1     -33.615  34.383  54.047  1.00  0.00     0.177 C 
HETATM   10  O1  UNL     1     -32.454  34.863  53.916  1.00  0.00    -0.648 OA
HETATM   11  O2  UNL     1     -33.946  33.128  53.571  1.00  0.00    -0.648 OA
ENDBRANCH   1   9
TORSDOF 1
ENDMDL
MODEL 4
REMARK VINA RESULT: -5.045362210     11.814     13.014
REMARK  1 active torsions:
REMARK  status: ('A' for Active; 'I' for Inactive)
REMARK    1  A    between atoms: C1_2  and  C2_4 
ROOT
HETATM    1  C2  UNL     1     -43.680  28.483  49.732  1.00  0.00     0.087 C 
HETATM    2  C3  UNL     1     -42.300  28.322  50.273  1.00  0.00     0.015 C 
HETATM    3  C4  UNL     1     -41.756  26.938  50.181  1.00  0.00     0.001 C 
HETATM    4  C5  UNL     1     -41.827  26.309  48.845  1.00  0.00     0.000 C 
HETATM    5  C6  UNL     1     -41.893  27.248  47.692  1.00  0.00     0.000 C 
HETATM    6  C7  UNL     1     -43.300  27.316  47.158  1.00  0.00     0.000 C 
HETATM    7  C8  UNL     1     -43.932  28.657  47.281  1.00  0.00     0.001 C 
HETATM    8  C9  UNL     1     -43.603  29.402  48.525  1.00  0.00     0.015 C 
ENDROOT
BRANCH   1   9
HETATM    9  C1  UNL     1     -44.575  29.152  50.721  1.00  0.00     0.177 C 
HETATM   10  O1  UNL     1     -45.386  28.438  51.375  1.00  0.00    -0.648 OA
HETATM   11  O2  UNL     1     -44.498  30.520  50.897  1.00  0.00    -0.648 OA
ENDBRANCH   1   9
TORSDOF 1
ENDMDL
MODEL 5
REMARK VINA RESULT: -5.032479908      2.228      3.400
REMARK  1 active torsions:
REMARK  status: ('A' for Active; 'I' for Inactive)
REMARK    1  A    between atoms: C1_2  and  C2_4 
ROOT
HETATM    1  C2  UNL     1     -36.900  35.624  56.999  1.00  0.00     0.087 C 
HETATM    2  C3  UNL     1     -37.325  36.847  56.262  1.00  0.00     0.015 C 
HETATM    3  C4  UNL     1     -36.303  37.930  56.215  1.00  0.00     0.001 C 
HETATM    4  C5  UNL     1     -34.961  37.525  55.743  1.00  0.00     0.000 C 
HETATM    5  C6  UNL     1     -34.919  36.312  54.882  1.00  0.00     0.000 C 
HETATM    6  C7  UNL     1     -34.424  35.130  55.674  1.00  0.00     0.000 C 
HETATM    7  C8  UNL     1     -35.421  34.036  55.820  1.00  0.00     0.001 C 
HETATM    8  C9  UNL     1     -36.828  34.480  56.004  1.00  0.00     0.015 C 
ENDROOT
BRANCH   1   9
HETATM    9  C1  UNL     1     -37.908  35.233  58.027  1.00  0.00     0.177 C 
HETATM   10  O1  UNL     1     -38.243  36.087  58.895  1.00  0.00    -0.648 OA
HETATM   11  O2  UNL     1     -38.447  33.960  58.007  1.00  0.00    -0.648 OA
ENDBRANCH   1   9
TORSDOF 1
ENDMDL
