MODEL 1
REMARK VINA RESULT: -5.505715431      0.000      0.000
REMARK  2 active torsions:
REMARK  status: ('A' for Active; 'I' for Inactive)
REMARK    1  A    between atoms: N1_1  and  C1_5 
REMARK    2  A    between atoms: C6_10  and  C7_11 
ROOT
HETATM    1  C1  UNL     1     -34.264  34.190  55.746  1.00  0.00     0.188 C 
HETATM    2  C2  UNL     1     -33.021  35.045  55.492  1.00  0.00     0.033 C 
HETATM    3  C3  UNL     1     -33.120  35.745  54.150  1.00  0.00     0.002 C 
HETATM    4  C4  UNL     1     -34.567  36.007  53.786  1.00  0.00     0.001 C 
HETATM    5  C5  UNL     1     -35.334  34.717  53.604  1.00  0.00     0.007 C 
HETATM    6  C6  UNL     1     -34.696  33.632  54.441  1.00  0.00     0.020 C 
ENDROOT
BRANCH   6   7
HETATM    7  C7  UNL     1     -35.530  32.393  54.528  1.00  0.00    -0.008 C 
HETATM    8  C8  UNL     1     -36.980  32.613  54.737  1.00  0.00     0.005 C 
HETATM    9  C9  UNL     1     -37.640  31.377  54.139  1.00  0.00     0.000 C 
HETATM   10  C10 UNL     1     -36.567  30.581  53.470  1.00  0.00     0.000 C 
HETATM   11  C11 UNL     1     -35.500  31.651  53.200  1.00  0.00     0.005 C 
ENDBRANCH   6   7
BRANCH   1  12
HETATM   12  N1  UNL     1     -33.898  33.205  56.724  1.00  0.00    -0.075 N 
ATOM     13  H13 UNL     1     -33.085  33.473  57.280  1.00  0.00     0.274 HD
ATOM     14  H12 UNL     1     -34.563  33.136  57.494  1.00  0.00     0.274 HD
ATOM     15  H11 UNL     1     -33.770  32.326  56.224  1.00  0.00     0.274 HD
ENDBRANCH   1  12
TORSDOF 2
ENDMDL
MODEL 2
REMARK VINA RESULT: -5.301605253      2.898      4.507
REMARK  2 active torsions:
REMARK  status: ('A' for Active; 'I' for Inactive)
REMARK    1  A    between atoms: N1_1  and  C1_5 
REMARK    2  A    between atoms: C6_10  and  C7_11 
ROOT
HETATM    1  C1  UNL     1     -36.081  37.630  53.502  1.00  0.00     0.188 C 
HETATM    2  C2  UNL     1     -37.426  38.117  54.046  1.00  0.00     0.033 C 
HETATM    3  C3  UNL     1     -37.482  37.958  55.553  1.00  0.00     0.002 C 
HETATM    4  C4  UNL     1     -36.097  38.065  56.156  1.00  0.00     0.001 C 
HETATM    5  C5  UNL     1     -35.199  36.944  55.684  1.00  0.00     0.007 C 
HETATM    6  C6  UNL     1     -35.661  36.469  54.325  1.00  0.00     0.020 C 
ENDROOT
BRANCH   6   7
HETATM    7  C7  UNL     1     -34.688  35.544  53.665  1.00  0.00    -0.008 C 
HETATM    8  C8  UNL     1     -33.271  35.720  54.062  1.00  0.00     0.005 C 
HETATM    9  C9  UNL     1     -32.642  34.352  53.832  1.00  0.00     0.000 C 
HETATM   10  C10 UNL     1     -33.746  33.411  53.473  1.00  0.00     0.000 C 
HETATM   11  C11 UNL     1     -34.968  34.109  54.084  1.00  0.00     0.005 C 
ENDBRANCH   6   7
BRANCH   1  12
HETATM   12  N1  UNL     1     -36.278  37.334  52.111  1.00  0.00    -0.075 N 
ATOM     13  H13 UNL     1     -36.445  36.344  51.931  1.00  0.00     0.274 HD
ATOM     14  H12 UNL     1     -37.166  37.682  51.748  1.00  0.00     0.274 HD
ATOM     15  H11 UNL     1     -35.468  37.703  51.613  1.00  0.00     0.274 HD
ENDBRANCH   1  12
TORSDOF 2
ENDMDL
MODEL 3
REMARK VINA RESULT: -5.294552457      2.609      3.523
REMARK  2 active torsions:
REMARK  status: ('A' for Active; 'I' for Inactive)
REMARK    1  A    between atoms: N1_1  and  C1_5 
REMARK    2  A    between atoms: C6_10  and  C7_11 
ROOT
HETATM    1  C1  UNL     1     -34.369  34.763  55.984  1.00  0.00     0.188 C 
HETATM    2  C2  UNL     1     -33.781  34.773  54.571  1.00  0.00     0.033 C 
HETATM    3  C3  UNL     1     -34.313  35.952  53.780  1.00  0.00     0.002 C 
HETATM    4  C4  UNL     1     -34.647  37.110  54.699  1.00  0.00     0.001 C 
HETATM    5  C5  UNL     1     -35.762  36.753  55.655  1.00  0.00     0.007 C 
HETATM    6  C6  UNL     1     -35.764  35.260  55.890  1.00  0.00     0.020 C 
ENDROOT
BRANCH   6   7
HETATM    7  C7  UNL     1     -36.660  34.844  57.013  1.00  0.00    -0.008 C 
HETATM    8  C8  UNL     1     -37.167  35.946  57.865  1.00  0.00     0.005 C 
HETATM    9  C9  UNL     1     -38.479  35.415  58.429  1.00  0.00     0.000 C 
HETATM   10  C10 UNL     1     -38.753  34.108  57.756  1.00  0.00     0.000 C 
HETATM   11  C11 UNL     1     -37.944  34.242  56.460  1.00  0.00     0.005 C 
ENDBRANCH   6   7
BRANCH   1  12
HETATM   12  N1  UNL     1     -34.247  33.419  56.475  1.00  0.00    -0.075 N 
ATOM     13  H13 UNL     1     -34.848  33.228  57.277  1.00  0.00     0.274 HD
ATOM     14  H12 UNL     1     -34.647  32.723  55.845  1.00  0.00     0.274 HD
ATOM     15  H11 UNL     1     -33.257  33.265  56.669  1.00  0.00     0.274 HD
ENDBRANCH   1  12
TORSDOF 2
ENDMDL
MODEL 4
REMARK VINA RESULT: -5.218553875      3.642      5.934
REMARK  2 active torsions:
REMARK  status: ('A' for Active; 'I' for Inactive)
REMARK    1  A    between atoms: N1_1  and  C1_5 
REMARK    2  A    between atoms: C6_10  and  C7_11 
ROOT
HETATM    1  C1  UNL     1     -38.675  34.660  58.131  1.00  0.00     0.188 C 
HETATM    2  C2  UNL     1     -40.152  34.302  57.944  1.00  0.00     0.033 C 
HETATM    3  C3  UNL     1     -40.371  33.618  56.609  1.00  0.00     0.002 C 
HETATM    4  C4  UNL     1     -39.130  32.861  56.182  1.00  0.00     0.001 C 
HETATM    5  C5  UNL     1     -37.965  33.796  55.949  1.00  0.00     0.007 C 
HETATM    6  C6  UNL     1     -38.135  35.034  56.800  1.00  0.00     0.020 C 
ENDROOT
BRANCH   6   7
HETATM    7  C7  UNL     1     -36.914  35.896  56.832  1.00  0.00    -0.008 C 
HETATM    8  C8  UNL     1     -35.794  35.448  55.971  1.00  0.00     0.005 C 
HETATM    9  C9  UNL     1     -35.026  36.725  55.655  1.00  0.00     0.000 C 
HETATM   10  C10 UNL     1     -35.819  37.867  56.205  1.00  0.00     0.000 C 
HETATM   11  C11 UNL     1     -37.232  37.272  56.265  1.00  0.00     0.005 C 
ENDBRANCH   6   7
BRANCH   1  12
HETATM   12  N1  UNL     1     -38.622  35.707  59.111  1.00  0.00    -0.075 N 
ATOM     13  H13 UNL     1     -38.434  35.365  60.054  1.00  0.00     0.274 HD
ATOM     14  H12 UNL     1     -37.796  36.299  59.022  1.00  0.00     0.274 HD
ATOM     15  H11 UNL     1     -39.497  36.225  59.039  1.00  0.00     0.274 HD
ENDBRANCH   1  12
TORSDOF 2
ENDMDL
MODEL 5
REMARK VINA RESULT: -5.104722823      4.393      5.055
REMARK  2 active torsions:
REMARK  status: ('A' for Active; 'I' for Inactive)
REMARK    1  A    between atoms: N1_1  and  C1_5 
REMARK    2  A    between atoms: C6_10  and  C7_11 
ROOT
HETATM    1  C1  UNL     1     -39.467  35.293  58.027  1.00  0.00     0.188 C 
HETATM    2  C2  UNL     1     -38.206  35.883  58.662  1.00  0.00     0.033 C 
HETATM    3  C3  UNL     1     -37.113  36.051  57.624  1.00  0.00     0.002 C 
HETATM    4  C4  UNL     1     -37.708  36.288  56.251  1.00  0.00     0.001 C 
HETATM    5  C5  UNL     1     -38.506  35.093  55.780  1.00  0.00     0.007 C 
HETATM    6  C6  UNL     1     -39.033  34.337  56.979  1.00  0.00     0.020 C 
ENDROOT
BRANCH   6   7
HETATM    7  C7  UNL     1     -40.042  33.294  56.617  1.00  0.00    -0.008 C 
HETATM    8  C8  UNL     1     -40.983  33.666  55.534  1.00  0.00     0.005 C 
HETATM    9  C9  UNL     1     -41.398  32.334  54.921  1.00  0.00     0.000 C 
HETATM   10  C10 UNL     1     -40.563  31.273  55.559  1.00  0.00     0.000 C 
HETATM   11  C11 UNL     1     -39.344  32.072  56.037  1.00  0.00     0.005 C 
ENDBRANCH   6   7
BRANCH   1  12
HETATM   12  N1  UNL     1     -40.231  34.705  59.090  1.00  0.00    -0.075 N 
ATOM     13  H13 UNL     1     -40.781  33.899  58.792  1.00  0.00     0.274 HD
ATOM     14  H12 UNL     1     -39.656  34.220  59.779  1.00  0.00     0.274 HD
ATOM     15  H11 UNL     1     -40.798  35.451  59.494  1.00  0.00     0.274 HD
ENDBRANCH   1  12
TORSDOF 2
ENDMDL
