MODEL 1
REMARK VINA RESULT: -4.915561625      0.000      0.000
REMARK  2 active torsions:
REMARK  status: ('A' for Active; 'I' for Inactive)
REMARK    1  A    between atoms: N1_1  and  C1_5 
REMARK    2  A    between atoms: C3_7  and  C4_8 
ROOT
HETATM    1  C1  UNL     1     -37.214  37.522  56.388  1.00  0.00     0.184 C 
HETATM    2  C2  UNL     1     -37.151  36.051  55.953  1.00  0.00     0.037 C 
HETATM    3  C3  UNL     1     -36.034  36.507  55.015  1.00  0.00    -0.007 C 
HETATM    4  C10 UNL     1     -35.710  37.550  56.064  1.00  0.00     0.037 C 
ENDROOT
BRANCH   3   5
HETATM    5  C4  UNL     1     -34.978  35.479  54.762  1.00  0.00    -0.010 C 
HETATM    6  C5  UNL     1     -33.653  36.129  54.408  1.00  0.00     0.005 C 
HETATM    7  C6  UNL     1     -32.606  35.046  54.581  1.00  0.00     0.000 C 
HETATM    8  C7  UNL     1     -32.885  33.998  53.530  1.00  0.00     0.000 C 
HETATM    9  C8  UNL     1     -34.259  33.442  53.586  1.00  0.00     0.000 C 
HETATM   10  C9  UNL     1     -35.355  34.424  53.786  1.00  0.00     0.005 C 
ENDBRANCH   3   5
BRANCH   1  11
HETATM   11  N1  UNL     1     -37.917  38.278  55.403  1.00  0.00    -0.075 N 
ATOM     12  H13 UNL     1     -37.808  37.887  54.467  1.00  0.00     0.274 HD
ATOM     13  H12 UNL     1     -38.928  38.175  55.487  1.00  0.00     0.274 HD
ATOM     14  H11 UNL     1     -37.622  39.253  55.450  1.00  0.00     0.274 HD
ENDBRANCH   1  11
TORSDOF 2
ENDMDL
MODEL 2
REMARK VINA RESULT: -4.889022350      2.429      4.733
REMARK  2 active torsions:
REMARK  status: ('A' for Active; 'I' for Inactive)
REMARK    1  A    between atoms: N1_1  and  C1_5 
REMARK    2  A    between atoms: C3_7  and  C4_8 
ROOT
HETATM    1  C1  UNL     1     -32.519  35.129  54.190  1.00  0.00     0.184 C 
HETATM    2  C2  UNL     1     -33.771  35.985  53.950  1.00  0.00     0.037 C 
HETATM    3  C3  UNL     1     -34.407  35.136  55.050  1.00  0.00    -0.007 C 
HETATM    4  C10 UNL     1     -33.017  35.034  55.642  1.00  0.00     0.037 C 
ENDROOT
BRANCH   3   5
HETATM    5  C4  UNL     1     -35.424  35.854  55.878  1.00  0.00    -0.010 C 
HETATM    6  C5  UNL     1     -36.375  34.879  56.547  1.00  0.00     0.005 C 
HETATM    7  C6  UNL     1     -37.065  35.665  57.644  1.00  0.00     0.000 C 
HETATM    8  C7  UNL     1     -37.908  36.717  56.964  1.00  0.00     0.000 C 
HETATM    9  C8  UNL     1     -37.143  37.605  56.055  1.00  0.00     0.000 C 
HETATM   10  C9  UNL     1     -36.152  36.940  55.172  1.00  0.00     0.005 C 
ENDBRANCH   3   5
BRANCH   1  11
HETATM   11  N1  UNL     1     -32.683  33.861  53.556  1.00  0.00    -0.075 N 
ATOM     12  H13 UNL     1     -33.579  33.431  53.780  1.00  0.00     0.274 HD
ATOM     13  H12 UNL     1     -32.811  33.948  52.548  1.00  0.00     0.274 HD
ATOM     14  H11 UNL     1     -31.895  33.259  53.795  1.00  0.00     0.274 HD
ENDBRANCH   1  11
TORSDOF 2
ENDMDL
MODEL 3
REMARK VINA RESULT: -4.828198985      1.762      2.540
REMARK  2 active torsions:
REMARK  status: ('A' for Active; 'I' for Inactive)
REMARK    1  A    between atoms: N1_1  and  C1_5 
REMARK    2  A    between atoms: C3_7  and  C4_8 
ROOT
HETATM    1  C1  UNL     1     -38.330  36.111  57.453  1.00  0.00     0.184 C 
HETATM    2  C2  UNL     1     -37.021  36.735  56.949  1.00  0.00     0.037 C 
HETATM    3  C3  UNL     1     -36.564  35.293  56.734  1.00  0.00    -0.007 C 
HETATM    4  C10 UNL     1     -38.019  34.973  56.466  1.00  0.00     0.037 C 
ENDROOT
BRANCH   3   5
HETATM    5  C4  UNL     1     -35.625  35.105  55.585  1.00  0.00    -0.010 C 
HETATM    6  C5  UNL     1     -34.974  33.734  55.627  1.00  0.00     0.005 C 
HETATM    7  C6  UNL     1     -34.396  33.512  54.244  1.00  0.00     0.000 C 
HETATM    8  C7  UNL     1     -33.291  34.527  54.065  1.00  0.00     0.000 C 
HETATM    9  C8  UNL     1     -33.729  35.931  54.254  1.00  0.00     0.000 C 
HETATM   10  C9  UNL     1     -34.623  36.188  55.411  1.00  0.00     0.005 C 
ENDBRANCH   3   5
BRANCH   1  11
HETATM   11  N1  UNL     1     -38.146  35.636  58.786  1.00  0.00    -0.075 N 
ATOM     12  H13 UNL     1     -37.424  34.918  58.843  1.00  0.00     0.274 HD
ATOM     13  H12 UNL     1     -37.706  36.333  59.387  1.00  0.00     0.274 HD
ATOM     14  H11 UNL     1     -39.039  35.314  59.157  1.00  0.00     0.274 HD
ENDBRANCH   1  11
TORSDOF 2
ENDMDL
MODEL 4
REMARK VINA RESULT: -4.786605117      2.366      3.765
REMARK  2 active torsions:
REMARK  status: ('A' for Active; 'I' for Inactive)
REMARK    1  A    between atoms: N1_1  and  C1_5 
REMARK    2  A    between atoms: C3_7  and  C4_8 
ROOT
HETATM    1  C1  UNL     1     -39.829  35.422  58.164  1.00  0.00     0.184 C 
HETATM    2  C2  UNL     1     -39.291  36.606  57.348  1.00  0.00     0.037 C 
HETATM    3  C3  UNL     1     -37.911  36.020  57.645  1.00  0.00    -0.007 C 
HETATM    4  C10 UNL     1     -38.591  34.668  57.647  1.00  0.00     0.037 C 
ENDROOT
BRANCH   3   5
HETATM    5  C4  UNL     1     -36.897  36.246  56.569  1.00  0.00    -0.010 C 
HETATM    6  C5  UNL     1     -35.982  35.044  56.417  1.00  0.00     0.005 C 
HETATM    7  C6  UNL     1     -35.301  35.215  55.073  1.00  0.00     0.000 C 
HETATM    8  C7  UNL     1     -34.421  36.437  55.182  1.00  0.00     0.000 C 
HETATM    9  C8  UNL     1     -35.146  37.666  55.586  1.00  0.00     0.000 C 
HETATM   10  C9  UNL     1     -36.130  37.513  56.687  1.00  0.00     0.005 C 
ENDBRANCH   3   5
BRANCH   1  11
HETATM   11  N1  UNL     1     -39.663  35.691  59.555  1.00  0.00    -0.075 N 
ATOM     12  H13 UNL     1     -40.411  36.276  59.926  1.00  0.00     0.274 HD
ATOM     13  H12 UNL     1     -39.827  34.864  60.130  1.00  0.00     0.274 HD
ATOM     14  H11 UNL     1     -38.741  36.096  59.714  1.00  0.00     0.274 HD
ENDBRANCH   1  11
TORSDOF 2
ENDMDL
MODEL 5
REMARK VINA RESULT: -4.741731794      1.676      1.926
REMARK  2 active torsions:
REMARK  status: ('A' for Active; 'I' for Inactive)
REMARK    1  A    between atoms: N1_1  and  C1_5 
REMARK    2  A    between atoms: C3_7  and  C4_8 
ROOT
HETATM    1  C1  UNL     1     -38.197  34.548  56.880  1.00  0.00     0.184 C 
HETATM    2  C2  UNL     1     -37.527  33.755  55.750  1.00  0.00     0.037 C 
HETATM    3  C3  UNL     1     -36.570  34.943  55.655  1.00  0.00    -0.007 C 
HETATM    4  C10 UNL     1     -36.793  35.118  57.142  1.00  0.00     0.037 C 
ENDROOT
BRANCH   3   5
HETATM    5  C4  UNL     1     -35.180  34.588  55.234  1.00  0.00    -0.010 C 
HETATM    6  C5  UNL     1     -34.239  35.768  55.400  1.00  0.00     0.005 C 
HETATM    7  C6  UNL     1     -32.840  35.187  55.345  1.00  0.00     0.000 C 
HETATM    8  C7  UNL     1     -32.644  34.651  53.946  1.00  0.00     0.000 C 
HETATM    9  C8  UNL     1     -33.664  33.657  53.536  1.00  0.00     0.000 C 
HETATM   10  C9  UNL     1     -35.071  33.980  53.883  1.00  0.00     0.005 C 
ENDBRANCH   3   5
BRANCH   1  11
HETATM   11  N1  UNL     1     -39.019  35.570  56.319  1.00  0.00    -0.075 N 
ATOM     12  H13 UNL     1     -38.935  36.452  56.824  1.00  0.00     0.274 HD
ATOM     13  H12 UNL     1     -38.675  35.888  55.413  1.00  0.00     0.274 HD
ATOM     14  H11 UNL     1     -39.983  35.242  56.273  1.00  0.00     0.274 HD
ENDBRANCH   1  11
TORSDOF 2
ENDMDL
