MODEL 1
REMARK VINA RESULT: -5.334223280      0.000      0.000
REMARK  2 active torsions:
REMARK  status: ('A' for Active; 'I' for Inactive)
REMARK    1  A    between atoms: N1_1  and  C1_5 
REMARK    2  A    between atoms: C1_5  and  C2_6 
ROOT
HETATM    1  C2  UNL     1     -35.474  35.622  54.216  1.00  0.00    -0.016 C 
HETATM    2  C3  UNL     1     -35.555  35.354  55.688  1.00  0.00     0.015 C 
HETATM    3  C4  UNL     1     -34.537  34.292  56.075  1.00  0.00    -0.013 C 
HETATM    4  C5  UNL     1     -33.167  34.915  55.834  1.00  0.00     0.009 C 
HETATM    5  C6  UNL     1     -33.057  35.269  54.376  1.00  0.00    -0.013 C 
HETATM    6  C7  UNL     1     -33.139  33.988  53.567  1.00  0.00     0.009 C 
HETATM    7  C8  UNL     1     -34.506  33.408  53.777  1.00  0.00    -0.013 C 
HETATM    8  C9  UNL     1     -34.742  33.055  55.230  1.00  0.00     0.009 C 
HETATM    9  C10 UNL     1     -35.592  34.395  53.366  1.00  0.00     0.015 C 
HETATM   10  C11 UNL     1     -34.107  36.243  53.949  1.00  0.00     0.015 C 
ENDROOT
BRANCH   1  11
HETATM   11  C1  UNL     1     -36.510  36.618  53.796  1.00  0.00     0.239 C 
BRANCH  11  12
HETATM   12  N1  UNL     1     -36.666  36.747  52.381  1.00  0.00    -0.079 N 
ATOM     13  H13 UNL     1     -35.786  36.549  51.906  1.00  0.00     0.274 HD
ATOM     14  H12 UNL     1     -37.238  35.986  52.016  1.00  0.00     0.274 HD
ATOM     15  H11 UNL     1     -37.039  37.647  52.079  1.00  0.00     0.274 HD
ENDBRANCH  11  12
ENDBRANCH   1  11
TORSDOF 2
ENDMDL
MODEL 2
REMARK VINA RESULT: -5.321629242      0.110      2.159
REMARK  2 active torsions:
REMARK  status: ('A' for Active; 'I' for Inactive)
REMARK    1  A    between atoms: N1_1  and  C1_5 
REMARK    2  A    between atoms: C1_5  and  C2_6 
ROOT
HETATM    1  C2  UNL     1     -35.404  35.652  54.136  1.00  0.00    -0.016 C 
HETATM    2  C3  UNL     1     -35.593  34.379  53.367  1.00  0.00     0.015 C 
HETATM    3  C4  UNL     1     -34.519  33.376  53.760  1.00  0.00    -0.013 C 
HETATM    4  C5  UNL     1     -34.782  33.029  55.221  1.00  0.00     0.009 C 
HETATM    5  C6  UNL     1     -34.672  34.290  56.034  1.00  0.00    -0.013 C 
HETATM    6  C7  UNL     1     -33.250  34.807  55.922  1.00  0.00     0.009 C 
HETATM    7  C8  UNL     1     -33.019  35.186  54.490  1.00  0.00    -0.013 C 
HETATM    8  C9  UNL     1     -33.151  33.990  53.571  1.00  0.00     0.009 C 
HETATM    9  C10 UNL     1     -34.028  36.231  54.027  1.00  0.00     0.015 C 
HETATM   10  C11 UNL     1     -35.657  35.329  55.605  1.00  0.00     0.015 C 
ENDROOT
BRANCH   1  11
HETATM   11  C1  UNL     1     -36.410  36.681  53.723  1.00  0.00     0.239 C 
BRANCH  11  12
HETATM   12  N1  UNL     1     -36.594  36.793  52.310  1.00  0.00    -0.079 N 
ATOM     13  H13 UNL     1     -36.876  35.896  51.916  1.00  0.00     0.274 HD
ATOM     14  H12 UNL     1     -37.426  37.345  52.102  1.00  0.00     0.274 HD
ATOM     15  H11 UNL     1     -35.787  37.165  51.808  1.00  0.00     0.274 HD
ENDBRANCH  11  12
ENDBRANCH   1  11
TORSDOF 2
ENDMDL
MODEL 3
REMARK VINA RESULT: -5.281862691      0.097      2.124
REMARK  2 active torsions:
REMARK  status: ('A' for Active; 'I' for Inactive)
REMARK    1  A    between atoms: N1_1  and  C1_5 
REMARK    2  A    between atoms: C1_5  and  C2_6 
ROOT
HETATM    1  C2  UNL     1     -35.430  35.682  54.222  1.00  0.00    -0.016 C 
HETATM    2  C3  UNL     1     -34.044  36.180  53.945  1.00  0.00     0.015 C 
HETATM    3  C4  UNL     1     -33.024  35.166  54.439  1.00  0.00    -0.013 C 
HETATM    4  C5  UNL     1     -33.207  33.927  53.572  1.00  0.00     0.009 C 
HETATM    5  C6  UNL     1     -34.612  33.422  53.759  1.00  0.00    -0.013 C 
HETATM    6  C7  UNL     1     -34.781  33.008  55.208  1.00  0.00     0.009 C 
HETATM    7  C8  UNL     1     -34.642  34.243  56.049  1.00  0.00    -0.013 C 
HETATM    8  C9  UNL     1     -33.269  34.864  55.900  1.00  0.00     0.009 C 
HETATM    9  C10 UNL     1     -35.666  35.299  55.649  1.00  0.00     0.015 C 
HETATM   10  C11 UNL     1     -35.637  34.437  53.366  1.00  0.00     0.015 C 
ENDROOT
BRANCH   1  11
HETATM   11  C1  UNL     1     -36.455  36.690  53.802  1.00  0.00     0.239 C 
BRANCH  11  12
HETATM   12  N1  UNL     1     -36.668  36.763  52.391  1.00  0.00    -0.079 N 
ATOM     13  H13 UNL     1     -36.302  35.928  51.932  1.00  0.00     0.274 HD
ATOM     14  H12 UNL     1     -37.659  36.660  52.175  1.00  0.00     0.274 HD
ATOM     15  H11 UNL     1     -36.294  37.604  51.950  1.00  0.00     0.274 HD
ENDBRANCH  11  12
ENDBRANCH   1  11
TORSDOF 2
ENDMDL
MODEL 4
REMARK VINA RESULT: -5.268459122      1.628      1.877
REMARK  2 active torsions:
REMARK  status: ('A' for Active; 'I' for Inactive)
REMARK    1  A    between atoms: N1_1  and  C1_5 
REMARK    2  A    between atoms: C1_5  and  C2_6 
ROOT
HETATM    1  C2  UNL     1     -35.143  36.249  55.045  1.00  0.00    -0.016 C 
HETATM    2  C3  UNL     1     -35.998  35.623  56.107  1.00  0.00     0.015 C 
HETATM    3  C4  UNL     1     -35.985  34.110  55.953  1.00  0.00    -0.013 C 
HETATM    4  C5  UNL     1     -34.556  33.670  56.248  1.00  0.00     0.009 C 
HETATM    5  C6  UNL     1     -33.642  34.325  55.249  1.00  0.00    -0.013 C 
HETATM    6  C7  UNL     1     -34.011  33.826  53.865  1.00  0.00     0.009 C 
HETATM    7  C8  UNL     1     -35.401  34.303  53.569  1.00  0.00    -0.013 C 
HETATM    8  C9  UNL     1     -36.404  33.734  54.550  1.00  0.00     0.009 C 
HETATM    9  C10 UNL     1     -35.491  35.822  53.653  1.00  0.00     0.015 C 
HETATM   10  C11 UNL     1     -33.706  35.817  55.317  1.00  0.00     0.015 C 
ENDROOT
BRANCH   1  11
HETATM   11  C1  UNL     1     -35.188  37.742  55.133  1.00  0.00     0.239 C 
BRANCH  11  12
HETATM   12  N1  UNL     1     -35.962  38.247  56.224  1.00  0.00    -0.079 N 
ATOM     13  H13 UNL     1     -36.032  37.548  56.964  1.00  0.00     0.274 HD
ATOM     14  H12 UNL     1     -35.447  38.975  56.718  1.00  0.00     0.274 HD
ATOM     15  H11 UNL     1     -36.889  38.582  55.963  1.00  0.00     0.274 HD
ENDBRANCH  11  12
ENDBRANCH   1  11
TORSDOF 2
ENDMDL
MODEL 5
REMARK VINA RESULT: -5.263093547      1.632      2.802
REMARK  2 active torsions:
REMARK  status: ('A' for Active; 'I' for Inactive)
REMARK    1  A    between atoms: N1_1  and  C1_5 
REMARK    2  A    between atoms: C1_5  and  C2_6 
ROOT
HETATM    1  C2  UNL     1     -35.091  36.249  55.010  1.00  0.00    -0.016 C 
HETATM    2  C3  UNL     1     -35.591  35.762  53.683  1.00  0.00     0.015 C 
HETATM    3  C4  UNL     1     -35.416  34.254  53.589  1.00  0.00    -0.013 C 
HETATM    4  C5  UNL     1     -36.349  33.657  54.636  1.00  0.00     0.009 C 
HETATM    5  C6  UNL     1     -35.934  34.169  55.988  1.00  0.00    -0.013 C 
HETATM    6  C7  UNL     1     -34.529  33.675  56.275  1.00  0.00     0.009 C 
HETATM    7  C8  UNL     1     -33.614  34.304  55.267  1.00  0.00    -0.013 C 
HETATM    8  C9  UNL     1     -33.973  33.888  53.856  1.00  0.00     0.009 C 
HETATM    9  C10 UNL     1     -33.691  35.825  55.327  1.00  0.00     0.015 C 
HETATM   10  C11 UNL     1     -36.008  35.659  56.076  1.00  0.00     0.015 C 
ENDROOT
BRANCH   1  11
HETATM   11  C1  UNL     1     -35.192  37.740  55.105  1.00  0.00     0.239 C 
BRANCH  11  12
HETATM   12  N1  UNL     1     -35.911  38.211  56.247  1.00  0.00    -0.079 N 
ATOM     13  H13 UNL     1     -36.380  37.437  56.717  1.00  0.00     0.274 HD
ATOM     14  H12 UNL     1     -35.264  38.496  56.982  1.00  0.00     0.274 HD
ATOM     15  H11 UNL     1     -36.575  38.960  56.047  1.00  0.00     0.274 HD
ENDBRANCH  11  12
ENDBRANCH   1  11
TORSDOF 2
ENDMDL
