MODEL 1
REMARK VINA RESULT: -4.792721120      0.000      0.000
REMARK  2 active torsions:
REMARK  status: ('A' for Active; 'I' for Inactive)
REMARK    1  A    between atoms: C1_2  and  C2_3 
REMARK    2  A    between atoms: C2_3  and  O2_4 
ROOT
HETATM    1  C2  UNL     1     -35.050  33.324  54.514  1.00  0.00     0.110 C 
HETATM    2  C3  UNL     1     -36.170  34.301  54.500  1.00  0.00     0.045 C 
HETATM    3  C4  UNL     1     -36.115  35.379  55.519  1.00  0.00     0.003 C 
HETATM    4  C5  UNL     1     -34.831  36.091  55.676  1.00  0.00     0.000 C 
HETATM    5  C6  UNL     1     -34.025  36.202  54.402  1.00  0.00     0.000 C 
HETATM    6  C7  UNL     1     -32.801  35.351  54.477  1.00  0.00     0.000 C 
HETATM    7  C8  UNL     1     -32.819  34.116  53.669  1.00  0.00     0.003 C 
HETATM    8  C9  UNL     1     -34.151  33.555  53.339  1.00  0.00     0.045 C 
ENDROOT
BRANCH   1   9
HETATM    9  C1  UNL     1     -35.627  31.955  54.358  1.00  0.00     0.268 C 
HETATM   10  O1  UNL     1     -35.212  31.256  53.436  1.00  0.00    -0.304 OA
ENDBRANCH   1   9
BRANCH   1  11
HETATM   11  O2  UNL     1     -34.339  33.305  55.709  1.00  0.00    -0.383 OA
ATOM     12  H2  UNL     1     -34.777  33.922  56.283  1.00  0.00     0.211 HD
ENDBRANCH   1  11
TORSDOF 2
ENDMDL
MODEL 2
REMARK VINA RESULT: -4.746310428      2.193      4.040
REMARK  2 active torsions:
REMARK  status: ('A' for Active; 'I' for Inactive)
REMARK    1  A    between atoms: C1_2  and  C2_3 
REMARK    2  A    between atoms: C2_3  and  O2_4 
ROOT
HETATM    1  C2  UNL     1     -35.193  36.365  55.148  1.00  0.00     0.110 C 
HETATM    2  C3  UNL     1     -33.897  35.718  55.482  1.00  0.00     0.045 C 
HETATM    3  C4  UNL     1     -33.963  34.299  55.914  1.00  0.00     0.003 C 
HETATM    4  C5  UNL     1     -34.785  33.385  55.095  1.00  0.00     0.000 C 
HETATM    5  C6  UNL     1     -34.829  33.739  53.627  1.00  0.00     0.000 C 
HETATM    6  C7  UNL     1     -36.186  34.231  53.244  1.00  0.00     0.000 C 
HETATM    7  C8  UNL     1     -36.304  35.682  53.000  1.00  0.00     0.003 C 
HETATM    8  C9  UNL     1     -35.308  36.554  53.667  1.00  0.00     0.045 C 
ENDROOT
BRANCH   1   9
HETATM    9  C1  UNL     1     -35.201  37.728  55.762  1.00  0.00     0.268 C 
HETATM   10  O1  UNL     1     -36.100  37.998  56.556  1.00  0.00    -0.304 OA
ENDBRANCH   1   9
BRANCH   1  11
HETATM   11  O2  UNL     1     -36.300  35.705  55.669  1.00  0.00    -0.383 OA
ATOM     12  H2  UNL     1     -35.958  35.072  56.291  1.00  0.00     0.211 HD
ENDBRANCH   1  11
TORSDOF 2
ENDMDL
MODEL 3
REMARK VINA RESULT: -4.731293669      2.019      3.703
REMARK  2 active torsions:
REMARK  status: ('A' for Active; 'I' for Inactive)
REMARK    1  A    between atoms: C1_2  and  C2_3 
REMARK    2  A    between atoms: C2_3  and  O2_4 
ROOT
HETATM    1  C2  UNL     1     -35.131  36.138  55.364  1.00  0.00     0.110 C 
HETATM    2  C3  UNL     1     -35.983  35.344  56.288  1.00  0.00     0.045 C 
HETATM    3  C4  UNL     1     -36.894  34.357  55.657  1.00  0.00     0.003 C 
HETATM    4  C5  UNL     1     -36.317  33.474  54.623  1.00  0.00     0.000 C 
HETATM    5  C6  UNL     1     -34.860  33.138  54.838  1.00  0.00     0.000 C 
HETATM    6  C7  UNL     1     -34.009  33.798  53.803  1.00  0.00     0.000 C 
HETATM    7  C8  UNL     1     -33.209  34.951  54.261  1.00  0.00     0.003 C 
HETATM    8  C9  UNL     1     -33.708  35.679  55.452  1.00  0.00     0.045 C 
ENDROOT
BRANCH   1   9
HETATM    9  C1  UNL     1     -35.157  37.561  55.817  1.00  0.00     0.268 C 
HETATM   10  O1  UNL     1     -36.004  37.887  56.647  1.00  0.00    -0.304 OA
ENDBRANCH   1   9
BRANCH   1  11
HETATM   11  O2  UNL     1     -35.587  36.147  54.050  1.00  0.00    -0.383 OA
ATOM     12  H2  UNL     1     -35.818  35.248  53.848  1.00  0.00     0.211 HD
ENDBRANCH   1  11
TORSDOF 2
ENDMDL
MODEL 4
REMARK VINA RESULT: -4.682886372     10.750     11.695
REMARK  2 active torsions:
REMARK  status: ('A' for Active; 'I' for Inactive)
REMARK    1  A    between atoms: C1_2  and  C2_3 
REMARK    2  A    between atoms: C2_3  and  O2_4 
ROOT
HETATM    1  C2  UNL     1     -42.166  27.141  48.405  1.00  0.00     0.110 C 
HETATM    2  C3  UNL     1     -41.261  28.277  48.088  1.00  0.00     0.045 C 
HETATM    3  C4  UNL     1     -41.906  29.602  47.911  1.00  0.00     0.003 C 
HETATM    4  C5  UNL     1     -42.889  30.014  48.933  1.00  0.00     0.000 C 
HETATM    5  C6  UNL     1     -42.599  29.485  50.319  1.00  0.00     0.000 C 
HETATM    6  C7  UNL     1     -43.612  28.461  50.715  1.00  0.00     0.000 C 
HETATM    7  C8  UNL     1     -43.149  27.060  50.717  1.00  0.00     0.003 C 
HETATM    8  C9  UNL     1     -42.001  26.735  49.836  1.00  0.00     0.045 C 
ENDROOT
BRANCH   1   9
HETATM    9  C1  UNL     1     -41.752  25.973  47.571  1.00  0.00     0.268 C 
HETATM   10  O1  UNL     1     -41.453  24.929  48.147  1.00  0.00    -0.304 OA
ENDBRANCH   1   9
BRANCH   1  11
HETATM   11  O2  UNL     1     -43.499  27.383  48.089  1.00  0.00    -0.383 OA
ATOM     12  H2  UNL     1     -43.588  28.327  48.039  1.00  0.00     0.211 HD
ENDBRANCH   1  11
TORSDOF 2
ENDMDL
MODEL 5
REMARK VINA RESULT: -4.673700953      1.532      2.651
REMARK  2 active torsions:
REMARK  status: ('A' for Active; 'I' for Inactive)
REMARK    1  A    between atoms: C1_2  and  C2_3 
REMARK    2  A    between atoms: C2_3  and  O2_4 
ROOT
HETATM    1  C2  UNL     1     -34.576  35.058  54.617  1.00  0.00     0.110 C 
HETATM    2  C3  UNL     1     -35.826  34.284  54.828  1.00  0.00     0.045 C 
HETATM    3  C4  UNL     1     -36.413  34.341  56.190  1.00  0.00     0.003 C 
HETATM    4  C5  UNL     1     -36.536  35.674  56.814  1.00  0.00     0.000 C 
HETATM    5  C6  UNL     1     -36.777  36.797  55.832  1.00  0.00     0.000 C 
HETATM    6  C7  UNL     1     -35.578  37.684  55.742  1.00  0.00     0.000 C 
HETATM    7  C8  UNL     1     -34.772  37.562  54.512  1.00  0.00     0.003 C 
HETATM    8  C9  UNL     1     -34.855  36.272  53.786  1.00  0.00     0.045 C 
ENDROOT
BRANCH   1   9
HETATM    9  C1  UNL     1     -33.629  34.206  53.836  1.00  0.00     0.268 C 
HETATM   10  O1  UNL     1     -33.997  33.076  53.519  1.00  0.00    -0.304 OA
ENDBRANCH   1   9
BRANCH   1  11
HETATM   11  O2  UNL     1     -33.913  35.384  55.795  1.00  0.00    -0.383 OA
ATOM     12  H2  UNL     1     -34.536  35.233  56.496  1.00  0.00     0.211 HD
ENDBRANCH   1  11
TORSDOF 2
ENDMDL
