MODEL 1
REMARK VINA RESULT: -4.974546125      0.000      0.000
REMARK  2 active torsions:
REMARK  status: ('A' for Active; 'I' for Inactive)
REMARK    1  A    between atoms: O1_1  and  C1_3 
REMARK    2  A    between atoms: C5_7  and  C6_8 
ROOT
HETATM    1  C1  UNL     1     -33.698  33.991  54.124  1.00  0.00     0.122 C 
HETATM    2  C2  UNL     1     -33.702  35.527  53.943  1.00  0.00     0.032 C 
HETATM    3  C3  UNL     1     -35.141  35.912  53.727  1.00  0.00     0.003 C 
HETATM    4  C4  UNL     1     -35.909  34.668  54.185  1.00  0.00     0.007 C 
HETATM    5  C5  UNL     1     -35.037  33.583  53.556  1.00  0.00     0.018 C 
ENDROOT
BRANCH   5   6
HETATM    6  C6  UNL     1     -35.456  32.200  53.900  1.00  0.00    -0.008 C 
HETATM    7  C7  UNL     1     -36.831  32.031  54.438  1.00  0.00     0.005 C 
HETATM    8  C8  UNL     1     -37.224  30.588  54.084  1.00  0.00     0.000 C 
HETATM    9  C9  UNL     1     -36.087  30.036  53.272  1.00  0.00     0.000 C 
HETATM   10  C10 UNL     1     -35.491  31.305  52.652  1.00  0.00     0.005 C 
ENDBRANCH   5   6
BRANCH   1  11
HETATM   11  O1  UNL     1     -33.743  33.745  55.510  1.00  0.00    -0.395 OA
ATOM     12  H1  UNL     1     -33.242  34.436  55.928  1.00  0.00     0.210 HD
ENDBRANCH   1  11
TORSDOF 2
ENDMDL
MODEL 2
REMARK VINA RESULT: -4.969085996      2.763      4.081
REMARK  2 active torsions:
REMARK  status: ('A' for Active; 'I' for Inactive)
REMARK    1  A    between atoms: O1_1  and  C1_3 
REMARK    2  A    between atoms: C5_7  and  C6_8 
ROOT
HETATM    1  C1  UNL     1     -34.942  33.489  55.298  1.00  0.00     0.122 C 
HETATM    2  C2  UNL     1     -33.999  33.911  54.148  1.00  0.00     0.032 C 
HETATM    3  C3  UNL     1     -34.045  35.415  54.109  1.00  0.00     0.003 C 
HETATM    4  C4  UNL     1     -34.677  35.781  55.456  1.00  0.00     0.007 C 
HETATM    5  C5  UNL     1     -35.780  34.727  55.516  1.00  0.00     0.018 C 
ENDROOT
BRANCH   5   6
HETATM    6  C6  UNL     1     -36.550  34.733  56.787  1.00  0.00    -0.008 C 
HETATM    7  C7  UNL     1     -36.815  36.060  57.403  1.00  0.00     0.005 C 
HETATM    8  C8  UNL     1     -38.092  35.867  58.234  1.00  0.00     0.000 C 
HETATM    9  C9  UNL     1     -38.549  34.460  57.971  1.00  0.00     0.000 C 
HETATM   10  C10 UNL     1     -37.971  34.191  56.576  1.00  0.00     0.005 C 
ENDBRANCH   5   6
BRANCH   1  11
HETATM   11  O1  UNL     1     -34.140  33.324  56.443  1.00  0.00    -0.395 OA
ATOM     12  H1  UNL     1     -34.680  32.899  57.098  1.00  0.00     0.210 HD
ENDBRANCH   1  11
TORSDOF 2
ENDMDL
MODEL 3
REMARK VINA RESULT: -4.938127154      2.416      4.580
REMARK  2 active torsions:
REMARK  status: ('A' for Active; 'I' for Inactive)
REMARK    1  A    between atoms: O1_1  and  C1_3 
REMARK    2  A    between atoms: C5_7  and  C6_8 
ROOT
HETATM    1  C1  UNL     1     -34.607  33.875  54.398  1.00  0.00     0.122 C 
HETATM    2  C2  UNL     1     -33.489  33.395  53.442  1.00  0.00     0.032 C 
HETATM    3  C3  UNL     1     -32.430  34.464  53.477  1.00  0.00     0.003 C 
HETATM    4  C4  UNL     1     -32.799  35.281  54.719  1.00  0.00     0.007 C 
HETATM    5  C5  UNL     1     -34.314  35.350  54.541  1.00  0.00     0.018 C 
ENDROOT
BRANCH   5   6
HETATM    6  C6  UNL     1     -35.023  36.012  55.666  1.00  0.00    -0.008 C 
HETATM    7  C7  UNL     1     -34.954  37.495  55.721  1.00  0.00     0.005 C 
HETATM    8  C8  UNL     1     -36.216  37.926  56.485  1.00  0.00     0.000 C 
HETATM    9  C9  UNL     1     -36.995  36.667  56.741  1.00  0.00     0.000 C 
HETATM   10  C10 UNL     1     -36.537  35.766  55.588  1.00  0.00     0.005 C 
ENDBRANCH   5   6
BRANCH   1  11
HETATM   11  O1  UNL     1     -34.357  33.278  55.648  1.00  0.00    -0.395 OA
ATOM     12  H1  UNL     1     -34.516  33.945  56.306  1.00  0.00     0.210 HD
ENDBRANCH   1  11
TORSDOF 2
ENDMDL
MODEL 4
REMARK VINA RESULT: -4.919406059      1.622      4.632
REMARK  2 active torsions:
REMARK  status: ('A' for Active; 'I' for Inactive)
REMARK    1  A    between atoms: O1_1  and  C1_3 
REMARK    2  A    between atoms: C5_7  and  C6_8 
ROOT
HETATM    1  C1  UNL     1     -34.811  33.050  54.687  1.00  0.00     0.122 C 
HETATM    2  C2  UNL     1     -35.606  31.950  53.944  1.00  0.00     0.032 C 
HETATM    3  C3  UNL     1     -36.652  32.672  53.137  1.00  0.00     0.003 C 
HETATM    4  C4  UNL     1     -36.160  34.123  53.143  1.00  0.00     0.007 C 
HETATM    5  C5  UNL     1     -35.735  34.243  54.605  1.00  0.00     0.018 C 
ENDROOT
BRANCH   5   6
HETATM    6  C6  UNL     1     -35.095  35.541  54.941  1.00  0.00    -0.008 C 
HETATM    7  C7  UNL     1     -34.954  36.525  53.836  1.00  0.00     0.005 C 
HETATM    8  C8  UNL     1     -34.914  37.897  54.525  1.00  0.00     0.000 C 
HETATM    9  C9  UNL     1     -35.134  37.633  55.988  1.00  0.00     0.000 C 
HETATM   10  C10 UNL     1     -35.934  36.325  55.960  1.00  0.00     0.005 C 
ENDBRANCH   5   6
BRANCH   1  11
HETATM   11  O1  UNL     1     -33.684  33.343  53.895  1.00  0.00    -0.395 OA
ATOM     12  H1  UNL     1     -32.921  33.209  54.445  1.00  0.00     0.210 HD
ENDBRANCH   1  11
TORSDOF 2
ENDMDL
MODEL 5
REMARK VINA RESULT: -4.916686137      2.773      4.247
REMARK  2 active torsions:
REMARK  status: ('A' for Active; 'I' for Inactive)
REMARK    1  A    between atoms: O1_1  and  C1_3 
REMARK    2  A    between atoms: C5_7  and  C6_8 
ROOT
HETATM    1  C1  UNL     1     -36.631  37.091  54.271  1.00  0.00     0.122 C 
HETATM    2  C2  UNL     1     -37.118  38.044  55.387  1.00  0.00     0.032 C 
HETATM    3  C3  UNL     1     -36.070  37.984  56.466  1.00  0.00     0.003 C 
HETATM    4  C4  UNL     1     -34.877  37.332  55.759  1.00  0.00     0.007 C 
HETATM    5  C5  UNL     1     -35.606  36.239  54.981  1.00  0.00     0.018 C 
ENDROOT
BRANCH   5   6
HETATM    6  C6  UNL     1     -34.725  35.454  54.078  1.00  0.00    -0.008 C 
HETATM    7  C7  UNL     1     -33.263  35.689  54.197  1.00  0.00     0.005 C 
HETATM    8  C8  UNL     1     -32.607  34.388  53.710  1.00  0.00     0.000 C 
HETATM    9  C9  UNL     1     -33.736  33.436  53.429  1.00  0.00     0.000 C 
HETATM   10  C10 UNL     1     -34.831  33.950  54.371  1.00  0.00     0.005 C 
ENDBRANCH   5   6
BRANCH   1  11
HETATM   11  O1  UNL     1     -35.938  37.881  53.335  1.00  0.00    -0.395 OA
ATOM     12  H1  UNL     1     -35.348  37.300  52.868  1.00  0.00     0.210 HD
ENDBRANCH   1  11
TORSDOF 2
ENDMDL
