MODEL 1
REMARK VINA RESULT: -8.213965124      0.000      0.000
REMARK  5 active torsions:
REMARK  status: ('A' for Active; 'I' for Inactive)
REMARK    1  A    between atoms: C2_2  and  C3_3 
REMARK    2  A    between atoms: C3_3  and  C4_5 
REMARK    3  A    between atoms: C5_7  and  C6_8 
REMARK    4  A    between atoms: C7_11  and  O4_12 
REMARK    5  A    between atoms: C8_14  and  C9_15 
ROOT
HETATM    1  C4  UNL     1      30.021  -3.018  14.372  1.00  0.00     0.065 A 
HETATM    2  S1  UNL     1      28.956  -2.384  15.532  1.00  0.00    -0.076 SA
HETATM    3  C5  UNL     1      28.740  -3.774  16.500  1.00  0.00     0.116 A 
HETATM    4  C7  UNL     1      29.521  -4.713  15.878  1.00  0.00     0.102 A 
HETATM    5  C8  UNL     1      30.190  -4.318  14.767  1.00  0.00     0.033 A 
ENDROOT
BRANCH   5   6
HETATM    6  C9  UNL     1      31.083  -5.238  13.982  1.00  0.00     0.023 A 
HETATM    7  C10 UNL     1      32.342  -5.527  14.438  1.00  0.00     0.061 A 
HETATM    8  C11 UNL     1      33.155  -6.371  13.714  1.00  0.00     0.159 A 
HETATM    9  F1  UNL     1      34.403  -6.664  14.155  1.00  0.00    -0.203 F 
HETATM   10  C12 UNL     1      32.725  -6.945  12.515  1.00  0.00     0.196 A 
HETATM   11  F2  UNL     1      33.519  -7.773  11.801  1.00  0.00    -0.199 F 
HETATM   12  C13 UNL     1      31.459  -6.652  12.060  1.00  0.00     0.197 A 
HETATM   13  F3  UNL     1      31.034  -7.208  10.895  1.00  0.00    -0.199 F 
HETATM   14  C14 UNL     1      30.663  -5.806  12.800  1.00  0.00     0.169 A 
HETATM   15  F4  UNL     1      29.427  -5.538  12.327  1.00  0.00    -0.202 F 
ENDBRANCH   5   6
BRANCH   1  16
HETATM   16  C3  UNL     1      30.639  -2.349  13.200  1.00  0.00     0.167 C 
HETATM   17  O1  UNL     1      30.233  -2.505  12.035  1.00  0.00    -0.292 OA
BRANCH  16  18
HETATM   18  C2  UNL     1      31.788  -1.464  13.485  1.00  0.00     0.080 C 
HETATM   19  C1  UNL     1      31.425  -0.238  14.240  1.00  0.00     0.013 C 
ENDBRANCH  16  18
ENDBRANCH   1  16
BRANCH   4  20
HETATM   20  O4  UNL     1      29.568  -6.022  16.445  1.00  0.00    -0.358 OA
ATOM     21  H4  UNL     1      29.533  -6.763  15.852  1.00  0.00     0.217 HD
ENDBRANCH   4  20
BRANCH   3  22
HETATM   22  C6  UNL     1      27.908  -3.925  17.717  1.00  0.00     0.219 C 
HETATM   23  O2  UNL     1      28.476  -3.984  18.817  1.00  0.00    -0.643 OA
HETATM   24  O3  UNL     1      26.539  -4.000  17.647  1.00  0.00    -0.643 OA
ENDBRANCH   3  22
TORSDOF 5
ENDMDL
MODEL 2
REMARK VINA RESULT: -8.044459218      3.506      5.332
REMARK  5 active torsions:
REMARK  status: ('A' for Active; 'I' for Inactive)
REMARK    1  A    between atoms: C2_2  and  C3_3 
REMARK    2  A    between atoms: C3_3  and  C4_5 
REMARK    3  A    between atoms: C5_7  and  C6_8 
REMARK    4  A    between atoms: C7_11  and  O4_12 
REMARK    5  A    between atoms: C8_14  and  C9_15 
ROOT
HETATM    1  C4  UNL     1      27.809  -3.952  15.547  1.00  0.00     0.065 A 
HETATM    2  S1  UNL     1      26.162  -4.351  15.645  1.00  0.00    -0.076 SA
HETATM    3  C5  UNL     1      25.486  -2.805  15.385  1.00  0.00     0.116 A 
HETATM    4  C7  UNL     1      26.586  -2.005  15.225  1.00  0.00     0.102 A 
HETATM    5  C8  UNL     1      27.799  -2.604  15.309  1.00  0.00     0.033 A 
ENDROOT
BRANCH   5   6
HETATM    6  C9  UNL     1      29.093  -1.853  15.155  1.00  0.00     0.023 A 
HETATM    7  C10 UNL     1      29.663  -1.237  16.238  1.00  0.00     0.061 A 
HETATM    8  C11 UNL     1      30.848  -0.551  16.090  1.00  0.00     0.159 A 
HETATM    9  F1  UNL     1      31.422   0.062  17.154  1.00  0.00    -0.203 F 
HETATM   10  C12 UNL     1      31.490  -0.465  14.852  1.00  0.00     0.196 A 
HETATM   11  F2  UNL     1      32.652   0.207  14.701  1.00  0.00    -0.199 F 
HETATM   12  C13 UNL     1      30.913  -1.084  13.765  1.00  0.00     0.197 A 
HETATM   13  F3  UNL     1      31.532  -1.004  12.558  1.00  0.00    -0.199 F 
HETATM   14  C14 UNL     1      29.728  -1.765  13.937  1.00  0.00     0.169 A 
HETATM   15  F4  UNL     1      29.188  -2.362  12.852  1.00  0.00    -0.202 F 
ENDBRANCH   5   6
BRANCH   1  16
HETATM   16  C3  UNL     1      28.998  -4.831  15.681  1.00  0.00     0.167 C 
HETATM   17  O1  UNL     1      29.570  -5.041  16.765  1.00  0.00    -0.292 OA
BRANCH  16  18
HETATM   18  C2  UNL     1      29.484  -5.464  14.438  1.00  0.00     0.080 C 
HETATM   19  C1  UNL     1      30.923  -5.219  14.164  1.00  0.00     0.013 C 
ENDBRANCH  16  18
ENDBRANCH   1  16
BRANCH   4  20
HETATM   20  O4  UNL     1      26.371  -0.615  14.983  1.00  0.00    -0.358 OA
ATOM     21  H4  UNL     1      27.123  -0.036  15.024  1.00  0.00     0.217 HD
ENDBRANCH   4  20
BRANCH   3  22
HETATM   22  C6  UNL     1      24.054  -2.424  15.342  1.00  0.00     0.219 C 
HETATM   23  O2  UNL     1      23.235  -3.140  15.936  1.00  0.00    -0.643 OA
HETATM   24  O3  UNL     1      23.627  -1.308  14.667  1.00  0.00    -0.643 OA
ENDBRANCH   3  22
TORSDOF 5
ENDMDL
MODEL 3
REMARK VINA RESULT: -8.042649436      2.004      2.879
REMARK  5 active torsions:
REMARK  status: ('A' for Active; 'I' for Inactive)
REMARK    1  A    between atoms: C2_2  and  C3_3 
REMARK    2  A    between atoms: C3_3  and  C4_5 
REMARK    3  A    between atoms: C5_7  and  C6_8 
REMARK    4  A    between atoms: C7_11  and  O4_12 
REMARK    5  A    between atoms: C8_14  and  C9_15 
ROOT
HETATM    1  C4  UNL     1      29.019  -2.737  15.755  1.00  0.00     0.065 A 
HETATM    2  S1  UNL     1      27.565  -2.363  16.546  1.00  0.00    -0.076 SA
HETATM    3  C5  UNL     1      26.713  -3.816  16.264  1.00  0.00     0.116 A 
HETATM    4  C7  UNL     1      27.605  -4.567  15.546  1.00  0.00     0.102 A 
HETATM    5  C8  UNL     1      28.809  -4.004  15.279  1.00  0.00     0.033 A 
ENDROOT
BRANCH   5   6
HETATM    6  C9  UNL     1      29.886  -4.709  14.502  1.00  0.00     0.023 A 
HETATM    7  C10 UNL     1      29.816  -4.770  13.134  1.00  0.00     0.061 A 
HETATM    8  C11 UNL     1      30.806  -5.417  12.428  1.00  0.00     0.159 A 
HETATM    9  F1  UNL     1      30.750  -5.485  11.075  1.00  0.00    -0.203 F 
HETATM   10  C12 UNL     1      31.889  -6.019  13.075  1.00  0.00     0.196 A 
HETATM   11  F2  UNL     1      32.862  -6.655  12.387  1.00  0.00    -0.199 F 
HETATM   12  C13 UNL     1      31.954  -5.956  14.449  1.00  0.00     0.197 A 
HETATM   13  F3  UNL     1      33.004  -6.538  15.085  1.00  0.00    -0.199 F 
HETATM   14  C14 UNL     1      30.954  -5.303  15.135  1.00  0.00     0.169 A 
HETATM   15  F4  UNL     1      31.047  -5.258  16.482  1.00  0.00    -0.202 F 
ENDBRANCH   5   6
BRANCH   1  16
HETATM   16  C3  UNL     1      30.242  -1.910  15.598  1.00  0.00     0.167 C 
HETATM   17  O1  UNL     1      31.173  -1.910  16.422  1.00  0.00    -0.292 OA
BRANCH  16  18
HETATM   18  C2  UNL     1      30.308  -1.068  14.386  1.00  0.00     0.080 C 
HETATM   19  C1  UNL     1      31.426  -1.418  13.473  1.00  0.00     0.013 C 
ENDBRANCH  16  18
ENDBRANCH   1  16
BRANCH   4  20
HETATM   20  O4  UNL     1      27.200  -5.873  15.137  1.00  0.00    -0.358 OA
ATOM     21  H4  UNL     1      26.591  -6.343  15.694  1.00  0.00     0.217 HD
ENDBRANCH   4  20
BRANCH   3  22
HETATM   22  C6  UNL     1      25.341  -4.174  16.695  1.00  0.00     0.219 C 
HETATM   23  O2  UNL     1      24.650  -4.875  15.942  1.00  0.00    -0.643 OA
HETATM   24  O3  UNL     1      24.831  -3.749  17.896  1.00  0.00    -0.643 OA
ENDBRANCH   3  22
TORSDOF 5
ENDMDL
MODEL 4
REMARK VINA RESULT: -7.993445389      0.613      1.966
REMARK  5 active torsions:
REMARK  status: ('A' for Active; 'I' for Inactive)
REMARK    1  A    between atoms: C2_2  and  C3_3 
REMARK    2  A    between atoms: C3_3  and  C4_5 
REMARK    3  A    between atoms: C5_7  and  C6_8 
REMARK    4  A    between atoms: C7_11  and  O4_12 
REMARK    5  A    between atoms: C8_14  and  C9_15 
ROOT
HETATM    1  C4  UNL     1      29.887  -3.153  14.262  1.00  0.00     0.065 A 
HETATM    2  S1  UNL     1      28.837  -2.517  15.434  1.00  0.00    -0.076 SA
HETATM    3  C5  UNL     1      28.710  -3.875  16.461  1.00  0.00     0.116 A 
HETATM    4  C7  UNL     1      29.507  -4.806  15.848  1.00  0.00     0.102 A 
HETATM    5  C8  UNL     1      30.122  -4.429  14.700  1.00  0.00     0.033 A 
ENDROOT
BRANCH   5   6
HETATM    6  C9  UNL     1      31.024  -5.344  13.919  1.00  0.00     0.023 A 
HETATM    7  C10 UNL     1      30.645  -5.789  12.680  1.00  0.00     0.061 A 
HETATM    8  C11 UNL     1      31.477  -6.626  11.970  1.00  0.00     0.159 A 
HETATM    9  F1  UNL     1      31.113  -7.074  10.743  1.00  0.00    -0.203 F 
HETATM   10  C12 UNL     1      32.708  -7.038  12.486  1.00  0.00     0.196 A 
HETATM   11  F2  UNL     1      33.527  -7.860  11.793  1.00  0.00    -0.199 F 
HETATM   12  C13 UNL     1      33.085  -6.589  13.732  1.00  0.00     0.197 A 
HETATM   13  F3  UNL     1      34.282  -6.986  14.239  1.00  0.00    -0.199 F 
HETATM   14  C14 UNL     1      32.239  -5.752  14.424  1.00  0.00     0.169 A 
HETATM   15  F4  UNL     1      32.637  -5.329  15.643  1.00  0.00    -0.202 F 
ENDBRANCH   5   6
BRANCH   1  16
HETATM   16  C3  UNL     1      30.438  -2.507  13.044  1.00  0.00     0.167 C 
HETATM   17  O1  UNL     1      29.934  -2.641  11.916  1.00  0.00    -0.292 OA
BRANCH  16  18
HETATM   18  C2  UNL     1      31.643  -1.674  13.237  1.00  0.00     0.080 C 
HETATM   19  C1  UNL     1      31.410  -0.469  14.073  1.00  0.00     0.013 C 
ENDBRANCH  16  18
ENDBRANCH   1  16
BRANCH   4  20
HETATM   20  O4  UNL     1      29.627  -6.089  16.462  1.00  0.00    -0.358 OA
ATOM     21  H4  UNL     1      30.226  -6.713  16.070  1.00  0.00     0.217 HD
ENDBRANCH   4  20
BRANCH   3  22
HETATM   22  C6  UNL     1      27.927  -4.011  17.712  1.00  0.00     0.219 C 
HETATM   23  O2  UNL     1      28.539  -4.084  18.787  1.00  0.00    -0.643 OA
HETATM   24  O3  UNL     1      26.555  -4.056  17.698  1.00  0.00    -0.643 OA
ENDBRANCH   3  22
TORSDOF 5
ENDMDL
MODEL 5
REMARK VINA RESULT: -7.982988691      3.568      5.412
REMARK  5 active torsions:
REMARK  status: ('A' for Active; 'I' for Inactive)
REMARK    1  A    between atoms: C2_2  and  C3_3 
REMARK    2  A    between atoms: C3_3  and  C4_5 
REMARK    3  A    between atoms: C5_7  and  C6_8 
REMARK    4  A    between atoms: C7_11  and  O4_12 
REMARK    5  A    between atoms: C8_14  and  C9_15 
ROOT
HETATM    1  C4  UNL     1      26.722  -4.176  14.373  1.00  0.00     0.065 A 
HETATM    2  S1  UNL     1      25.084  -4.598  14.513  1.00  0.00    -0.076 SA
HETATM    3  C5  UNL     1      24.668  -3.652  15.872  1.00  0.00     0.116 A 
HETATM    4  C7  UNL     1      25.842  -3.020  16.185  1.00  0.00     0.102 A 
HETATM    5  C8  UNL     1      26.915  -3.294  15.403  1.00  0.00     0.033 A 
ENDROOT
BRANCH   5   6
HETATM    6  C9  UNL     1      28.268  -2.676  15.627  1.00  0.00     0.023 A 
HETATM    7  C10 UNL     1      28.535  -1.419  15.152  1.00  0.00     0.061 A 
HETATM    8  C11 UNL     1      29.775  -0.858  15.361  1.00  0.00     0.159 A 
HETATM    9  F1  UNL     1      30.053   0.385  14.896  1.00  0.00    -0.203 F 
HETATM   10  C12 UNL     1      30.778  -1.545  16.050  1.00  0.00     0.196 A 
HETATM   11  F2  UNL     1      31.997  -1.000  16.257  1.00  0.00    -0.199 F 
HETATM   12  C13 UNL     1      30.506  -2.809  16.525  1.00  0.00     0.197 A 
HETATM   13  F3  UNL     1      31.477  -3.482  17.197  1.00  0.00    -0.199 F 
HETATM   14  C14 UNL     1      29.258  -3.349  16.306  1.00  0.00     0.169 A 
HETATM   15  F4  UNL     1      29.022  -4.590  16.784  1.00  0.00    -0.202 F 
ENDBRANCH   5   6
BRANCH   1  16
HETATM   16  C3  UNL     1      27.730  -4.635  13.384  1.00  0.00     0.167 C 
HETATM   17  O1  UNL     1      27.970  -4.028  12.326  1.00  0.00    -0.292 OA
BRANCH  16  18
HETATM   18  C2  UNL     1      28.455  -5.877  13.721  1.00  0.00     0.080 C 
HETATM   19  C1  UNL     1      29.922  -5.788  13.515  1.00  0.00     0.013 C 
ENDBRANCH  16  18
ENDBRANCH   1  16
BRANCH   4  20
HETATM   20  O4  UNL     1      25.844  -2.131  17.301  1.00  0.00    -0.358 OA
ATOM     21  H4  UNL     1      26.486  -1.431  17.309  1.00  0.00     0.217 HD
ENDBRANCH   4  20
BRANCH   3  22
HETATM   22  C6  UNL     1      23.353  -3.543  16.547  1.00  0.00     0.219 C 
HETATM   23  O2  UNL     1      23.312  -3.647  17.781  1.00  0.00    -0.643 OA
HETATM   24  O3  UNL     1      22.197  -3.331  15.837  1.00  0.00    -0.643 OA
ENDBRANCH   3  22
TORSDOF 5
ENDMDL
