MODEL 1
REMARK VINA RESULT: -8.285513233      0.000      0.000
REMARK  5 active torsions:
REMARK  status: ('A' for Active; 'I' for Inactive)
REMARK    1  A    between atoms: O1_2  and  C2_3 
REMARK    2  A    between atoms: C4_5  and  O2_6 
REMARK    3  A    between atoms: C5_8  and  C6_9 
REMARK    4  A    between atoms: C8_12  and  O4_13 
REMARK    5  A    between atoms: C9_15  and  C10_16 
ROOT
HETATM    1  C2  UNL     1      31.087  -6.079  11.750  1.00  0.00     0.085 A 
HETATM    2  C3  UNL     1      32.207  -6.770  11.398  1.00  0.00     0.075 A 
HETATM    3  C4  UNL     1      33.223  -7.097  12.326  1.00  0.00     0.085 A 
HETATM    4  C5  UNL     1      33.082  -6.700  13.662  1.00  0.00     0.076 A 
HETATM    5  C8  UNL     1      31.936  -5.998  14.001  1.00  0.00     0.096 A 
HETATM    6  C9  UNL     1      30.975  -5.703  13.062  1.00  0.00     0.048 A 
ENDROOT
BRANCH   6   7
HETATM    7  C10 UNL     1      29.808  -4.967  13.493  1.00  0.00     0.063 A 
HETATM    8  C11 UNL     1      29.820  -3.591  13.434  1.00  0.00     0.171 A 
HETATM    9  F1  UNL     1      30.909  -2.887  12.977  1.00  0.00    -0.202 F 
HETATM   10  C12 UNL     1      28.686  -2.930  13.855  1.00  0.00     0.180 A 
HETATM   11  F2  UNL     1      28.653  -1.572  13.814  1.00  0.00    -0.201 F 
HETATM   12  C13 UNL     1      27.568  -3.611  14.321  1.00  0.00     0.117 A 
HETATM   13 CL1  UNL     1      26.129  -2.765  14.855  1.00  0.00    -0.077 Cl
HETATM   14  C14 UNL     1      27.589  -4.997  14.368  1.00  0.00     0.180 A 
HETATM   15  F3  UNL     1      26.518  -5.689  14.817  1.00  0.00    -0.201 F 
HETATM   16  C15 UNL     1      28.716  -5.671  13.950  1.00  0.00     0.171 A 
HETATM   17  F4  UNL     1      28.688  -7.042  14.015  1.00  0.00    -0.202 F 
ENDBRANCH   6   7
BRANCH   1  18
HETATM   18  O1  UNL     1      30.087  -5.765  10.801  1.00  0.00    -0.355 OA
HETATM   19  C1  UNL     1      30.439  -5.721   9.431  1.00  0.00     0.210 C 
ENDBRANCH   1  18
BRANCH   5  20
HETATM   20  O4  UNL     1      31.779  -5.590  15.343  1.00  0.00    -0.359 OA
ATOM     21  H4  UNL     1      31.386  -4.741  15.510  1.00  0.00     0.217 HD
ENDBRANCH   5  20
BRANCH   4  22
HETATM   22  C6  UNL     1      34.076  -6.996  14.669  1.00  0.00     0.161 C 
HETATM   23  C7  UNL     1      35.217  -6.113  14.976  1.00  0.00     0.097 C 
HETATM   24  O3  UNL     1      34.009  -8.047  15.347  1.00  0.00    -0.293 OA
ENDBRANCH   4  22
BRANCH   3  25
HETATM   25  O2  UNL     1      34.289  -7.789  11.845  1.00  0.00    -0.360 OA
ATOM     26  H2  UNL     1      34.786  -7.377  11.148  1.00  0.00     0.217 HD
ENDBRANCH   3  25
TORSDOF 5
ENDMDL
MODEL 2
REMARK VINA RESULT: -8.166494148      3.570      6.421
REMARK  5 active torsions:
REMARK  status: ('A' for Active; 'I' for Inactive)
REMARK    1  A    between atoms: O1_2  and  C2_3 
REMARK    2  A    between atoms: C4_5  and  O2_6 
REMARK    3  A    between atoms: C5_8  and  C6_9 
REMARK    4  A    between atoms: C8_12  and  O4_13 
REMARK    5  A    between atoms: C9_15  and  C10_16 
ROOT
HETATM    1  C2  UNL     1      29.190  -2.283  14.416  1.00  0.00     0.085 A 
HETATM    2  C3  UNL     1      28.249  -1.495  15.005  1.00  0.00     0.075 A 
HETATM    3  C4  UNL     1      27.135  -2.026  15.696  1.00  0.00     0.085 A 
HETATM    4  C5  UNL     1      26.985  -3.416  15.783  1.00  0.00     0.076 A 
HETATM    5  C8  UNL     1      27.953  -4.202  15.178  1.00  0.00     0.096 A 
HETATM    6  C9  UNL     1      29.019  -3.639  14.516  1.00  0.00     0.048 A 
ENDROOT
BRANCH   6   7
HETATM    7  C10 UNL     1      29.987  -4.524  13.910  1.00  0.00     0.063 A 
HETATM    8  C11 UNL     1      29.798  -4.939  12.610  1.00  0.00     0.171 A 
HETATM    9  F1  UNL     1      28.716  -4.538  11.863  1.00  0.00    -0.202 F 
HETATM   10  C12 UNL     1      30.746  -5.783  12.071  1.00  0.00     0.180 A 
HETATM   11  F2  UNL     1      30.600  -6.217  10.792  1.00  0.00    -0.201 F 
HETATM   12  C13 UNL     1      31.851  -6.206  12.798  1.00  0.00     0.117 A 
HETATM   13 CL1  UNL     1      33.053  -7.279  12.109  1.00  0.00    -0.077 Cl
HETATM   14  C14 UNL     1      32.012  -5.769  14.106  1.00  0.00     0.180 A 
HETATM   15  F3  UNL     1      33.076  -6.164  14.839  1.00  0.00    -0.201 F 
HETATM   16  C15 UNL     1      31.072  -4.926  14.656  1.00  0.00     0.171 A 
HETATM   17  F4  UNL     1      31.275  -4.521  15.953  1.00  0.00    -0.202 F 
ENDBRANCH   6   7
BRANCH   1  18
HETATM   18  O1  UNL     1      30.294  -1.725  13.730  1.00  0.00    -0.355 OA
HETATM   19  C1  UNL     1      30.950  -0.605  14.294  1.00  0.00     0.210 C 
ENDBRANCH   1  18
BRANCH   5  20
HETATM   20  O4  UNL     1      27.816  -5.604  15.257  1.00  0.00    -0.359 OA
ATOM     21  H4  UNL     1      28.450  -6.087  15.775  1.00  0.00     0.217 HD
ENDBRANCH   5  20
BRANCH   4  22
HETATM   22  C6  UNL     1      25.875  -4.035  16.472  1.00  0.00     0.161 C 
HETATM   23  C7  UNL     1      24.553  -4.259  15.856  1.00  0.00     0.097 C 
HETATM   24  O3  UNL     1      25.991  -4.422  17.658  1.00  0.00    -0.293 OA
ENDBRANCH   4  22
BRANCH   3  25
HETATM   25  O2  UNL     1      26.269  -1.130  16.237  1.00  0.00    -0.360 OA
ATOM     26  H2  UNL     1      26.651  -0.380  16.678  1.00  0.00     0.217 HD
ENDBRANCH   3  25
TORSDOF 5
ENDMDL
MODEL 3
REMARK VINA RESULT: -8.164229082      3.567      6.394
REMARK  5 active torsions:
REMARK  status: ('A' for Active; 'I' for Inactive)
REMARK    1  A    between atoms: O1_2  and  C2_3 
REMARK    2  A    between atoms: C4_5  and  O2_6 
REMARK    3  A    between atoms: C5_8  and  C6_9 
REMARK    4  A    between atoms: C8_12  and  O4_13 
REMARK    5  A    between atoms: C9_15  and  C10_16 
ROOT
HETATM    1  C2  UNL     1      29.212  -2.282  14.435  1.00  0.00     0.085 A 
HETATM    2  C3  UNL     1      28.263  -1.494  15.014  1.00  0.00     0.075 A 
HETATM    3  C4  UNL     1      27.146  -2.026  15.699  1.00  0.00     0.085 A 
HETATM    4  C5  UNL     1      27.000  -3.416  15.791  1.00  0.00     0.076 A 
HETATM    5  C8  UNL     1      27.975  -4.201  15.196  1.00  0.00     0.096 A 
HETATM    6  C9  UNL     1      29.044  -3.637  14.540  1.00  0.00     0.048 A 
ENDROOT
BRANCH   6   7
HETATM    7  C10 UNL     1      30.020  -4.522  13.945  1.00  0.00     0.063 A 
HETATM    8  C11 UNL     1      31.108  -4.922  14.689  1.00  0.00     0.171 A 
HETATM    9  F1  UNL     1      31.300  -4.509  15.986  1.00  0.00    -0.202 F 
HETATM   10  C12 UNL     1      32.013  -5.766  14.083  1.00  0.00     0.180 A 
HETATM   11  F2  UNL     1      33.102  -6.186  14.779  1.00  0.00    -0.201 F 
HETATM   12  C13 UNL     1      31.848  -6.203  12.774  1.00  0.00     0.117 A 
HETATM   13 CL1  UNL     1      33.002  -7.277  12.008  1.00  0.00    -0.077 Cl
HETATM   14  C14 UNL     1      30.741  -5.781  12.052  1.00  0.00     0.180 A 
HETATM   15  F3  UNL     1      30.553  -6.189  10.777  1.00  0.00    -0.201 F 
HETATM   16  C15 UNL     1      29.828  -4.938  12.646  1.00  0.00     0.171 A 
HETATM   17  F4  UNL     1      28.749  -4.548  11.891  1.00  0.00    -0.202 F 
ENDBRANCH   6   7
BRANCH   1  18
HETATM   18  O1  UNL     1      30.319  -1.722  13.756  1.00  0.00    -0.355 OA
HETATM   19  C1  UNL     1      30.970  -0.601  14.323  1.00  0.00     0.210 C 
ENDBRANCH   1  18
BRANCH   5  20
HETATM   20  O4  UNL     1      27.842  -5.603  15.280  1.00  0.00    -0.359 OA
ATOM     21  H4  UNL     1      28.380  -6.139  14.708  1.00  0.00     0.217 HD
ENDBRANCH   5  20
BRANCH   4  22
HETATM   22  C6  UNL     1      25.886  -4.037  16.474  1.00  0.00     0.161 C 
HETATM   23  C7  UNL     1      24.571  -4.268  15.848  1.00  0.00     0.097 C 
HETATM   24  O3  UNL     1      25.994  -4.417  17.662  1.00  0.00    -0.293 OA
ENDBRANCH   4  22
BRANCH   3  25
HETATM   25  O2  UNL     1      26.273  -1.130  16.230  1.00  0.00    -0.360 OA
ATOM     26  H2  UNL     1      26.001  -1.280  17.128  1.00  0.00     0.217 HD
ENDBRANCH   3  25
TORSDOF 5
ENDMDL
MODEL 4
REMARK VINA RESULT: -8.143043240      0.469      2.232
REMARK  5 active torsions:
REMARK  status: ('A' for Active; 'I' for Inactive)
REMARK    1  A    between atoms: O1_2  and  C2_3 
REMARK    2  A    between atoms: C4_5  and  O2_6 
REMARK    3  A    between atoms: C5_8  and  C6_9 
REMARK    4  A    between atoms: C8_12  and  O4_13 
REMARK    5  A    between atoms: C9_15  and  C10_16 
ROOT
HETATM    1  C2  UNL     1      31.101  -5.987  12.108  1.00  0.00     0.085 A 
HETATM    2  C3  UNL     1      32.173  -6.731  11.720  1.00  0.00     0.075 A 
HETATM    3  C4  UNL     1      33.206  -7.103  12.612  1.00  0.00     0.085 A 
HETATM    4  C5  UNL     1      33.132  -6.695  13.950  1.00  0.00     0.076 A 
HETATM    5  C8  UNL     1      32.034  -5.938  14.327  1.00  0.00     0.096 A 
HETATM    6  C9  UNL     1      31.055  -5.601  13.422  1.00  0.00     0.048 A 
ENDROOT
BRANCH   6   7
HETATM    7  C10 UNL     1      29.940  -4.809  13.890  1.00  0.00     0.063 A 
HETATM    8  C11 UNL     1      28.801  -5.445  14.333  1.00  0.00     0.171 A 
HETATM    9  F1  UNL     1      28.685  -6.816  14.345  1.00  0.00    -0.202 F 
HETATM   10  C12 UNL     1      27.763  -4.652  14.771  1.00  0.00     0.180 A 
HETATM   11  F2  UNL     1      26.620  -5.238  15.216  1.00  0.00    -0.201 F 
HETATM   12  C13 UNL     1      27.847  -3.265  14.773  1.00  0.00     0.117 A 
HETATM   13 CL1  UNL     1      26.524  -2.262  15.331  1.00  0.00    -0.077 Cl
HETATM   14  C14 UNL     1      29.009  -2.656  14.321  1.00  0.00     0.180 A 
HETATM   15  F3  UNL     1      29.122  -1.309  14.310  1.00  0.00    -0.201 F 
HETATM   16  C15 UNL     1      30.055  -3.437  13.880  1.00  0.00     0.171 A 
HETATM   17  F4  UNL     1      31.183  -2.787  13.443  1.00  0.00    -0.202 F 
ENDBRANCH   6   7
BRANCH   1  18
HETATM   18  O1  UNL     1      30.083  -5.629  11.194  1.00  0.00    -0.355 OA
HETATM   19  C1  UNL     1      30.375  -5.646   9.810  1.00  0.00     0.210 C 
ENDBRANCH   1  18
BRANCH   5  20
HETATM   20  O4  UNL     1      31.945  -5.519  15.671  1.00  0.00    -0.359 OA
ATOM     21  H4  UNL     1      32.179  -6.141  16.351  1.00  0.00     0.217 HD
ENDBRANCH   5  20
BRANCH   4  22
HETATM   22  C6  UNL     1      34.147  -7.035  14.923  1.00  0.00     0.161 C 
HETATM   23  C7  UNL     1      35.217  -6.111  15.344  1.00  0.00     0.097 C 
HETATM   24  O3  UNL     1      34.161  -8.163  15.467  1.00  0.00    -0.293 OA
ENDBRANCH   4  22
BRANCH   3  25
HETATM   25  O2  UNL     1      34.220  -7.847  12.096  1.00  0.00    -0.360 OA
ATOM     26  H2  UNL     1      34.912  -8.100  12.696  1.00  0.00     0.217 HD
ENDBRANCH   3  25
TORSDOF 5
ENDMDL
MODEL 5
REMARK VINA RESULT: -8.014031935      3.513      5.821
REMARK  5 active torsions:
REMARK  status: ('A' for Active; 'I' for Inactive)
REMARK    1  A    between atoms: O1_2  and  C2_3 
REMARK    2  A    between atoms: C4_5  and  O2_6 
REMARK    3  A    between atoms: C5_8  and  C6_9 
REMARK    4  A    between atoms: C8_12  and  O4_13 
REMARK    5  A    between atoms: C9_15  and  C10_16 
ROOT
HETATM    1  C2  UNL     1      28.986  -4.501  15.239  1.00  0.00     0.085 A 
HETATM    2  C3  UNL     1      28.613  -3.735  16.302  1.00  0.00     0.075 A 
HETATM    3  C4  UNL     1      29.115  -2.430  16.514  1.00  0.00     0.085 A 
HETATM    4  C5  UNL     1      30.032  -1.894  15.600  1.00  0.00     0.076 A 
HETATM    5  C8  UNL     1      30.400  -2.688  14.525  1.00  0.00     0.096 A 
HETATM    6  C9  UNL     1      29.884  -3.953  14.362  1.00  0.00     0.048 A 
ENDROOT
BRANCH   6   7
HETATM    7  C10 UNL     1      30.316  -4.719  13.216  1.00  0.00     0.063 A 
HETATM    8  C11 UNL     1      31.364  -5.603  13.353  1.00  0.00     0.171 A 
HETATM    9  F1  UNL     1      32.018  -5.784  14.549  1.00  0.00    -0.202 F 
HETATM   10  C12 UNL     1      31.742  -6.314  12.234  1.00  0.00     0.180 A 
HETATM   11  F2  UNL     1      32.772  -7.197  12.324  1.00  0.00    -0.201 F 
HETATM   12  C13 UNL     1      31.103  -6.156  11.011  1.00  0.00     0.117 A 
HETATM   13 CL1  UNL     1      31.588  -7.062   9.592  1.00  0.00    -0.077 Cl
HETATM   14  C14 UNL     1      30.050  -5.257  10.907  1.00  0.00     0.180 A 
HETATM   15  F3  UNL     1      29.408  -5.080   9.731  1.00  0.00    -0.201 F 
HETATM   16  C15 UNL     1      29.662  -4.541  12.017  1.00  0.00     0.171 A 
HETATM   17  F4  UNL     1      28.616  -3.663  11.864  1.00  0.00    -0.202 F 
ENDBRANCH   6   7
BRANCH   1  18
HETATM   18  O1  UNL     1      28.469  -5.803  15.052  1.00  0.00    -0.355 OA
HETATM   19  C1  UNL     1      27.217  -5.953  14.409  1.00  0.00     0.210 C 
ENDBRANCH   1  18
BRANCH   5  20
HETATM   20  O4  UNL     1      31.322  -2.163  13.596  1.00  0.00    -0.359 OA
ATOM     21  H4  UNL     1      32.041  -2.718  13.315  1.00  0.00     0.217 HD
ENDBRANCH   5  20
BRANCH   4  22
HETATM   22  C6  UNL     1      30.590  -0.568  15.747  1.00  0.00     0.161 C 
HETATM   23  C7  UNL     1      31.780  -0.268  16.566  1.00  0.00     0.097 C 
HETATM   24  O3  UNL     1      30.072   0.414  15.166  1.00  0.00    -0.293 OA
ENDBRANCH   4  22
BRANCH   3  25
HETATM   25  O2  UNL     1      28.662  -1.773  17.614  1.00  0.00    -0.360 OA
ATOM     26  H2  UNL     1      28.415  -0.863  17.497  1.00  0.00     0.217 HD
ENDBRANCH   3  25
TORSDOF 5
ENDMDL
