MODEL 1
REMARK VINA RESULT: -7.383060836      0.000      0.000
REMARK  3 active torsions:
REMARK  status: ('A' for Active; 'I' for Inactive)
REMARK    1  A    between atoms: C10_19  and  C11_20 
REMARK    2  A    between atoms: C11_20  and  C12_21 
REMARK    3  A    between atoms: C12_21  and  N3_22 
ROOT
HETATM    1  N1  UNL     1      31.584  -5.925  16.087  1.00  0.00    -0.196 NA
HETATM    2  C1  UNL     1      31.098  -4.916  16.418  1.00  0.00     0.073 C 
HETATM    3  C2  UNL     1      30.475  -3.655  16.853  1.00  0.00     0.176 C 
HETATM    4  C3  UNL     1      29.116  -3.882  17.356  1.00  0.00     0.136 C 
HETATM    5  N2  UNL     1      28.812  -3.610  18.564  1.00  0.00    -0.382 N 
ATOM      6  H21 UNL     1      27.867  -3.767  18.913  1.00  0.00     0.158 HD
ATOM      7  H22 UNL     1      29.514  -3.229  19.197  1.00  0.00     0.158 HD
HETATM    8  O1  UNL     1      28.165  -4.397  16.499  1.00  0.00    -0.294 OA
HETATM    9  C4  UNL     1      28.367  -4.101  15.134  1.00  0.00     0.109 A 
HETATM   10  C5  UNL     1      27.433  -4.604  14.247  1.00  0.00     0.092 A 
HETATM   11 CL1  UNL     1      26.076  -5.556  14.815  1.00  0.00    -0.079 Cl
HETATM   12  C6  UNL     1      27.610  -4.329  12.904  1.00  0.00     0.082 A 
HETATM   13 CL2  UNL     1      26.457  -4.946  11.768  1.00  0.00    -0.081 Cl
HETATM   14  C7  UNL     1      28.687  -3.574  12.453  1.00  0.00     0.080 A 
HETATM   15 CL3  UNL     1      28.922  -3.218  10.750  1.00  0.00    -0.081 Cl
HETATM   16  C8  UNL     1      29.618  -3.071  13.339  1.00  0.00     0.067 A 
HETATM   17 CL4  UNL     1      30.981  -2.117  12.782  1.00  0.00    -0.082 Cl
HETATM   18  C9  UNL     1      29.436  -3.350  14.686  1.00  0.00     0.007 A 
HETATM   19  C10 UNL     1      30.473  -2.773  15.609  1.00  0.00     0.050 C 
ENDROOT
BRANCH  19  20
HETATM   20  C11 UNL     1      30.099  -1.371  16.004  1.00  0.00     0.038 C 
BRANCH  20  21
HETATM   21  C12 UNL     1      31.240  -0.479  16.351  1.00  0.00     0.230 C 
BRANCH  21  22
HETATM   22  N3  UNL     1      30.859   0.537  17.334  1.00  0.00    -0.079 N 
ATOM     23  H33 UNL     1      29.980   0.298  17.794  1.00  0.00     0.274 HD
ATOM     24  H32 UNL     1      31.475   0.517  18.146  1.00  0.00     0.274 HD
ATOM     25  H31 UNL     1      30.820   1.469  16.921  1.00  0.00     0.274 HD
ENDBRANCH  21  22
ENDBRANCH  20  21
ENDBRANCH  19  20
TORSDOF 3
ENDMDL
MODEL 2
REMARK VINA RESULT: -7.222668193      3.347      4.688
REMARK  3 active torsions:
REMARK  status: ('A' for Active; 'I' for Inactive)
REMARK    1  A    between atoms: C10_19  and  C11_20 
REMARK    2  A    between atoms: C11_20  and  C12_21 
REMARK    3  A    between atoms: C12_21  and  N3_22 
ROOT
HETATM    1  N1  UNL     1      31.514  -1.511  13.281  1.00  0.00    -0.196 NA
HETATM    2  C1  UNL     1      30.664  -2.196  13.693  1.00  0.00     0.073 C 
HETATM    3  C2  UNL     1      29.600  -3.058  14.236  1.00  0.00     0.176 C 
HETATM    4  C3  UNL     1      30.084  -3.844  15.375  1.00  0.00     0.136 C 
HETATM    5  N2  UNL     1      29.566  -3.706  16.532  1.00  0.00    -0.382 N 
ATOM      6  H21 UNL     1      29.902  -4.252  17.324  1.00  0.00     0.158 HD
ATOM      7  H22 UNL     1      28.805  -3.043  16.678  1.00  0.00     0.158 HD
HETATM    8  O1  UNL     1      31.114  -4.741  15.178  1.00  0.00    -0.294 OA
HETATM    9  C4  UNL     1      31.204  -5.270  13.873  1.00  0.00     0.109 A 
HETATM   10  C5  UNL     1      32.227  -6.171  13.640  1.00  0.00     0.092 A 
HETATM   11 CL1  UNL     1      33.340  -6.618  14.918  1.00  0.00    -0.079 Cl
HETATM   12  C6  UNL     1      32.337  -6.703  12.369  1.00  0.00     0.082 A 
HETATM   13 CL2  UNL     1      33.609  -7.834  12.046  1.00  0.00    -0.081 Cl
HETATM   14  C7  UNL     1      31.455  -6.349  11.354  1.00  0.00     0.080 A 
HETATM   15 CL3  UNL     1      31.584  -7.018   9.736  1.00  0.00    -0.081 Cl
HETATM   16  C8  UNL     1      30.433  -5.450  11.588  1.00  0.00     0.067 A 
HETATM   17 CL4  UNL     1      29.313  -4.995  10.317  1.00  0.00    -0.082 Cl
HETATM   18  C9  UNL     1      30.327  -4.920  12.866  1.00  0.00     0.007 A 
HETATM   19  C10 UNL     1      29.194  -3.953  13.069  1.00  0.00     0.050 C 
ENDROOT
BRANCH  19  20
HETATM   20  C11 UNL     1      27.936  -4.692  13.435  1.00  0.00     0.038 C 
BRANCH  20  21
HETATM   21  C12 UNL     1      26.780  -3.835  13.818  1.00  0.00     0.230 C 
BRANCH  21  22
HETATM   22  N3  UNL     1      26.225  -4.215  15.118  1.00  0.00    -0.079 N 
ATOM     23  H33 UNL     1      25.822  -5.153  15.090  1.00  0.00     0.274 HD
ATOM     24  H32 UNL     1      26.963  -4.378  15.803  1.00  0.00     0.274 HD
ATOM     25  H31 UNL     1      25.548  -3.532  15.458  1.00  0.00     0.274 HD
ENDBRANCH  21  22
ENDBRANCH  20  21
ENDBRANCH  19  20
TORSDOF 3
ENDMDL
MODEL 3
REMARK VINA RESULT: -7.169335815      2.648      3.782
REMARK  3 active torsions:
REMARK  status: ('A' for Active; 'I' for Inactive)
REMARK    1  A    between atoms: C10_19  and  C11_20 
REMARK    2  A    between atoms: C11_20  and  C12_21 
REMARK    3  A    between atoms: C12_21  and  N3_22 
ROOT
HETATM    1  N1  UNL     1      31.577  -0.328  14.054  1.00  0.00    -0.196 NA
HETATM    2  C1  UNL     1      30.596  -0.800  14.474  1.00  0.00     0.073 C 
HETATM    3  C2  UNL     1      29.367  -1.395  15.026  1.00  0.00     0.176 C 
HETATM    4  C3  UNL     1      29.672  -2.315  16.126  1.00  0.00     0.136 C 
HETATM    5  N2  UNL     1      29.232  -2.097  17.302  1.00  0.00    -0.382 N 
ATOM      6  H21 UNL     1      29.444  -2.737  18.067  1.00  0.00     0.158 HD
ATOM      7  H22 UNL     1      28.661  -1.274  17.492  1.00  0.00     0.158 HD
HETATM    8  O1  UNL     1      30.445  -3.429  15.868  1.00  0.00    -0.294 OA
HETATM    9  C4  UNL     1      30.370  -3.917  14.547  1.00  0.00     0.109 A 
HETATM   10  C5  UNL     1      31.134  -5.031  14.255  1.00  0.00     0.092 A 
HETATM   11 CL1  UNL     1      32.136  -5.782  15.481  1.00  0.00    -0.079 Cl
HETATM   12  C6  UNL     1      31.079  -5.528  12.965  1.00  0.00     0.082 A 
HETATM   13 CL2  UNL     1      32.026  -6.923  12.568  1.00  0.00    -0.081 Cl
HETATM   14  C7  UNL     1      30.286  -4.933  11.991  1.00  0.00     0.080 A 
HETATM   15 CL3  UNL     1      30.207  -5.554  10.351  1.00  0.00    -0.081 Cl
HETATM   16  C8  UNL     1      29.522  -3.821  12.284  1.00  0.00     0.067 A 
HETATM   17 CL4  UNL     1      28.516  -3.061  11.064  1.00  0.00    -0.082 Cl
HETATM   18  C9  UNL     1      29.581  -3.327  13.579  1.00  0.00     0.007 A 
HETATM   19  C10 UNL     1      28.725  -2.121  13.848  1.00  0.00     0.050 C 
ENDROOT
BRANCH  19  20
HETATM   20  C11 UNL     1      27.333  -2.543  14.234  1.00  0.00     0.038 C 
BRANCH  20  21
HETATM   21  C12 UNL     1      26.353  -1.434  14.401  1.00  0.00     0.230 C 
BRANCH  21  22
HETATM   22  N3  UNL     1      26.038  -1.192  15.810  1.00  0.00    -0.079 N 
ATOM     23  H33 UNL     1      25.448  -1.932  16.191  1.00  0.00     0.274 HD
ATOM     24  H32 UNL     1      26.859  -1.321  16.401  1.00  0.00     0.274 HD
ATOM     25  H31 UNL     1      25.619  -0.273  15.953  1.00  0.00     0.274 HD
ENDBRANCH  21  22
ENDBRANCH  20  21
ENDBRANCH  19  20
TORSDOF 3
ENDMDL
MODEL 4
REMARK VINA RESULT: -7.158092945      3.928      5.089
REMARK  3 active torsions:
REMARK  status: ('A' for Active; 'I' for Inactive)
REMARK    1  A    between atoms: C10_19  and  C11_20 
REMARK    2  A    between atoms: C11_20  and  C12_21 
REMARK    3  A    between atoms: C12_21  and  N3_22 
ROOT
HETATM    1  N1  UNL     1      27.823  -6.680  14.297  1.00  0.00    -0.196 NA
HETATM    2  C1  UNL     1      28.306  -5.651  14.029  1.00  0.00     0.073 C 
HETATM    3  C2  UNL     1      28.901  -4.352  13.671  1.00  0.00     0.176 C 
HETATM    4  C3  UNL     1      29.156  -4.266  12.229  1.00  0.00     0.136 C 
HETATM    5  N2  UNL     1      28.578  -3.382  11.515  1.00  0.00    -0.382 N 
ATOM      6  H21 UNL     1      28.755  -3.322  10.513  1.00  0.00     0.158 HD
ATOM      7  H22 UNL     1      27.928  -2.721  11.942  1.00  0.00     0.158 HD
HETATM    8  O1  UNL     1      30.034  -5.160  11.652  1.00  0.00    -0.294 OA
HETATM    9  C4  UNL     1      31.039  -5.651  12.513  1.00  0.00     0.109 A 
HETATM   10  C5  UNL     1      31.936  -6.551  11.967  1.00  0.00     0.092 A 
HETATM   11 CL1  UNL     1      31.811  -7.039  10.288  1.00  0.00    -0.079 Cl
HETATM   12  C6  UNL     1      32.929  -7.048  12.790  1.00  0.00     0.082 A 
HETATM   13 CL2  UNL     1      34.067  -8.177  12.135  1.00  0.00    -0.081 Cl
HETATM   14  C7  UNL     1      33.029  -6.662  14.122  1.00  0.00     0.080 A 
HETATM   15 CL3  UNL     1      34.286  -7.285  15.177  1.00  0.00    -0.081 Cl
HETATM   16  C8  UNL     1      32.134  -5.762  14.666  1.00  0.00     0.067 A 
HETATM   17 CL4  UNL     1      32.249  -5.267  16.345  1.00  0.00    -0.082 Cl
HETATM   18  C9  UNL     1      31.139  -5.267  13.835  1.00  0.00     0.007 A 
HETATM   19  C10 UNL     1      30.197  -4.285  14.474  1.00  0.00     0.050 C 
ENDROOT
BRANCH  19  20
HETATM   20  C11 UNL     1      30.754  -2.891  14.386  1.00  0.00     0.038 C 
BRANCH  20  21
HETATM   21  C12 UNL     1      30.026  -1.861  15.177  1.00  0.00     0.230 C 
BRANCH  21  22
HETATM   22  N3  UNL     1      30.318  -1.963  16.608  1.00  0.00    -0.079 N 
ATOM     23  H33 UNL     1      29.791  -1.274  17.145  1.00  0.00     0.274 HD
ATOM     24  H32 UNL     1      29.922  -2.814  17.007  1.00  0.00     0.274 HD
ATOM     25  H31 UNL     1      31.318  -1.895  16.798  1.00  0.00     0.274 HD
ENDBRANCH  21  22
ENDBRANCH  20  21
ENDBRANCH  19  20
TORSDOF 3
ENDMDL
MODEL 5
REMARK VINA RESULT: -7.119007121      1.335      1.354
REMARK  3 active torsions:
REMARK  status: ('A' for Active; 'I' for Inactive)
REMARK    1  A    between atoms: C10_19  and  C11_20 
REMARK    2  A    between atoms: C11_20  and  C12_21 
REMARK    3  A    between atoms: C12_21  and  N3_22 
ROOT
HETATM    1  N1  UNL     1      29.838  -5.568  16.601  1.00  0.00    -0.196 NA
HETATM    2  C1  UNL     1      29.750  -4.407  16.688  1.00  0.00     0.073 C 
HETATM    3  C2  UNL     1      29.625  -2.945  16.819  1.00  0.00     0.176 C 
HETATM    4  C3  UNL     1      28.299  -2.570  17.319  1.00  0.00     0.136 C 
HETATM    5  N2  UNL     1      28.169  -1.955  18.429  1.00  0.00    -0.382 N 
ATOM      6  H21 UNL     1      27.247  -1.693  18.776  1.00  0.00     0.158 HD
ATOM      7  H22 UNL     1      28.991  -1.717  18.983  1.00  0.00     0.158 HD
HETATM    8  O1  UNL     1      27.187  -2.892  16.568  1.00  0.00    -0.294 OA
HETATM    9  C4  UNL     1      27.410  -2.986  15.178  1.00  0.00     0.109 A 
HETATM   10  C5  UNL     1      26.317  -3.309  14.397  1.00  0.00     0.092 A 
HETATM   11 CL1  UNL     1      24.744  -3.581  15.119  1.00  0.00    -0.079 Cl
HETATM   12  C6  UNL     1      26.511  -3.409  13.031  1.00  0.00     0.082 A 
HETATM   13 CL2  UNL     1      25.160  -3.814  12.025  1.00  0.00    -0.081 Cl
HETATM   14  C7  UNL     1      27.758  -3.194  12.457  1.00  0.00     0.080 A 
HETATM   15 CL3  UNL     1      28.017  -3.318  10.725  1.00  0.00    -0.081 Cl
HETATM   16  C8  UNL     1      28.850  -2.871  13.238  1.00  0.00     0.067 A 
HETATM   17 CL4  UNL     1      30.429  -2.597  12.526  1.00  0.00    -0.082 Cl
HETATM   18  C9  UNL     1      28.649  -2.771  14.608  1.00  0.00     0.007 A 
HETATM   19  C10 UNL     1      29.867  -2.409  15.412  1.00  0.00     0.050 C 
ENDROOT
BRANCH  19  20
HETATM   20  C11 UNL     1      30.023  -0.914  15.479  1.00  0.00     0.038 C 
BRANCH  20  21
HETATM   21  C12 UNL     1      31.197  -0.429  16.256  1.00  0.00     0.230 C 
BRANCH  21  22
HETATM   22  N3  UNL     1      30.795   0.432  17.371  1.00  0.00    -0.079 N 
ATOM     23  H33 UNL     1      31.390   0.286  18.186  1.00  0.00     0.274 HD
ATOM     24  H32 UNL     1      31.018   1.409  17.183  1.00  0.00     0.274 HD
ATOM     25  H31 UNL     1      29.810   0.315  17.606  1.00  0.00     0.274 HD
ENDBRANCH  21  22
ENDBRANCH  20  21
ENDBRANCH  19  20
TORSDOF 3
ENDMDL
