MODEL 1
REMARK VINA RESULT: -7.561065509      0.000      0.000
REMARK  4 active torsions:
REMARK  status: ('A' for Active; 'I' for Inactive)
REMARK    1  A    between atoms: N1_2  and  C2_3 
REMARK    2  A    between atoms: N1_2  and  C6_13 
REMARK    3  A    between atoms: C2_3  and  C3_4 
REMARK    4  A    between atoms: C5_10  and  O2_11 
ROOT
HETATM    1  C1  UNL     1      28.404  -6.231  14.135  1.00  0.00     0.150 C 
HETATM    2  N1  UNL     1      29.543  -5.400  13.860  1.00  0.00    -0.378 N 
ENDROOT
BRANCH   2   3
HETATM    3  C2  UNL     1      29.535  -4.019  14.190  1.00  0.00     0.183 C 
BRANCH   3   4
HETATM    4  C3  UNL     1      28.795  -3.615  15.430  1.00  0.00     0.071 A 
HETATM    5  N2  UNL     1      29.053  -3.997  16.645  1.00  0.00    -0.317 N 
HETATM    6  C4  UNL     1      28.296  -3.549  17.650  1.00  0.00     0.290 A 
ATOM      7  H2  UNL     1      29.829  -4.633  16.829  1.00  0.00     0.169 HD
HETATM    8  O1  UNL     1      28.397  -3.811  18.902  1.00  0.00    -0.260 OA
HETATM    9  S1  UNL     1      27.168  -2.547  16.869  1.00  0.00    -0.002 SA
HETATM   10  C5  UNL     1      27.723  -2.748  15.269  1.00  0.00     0.136 A 
BRANCH  10  11
HETATM   11  O2  UNL     1      27.221  -2.179  14.080  1.00  0.00    -0.352 OA
ATOM     12  H2  UNL     1      26.757  -1.358  13.965  1.00  0.00     0.218 HD
ENDBRANCH  10  11
ENDBRANCH   3   4
ENDBRANCH   2   3
BRANCH   2  13
HETATM   13  C6  UNL     1      30.727  -5.941  13.291  1.00  0.00     0.055 A 
HETATM   14  C7  UNL     1      30.764  -6.204  11.904  1.00  0.00     0.058 A 
HETATM   15  C8  UNL     1      31.865  -6.721  11.273  1.00  0.00     0.076 A 
HETATM   16 CL1  UNL     1      31.831  -7.018   9.549  1.00  0.00    -0.081 Cl
HETATM   17  C9  UNL     1      32.995  -7.006  11.996  1.00  0.00     0.161 A 
HETATM   18  F1  UNL     1      34.113  -7.522  11.403  1.00  0.00    -0.202 F 
HETATM   19  C10 UNL     1      33.004  -6.766  13.345  1.00  0.00     0.098 A 
HETATM   20 CL2  UNL     1      34.397  -7.099  14.343  1.00  0.00    -0.079 Cl
HETATM   21  C11 UNL     1      31.880  -6.242  13.964  1.00  0.00     0.085 A 
HETATM   22 CL3  UNL     1      31.923  -5.952  15.708  1.00  0.00    -0.080 Cl
ENDBRANCH   2  13
TORSDOF 4
ENDMDL
MODEL 2
REMARK VINA RESULT: -7.459442604      4.031      5.350
REMARK  4 active torsions:
REMARK  status: ('A' for Active; 'I' for Inactive)
REMARK    1  A    between atoms: N1_2  and  C2_3 
REMARK    2  A    between atoms: N1_2  and  C6_13 
REMARK    3  A    between atoms: C2_3  and  C3_4 
REMARK    4  A    between atoms: C5_10  and  O2_11 
ROOT
HETATM    1  C1  UNL     1      29.243  -4.093  17.778  1.00  0.00     0.150 C 
HETATM    2  N1  UNL     1      28.756  -2.971  17.023  1.00  0.00    -0.378 N 
ENDROOT
BRANCH   2   3
HETATM    3  C2  UNL     1      27.598  -2.262  17.435  1.00  0.00     0.183 C 
BRANCH   3   4
HETATM    4  C3  UNL     1      26.324  -2.540  16.694  1.00  0.00     0.071 A 
HETATM    5  N2  UNL     1      25.847  -1.863  15.692  1.00  0.00    -0.317 N 
HETATM    6  C4  UNL     1      24.691  -2.236  15.138  1.00  0.00     0.290 A 
ATOM      7  H2  UNL     1      26.353  -1.053  15.333  1.00  0.00     0.169 HD
HETATM    8  O1  UNL     1      24.070  -1.699  14.152  1.00  0.00    -0.260 OA
HETATM    9  S1  UNL     1      24.242  -3.596  16.053  1.00  0.00    -0.002 SA
HETATM   10  C5  UNL     1      25.573  -3.626  17.120  1.00  0.00     0.136 A 
BRANCH  10  11
HETATM   11  O2  UNL     1      25.845  -4.528  18.171  1.00  0.00    -0.352 OA
ATOM     12  H2  UNL     1      25.235  -5.060  18.668  1.00  0.00     0.218 HD
ENDBRANCH  10  11
ENDBRANCH   3   4
ENDBRANCH   2   3
BRANCH   2  13
HETATM   13  C6  UNL     1      29.443  -2.511  15.867  1.00  0.00     0.055 A 
HETATM   14  C7  UNL     1      30.317  -1.407  15.982  1.00  0.00     0.058 A 
HETATM   15  C8  UNL     1      31.021  -0.900  14.922  1.00  0.00     0.076 A 
HETATM   16 CL1  UNL     1      32.085   0.471  15.148  1.00  0.00    -0.081 Cl
HETATM   17  C9  UNL     1      30.891  -1.470  13.681  1.00  0.00     0.161 A 
HETATM   18  F1  UNL     1      31.576  -0.994  12.599  1.00  0.00    -0.202 F 
HETATM   19  C10 UNL     1      30.054  -2.543  13.523  1.00  0.00     0.098 A 
HETATM   20 CL2  UNL     1      29.826  -3.330  11.981  1.00  0.00    -0.079 Cl
HETATM   21  C11 UNL     1      29.350  -3.041  14.609  1.00  0.00     0.085 A 
HETATM   22 CL3  UNL     1      28.273  -4.423  14.368  1.00  0.00    -0.080 Cl
ENDBRANCH   2  13
TORSDOF 4
ENDMDL
MODEL 3
REMARK VINA RESULT: -7.403866826      0.978      2.594
REMARK  4 active torsions:
REMARK  status: ('A' for Active; 'I' for Inactive)
REMARK    1  A    between atoms: N1_2  and  C2_3 
REMARK    2  A    between atoms: N1_2  and  C6_13 
REMARK    3  A    between atoms: C2_3  and  C3_4 
REMARK    4  A    between atoms: C5_10  and  O2_11 
ROOT
HETATM    1  C1  UNL     1      30.578  -2.852  13.768  1.00  0.00     0.150 C 
HETATM    2  N1  UNL     1      30.154  -4.221  13.665  1.00  0.00    -0.378 N 
ENDROOT
BRANCH   2   3
HETATM    3  C2  UNL     1      28.845  -4.610  14.051  1.00  0.00     0.183 C 
BRANCH   3   4
HETATM    4  C3  UNL     1      28.302  -4.024  15.321  1.00  0.00     0.071 A 
HETATM    5  N2  UNL     1      28.728  -4.260  16.526  1.00  0.00    -0.317 N 
HETATM    6  C4  UNL     1      28.135  -3.661  17.561  1.00  0.00     0.290 A 
ATOM      7  H2  UNL     1      29.509  -4.898  16.679  1.00  0.00     0.169 HD
HETATM    8  O1  UNL     1      28.412  -3.767  18.810  1.00  0.00    -0.260 OA
HETATM    9  S1  UNL     1      26.924  -2.722  16.826  1.00  0.00    -0.002 SA
HETATM   10  C5  UNL     1      27.236  -3.145  15.203  1.00  0.00     0.136 A 
BRANCH  10  11
HETATM   11  O2  UNL     1      26.577  -2.711  14.033  1.00  0.00    -0.352 OA
ATOM     12  H2  UNL     1      25.778  -2.201  13.957  1.00  0.00     0.218 HD
ENDBRANCH  10  11
ENDBRANCH   3   4
ENDBRANCH   2   3
BRANCH   2  13
HETATM   13  C6  UNL     1      31.014  -5.218  13.131  1.00  0.00     0.055 A 
HETATM   14  C7  UNL     1      32.026  -5.762  13.953  1.00  0.00     0.058 A 
HETATM   15  C8  UNL     1      32.896  -6.729  13.522  1.00  0.00     0.076 A 
HETATM   16 CL1  UNL     1      34.124  -7.352  14.602  1.00  0.00    -0.081 Cl
HETATM   17  C9  UNL     1      32.803  -7.209  12.240  1.00  0.00     0.161 A 
HETATM   18  F1  UNL     1      33.651  -8.173  11.773  1.00  0.00    -0.202 F 
HETATM   19  C10 UNL     1      31.835  -6.710  11.408  1.00  0.00     0.098 A 
HETATM   20 CL2  UNL     1      31.644  -7.261   9.763  1.00  0.00    -0.079 Cl
HETATM   21  C11 UNL     1      30.965  -5.731  11.864  1.00  0.00     0.085 A 
HETATM   22 CL3  UNL     1      29.732  -5.104  10.761  1.00  0.00    -0.080 Cl
ENDBRANCH   2  13
TORSDOF 4
ENDMDL
MODEL 4
REMARK VINA RESULT: -7.403080685      0.714      1.079
REMARK  4 active torsions:
REMARK  status: ('A' for Active; 'I' for Inactive)
REMARK    1  A    between atoms: N1_2  and  C2_3 
REMARK    2  A    between atoms: N1_2  and  C6_13 
REMARK    3  A    between atoms: C2_3  and  C3_4 
REMARK    4  A    between atoms: C5_10  and  O2_11 
ROOT
HETATM    1  C1  UNL     1      30.559  -2.970  13.755  1.00  0.00     0.150 C 
HETATM    2  N1  UNL     1      30.203  -4.362  13.733  1.00  0.00    -0.378 N 
ENDROOT
BRANCH   2   3
HETATM    3  C2  UNL     1      28.908  -4.790  14.127  1.00  0.00     0.183 C 
BRANCH   3   4
HETATM    4  C3  UNL     1      28.330  -4.173  15.366  1.00  0.00     0.071 A 
HETATM    5  N2  UNL     1      28.758  -4.333  16.582  1.00  0.00    -0.317 N 
HETATM    6  C4  UNL     1      28.130  -3.716  17.586  1.00  0.00     0.290 A 
ATOM      7  H2  UNL     1      29.568  -4.925  16.768  1.00  0.00     0.169 HD
HETATM    8  O1  UNL     1      28.404  -3.751  18.840  1.00  0.00    -0.260 OA
HETATM    9  S1  UNL     1      26.881  -2.871  16.803  1.00  0.00    -0.002 SA
HETATM   10  C5  UNL     1      27.223  -3.352  15.203  1.00  0.00     0.136 A 
BRANCH  10  11
HETATM   11  O2  UNL     1      26.552  -3.004  14.011  1.00  0.00    -0.352 OA
ATOM     12  H2  UNL     1      26.295  -2.142  13.706  1.00  0.00     0.218 HD
ENDBRANCH  10  11
ENDBRANCH   3   4
ENDBRANCH   2   3
BRANCH   2  13
HETATM   13  C6  UNL     1      31.118  -5.347  13.275  1.00  0.00     0.055 A 
HETATM   14  C7  UNL     1      31.070  -5.753  11.922  1.00  0.00     0.058 A 
HETATM   15  C8  UNL     1      31.917  -6.692  11.396  1.00  0.00     0.076 A 
HETATM   16 CL1  UNL     1      31.793  -7.140   9.709  1.00  0.00    -0.081 Cl
HETATM   17  C9  UNL     1      32.862  -7.283  12.195  1.00  0.00     0.161 A 
HETATM   18  F1  UNL     1      33.725  -8.224  11.707  1.00  0.00    -0.202 F 
HETATM   19  C10 UNL     1      32.945  -6.920  13.513  1.00  0.00     0.098 A 
HETATM   20 CL2  UNL     1      34.117  -7.619  14.602  1.00  0.00    -0.079 Cl
HETATM   21  C11 UNL     1      32.079  -5.967  14.026  1.00  0.00     0.085 A 
HETATM   22 CL3  UNL     1      32.209  -5.527  15.734  1.00  0.00    -0.080 Cl
ENDBRANCH   2  13
TORSDOF 4
ENDMDL
MODEL 5
REMARK VINA RESULT: -7.352903884      1.746      2.874
REMARK  4 active torsions:
REMARK  status: ('A' for Active; 'I' for Inactive)
REMARK    1  A    between atoms: N1_2  and  C2_3 
REMARK    2  A    between atoms: N1_2  and  C6_13 
REMARK    3  A    between atoms: C2_3  and  C3_4 
REMARK    4  A    between atoms: C5_10  and  O2_11 
ROOT
HETATM    1  C1  UNL     1      30.508  -3.165  14.320  1.00  0.00     0.150 C 
HETATM    2  N1  UNL     1      30.532  -4.575  14.596  1.00  0.00    -0.378 N 
ENDROOT
BRANCH   2   3
HETATM    3  C2  UNL     1      29.683  -5.140  15.584  1.00  0.00     0.183 C 
BRANCH   3   4
HETATM    4  C3  UNL     1      28.336  -4.509  15.772  1.00  0.00     0.071 A 
HETATM    5  N2  UNL     1      28.015  -3.620  16.664  1.00  0.00    -0.317 N 
HETATM    6  C4  UNL     1      26.765  -3.154  16.707  1.00  0.00     0.290 A 
ATOM      7  H2  UNL     1      28.714  -3.281  17.325  1.00  0.00     0.169 HD
HETATM    8  O1  UNL     1      26.266  -2.283  17.507  1.00  0.00    -0.260 OA
HETATM    9  S1  UNL     1      25.994  -3.991  15.446  1.00  0.00    -0.002 SA
HETATM   10  C5  UNL     1      27.326  -4.914  14.912  1.00  0.00     0.136 A 
BRANCH  10  11
HETATM   11  O2  UNL     1      27.387  -5.853  13.861  1.00  0.00    -0.352 OA
ATOM     12  H2  UNL     1      26.672  -6.240  13.369  1.00  0.00     0.218 HD
ENDBRANCH  10  11
ENDBRANCH   3   4
ENDBRANCH   2   3
BRANCH   2  13
HETATM   13  C6  UNL     1      31.373  -5.453  13.860  1.00  0.00     0.055 A 
HETATM   14  C7  UNL     1      32.487  -6.036  14.504  1.00  0.00     0.058 A 
HETATM   15  C8  UNL     1      33.347  -6.896  13.872  1.00  0.00     0.076 A 
HETATM   16 CL1  UNL     1      34.705  -7.577  14.740  1.00  0.00    -0.081 Cl
HETATM   17  C9  UNL     1      33.140  -7.222  12.556  1.00  0.00     0.161 A 
HETATM   18  F1  UNL     1      33.975  -8.076  11.891  1.00  0.00    -0.202 F 
HETATM   19  C10 UNL     1      32.072  -6.680  11.892  1.00  0.00     0.098 A 
HETATM   20 CL2  UNL     1      31.733  -7.039  10.217  1.00  0.00    -0.079 Cl
HETATM   21  C11 UNL     1      31.214  -5.812  12.550  1.00  0.00     0.085 A 
HETATM   22 CL3  UNL     1      29.848  -5.125  11.661  1.00  0.00    -0.080 Cl
ENDBRANCH   2  13
TORSDOF 4
ENDMDL
