MODEL 1
REMARK VINA RESULT: -7.448236238      0.000      0.000
REMARK  4 active torsions:
REMARK  status: ('A' for Active; 'I' for Inactive)
REMARK    1  A    between atoms: C2_2  and  C3_3 
REMARK    2  A    between atoms: C3_3  and  C4_6 
REMARK    3  A    between atoms: N1_7  and  N2_9 
REMARK    4  A    between atoms: N2_9  and  C5_11 
ROOT
HETATM    1  C5  UNL     1      28.123  -2.612  16.312  1.00  0.00     0.699 A 
HETATM    2  N3  UNL     1      27.102  -1.884  15.923  1.00  0.00    -0.174 N 
ATOM      3  H3  UNL     1      26.971  -0.956  16.325  1.00  0.00     0.186 HD
HETATM    4  C6  UNL     1      26.205  -2.342  14.985  1.00  0.00     0.143 A 
HETATM    5  N4  UNL     1      25.165  -1.720  14.525  1.00  0.00    -0.326 N 
ATOM      6  H4  UNL     1      24.940  -0.784  14.862  1.00  0.00     0.169 HD
HETATM    7  C7  UNL     1      24.396  -2.301  13.619  1.00  0.00     0.148 A 
HETATM    8 CL3  UNL     1      22.939  -1.628  12.867  1.00  0.00    -0.056 Cl
HETATM    9  S1  UNL     1      25.172  -3.806  13.398  1.00  0.00    -0.053 SA
HETATM   10  C8  UNL     1      26.465  -3.598  14.503  1.00  0.00     0.091 A 
HETATM   11  C9  UNL     1      27.565  -4.354  14.937  1.00  0.00     0.140 A 
HETATM   12 CL4  UNL     1      27.766  -5.925  14.239  1.00  0.00    -0.062 Cl
HETATM   13  N5  UNL     1      28.424  -3.861  15.864  1.00  0.00    -0.178 N 
ATOM     14  H5  UNL     1      29.232  -4.386  16.200  1.00  0.00     0.185 HD
ENDROOT
BRANCH   1  15
HETATM   15  N2  UNL     1      28.943  -2.150  17.192  1.00  0.00    -0.132 N 
ATOM     16  H2  UNL     1      28.987  -2.553  18.128  1.00  0.00     0.205 HD
BRANCH  15  17
HETATM   17  N1  UNL     1      29.767  -1.088  16.830  1.00  0.00    -0.298 N 
HETATM   18  C4  UNL     1      30.538  -1.135  15.807  1.00  0.00     0.122 C 
ATOM     19  H1  UNL     1      29.758  -0.242  17.401  1.00  0.00     0.186 HD
BRANCH  18  20
HETATM   20  C3  UNL     1      31.369   0.078  15.535  1.00  0.00     0.146 C 
HETATM   21 CL1  UNL     1      32.636   0.206  16.747  1.00  0.00    -0.096 Cl
HETATM   22 CL2  UNL     1      30.285   1.481  15.641  1.00  0.00    -0.096 Cl
BRANCH  20  23
HETATM   23  C2  UNL     1      31.944  -0.029  14.147  1.00  0.00     0.043 C 
HETATM   24  C1  UNL     1      31.203  -1.145  13.408  1.00  0.00     0.009 C 
ENDBRANCH  20  23
ENDBRANCH  18  20
ENDBRANCH  15  17
ENDBRANCH   1  15
TORSDOF 4
ENDMDL
MODEL 2
REMARK VINA RESULT: -7.443421119      1.488      2.551
REMARK  4 active torsions:
REMARK  status: ('A' for Active; 'I' for Inactive)
REMARK    1  A    between atoms: C2_2  and  C3_3 
REMARK    2  A    between atoms: C3_3  and  C4_6 
REMARK    3  A    between atoms: N1_7  and  N2_9 
REMARK    4  A    between atoms: N2_9  and  C5_11 
ROOT
HETATM    1  C5  UNL     1      27.855  -2.572  16.478  1.00  0.00     0.699 A 
HETATM    2  N3  UNL     1      27.556  -3.836  16.296  1.00  0.00    -0.174 N 
ATOM      3  H3  UNL     1      28.150  -4.554  16.711  1.00  0.00     0.186 HD
HETATM    4  C6  UNL     1      26.458  -4.219  15.558  1.00  0.00     0.143 A 
HETATM    5  N4  UNL     1      26.062  -5.427  15.309  1.00  0.00    -0.326 N 
ATOM      6  H4  UNL     1      26.587  -6.221  15.676  1.00  0.00     0.169 HD
HETATM    7  C7  UNL     1      24.979  -5.630  14.578  1.00  0.00     0.148 A 
HETATM    8 CL3  UNL     1      24.274  -7.191  14.125  1.00  0.00    -0.056 Cl
HETATM    9  S1  UNL     1      24.484  -4.036  14.217  1.00  0.00    -0.053 SA
HETATM   10  C8  UNL     1      25.721  -3.185  15.042  1.00  0.00     0.091 A 
HETATM   11  C9  UNL     1      26.066  -1.840  15.254  1.00  0.00     0.140 A 
HETATM   12 CL4  UNL     1      25.041  -0.643  14.540  1.00  0.00    -0.062 Cl
HETATM   13  N5  UNL     1      27.158  -1.511  15.989  1.00  0.00    -0.178 N 
ATOM     14  H5  UNL     1      27.434  -0.544  16.160  1.00  0.00     0.185 HD
ENDROOT
BRANCH   1  15
HETATM   15  N2  UNL     1      28.891  -2.251  17.175  1.00  0.00    -0.132 N 
ATOM     16  H2  UNL     1      29.141  -2.775  18.013  1.00  0.00     0.205 HD
BRANCH  15  17
HETATM   17  N1  UNL     1      29.661  -1.171  16.751  1.00  0.00    -0.298 N 
HETATM   18  C4  UNL     1      30.595  -1.293  15.882  1.00  0.00     0.122 C 
ATOM     19  H1  UNL     1      29.474  -0.249  17.147  1.00  0.00     0.186 HD
BRANCH  18  20
HETATM   20  C3  UNL     1      31.342  -0.050  15.518  1.00  0.00     0.146 C 
HETATM   21 CL1  UNL     1      32.632   0.223  16.682  1.00  0.00    -0.096 Cl
HETATM   22 CL2  UNL     1      30.176   1.289  15.583  1.00  0.00    -0.096 Cl
BRANCH  20  23
HETATM   23  C2  UNL     1      31.883  -0.199  14.121  1.00  0.00     0.043 C 
HETATM   24  C1  UNL     1      31.065  -1.275  13.406  1.00  0.00     0.009 C 
ENDBRANCH  20  23
ENDBRANCH  18  20
ENDBRANCH  15  17
ENDBRANCH   1  15
TORSDOF 4
ENDMDL
MODEL 3
REMARK VINA RESULT: -7.401529493      1.406      1.406
REMARK  4 active torsions:
REMARK  status: ('A' for Active; 'I' for Inactive)
REMARK    1  A    between atoms: C2_2  and  C3_3 
REMARK    2  A    between atoms: C3_3  and  C4_6 
REMARK    3  A    between atoms: N1_7  and  N2_9 
REMARK    4  A    between atoms: N2_9  and  C5_11 
ROOT
HETATM    1  C5  UNL     1      28.345  -2.767  16.715  1.00  0.00     0.699 A 
HETATM    2  N3  UNL     1      27.102  -2.413  16.941  1.00  0.00    -0.174 N 
ATOM      3  H3  UNL     1      26.914  -1.618  17.552  1.00  0.00     0.186 HD
HETATM    4  C6  UNL     1      26.044  -3.088  16.375  1.00  0.00     0.143 A 
HETATM    5  N4  UNL     1      24.782  -2.836  16.523  1.00  0.00    -0.326 N 
ATOM      6  H4  UNL     1      24.483  -2.061  17.115  1.00  0.00     0.169 HD
HETATM    7  C7  UNL     1      23.883  -3.584  15.907  1.00  0.00     0.148 A 
HETATM    8 CL3  UNL     1      22.120  -3.408  15.977  1.00  0.00    -0.056 Cl
HETATM    9  S1  UNL     1      24.859  -4.708  15.071  1.00  0.00    -0.053 SA
HETATM   10  C8  UNL     1      26.397  -4.141  15.571  1.00  0.00     0.091 A 
HETATM   11  C9  UNL     1      27.736  -4.497  15.346  1.00  0.00     0.140 A 
HETATM   12 CL4  UNL     1      28.028  -5.849  14.307  1.00  0.00    -0.062 Cl
HETATM   13  N5  UNL     1      28.746  -3.801  15.926  1.00  0.00    -0.178 N 
ATOM     14  H5  UNL     1      29.728  -4.035  15.782  1.00  0.00     0.185 HD
ENDROOT
BRANCH   1  15
HETATM   15  N2  UNL     1      29.310  -2.111  17.262  1.00  0.00    -0.132 N 
ATOM     16  H2  UNL     1      29.653  -2.361  18.189  1.00  0.00     0.205 HD
BRANCH  15  17
HETATM   17  N1  UNL     1      29.871  -1.052  16.553  1.00  0.00    -0.298 N 
HETATM   18  C4  UNL     1      31.040  -1.117  16.033  1.00  0.00     0.122 C 
ATOM     19  H1  UNL     1      29.331  -0.192  16.444  1.00  0.00     0.186 HD
BRANCH  18  20
HETATM   20  C3  UNL     1      31.519   0.093  15.299  1.00  0.00     0.146 C 
HETATM   21 CL1  UNL     1      32.950   0.736  16.093  1.00  0.00    -0.096 Cl
HETATM   22 CL2  UNL     1      30.205   1.287  15.361  1.00  0.00    -0.096 Cl
BRANCH  20  23
HETATM   23  C2  UNL     1      31.807  -0.286  13.870  1.00  0.00     0.043 C 
HETATM   24  C1  UNL     1      30.934  -1.490  13.512  1.00  0.00     0.009 C 
ENDBRANCH  20  23
ENDBRANCH  18  20
ENDBRANCH  15  17
ENDBRANCH   1  15
TORSDOF 4
ENDMDL
MODEL 4
REMARK VINA RESULT: -7.360720526      5.259      6.688
REMARK  4 active torsions:
REMARK  status: ('A' for Active; 'I' for Inactive)
REMARK    1  A    between atoms: C2_2  and  C3_3 
REMARK    2  A    between atoms: C3_3  and  C4_6 
REMARK    3  A    between atoms: N1_7  and  N2_9 
REMARK    4  A    between atoms: N2_9  and  C5_11 
ROOT
HETATM    1  C5  UNL     1      31.376  -5.978  14.846  1.00  0.00     0.699 A 
HETATM    2  N3  UNL     1      31.298  -6.206  13.556  1.00  0.00    -0.174 N 
ATOM      3  H3  UNL     1      30.440  -5.967  13.059  1.00  0.00     0.186 HD
HETATM    4  C6  UNL     1      32.346  -6.760  12.856  1.00  0.00     0.143 A 
HETATM    5  N4  UNL     1      32.388  -7.031  11.590  1.00  0.00    -0.326 N 
ATOM      6  H4  UNL     1      31.581  -6.833  10.999  1.00  0.00     0.169 HD
HETATM    7  C7  UNL     1      33.478  -7.566  11.066  1.00  0.00     0.148 A 
HETATM    8 CL3  UNL     1      33.739  -8.010   9.370  1.00  0.00    -0.056 Cl
HETATM    9  S1  UNL     1      34.506  -7.698  12.423  1.00  0.00    -0.053 SA
HETATM   10  C8  UNL     1      33.455  -7.046  13.610  1.00  0.00     0.091 A 
HETATM   11  C9  UNL     1      33.510  -6.790  14.989  1.00  0.00     0.140 A 
HETATM   12 CL4  UNL     1      34.977  -7.204  15.809  1.00  0.00    -0.062 Cl
HETATM   13  N5  UNL     1      32.451  -6.243  15.637  1.00  0.00    -0.178 N 
ATOM     14  H5  UNL     1      32.460  -6.046  16.637  1.00  0.00     0.185 HD
ENDROOT
BRANCH   1  15
HETATM   15  N2  UNL     1      30.374  -5.458  15.468  1.00  0.00    -0.132 N 
ATOM     16  H2  UNL     1      29.869  -5.986  16.180  1.00  0.00     0.205 HD
BRANCH  15  17
HETATM   17  N1  UNL     1      30.000  -4.157  15.143  1.00  0.00    -0.298 N 
HETATM   18  C4  UNL     1      30.528  -3.132  15.701  1.00  0.00     0.122 C 
ATOM     19  H1  UNL     1      29.280  -4.015  14.434  1.00  0.00     0.186 HD
BRANCH  18  20
HETATM   20  C3  UNL     1      30.034  -1.793  15.256  1.00  0.00     0.146 C 
HETATM   21 CL1  UNL     1      30.676  -0.546  16.316  1.00  0.00    -0.096 Cl
HETATM   22 CL2  UNL     1      28.261  -1.834  15.375  1.00  0.00    -0.096 Cl
BRANCH  20  23
HETATM   23  C2  UNL     1      30.452  -1.570  13.827  1.00  0.00     0.043 C 
HETATM   24  C1  UNL     1      31.606  -0.565  13.819  1.00  0.00     0.009 C 
ENDBRANCH  20  23
ENDBRANCH  18  20
ENDBRANCH  15  17
ENDBRANCH   1  15
TORSDOF 4
ENDMDL
MODEL 5
REMARK VINA RESULT: -7.299616185      2.131      2.308
REMARK  4 active torsions:
REMARK  status: ('A' for Active; 'I' for Inactive)
REMARK    1  A    between atoms: C2_2  and  C3_3 
REMARK    2  A    between atoms: C3_3  and  C4_6 
REMARK    3  A    between atoms: N1_7  and  N2_9 
REMARK    4  A    between atoms: N2_9  and  C5_11 
ROOT
HETATM    1  C5  UNL     1      28.863  -2.796  16.555  1.00  0.00     0.699 A 
HETATM    2  N3  UNL     1      27.700  -3.033  15.995  1.00  0.00    -0.174 N 
ATOM      3  H3  UNL     1      26.944  -2.360  16.115  1.00  0.00     0.186 HD
HETATM    4  C6  UNL     1      27.475  -4.169  15.250  1.00  0.00     0.143 A 
HETATM    5  N4  UNL     1      26.377  -4.512  14.654  1.00  0.00    -0.326 N 
ATOM      6  H4  UNL     1      25.556  -3.909  14.711  1.00  0.00     0.169 HD
HETATM    7  C7  UNL     1      26.321  -5.643  13.973  1.00  0.00     0.148 A 
HETATM    8 CL3  UNL     1      24.926  -6.291  13.091  1.00  0.00    -0.056 Cl
HETATM    9  S1  UNL     1      27.898  -6.267  14.178  1.00  0.00    -0.053 SA
HETATM   10  C8  UNL     1      28.550  -5.013  15.147  1.00  0.00     0.091 A 
HETATM   11  C9  UNL     1      29.784  -4.733  15.756  1.00  0.00     0.140 A 
HETATM   12 CL4  UNL     1      31.050  -5.892  15.537  1.00  0.00    -0.062 Cl
HETATM   13  N5  UNL     1      29.959  -3.600  16.481  1.00  0.00    -0.178 N 
ATOM     14  H5  UNL     1      30.842  -3.369  16.935  1.00  0.00     0.185 HD
ENDROOT
BRANCH   1  15
HETATM   15  N2  UNL     1      29.037  -1.723  17.245  1.00  0.00    -0.132 N 
ATOM     16  H2  UNL     1      28.441  -1.513  18.046  1.00  0.00     0.205 HD
BRANCH  15  17
HETATM   17  N1  UNL     1      30.061  -0.857  16.869  1.00  0.00    -0.298 N 
HETATM   18  C4  UNL     1      30.179  -0.412  15.673  1.00  0.00     0.122 C 
ATOM     19  H1  UNL     1      30.742  -0.566  17.572  1.00  0.00     0.186 HD
BRANCH  18  20
HETATM   20  C3  UNL     1      31.325   0.511  15.408  1.00  0.00     0.146 C 
HETATM   21 CL1  UNL     1      32.509   0.364  16.699  1.00  0.00    -0.096 Cl
HETATM   22 CL2  UNL     1      30.662   2.159  15.380  1.00  0.00    -0.096 Cl
BRANCH  20  23
HETATM   23  C2  UNL     1      31.924   0.171  14.069  1.00  0.00     0.043 C 
HETATM   24  C1  UNL     1      31.285  -1.129  13.577  1.00  0.00     0.009 C 
ENDBRANCH  20  23
ENDBRANCH  18  20
ENDBRANCH  15  17
ENDBRANCH   1  15
TORSDOF 4
ENDMDL
