MODEL 1
REMARK VINA RESULT: -8.037958532      0.000      0.000
REMARK  9 active torsions:
REMARK  status: ('A' for Active; 'I' for Inactive)
REMARK    1  A    between atoms: C2_2  and  O1_3 
REMARK    2  A    between atoms: O1_3  and  C3_4 
REMARK    3  A    between atoms: C3_4  and  C4_6 
REMARK    4  A    between atoms: C5_7  and  C6_8 
REMARK    5  A    between atoms: C6_8  and  C7_11 
REMARK    6  A    between atoms: C8_16  and  C9_17 
REMARK    7  A    between atoms: C9_17  and  N1_18 
REMARK    8  A    between atoms: N1_18  and  C10_20 
REMARK    9  A    between atoms: C14_24  and  O3_25 
ROOT
HETATM    1  C4  UNL     1      27.130  -3.781  16.186  1.00  0.00     0.093 A 
HETATM    2  C5  UNL     1      27.383  -4.387  15.009  1.00  0.00     0.083 A 
HETATM    3  S1  UNL     1      28.992  -3.787  14.627  1.00  0.00    -0.083 SA
HETATM    4  C8  UNL     1      29.247  -2.812  15.987  1.00  0.00     0.054 A 
HETATM    5  C14 UNL     1      28.099  -2.965  16.697  1.00  0.00     0.101 A 
ENDROOT
BRANCH   2   6
HETATM    6  C6  UNL     1      26.805  -5.447  14.159  1.00  0.00     0.373 C 
HETATM    7  F1  UNL     1      27.726  -6.510  14.069  1.00  0.00    -0.190 F 
HETATM    8  F2  UNL     1      25.727  -6.071  14.832  1.00  0.00    -0.190 F 
BRANCH   6   9
HETATM    9  C7  UNL     1      26.326  -5.096  12.812  1.00  0.00     0.459 C 
HETATM   10  F3  UNL     1      27.130  -5.077  11.746  1.00  0.00    -0.165 F 
HETATM   11  F4  UNL     1      25.302  -6.049  12.506  1.00  0.00    -0.165 F 
HETATM   12  F5  UNL     1      25.594  -3.878  12.849  1.00  0.00    -0.165 F 
ENDBRANCH   6   9
ENDBRANCH   2   6
BRANCH   1  13
HETATM   13  C3  UNL     1      25.833  -3.884  16.866  1.00  0.00     0.297 C 
HETATM   14  O2  UNL     1      25.723  -4.615  17.886  1.00  0.00    -0.259 OA
BRANCH  13  15
HETATM   15  O1  UNL     1      24.726  -3.227  16.472  1.00  0.00    -0.318 OA
BRANCH  15  16
HETATM   16  C2  UNL     1      23.673  -3.721  15.704  1.00  0.00     0.174 C 
HETATM   17  C1  UNL     1      23.124  -2.698  14.735  1.00  0.00     0.034 C 
ENDBRANCH  15  16
ENDBRANCH  13  15
ENDBRANCH   1  13
BRANCH   5  18
HETATM   18  O3  UNL     1      27.975  -2.270  17.929  1.00  0.00    -0.358 OA
ATOM     19  H3  UNL     1      28.716  -1.972  18.444  1.00  0.00     0.217 HD
ENDBRANCH   5  18
BRANCH   4  20
HETATM   20  C9  UNL     1      30.434  -1.994  16.316  1.00  0.00     0.105 C 
BRANCH  20  21
HETATM   21  N1  UNL     1      30.295  -0.733  16.326  1.00  0.00    -0.390 N 
ATOM     22  H1  UNL     1      29.483  -0.362  16.820  1.00  0.00     0.159 HD
BRANCH  21  23
HETATM   23  C10 UNL     1      31.164   0.211  15.716  1.00  0.00     0.018 C 
HETATM   24  C11 UNL     1      32.429   0.322  16.564  1.00  0.00     0.037 C 
HETATM   25  C12 UNL     1      30.556   1.595  15.661  1.00  0.00     0.037 C 
HETATM   26  C13 UNL     1      31.573  -0.205  14.329  1.00  0.00     0.037 C 
ENDBRANCH  21  23
ENDBRANCH  20  21
ENDBRANCH   4  20
TORSDOF 9
ENDMDL
MODEL 2
REMARK VINA RESULT: -7.946939289      0.655      1.101
REMARK  9 active torsions:
REMARK  status: ('A' for Active; 'I' for Inactive)
REMARK    1  A    between atoms: C2_2  and  O1_3 
REMARK    2  A    between atoms: O1_3  and  C3_4 
REMARK    3  A    between atoms: C3_4  and  C4_6 
REMARK    4  A    between atoms: C5_7  and  C6_8 
REMARK    5  A    between atoms: C6_8  and  C7_11 
REMARK    6  A    between atoms: C8_16  and  C9_17 
REMARK    7  A    between atoms: C9_17  and  N1_18 
REMARK    8  A    between atoms: N1_18  and  C10_20 
REMARK    9  A    between atoms: C14_24  and  O3_25 
ROOT
HETATM    1  C4  UNL     1      27.159  -3.720  16.103  1.00  0.00     0.093 A 
HETATM    2  C5  UNL     1      27.365  -4.224  14.870  1.00  0.00     0.083 A 
HETATM    3  S1  UNL     1      28.962  -3.597  14.480  1.00  0.00    -0.083 SA
HETATM    4  C8  UNL     1      29.272  -2.743  15.908  1.00  0.00     0.054 A 
HETATM    5  C14 UNL     1      28.151  -2.953  16.645  1.00  0.00     0.101 A 
ENDROOT
BRANCH   2   6
HETATM    6  C6  UNL     1      26.750  -5.206  13.955  1.00  0.00     0.373 C 
HETATM    7  F1  UNL     1      27.494  -5.241  12.759  1.00  0.00    -0.190 F 
HETATM    8  F2  UNL     1      26.954  -6.518  14.447  1.00  0.00    -0.190 F 
BRANCH   6   9
HETATM    9  C7  UNL     1      25.317  -5.084  13.640  1.00  0.00     0.459 C 
HETATM   10  F3  UNL     1      24.724  -3.904  13.437  1.00  0.00    -0.165 F 
HETATM   11  F4  UNL     1      25.123  -5.826  12.431  1.00  0.00    -0.165 F 
HETATM   12  F5  UNL     1      24.540  -5.827  14.571  1.00  0.00    -0.165 F 
ENDBRANCH   6   9
ENDBRANCH   2   6
BRANCH   1  13
HETATM   13  C3  UNL     1      25.888  -3.878  16.820  1.00  0.00     0.297 C 
HETATM   14  O2  UNL     1      25.824  -4.658  17.806  1.00  0.00    -0.259 OA
BRANCH  13  15
HETATM   15  O1  UNL     1      24.758  -3.222  16.495  1.00  0.00    -0.318 OA
BRANCH  15  16
HETATM   16  C2  UNL     1      23.465  -3.481  16.949  1.00  0.00     0.174 C 
HETATM   17  C1  UNL     1      22.425  -3.357  15.858  1.00  0.00     0.034 C 
ENDBRANCH  15  16
ENDBRANCH  13  15
ENDBRANCH   1  13
BRANCH   5  18
HETATM   18  O3  UNL     1      28.077  -2.365  17.936  1.00  0.00    -0.358 OA
ATOM     19  H3  UNL     1      27.363  -1.807  18.220  1.00  0.00     0.217 HD
ENDBRANCH   5  18
BRANCH   4  20
HETATM   20  C9  UNL     1      30.475  -1.959  16.260  1.00  0.00     0.105 C 
BRANCH  20  21
HETATM   21  N1  UNL     1      30.354  -0.699  16.341  1.00  0.00    -0.390 N 
ATOM     22  H1  UNL     1      29.585  -0.345  16.911  1.00  0.00     0.159 HD
BRANCH  21  23
HETATM   23  C10 UNL     1      31.187   0.267  15.714  1.00  0.00     0.018 C 
HETATM   24  C11 UNL     1      32.478   0.388  16.521  1.00  0.00     0.037 C 
HETATM   25  C12 UNL     1      30.556   1.641  15.696  1.00  0.00     0.037 C 
HETATM   26  C13 UNL     1      31.557  -0.127  14.309  1.00  0.00     0.037 C 
ENDBRANCH  21  23
ENDBRANCH  20  21
ENDBRANCH   4  20
TORSDOF 9
ENDMDL
MODEL 3
REMARK VINA RESULT: -7.863555601      0.593      1.576
REMARK  9 active torsions:
REMARK  status: ('A' for Active; 'I' for Inactive)
REMARK    1  A    between atoms: C2_2  and  O1_3 
REMARK    2  A    between atoms: O1_3  and  C3_4 
REMARK    3  A    between atoms: C3_4  and  C4_6 
REMARK    4  A    between atoms: C5_7  and  C6_8 
REMARK    5  A    between atoms: C6_8  and  C7_11 
REMARK    6  A    between atoms: C8_16  and  C9_17 
REMARK    7  A    between atoms: C9_17  and  N1_18 
REMARK    8  A    between atoms: N1_18  and  C10_20 
REMARK    9  A    between atoms: C14_24  and  O3_25 
ROOT
HETATM    1  C4  UNL     1      26.948  -3.566  16.134  1.00  0.00     0.093 A 
HETATM    2  C5  UNL     1      26.984  -3.801  14.807  1.00  0.00     0.083 A 
HETATM    3  S1  UNL     1      28.558  -3.153  14.362  1.00  0.00    -0.083 SA
HETATM    4  C8  UNL     1      29.077  -2.634  15.888  1.00  0.00     0.054 A 
HETATM    5  C14 UNL     1      28.038  -2.964  16.697  1.00  0.00     0.101 A 
ENDROOT
BRANCH   2   6
HETATM    6  C6  UNL     1      26.215  -4.545  13.790  1.00  0.00     0.373 C 
HETATM    7  F1  UNL     1      25.090  -3.781  13.421  1.00  0.00    -0.190 F 
HETATM    8  F2  UNL     1      26.935  -4.583  12.572  1.00  0.00    -0.190 F 
BRANCH   6   9
HETATM    9  C7  UNL     1      25.797  -5.925  14.084  1.00  0.00     0.459 C 
HETATM   10  F3  UNL     1      24.936  -6.223  15.062  1.00  0.00    -0.165 F 
HETATM   11  F4  UNL     1      25.195  -6.412  12.880  1.00  0.00    -0.165 F 
HETATM   12  F5  UNL     1      26.933  -6.771  14.209  1.00  0.00    -0.165 F 
ENDBRANCH   6   9
ENDBRANCH   2   6
BRANCH   1  13
HETATM   13  C3  UNL     1      25.761  -3.836  16.953  1.00  0.00     0.297 C 
HETATM   14  O2  UNL     1      25.813  -4.719  17.849  1.00  0.00    -0.259 OA
BRANCH  13  15
HETATM   15  O1  UNL     1      24.593  -3.181  16.818  1.00  0.00    -0.318 OA
BRANCH  15  16
HETATM   16  C2  UNL     1      23.386  -3.686  16.338  1.00  0.00     0.174 C 
HETATM   17  C1  UNL     1      22.775  -2.821  15.259  1.00  0.00     0.034 C 
ENDBRANCH  15  16
ENDBRANCH  13  15
ENDBRANCH   1  13
BRANCH   5  18
HETATM   18  O3  UNL     1      28.144  -2.663  18.081  1.00  0.00    -0.358 OA
ATOM     19  H3  UNL     1      28.231  -1.782  18.424  1.00  0.00     0.217 HD
ENDBRANCH   5  18
BRANCH   4  20
HETATM   20  C9  UNL     1      30.354  -1.980  16.244  1.00  0.00     0.105 C 
BRANCH  20  21
HETATM   21  N1  UNL     1      30.346  -0.722  16.406  1.00  0.00    -0.390 N 
ATOM     22  H1  UNL     1      29.666  -0.346  17.069  1.00  0.00     0.159 HD
BRANCH  21  23
HETATM   23  C10 UNL     1      31.194   0.214  15.754  1.00  0.00     0.018 C 
HETATM   24  C11 UNL     1      32.480   0.347  16.565  1.00  0.00     0.037 C 
HETATM   25  C12 UNL     1      30.578   1.594  15.687  1.00  0.00     0.037 C 
HETATM   26  C13 UNL     1      31.567  -0.229  14.365  1.00  0.00     0.037 C 
ENDBRANCH  21  23
ENDBRANCH  20  21
ENDBRANCH   4  20
TORSDOF 9
ENDMDL
MODEL 4
REMARK VINA RESULT: -7.721601688      1.947      2.968
REMARK  9 active torsions:
REMARK  status: ('A' for Active; 'I' for Inactive)
REMARK    1  A    between atoms: C2_2  and  O1_3 
REMARK    2  A    between atoms: O1_3  and  C3_4 
REMARK    3  A    between atoms: C3_4  and  C4_6 
REMARK    4  A    between atoms: C5_7  and  C6_8 
REMARK    5  A    between atoms: C6_8  and  C7_11 
REMARK    6  A    between atoms: C8_16  and  C9_17 
REMARK    7  A    between atoms: C9_17  and  N1_18 
REMARK    8  A    between atoms: N1_18  and  C10_20 
REMARK    9  A    between atoms: C14_24  and  O3_25 
ROOT
HETATM    1  C4  UNL     1      26.529  -3.464  15.807  1.00  0.00     0.093 A 
HETATM    2  C5  UNL     1      26.146  -2.604  14.842  1.00  0.00     0.083 A 
HETATM    3  S1  UNL     1      27.573  -1.590  14.665  1.00  0.00    -0.083 SA
HETATM    4  C8  UNL     1      28.570  -2.325  15.820  1.00  0.00     0.054 A 
HETATM    5  C14 UNL     1      27.791  -3.322  16.313  1.00  0.00     0.101 A 
ENDROOT
BRANCH   2   6
HETATM    6  C6  UNL     1      25.039  -2.439  13.878  1.00  0.00     0.373 C 
HETATM    7  F1  UNL     1      25.460  -1.575  12.848  1.00  0.00    -0.190 F 
HETATM    8  F2  UNL     1      24.839  -3.645  13.163  1.00  0.00    -0.190 F 
BRANCH   6   9
HETATM    9  C7  UNL     1      23.722  -2.010  14.375  1.00  0.00     0.459 C 
HETATM   10  F3  UNL     1      23.110  -2.611  15.399  1.00  0.00    -0.165 F 
HETATM   11  F4  UNL     1      23.885  -0.644  14.771  1.00  0.00    -0.165 F 
HETATM   12  F5  UNL     1      22.800  -1.898  13.298  1.00  0.00    -0.165 F 
ENDBRANCH   6   9
ENDBRANCH   2   6
BRANCH   1  13
HETATM   13  C3  UNL     1      25.619  -4.455  16.392  1.00  0.00     0.297 C 
HETATM   14  O2  UNL     1      25.512  -4.538  17.644  1.00  0.00    -0.259 OA
BRANCH  13  15
HETATM   15  O1  UNL     1      24.861  -5.297  15.665  1.00  0.00    -0.318 OA
BRANCH  15  16
HETATM   16  C2  UNL     1      25.295  -6.252  14.746  1.00  0.00     0.174 C 
HETATM   17  C1  UNL     1      24.262  -7.325  14.484  1.00  0.00     0.034 C 
ENDBRANCH  15  16
ENDBRANCH  13  15
ENDBRANCH   1  13
BRANCH   5  18
HETATM   18  O3  UNL     1      28.333  -4.158  17.325  1.00  0.00    -0.358 OA
ATOM     19  H3  UNL     1      27.807  -4.597  17.984  1.00  0.00     0.217 HD
ENDBRANCH   5  18
BRANCH   4  20
HETATM   20  C9  UNL     1      29.953  -1.963  16.194  1.00  0.00     0.105 C 
BRANCH  20  21
HETATM   21  N1  UNL     1      30.188  -0.748  16.474  1.00  0.00    -0.390 N 
ATOM     22  H1  UNL     1      29.686  -0.351  17.269  1.00  0.00     0.159 HD
BRANCH  21  23
HETATM   23  C10 UNL     1      31.086   0.113  15.786  1.00  0.00     0.018 C 
HETATM   24  C11 UNL     1      32.361   0.244  16.615  1.00  0.00     0.037 C 
HETATM   25  C12 UNL     1      30.528   1.510  15.625  1.00  0.00     0.037 C 
HETATM   26  C13 UNL     1      31.467  -0.427  14.433  1.00  0.00     0.037 C 
ENDBRANCH  21  23
ENDBRANCH  20  21
ENDBRANCH   4  20
TORSDOF 9
ENDMDL
MODEL 5
REMARK VINA RESULT: -7.479181698      1.944      2.796
REMARK  9 active torsions:
REMARK  status: ('A' for Active; 'I' for Inactive)
REMARK    1  A    between atoms: C2_2  and  O1_3 
REMARK    2  A    between atoms: O1_3  and  C3_4 
REMARK    3  A    between atoms: C3_4  and  C4_6 
REMARK    4  A    between atoms: C5_7  and  C6_8 
REMARK    5  A    between atoms: C6_8  and  C7_11 
REMARK    6  A    between atoms: C8_16  and  C9_17 
REMARK    7  A    between atoms: C9_17  and  N1_18 
REMARK    8  A    between atoms: N1_18  and  C10_20 
REMARK    9  A    between atoms: C14_24  and  O3_25 
ROOT
HETATM    1  C4  UNL     1      26.404  -3.371  15.966  1.00  0.00     0.093 A 
HETATM    2  C5  UNL     1      25.868  -2.360  15.252  1.00  0.00     0.083 A 
HETATM    3  S1  UNL     1      27.270  -1.339  14.954  1.00  0.00    -0.083 SA
HETATM    4  C8  UNL     1      28.449  -2.262  15.744  1.00  0.00     0.054 A 
HETATM    5  C14 UNL     1      27.746  -3.322  16.218  1.00  0.00     0.101 A 
ENDROOT
BRANCH   2   6
HETATM    6  C6  UNL     1      24.598  -2.031  14.576  1.00  0.00     0.373 C 
HETATM    7  F1  UNL     1      23.530  -2.534  15.345  1.00  0.00    -0.190 F 
HETATM    8  F2  UNL     1      24.360  -0.637  14.650  1.00  0.00    -0.190 F 
BRANCH   6   9
HETATM    9  C7  UNL     1      24.420  -2.423  13.169  1.00  0.00     0.459 C 
HETATM   10  F3  UNL     1      24.791  -3.618  12.703  1.00  0.00    -0.165 F 
HETATM   11  F4  UNL     1      23.013  -2.332  12.918  1.00  0.00    -0.165 F 
HETATM   12  F5  UNL     1      24.939  -1.419  12.305  1.00  0.00    -0.165 F 
ENDBRANCH   6   9
ENDBRANCH   2   6
BRANCH   1  13
HETATM   13  C3  UNL     1      25.592  -4.441  16.556  1.00  0.00     0.297 C 
HETATM   14  O2  UNL     1      25.600  -4.611  17.804  1.00  0.00    -0.259 OA
BRANCH  13  15
HETATM   15  O1  UNL     1      24.809  -5.269  15.840  1.00  0.00    -0.318 OA
BRANCH  15  16
HETATM   16  C2  UNL     1      25.158  -6.000  14.705  1.00  0.00     0.174 C 
HETATM   17  C1  UNL     1      24.280  -7.213  14.495  1.00  0.00     0.034 C 
ENDBRANCH  15  16
ENDBRANCH  13  15
ENDBRANCH   1  13
BRANCH   5  18
HETATM   18  O3  UNL     1      28.447  -4.319  16.948  1.00  0.00    -0.358 OA
ATOM     19  H3  UNL     1      29.373  -4.500  16.838  1.00  0.00     0.217 HD
ENDBRANCH   5  18
BRANCH   4  20
HETATM   20  C9  UNL     1      29.893  -1.975  15.881  1.00  0.00     0.105 C 
BRANCH  20  21
HETATM   21  N1  UNL     1      30.226  -0.844  16.350  1.00  0.00    -0.390 N 
ATOM     22  H1  UNL     1      29.828  -0.583  17.252  1.00  0.00     0.159 HD
BRANCH  21  23
HETATM   23  C10 UNL     1      31.103   0.093  15.738  1.00  0.00     0.018 C 
HETATM   24  C11 UNL     1      32.347   0.231  16.611  1.00  0.00     0.037 C 
HETATM   25  C12 UNL     1      30.487   1.471  15.639  1.00  0.00     0.037 C 
HETATM   26  C13 UNL     1      31.545  -0.352  14.370  1.00  0.00     0.037 C 
ENDBRANCH  21  23
ENDBRANCH  20  21
ENDBRANCH   4  20
TORSDOF 9
ENDMDL
