MODEL 1
REMARK VINA RESULT: -7.488005213      0.000      0.000
REMARK  5 active torsions:
REMARK  status: ('A' for Active; 'I' for Inactive)
REMARK    1  A    between atoms: O1_2  and  N1_3 
REMARK    2  A    between atoms: C2_5  and  N2_6 
REMARK    3  A    between atoms: C2_5  and  C10_19 
REMARK    4  A    between atoms: N2_6  and  C3_8 
REMARK    5  A    between atoms: C5_10  and  N3_11 
ROOT
HETATM    1  C3  UNL     1      30.800  -5.336  12.779  1.00  0.00     0.042 A 
HETATM    2  C4  UNL     1      31.719  -5.674  13.751  1.00  0.00     0.068 A 
HETATM    3  C5  UNL     1      32.716  -6.616  13.480  1.00  0.00     0.126 A 
HETATM    4  C6  UNL     1      32.787  -7.211  12.244  1.00  0.00     0.067 A 
HETATM    5 CL1  UNL     1      34.031  -8.375  11.933  1.00  0.00    -0.082 Cl
HETATM    6  C7  UNL     1      31.880  -6.887  11.261  1.00  0.00     0.035 A 
HETATM    7  C8  UNL     1      30.892  -5.946  11.547  1.00  0.00    -0.034 A 
HETATM    8  C9  UNL     1      29.898  -5.571  10.511  1.00  0.00     0.050 C 
ENDROOT
BRANCH   1   9
HETATM    9  N2  UNL     1      29.787  -4.395  13.018  1.00  0.00    -0.340 N 
ATOM     10  H2  UNL     1      29.322  -3.976  12.213  1.00  0.00     0.167 HD
BRANCH   9  11
HETATM   11  C2  UNL     1      29.368  -3.991  14.319  1.00  0.00     0.157 C 
HETATM   12  N1  UNL     1      28.591  -4.764  14.956  1.00  0.00    -0.251 N 
ATOM     13  H1  UNL     1      28.314  -5.630  14.492  1.00  0.00     0.196 HD
BRANCH  12  14
HETATM   14  O1  UNL     1      28.091  -4.543  16.203  1.00  0.00    -0.284 OA
HETATM   15  C1  UNL     1      26.732  -4.175  16.322  1.00  0.00     0.237 C 
ENDBRANCH  12  14
BRANCH  11  16
HETATM   16  C10 UNL     1      29.863  -2.697  14.848  1.00  0.00     0.248 C 
HETATM   17 CL2  UNL     1      28.527  -1.513  14.976  1.00  0.00    -0.075 Cl
HETATM   18 CL3  UNL     1      31.040  -1.977  13.693  1.00  0.00    -0.075 Cl
HETATM   19 CL4  UNL     1      30.614  -2.821  16.442  1.00  0.00    -0.075 Cl
ENDBRANCH  11  16
ENDBRANCH   9  11
ENDBRANCH   1   9
BRANCH   3  20
HETATM   20  N3  UNL     1      33.667  -6.978  14.467  1.00  0.00    -0.114 N 
HETATM   21  O2  UNL     1      33.473  -7.832  15.350  1.00  0.00    -0.532 OA
HETATM   22  O3  UNL     1      34.883  -6.342  14.442  1.00  0.00    -0.532 OA
ENDBRANCH   3  20
TORSDOF 5
ENDMDL
MODEL 2
REMARK VINA RESULT: -7.411352997      0.105      1.117
REMARK  5 active torsions:
REMARK  status: ('A' for Active; 'I' for Inactive)
REMARK    1  A    between atoms: O1_2  and  N1_3 
REMARK    2  A    between atoms: C2_5  and  N2_6 
REMARK    3  A    between atoms: C2_5  and  C10_19 
REMARK    4  A    between atoms: N2_6  and  C3_8 
REMARK    5  A    between atoms: C5_10  and  N3_11 
ROOT
HETATM    1  C3  UNL     1      30.758  -5.355  12.752  1.00  0.00     0.042 A 
HETATM    2  C4  UNL     1      31.659  -5.672  13.746  1.00  0.00     0.068 A 
HETATM    3  C5  UNL     1      32.685  -6.590  13.500  1.00  0.00     0.126 A 
HETATM    4  C6  UNL     1      32.800  -7.182  12.265  1.00  0.00     0.067 A 
HETATM    5 CL1  UNL     1      34.078  -8.317  11.985  1.00  0.00    -0.082 Cl
HETATM    6  C7  UNL     1      31.911  -6.879  11.261  1.00  0.00     0.035 A 
HETATM    7  C8  UNL     1      30.894  -5.961  11.523  1.00  0.00    -0.034 A 
HETATM    8  C9  UNL     1      29.917  -5.609  10.463  1.00  0.00     0.050 C 
ENDROOT
BRANCH   1   9
HETATM    9  N2  UNL     1      29.717  -4.438  12.966  1.00  0.00    -0.340 N 
ATOM     10  H2  UNL     1      29.247  -4.046  12.150  1.00  0.00     0.167 HD
BRANCH   9  11
HETATM   11  C2  UNL     1      29.277  -4.022  14.256  1.00  0.00     0.157 C 
HETATM   12  N1  UNL     1      28.498  -4.793  14.892  1.00  0.00    -0.251 N 
ATOM     13  H1  UNL     1      28.235  -5.667  14.436  1.00  0.00     0.196 HD
BRANCH  12  14
HETATM   14  O1  UNL     1      27.980  -4.561  16.130  1.00  0.00    -0.284 OA
HETATM   15  C1  UNL     1      26.617  -4.197  16.226  1.00  0.00     0.237 C 
ENDBRANCH  12  14
BRANCH  11  16
HETATM   16  C10 UNL     1      29.755  -2.717  14.777  1.00  0.00     0.248 C 
HETATM   17 CL2  UNL     1      30.995  -2.020  13.692  1.00  0.00    -0.075 Cl
HETATM   18 CL3  UNL     1      30.574  -2.957  16.361  1.00  0.00    -0.075 Cl
HETATM   19 CL4  UNL     1      28.476  -1.513  14.960  1.00  0.00    -0.075 Cl
ENDBRANCH  11  16
ENDBRANCH   9  11
ENDBRANCH   1   9
BRANCH   3  20
HETATM   20  N3  UNL     1      33.620  -6.931  14.509  1.00  0.00    -0.114 N 
HETATM   21  O2  UNL     1      33.468  -7.861  15.322  1.00  0.00    -0.532 OA
HETATM   22  O3  UNL     1      34.767  -6.183  14.593  1.00  0.00    -0.532 OA
ENDBRANCH   3  20
TORSDOF 5
ENDMDL
MODEL 3
REMARK VINA RESULT: -7.359800641      1.848      2.407
REMARK  5 active torsions:
REMARK  status: ('A' for Active; 'I' for Inactive)
REMARK    1  A    between atoms: O1_2  and  N1_3 
REMARK    2  A    between atoms: C2_5  and  N2_6 
REMARK    3  A    between atoms: C2_5  and  C10_19 
REMARK    4  A    between atoms: N2_6  and  C3_8 
REMARK    5  A    between atoms: C5_10  and  N3_11 
ROOT
HETATM    1  C3  UNL     1      31.148  -6.017  12.309  1.00  0.00     0.042 A 
HETATM    2  C4  UNL     1      31.943  -6.193  13.423  1.00  0.00     0.068 A 
HETATM    3  C5  UNL     1      33.126  -6.933  13.335  1.00  0.00     0.126 A 
HETATM    4  C6  UNL     1      33.504  -7.490  12.136  1.00  0.00     0.067 A 
HETATM    5 CL1  UNL     1      34.973  -8.402  12.052  1.00  0.00    -0.082 Cl
HETATM    6  C7  UNL     1      32.726  -7.325  11.015  1.00  0.00     0.035 A 
HETATM    7  C8  UNL     1      31.549  -6.584  11.120  1.00  0.00    -0.034 A 
HETATM    8  C9  UNL     1      30.685  -6.385   9.930  1.00  0.00     0.050 C 
ENDROOT
BRANCH   1   9
HETATM    9  N2  UNL     1      29.955  -5.280  12.364  1.00  0.00    -0.340 N 
ATOM     10  H2  UNL     1      29.233  -5.484  11.672  1.00  0.00     0.167 HD
BRANCH   9  11
HETATM   11  C2  UNL     1      29.691  -4.265  13.328  1.00  0.00     0.157 C 
HETATM   12  N1  UNL     1      30.304  -3.162  13.208  1.00  0.00    -0.251 N 
ATOM     13  H1  UNL     1      30.950  -3.073  12.423  1.00  0.00     0.196 HD
BRANCH  12  14
HETATM   14  O1  UNL     1      30.178  -2.084  14.030  1.00  0.00    -0.284 OA
HETATM   15  C1  UNL     1      30.940  -0.930  13.740  1.00  0.00     0.237 C 
ENDBRANCH  12  14
BRANCH  11  16
HETATM   16  C10 UNL     1      28.719  -4.556  14.411  1.00  0.00     0.248 C 
HETATM   17 CL2  UNL     1      27.977  -6.167  14.176  1.00  0.00    -0.075 Cl
HETATM   18 CL3  UNL     1      27.359  -3.380  14.341  1.00  0.00    -0.075 Cl
HETATM   19 CL4  UNL     1      29.428  -4.531  16.028  1.00  0.00    -0.075 Cl
ENDBRANCH  11  16
ENDBRANCH   9  11
ENDBRANCH   1   9
BRANCH   3  20
HETATM   20  N3  UNL     1      33.954  -7.126  14.468  1.00  0.00    -0.114 N 
HETATM   21  O2  UNL     1      33.742  -7.972  15.356  1.00  0.00    -0.532 OA
HETATM   22  O3  UNL     1      35.062  -6.326  14.592  1.00  0.00    -0.532 OA
ENDBRANCH   3  20
TORSDOF 5
ENDMDL
MODEL 4
REMARK VINA RESULT: -7.357606720      1.840      2.505
REMARK  5 active torsions:
REMARK  status: ('A' for Active; 'I' for Inactive)
REMARK    1  A    between atoms: O1_2  and  N1_3 
REMARK    2  A    between atoms: C2_5  and  N2_6 
REMARK    3  A    between atoms: C2_5  and  C10_19 
REMARK    4  A    between atoms: N2_6  and  C3_8 
REMARK    5  A    between atoms: C5_10  and  N3_11 
ROOT
HETATM    1  C3  UNL     1      31.151  -6.017  12.335  1.00  0.00     0.042 A 
HETATM    2  C4  UNL     1      31.950  -6.197  13.445  1.00  0.00     0.068 A 
HETATM    3  C5  UNL     1      33.137  -6.929  13.347  1.00  0.00     0.126 A 
HETATM    4  C6  UNL     1      33.514  -7.475  12.144  1.00  0.00     0.067 A 
HETATM    5 CL1  UNL     1      34.989  -8.379  12.048  1.00  0.00    -0.082 Cl
HETATM    6  C7  UNL     1      32.731  -7.307  11.026  1.00  0.00     0.035 A 
HETATM    7  C8  UNL     1      31.551  -6.574  11.140  1.00  0.00    -0.034 A 
HETATM    8  C9  UNL     1      30.682  -6.372   9.955  1.00  0.00     0.050 C 
ENDROOT
BRANCH   1   9
HETATM    9  N2  UNL     1      29.954  -5.288  12.399  1.00  0.00    -0.340 N 
ATOM     10  H2  UNL     1      29.224  -5.503  11.719  1.00  0.00     0.167 HD
BRANCH   9  11
HETATM   11  C2  UNL     1      29.696  -4.266  13.358  1.00  0.00     0.157 C 
HETATM   12  N1  UNL     1      30.329  -3.174  13.242  1.00  0.00    -0.251 N 
ATOM     13  H1  UNL     1      30.987  -3.099  12.465  1.00  0.00     0.196 HD
BRANCH  12  14
HETATM   14  O1  UNL     1      30.212  -2.092  14.060  1.00  0.00    -0.284 OA
HETATM   15  C1  UNL     1      30.954  -0.932  13.743  1.00  0.00     0.237 C 
ENDBRANCH  12  14
BRANCH  11  16
HETATM   16  C10 UNL     1      28.706  -4.538  14.429  1.00  0.00     0.248 C 
HETATM   17 CL2  UNL     1      29.508  -4.608  16.027  1.00  0.00    -0.075 Cl
HETATM   18 CL3  UNL     1      27.972  -6.162  14.182  1.00  0.00    -0.075 Cl
HETATM   19 CL4  UNL     1      27.422  -3.329  14.535  1.00  0.00    -0.075 Cl
ENDBRANCH  11  16
ENDBRANCH   9  11
ENDBRANCH   1   9
BRANCH   3  20
HETATM   20  N3  UNL     1      33.970  -7.126  14.477  1.00  0.00    -0.114 N 
HETATM   21  O2  UNL     1      33.759  -7.969  15.367  1.00  0.00    -0.532 OA
HETATM   22  O3  UNL     1      35.084  -6.332  14.592  1.00  0.00    -0.532 OA
ENDBRANCH   3  20
TORSDOF 5
ENDMDL
MODEL 5
REMARK VINA RESULT: -7.356795063      1.159      1.622
REMARK  5 active torsions:
REMARK  status: ('A' for Active; 'I' for Inactive)
REMARK    1  A    between atoms: O1_2  and  N1_3 
REMARK    2  A    between atoms: C2_5  and  N2_6 
REMARK    3  A    between atoms: C2_5  and  C10_19 
REMARK    4  A    between atoms: N2_6  and  C3_8 
REMARK    5  A    between atoms: C5_10  and  N3_11 
ROOT
HETATM    1  C3  UNL     1      30.808  -4.940  13.567  1.00  0.00     0.042 A 
HETATM    2  C4  UNL     1      31.878  -5.397  14.307  1.00  0.00     0.068 A 
HETATM    3  C5  UNL     1      32.703  -6.408  13.804  1.00  0.00     0.126 A 
HETATM    4  C6  UNL     1      32.450  -6.953  12.568  1.00  0.00     0.067 A 
HETATM    5 CL1  UNL     1      33.485  -8.205  11.967  1.00  0.00    -0.082 Cl
HETATM    6  C7  UNL     1      31.389  -6.511  11.814  1.00  0.00     0.035 A 
HETATM    7  C8  UNL     1      30.577  -5.502  12.331  1.00  0.00    -0.034 A 
HETATM    8  C9  UNL     1      29.423  -4.999  11.545  1.00  0.00     0.050 C 
ENDROOT
BRANCH   1   9
HETATM    9  N2  UNL     1      29.962  -3.927  14.043  1.00  0.00    -0.340 N 
ATOM     10  H2  UNL     1      29.984  -3.022  13.571  1.00  0.00     0.167 HD
BRANCH   9  11
HETATM   11  C2  UNL     1      29.073  -4.086  15.145  1.00  0.00     0.157 C 
HETATM   12  N1  UNL     1      27.988  -4.710  14.944  1.00  0.00    -0.251 N 
ATOM     13  H1  UNL     1      27.822  -5.060  14.000  1.00  0.00     0.196 HD
BRANCH  12  14
HETATM   14  O1  UNL     1      27.025  -4.957  15.874  1.00  0.00    -0.284 OA
HETATM   15  C1  UNL     1      25.683  -4.667  15.538  1.00  0.00     0.237 C 
ENDBRANCH  12  14
BRANCH  11  16
HETATM   16  C10 UNL     1      29.467  -3.515  16.457  1.00  0.00     0.248 C 
HETATM   17 CL2  UNL     1      30.822  -2.362  16.262  1.00  0.00    -0.075 Cl
HETATM   18 CL3  UNL     1      30.090  -4.821  17.526  1.00  0.00    -0.075 Cl
HETATM   19 CL4  UNL     1      28.160  -2.661  17.282  1.00  0.00    -0.075 Cl
ENDBRANCH  11  16
ENDBRANCH   9  11
ENDBRANCH   1   9
BRANCH   3  20
HETATM   20  N3  UNL     1      33.805  -6.892  14.552  1.00  0.00    -0.114 N 
HETATM   21  O2  UNL     1      33.740  -7.817  15.382  1.00  0.00    -0.532 OA
HETATM   22  O3  UNL     1      35.025  -6.299  14.343  1.00  0.00    -0.532 OA
ENDBRANCH   3  20
TORSDOF 5
ENDMDL
