MODEL 1
REMARK VINA RESULT: -4.963153179      0.000      0.000
REMARK  1 active torsions:
REMARK  status: ('A' for Active; 'I' for Inactive)
REMARK    1  A    between atoms: O1_2  and  C2_3 
ROOT
HETATM    1  C2  UNL     1      24.607  -5.487  14.520  1.00  0.00     0.226 C 
HETATM    2  C3  UNL     1      25.518  -5.215  13.364  1.00  0.00     0.125 C 
HETATM    3  C4  UNL     1      26.954  -5.028  13.739  1.00  0.00     0.249 C 
HETATM    4  F1  UNL     1      27.491  -6.268  14.029  1.00  0.00    -0.214 F 
HETATM    5  C5  UNL     1      27.655  -4.496  12.555  1.00  0.00     0.115 C 
HETATM    6  N1  UNL     1      28.200  -4.092  11.612  1.00  0.00    -0.193 NA
HETATM    7  S1  UNL     1      27.167  -3.852  15.095  1.00  0.00    -0.039 SA
HETATM    8  C6  UNL     1      25.654  -3.884  16.042  1.00  0.00     0.156 C 
HETATM    9  N2  UNL     1      25.526  -3.086  17.223  1.00  0.00    -0.075 NA
HETATM   10  N3  UNL     1      24.729  -4.627  15.624  1.00  0.00    -0.346 N 
ATOM     11  H3  UNL     1      23.894  -4.599  16.208  1.00  0.00     0.163 HD
ENDROOT
BRANCH   1  12
HETATM   12  O1  UNL     1      24.711  -6.793  14.988  1.00  0.00    -0.371 OA
HETATM   13  C1  UNL     1      24.148  -7.636  14.044  1.00  0.00     0.204 C 
ENDBRANCH   1  12
TORSDOF 1
ENDMDL
MODEL 2
REMARK VINA RESULT: -4.842671416      2.531      3.048
REMARK  1 active torsions:
REMARK  status: ('A' for Active; 'I' for Inactive)
REMARK    1  A    between atoms: O1_2  and  C2_3 
ROOT
HETATM    1  C2  UNL     1      25.066  -4.581  14.415  1.00  0.00     0.226 C 
HETATM    2  C3  UNL     1      26.435  -4.410  14.996  1.00  0.00     0.125 C 
HETATM    3  C4  UNL     1      26.493  -3.503  16.184  1.00  0.00     0.249 C 
HETATM    4  F1  UNL     1      25.982  -4.183  17.273  1.00  0.00    -0.214 F 
HETATM    5  C5  UNL     1      27.916  -3.218  16.454  1.00  0.00     0.115 C 
HETATM    6  N1  UNL     1      29.038  -3.013  16.667  1.00  0.00    -0.193 NA
HETATM    7  S1  UNL     1      25.648  -1.932  15.896  1.00  0.00    -0.039 SA
HETATM    8  C6  UNL     1      24.399  -2.241  14.659  1.00  0.00     0.156 C 
HETATM    9  N2  UNL     1      23.518  -1.191  14.245  1.00  0.00    -0.075 NA
HETATM   10  N3  UNL     1      24.337  -3.403  14.183  1.00  0.00    -0.346 N 
ATOM     11  H3  UNL     1      23.604  -3.514  13.482  1.00  0.00     0.163 HD
ENDROOT
BRANCH   1  12
HETATM   12  O1  UNL     1      24.267  -5.432  15.171  1.00  0.00    -0.371 OA
HETATM   13  C1  UNL     1      24.274  -6.680  14.569  1.00  0.00     0.204 C 
ENDBRANCH   1  12
TORSDOF 1
ENDMDL
MODEL 3
REMARK VINA RESULT: -4.747945864      2.898      4.033
REMARK  1 active torsions:
REMARK  status: ('A' for Active; 'I' for Inactive)
REMARK    1  A    between atoms: O1_2  and  C2_3 
ROOT
HETATM    1  C2  UNL     1      25.914  -3.828  12.602  1.00  0.00     0.226 C 
HETATM    2  C3  UNL     1      26.187  -4.097  14.049  1.00  0.00     0.125 C 
HETATM    3  C4  UNL     1      24.969  -4.098  14.918  1.00  0.00     0.249 C 
HETATM    4  F1  UNL     1      24.285  -5.278  14.702  1.00  0.00    -0.214 F 
HETATM    5  C5  UNL     1      25.427  -4.089  16.321  1.00  0.00     0.115 C 
HETATM    6  N1  UNL     1      25.798  -4.099  17.421  1.00  0.00    -0.193 NA
HETATM    7  S1  UNL     1      23.931  -2.643  14.656  1.00  0.00    -0.039 SA
HETATM    8  C6  UNL     1      24.236  -2.091  12.985  1.00  0.00     0.156 C 
HETATM    9  N2  UNL     1      23.519  -0.971  12.453  1.00  0.00    -0.075 NA
HETATM   10  N3  UNL     1      25.094  -2.723  12.318  1.00  0.00    -0.346 N 
ATOM     11  H3  UNL     1      25.221  -2.358  11.375  1.00  0.00     0.163 HD
ENDROOT
BRANCH   1  12
HETATM   12  O1  UNL     1      25.380  -4.931  11.945  1.00  0.00    -0.371 OA
HETATM   13  C1  UNL     1      25.413  -4.680  10.583  1.00  0.00     0.204 C 
ENDBRANCH   1  12
TORSDOF 1
ENDMDL
MODEL 4
REMARK VINA RESULT: -4.722587866      2.648      3.168
REMARK  1 active torsions:
REMARK  status: ('A' for Active; 'I' for Inactive)
REMARK    1  A    between atoms: O1_2  and  C2_3 
ROOT
HETATM    1  C2  UNL     1      25.043  -1.696  14.749  1.00  0.00     0.226 C 
HETATM    2  C3  UNL     1      26.019  -2.008  13.658  1.00  0.00     0.125 C 
HETATM    3  C4  UNL     1      26.199  -3.468  13.388  1.00  0.00     0.249 C 
HETATM    4  F1  UNL     1      25.092  -3.920  12.695  1.00  0.00    -0.214 F 
HETATM    5  C5  UNL     1      27.376  -3.613  12.508  1.00  0.00     0.115 C 
HETATM    6  N1  UNL     1      28.292  -3.715  11.803  1.00  0.00    -0.193 NA
HETATM    7  S1  UNL     1      26.502  -4.417  14.895  1.00  0.00    -0.039 SA
HETATM    8  C6  UNL     1      25.745  -3.510  16.233  1.00  0.00     0.156 C 
HETATM    9  N2  UNL     1      25.771  -4.033  17.565  1.00  0.00    -0.075 NA
HETATM   10  N3  UNL     1      25.201  -2.413  15.948  1.00  0.00    -0.346 N 
ATOM     11  H3  UNL     1      24.788  -1.945  16.755  1.00  0.00     0.163 HD
ENDROOT
BRANCH   1  12
HETATM   12  O1  UNL     1      23.721  -1.839  14.342  1.00  0.00    -0.371 OA
HETATM   13  C1  UNL     1      23.519  -1.026  13.239  1.00  0.00     0.204 C 
ENDBRANCH   1  12
TORSDOF 1
ENDMDL
MODEL 5
REMARK VINA RESULT: -4.709532150      2.971      4.085
REMARK  1 active torsions:
REMARK  status: ('A' for Active; 'I' for Inactive)
REMARK    1  A    between atoms: O1_2  and  C2_3 
ROOT
HETATM    1  C2  UNL     1      25.886  -2.535  16.349  1.00  0.00     0.226 C 
HETATM    2  C3  UNL     1      25.571  -3.989  16.182  1.00  0.00     0.125 C 
HETATM    3  C4  UNL     1      25.396  -4.425  14.762  1.00  0.00     0.249 C 
HETATM    4  F1  UNL     1      26.645  -4.502  14.176  1.00  0.00    -0.214 F 
HETATM    5  C5  UNL     1      24.820  -5.784  14.783  1.00  0.00     0.115 C 
HETATM    6  N1  UNL     1      24.383  -6.859  14.811  1.00  0.00    -0.193 NA
HETATM    7  S1  UNL     1      24.271  -3.351  13.843  1.00  0.00    -0.039 SA
HETATM    8  C6  UNL     1      24.338  -1.748  14.627  1.00  0.00     0.156 C 
HETATM    9  N2  UNL     1      23.584  -0.654  14.095  1.00  0.00    -0.075 NA
HETATM   10  N3  UNL     1      25.066  -1.637  15.646  1.00  0.00    -0.346 N 
ATOM     11  H3  UNL     1      25.060  -0.699  16.045  1.00  0.00     0.163 HD
ENDROOT
BRANCH   1  12
HETATM   12  O1  UNL     1      27.207  -2.235  16.038  1.00  0.00    -0.371 OA
HETATM   13  C1  UNL     1      28.018  -2.800  17.009  1.00  0.00     0.204 C 
ENDBRANCH   1  12
TORSDOF 1
ENDMDL
