MODEL 1
REMARK VINA RESULT: -5.814942970      0.000      0.000
REMARK  1 active torsions:
REMARK  status: ('A' for Active; 'I' for Inactive)
REMARK    1  A    between atoms: C2_7  and  C3_8 
ROOT
HETATM    1  C3  UNL     1      27.172  -3.332  15.858  1.00  0.00     0.181 C 
HETATM    2  C4  UNL     1      27.292  -2.071  15.028  1.00  0.00     0.066 C 
HETATM    3  C5  UNL     1      26.246  -1.063  15.470  1.00  0.00     0.235 C 
HETATM    4  N3  UNL     1      24.919  -1.450  15.093  1.00  0.00    -0.073 N 
ATOM      5  H31 UNL     1      24.771  -1.305  14.093  1.00  0.00     0.277 HD
ATOM      6  H32 UNL     1      24.233  -0.792  15.463  1.00  0.00     0.277 HD
HETATM    7  C6  UNL     1      24.582  -2.799  15.466  1.00  0.00     0.258 C 
HETATM    8  C7  UNL     1      25.077  -3.180  16.826  1.00  0.00     0.196 C 
HETATM    9  O1  UNL     1      26.429  -3.036  16.996  1.00  0.00    -0.378 OA
ENDROOT
BRANCH   1  10
HETATM   10  C2  UNL     1      28.572  -3.725  16.240  1.00  0.00     0.099 A 
HETATM   11  N2  UNL     1      29.226  -3.494  17.375  1.00  0.00    -0.293 N 
HETATM   12  N1  UNL     1      30.411  -3.906  17.512  1.00  0.00    -0.269 N 
ATOM     13  H2  UNL     1      28.771  -2.984  18.132  1.00  0.00     0.187 HD
HETATM   14  C1  UNL     1      31.001  -4.569  16.524  1.00  0.00     0.247 A 
ATOM     15  H1  UNL     1      30.915  -3.730  18.381  1.00  0.00     0.190 HD
HETATM   16  F1  UNL     1      32.277  -5.087  16.501  1.00  0.00    -0.176 F 
HETATM   17  S1  UNL     1      29.757  -4.583  15.349  1.00  0.00    -0.023 SA
ENDBRANCH   1  10
TORSDOF 1
ENDMDL
MODEL 2
REMARK VINA RESULT: -5.786923950      3.237      5.294
REMARK  1 active torsions:
REMARK  status: ('A' for Active; 'I' for Inactive)
REMARK    1  A    between atoms: C2_7  and  C3_8 
ROOT
HETATM    1  C3  UNL     1      29.460  -3.050  16.276  1.00  0.00     0.181 C 
HETATM    2  C4  UNL     1      29.976  -3.423  14.901  1.00  0.00     0.066 C 
HETATM    3  C5  UNL     1      30.465  -4.860  14.910  1.00  0.00     0.235 C 
HETATM    4  N3  UNL     1      31.680  -5.022  15.653  1.00  0.00    -0.073 N 
ATOM      5  H31 UNL     1      32.475  -4.656  15.128  1.00  0.00     0.277 HD
ATOM      6  H32 UNL     1      31.945  -6.005  15.700  1.00  0.00     0.277 HD
HETATM    7  C6  UNL     1      31.631  -4.445  16.971  1.00  0.00     0.258 C 
HETATM    8  C7  UNL     1      30.329  -4.675  17.673  1.00  0.00     0.196 C 
HETATM    9  O1  UNL     1      29.231  -4.222  16.989  1.00  0.00    -0.378 OA
ENDROOT
BRANCH   1  10
HETATM   10  C2  UNL     1      28.166  -2.314  16.059  1.00  0.00     0.099 A 
HETATM   11  N2  UNL     1      27.363  -1.752  16.957  1.00  0.00    -0.293 N 
HETATM   12  N1  UNL     1      26.307  -1.172  16.579  1.00  0.00    -0.269 N 
ATOM     13  H2  UNL     1      27.600  -1.788  17.948  1.00  0.00     0.187 HD
HETATM   14  C1  UNL     1      26.001  -1.127  15.287  1.00  0.00     0.247 A 
ATOM     15  H1  UNL     1      25.689  -0.740  17.266  1.00  0.00     0.190 HD
HETATM   16  F1  UNL     1      24.900  -0.542  14.703  1.00  0.00    -0.176 F 
HETATM   17  S1  UNL     1      27.324  -1.971  14.607  1.00  0.00    -0.023 SA
ENDBRANCH   1  10
TORSDOF 1
ENDMDL
MODEL 3
REMARK VINA RESULT: -5.684959035      1.107      1.746
REMARK  1 active torsions:
REMARK  status: ('A' for Active; 'I' for Inactive)
REMARK    1  A    between atoms: C2_7  and  C3_8 
ROOT
HETATM    1  C3  UNL     1      27.597  -2.284  15.998  1.00  0.00     0.181 C 
HETATM    2  C4  UNL     1      26.405  -2.890  16.710  1.00  0.00     0.066 C 
HETATM    3  C5  UNL     1      25.269  -3.099  15.725  1.00  0.00     0.235 C 
HETATM    4  N3  UNL     1      24.673  -1.864  15.307  1.00  0.00    -0.073 N 
ATOM      5  H31 UNL     1      24.085  -1.479  16.047  1.00  0.00     0.277 HD
ATOM      6  H32 UNL     1      23.962  -2.031  14.594  1.00  0.00     0.277 HD
HETATM    7  C6  UNL     1      25.626  -0.886  14.855  1.00  0.00     0.258 C 
HETATM    8  C7  UNL     1      26.723  -1.467  14.018  1.00  0.00     0.196 C 
HETATM    9  O1  UNL     1      27.428  -2.471  14.630  1.00  0.00    -0.378 OA
ENDROOT
BRANCH   1  10
HETATM   10  C2  UNL     1      28.807  -3.036  16.479  1.00  0.00     0.099 A 
HETATM   11  N2  UNL     1      29.057  -3.535  17.686  1.00  0.00    -0.293 N 
HETATM   12  N1  UNL     1      30.143  -4.142  17.903  1.00  0.00    -0.269 N 
ATOM     13  H2  UNL     1      28.373  -3.428  18.435  1.00  0.00     0.187 HD
HETATM   14  C1  UNL     1      31.031  -4.279  16.925  1.00  0.00     0.247 A 
ATOM     15  H1  UNL     1      30.337  -4.525  18.827  1.00  0.00     0.190 HD
HETATM   16  F1  UNL     1      32.256  -4.906  16.983  1.00  0.00    -0.176 F 
HETATM   17  S1  UNL     1      30.232  -3.483  15.639  1.00  0.00    -0.023 SA
ENDBRANCH   1  10
TORSDOF 1
ENDMDL
MODEL 4
REMARK VINA RESULT: -5.548172516      3.516      4.933
REMARK  1 active torsions:
REMARK  status: ('A' for Active; 'I' for Inactive)
REMARK    1  A    between atoms: C2_7  and  C3_8 
ROOT
HETATM    1  C3  UNL     1      31.334  -4.600  15.575  1.00  0.00     0.181 C 
HETATM    2  C4  UNL     1      31.583  -4.529  17.068  1.00  0.00     0.066 C 
HETATM    3  C5  UNL     1      30.270  -4.677  17.815  1.00  0.00     0.235 C 
HETATM    4  N3  UNL     1      29.427  -3.526  17.677  1.00  0.00    -0.073 N 
ATOM      5  H31 UNL     1      29.774  -2.755  18.249  1.00  0.00     0.277 HD
ATOM      6  H32 UNL     1      28.527  -3.682  18.129  1.00  0.00     0.277 HD
HETATM    7  C6  UNL     1      29.244  -3.105  16.313  1.00  0.00     0.258 C 
HETATM    8  C7  UNL     1      29.059  -4.243  15.359  1.00  0.00     0.196 C 
HETATM    9  O1  UNL     1      30.077  -5.161  15.369  1.00  0.00    -0.378 OA
ENDROOT
BRANCH   1  10
HETATM   10  C2  UNL     1      32.400  -5.495  15.008  1.00  0.00     0.099 A 
HETATM   11  N2  UNL     1      33.386  -6.127  15.640  1.00  0.00    -0.293 N 
HETATM   12  N1  UNL     1      34.194  -6.843  14.986  1.00  0.00    -0.269 N 
ATOM     13  H2  UNL     1      33.487  -6.034  16.651  1.00  0.00     0.187 HD
HETATM   14  C1  UNL     1      34.059  -6.962  13.670  1.00  0.00     0.247 A 
ATOM     15  H1  UNL     1      34.951  -7.328  15.468  1.00  0.00     0.190 HD
HETATM   16  F1  UNL     1      34.842  -7.694  12.806  1.00  0.00    -0.176 F 
HETATM   17  S1  UNL     1      32.686  -5.981  13.390  1.00  0.00    -0.023 SA
ENDBRANCH   1  10
TORSDOF 1
ENDMDL
MODEL 5
REMARK VINA RESULT: -5.528131509      5.029      7.148
REMARK  1 active torsions:
REMARK  status: ('A' for Active; 'I' for Inactive)
REMARK    1  A    between atoms: C2_7  and  C3_8 
ROOT
HETATM    1  C3  UNL     1      33.191  -6.062  14.229  1.00  0.00     0.181 C 
HETATM    2  C4  UNL     1      32.407  -5.661  12.996  1.00  0.00     0.066 C 
HETATM    3  C5  UNL     1      32.294  -6.845  12.053  1.00  0.00     0.235 C 
HETATM    4  N3  UNL     1      33.541  -7.168  11.426  1.00  0.00    -0.073 N 
ATOM      5  H31 UNL     1      33.765  -6.490  10.698  1.00  0.00     0.277 HD
ATOM      6  H32 UNL     1      33.450  -8.008  10.855  1.00  0.00     0.277 HD
HETATM    7  C6  UNL     1      34.635  -7.301  12.352  1.00  0.00     0.258 C 
HETATM    8  C7  UNL     1      34.264  -8.016  13.613  1.00  0.00     0.196 C 
HETATM    9  O1  UNL     1      33.218  -7.451  14.296  1.00  0.00    -0.378 OA
ENDROOT
BRANCH   1  10
HETATM   10  C2  UNL     1      32.445  -5.501  15.408  1.00  0.00     0.099 A 
HETATM   11  N2  UNL     1      32.905  -5.177  16.613  1.00  0.00    -0.293 N 
HETATM   12  N1  UNL     1      32.117  -4.715  17.484  1.00  0.00    -0.269 N 
ATOM     13  H2  UNL     1      33.893  -5.303  16.833  1.00  0.00     0.187 HD
HETATM   14  C1  UNL     1      30.830  -4.554  17.194  1.00  0.00     0.247 A 
ATOM     15  H1  UNL     1      32.467  -4.467  18.409  1.00  0.00     0.190 HD
HETATM   16  F1  UNL     1      29.837  -4.068  18.015  1.00  0.00    -0.176 F 
HETATM   17  S1  UNL     1      30.786  -5.106  15.576  1.00  0.00    -0.023 SA
ENDBRANCH   1  10
TORSDOF 1
ENDMDL
