MODEL 1
REMARK VINA RESULT: -5.380325716      0.000      0.000
REMARK  3 active torsions:
REMARK  status: ('A' for Active; 'I' for Inactive)
REMARK    1  A    between atoms: C2_2  and  O1_5 
REMARK    2  A    between atoms: O1_5  and  N1_6 
REMARK    3  A    between atoms: N2_13  and  O3_14 
ROOT
HETATM    1  N1  UNL     1      27.391  -2.416  14.993  1.00  0.00    -0.245 N 
ATOM      2  H1  UNL     1      27.391  -2.458  13.974  1.00  0.00     0.196 HD
HETATM    3  C4  UNL     1      28.466  -2.785  15.557  1.00  0.00     0.143 C 
HETATM    4  C5  UNL     1      29.630  -3.243  14.759  1.00  0.00     0.165 C 
HETATM    5  S1  UNL     1      30.313  -4.512  15.898  1.00  0.00    -0.059 SA
HETATM    6  C6  UNL     1      29.462  -3.926  17.378  1.00  0.00     0.311 C 
HETATM    7  O2  UNL     1      29.577  -4.460  18.514  1.00  0.00    -0.258 OA
HETATM    8  N2  UNL     1      28.698  -2.809  16.950  1.00  0.00    -0.167 N 
ENDROOT
BRANCH   1   9
HETATM    9  O1  UNL     1      26.256  -1.979  15.554  1.00  0.00    -0.239 OA
BRANCH   9  10
HETATM   10  C2  UNL     1      25.034  -2.549  15.611  1.00  0.00     0.099 C 
HETATM   11  C1  UNL     1      23.967  -2.052  14.715  1.00  0.00     0.081 C 
HETATM   12  C3  UNL     1      24.756  -3.531  16.436  1.00  0.00     0.222 C 
HETATM   13  F1  UNL     1      25.743  -3.994  17.269  1.00  0.00    -0.217 F 
ENDBRANCH   9  10
ENDBRANCH   1   9
BRANCH   8  14
HETATM   14  O3  UNL     1      28.263  -1.887  17.879  1.00  0.00    -0.278 OA
ATOM     15  H3  UNL     1      27.368  -1.609  18.031  1.00  0.00     0.245 HD
ENDBRANCH   8  14
TORSDOF 3
ENDMDL
MODEL 2
REMARK VINA RESULT: -5.284569202      8.799     10.124
REMARK  3 active torsions:
REMARK  status: ('A' for Active; 'I' for Inactive)
REMARK    1  A    between atoms: C2_2  and  O1_5 
REMARK    2  A    between atoms: O1_5  and  N1_6 
REMARK    3  A    between atoms: N2_13  and  O3_14 
ROOT
HETATM    1  N1  UNL     1      31.822  -6.494   8.144  1.00  0.00    -0.245 N 
ATOM      2  H1  UNL     1      32.173  -7.381   7.786  1.00  0.00     0.196 HD
HETATM    3  C4  UNL     1      31.486  -5.643   7.264  1.00  0.00     0.143 C 
HETATM    4  C5  UNL     1      31.608  -5.948   5.818  1.00  0.00     0.165 C 
HETATM    5  S1  UNL     1      32.024  -4.277   5.178  1.00  0.00    -0.059 SA
HETATM    6  C6  UNL     1      31.444  -3.363   6.622  1.00  0.00     0.311 C 
HETATM    7  O2  UNL     1      31.490  -2.108   6.727  1.00  0.00    -0.258 OA
HETATM    8  N2  UNL     1      30.971  -4.352   7.523  1.00  0.00    -0.167 N 
ENDROOT
BRANCH   1   9
HETATM    9  O1  UNL     1      31.777  -6.385   9.477  1.00  0.00    -0.239 OA
BRANCH   9  10
HETATM   10  C2  UNL     1      32.627  -6.843  10.421  1.00  0.00     0.099 C 
HETATM   11  C1  UNL     1      33.725  -7.749  10.019  1.00  0.00     0.081 C 
HETATM   12  C3  UNL     1      32.515  -6.513  11.686  1.00  0.00     0.222 C 
HETATM   13  F1  UNL     1      31.498  -5.672  12.061  1.00  0.00    -0.217 F 
ENDBRANCH   9  10
ENDBRANCH   1   9
BRANCH   8  14
HETATM   14  O3  UNL     1      30.096  -3.994   8.527  1.00  0.00    -0.278 OA
ATOM     15  H3  UNL     1      30.073  -3.169   8.997  1.00  0.00     0.245 HD
ENDBRANCH   8  14
TORSDOF 3
ENDMDL
MODEL 3
REMARK VINA RESULT: -5.161067372      3.512      4.348
REMARK  3 active torsions:
REMARK  status: ('A' for Active; 'I' for Inactive)
REMARK    1  A    between atoms: C2_2  and  O1_5 
REMARK    2  A    between atoms: O1_5  and  N1_6 
REMARK    3  A    between atoms: N2_13  and  O3_14 
ROOT
HETATM    1  N1  UNL     1      23.947  -4.208  14.961  1.00  0.00    -0.245 N 
ATOM      2  H1  UNL     1      23.187  -3.999  14.314  1.00  0.00     0.196 HD
HETATM    3  C4  UNL     1      24.533  -3.200  15.462  1.00  0.00     0.143 C 
HETATM    4  C5  UNL     1      24.118  -1.820  15.110  1.00  0.00     0.165 C 
HETATM    5  S1  UNL     1      25.746  -0.972  15.184  1.00  0.00    -0.059 SA
HETATM    6  C6  UNL     1      26.584  -2.240  16.159  1.00  0.00     0.311 C 
HETATM    7  O2  UNL     1      27.788  -2.168  16.521  1.00  0.00    -0.258 OA
HETATM    8  N2  UNL     1      25.606  -3.245  16.380  1.00  0.00    -0.167 N 
ENDROOT
BRANCH   1   9
HETATM    9  O1  UNL     1      24.191  -5.508  15.166  1.00  0.00    -0.239 OA
BRANCH   9  10
HETATM   10  C2  UNL     1      25.019  -6.355  14.518  1.00  0.00     0.099 C 
HETATM   11  C1  UNL     1      26.313  -5.847  14.013  1.00  0.00     0.081 C 
HETATM   12  C3  UNL     1      24.718  -7.617  14.320  1.00  0.00     0.222 C 
HETATM   13  F1  UNL     1      23.519  -8.091  14.789  1.00  0.00    -0.217 F 
ENDBRANCH   9  10
ENDBRANCH   1   9
BRANCH   8  14
HETATM   14  O3  UNL     1      25.775  -4.140  17.415  1.00  0.00    -0.278 OA
ATOM     15  H3  UNL     1      26.435  -4.107  18.098  1.00  0.00     0.245 HD
ENDBRANCH   8  14
TORSDOF 3
ENDMDL
MODEL 4
REMARK VINA RESULT: -5.150891101      1.589      1.733
REMARK  3 active torsions:
REMARK  status: ('A' for Active; 'I' for Inactive)
REMARK    1  A    between atoms: C2_2  and  O1_5 
REMARK    2  A    between atoms: O1_5  and  N1_6 
REMARK    3  A    between atoms: N2_13  and  O3_14 
ROOT
HETATM    1  N1  UNL     1      26.846  -3.277  14.345  1.00  0.00    -0.245 N 
ATOM      2  H1  UNL     1      27.132  -3.510  13.394  1.00  0.00     0.196 HD
HETATM    3  C4  UNL     1      27.791  -3.095  15.172  1.00  0.00     0.143 C 
HETATM    4  C5  UNL     1      29.209  -3.220  14.755  1.00  0.00     0.165 C 
HETATM    5  S1  UNL     1      29.935  -3.890  16.304  1.00  0.00    -0.059 SA
HETATM    6  C6  UNL     1      28.576  -3.400  17.386  1.00  0.00     0.311 C 
HETATM    7  O2  UNL     1      28.549  -3.621  18.627  1.00  0.00    -0.258 OA
HETATM    8  N2  UNL     1      27.636  -2.761  16.537  1.00  0.00    -0.167 N 
ENDROOT
BRANCH   1   9
HETATM    9  O1  UNL     1      25.525  -3.205  14.550  1.00  0.00    -0.239 OA
BRANCH   9  10
HETATM   10  C2  UNL     1      24.653  -4.147  14.966  1.00  0.00     0.099 C 
HETATM   11  C1  UNL     1      24.809  -5.535  14.480  1.00  0.00     0.081 C 
HETATM   12  C3  UNL     1      23.667  -3.876  15.788  1.00  0.00     0.222 C 
HETATM   13  F1  UNL     1      23.519  -2.588  16.241  1.00  0.00    -0.217 F 
ENDBRANCH   9  10
ENDBRANCH   1   9
BRANCH   8  14
HETATM   14  O3  UNL     1      26.694  -1.914  17.081  1.00  0.00    -0.278 OA
ATOM     15  H3  UNL     1      26.667  -1.587  17.973  1.00  0.00     0.245 HD
ENDBRANCH   8  14
TORSDOF 3
ENDMDL
MODEL 5
REMARK VINA RESULT: -5.125676014      1.668      1.750
REMARK  3 active torsions:
REMARK  status: ('A' for Active; 'I' for Inactive)
REMARK    1  A    between atoms: C2_2  and  O1_5 
REMARK    2  A    between atoms: O1_5  and  N1_6 
REMARK    3  A    between atoms: N2_13  and  O3_14 
ROOT
HETATM    1  N1  UNL     1      26.507  -2.831  14.497  1.00  0.00    -0.245 N 
ATOM      2  H1  UNL     1      26.731  -2.984  13.515  1.00  0.00     0.196 HD
HETATM    3  C4  UNL     1      27.503  -2.732  15.278  1.00  0.00     0.143 C 
HETATM    4  C5  UNL     1      28.890  -2.834  14.765  1.00  0.00     0.165 C 
HETATM    5  S1  UNL     1      29.699  -3.644  16.202  1.00  0.00    -0.059 SA
HETATM    6  C6  UNL     1      28.416  -3.237  17.405  1.00  0.00     0.311 C 
HETATM    7  O2  UNL     1      28.461  -3.565  18.621  1.00  0.00    -0.258 OA
HETATM    8  N2  UNL     1      27.436  -2.517  16.673  1.00  0.00    -0.167 N 
ENDROOT
BRANCH   1   9
HETATM    9  O1  UNL     1      25.202  -2.764  14.789  1.00  0.00    -0.239 OA
BRANCH   9  10
HETATM   10  C2  UNL     1      24.382  -3.682  15.344  1.00  0.00     0.099 C 
HETATM   11  C1  UNL     1      23.519  -3.282  16.477  1.00  0.00     0.081 C 
HETATM   12  C3  UNL     1      24.323  -4.920  14.915  1.00  0.00     0.222 C 
HETATM   13  F1  UNL     1      25.122  -5.295  13.864  1.00  0.00    -0.217 F 
ENDBRANCH   9  10
ENDBRANCH   1   9
BRANCH   8  14
HETATM   14  O3  UNL     1      26.542  -1.711  17.346  1.00  0.00    -0.278 OA
ATOM     15  H3  UNL     1      25.598  -1.814  17.386  1.00  0.00     0.245 HD
ENDBRANCH   8  14
TORSDOF 3
ENDMDL
