MODEL 1
REMARK VINA RESULT: -5.790505715      0.000      0.000
REMARK  17 active torsions:
REMARK  status: ('A' for Active; 'I' for Inactive)
REMARK    1  A    between atoms: C2_2  and  C3_3 
REMARK    2  A    between atoms: C3_3  and  C4_4 
REMARK    3  A    between atoms: C4_4  and  C5_5 
REMARK    4  A    between atoms: C4_4  and  C8_8 
REMARK    5  A    between atoms: C5_5  and  C6_6 
REMARK    6  A    between atoms: C8_8  and  N1_9 
REMARK    7  A    between atoms: N1_9  and  C9_11 
REMARK    8  A    between atoms: C9_11  and  O1_12 
REMARK    9  A    between atoms: C9_11  and  C10_14 
REMARK   10  A    between atoms: C10_14  and  O2_15 
REMARK   11  A    between atoms: C10_14  and  C11_17 
REMARK       I    between atoms: C11_17  and  N2_19 
REMARK   12  A    between atoms: N2_19  and  C12_21 
REMARK   13  A    between atoms: C12_21  and  C14_23 
REMARK   14  A    between atoms: C14_23  and  O4_24 
REMARK   15  A    between atoms: O4_24  and  S1_25 
REMARK   16  A    between atoms: S1_25  and  O6_27 
REMARK   17  A    between atoms: O6_27  and  C15_28 
ROOT
HETATM    1  C10 UNL     1     -25.656  11.906 -14.083  1.00  0.00     0.257 C 
ENDROOT
BRANCH   1   2
HETATM    2  C9  UNL     1     -25.588  12.115 -15.554  1.00  0.00     0.252 C 
BRANCH   2   3
HETATM    3  N1  UNL     1     -26.774  12.414 -16.244  1.00  0.00    -0.391 N 
ATOM      4  H1  UNL     1     -27.616  11.861 -16.083  1.00  0.00     0.156 HD
BRANCH   3   5
HETATM    5  C8  UNL     1     -26.791  13.497 -17.172  1.00  0.00     0.154 C 
BRANCH   5   6
HETATM    6  C4  UNL     1     -27.275  12.956 -18.532  1.00  0.00    -0.048 C 
BRANCH   6   7
HETATM    7  C3  UNL     1     -26.191  12.259 -19.250  1.00  0.00    -0.019 C 
BRANCH   7   8
HETATM    8  C2  UNL     1     -26.333  11.816 -20.635  1.00  0.00     0.023 C 
HETATM    9  C1  UNL     1     -25.303  12.616 -21.480  1.00  0.00     0.009 C 
ENDBRANCH   7   8
ENDBRANCH   6   7
BRANCH   6  10
HETATM   10  C5  UNL     1     -28.201  13.851 -19.212  1.00  0.00    -0.019 C 
BRANCH  10  11
HETATM   11  C6  UNL     1     -27.998  15.286 -19.366  1.00  0.00     0.023 C 
HETATM   12  C7  UNL     1     -27.390  15.538 -20.766  1.00  0.00     0.009 C 
ENDBRANCH  10  11
ENDBRANCH   6  10
ENDBRANCH   5   6
ENDBRANCH   3   5
ENDBRANCH   2   3
BRANCH   2  13
HETATM   13  O1  UNL     1     -25.087  10.907 -16.112  1.00  0.00    -0.374 OA
ATOM     14  H1  UNL     1     -25.688  10.218 -15.853  1.00  0.00     0.212 HD
ENDBRANCH   2  13
ENDBRANCH   1   2
BRANCH   1  15
HETATM   15  O2  UNL     1     -25.328  13.073 -13.409  1.00  0.00    -0.382 OA
ATOM     16  H2  UNL     1     -24.906  12.874 -12.583  1.00  0.00     0.210 HD
ENDBRANCH   1  15
BRANCH   1  17
HETATM   17  C11 UNL     1     -24.691  10.850 -13.659  1.00  0.00     0.251 C 
HETATM   18  O3  UNL     1     -23.469  11.111 -13.663  1.00  0.00    -0.270 OA
HETATM   19  N2  UNL     1     -25.138   9.568 -13.257  1.00  0.00    -0.352 N 
ATOM     20  H2  UNL     1     -26.142   9.388 -13.264  1.00  0.00     0.163 HD
BRANCH  19  21
HETATM   21  C12 UNL     1     -24.261   8.496 -12.836  1.00  0.00     0.105 C 
HETATM   22  C13 UNL     1     -24.197   7.375 -13.837  1.00  0.00     0.034 C 
BRANCH  21  23
HETATM   23  C14 UNL     1     -24.845   7.972 -11.532  1.00  0.00     0.214 C 
BRANCH  23  24
HETATM   24  O4  UNL     1     -25.476   6.740 -11.744  1.00  0.00    -0.272 OA
BRANCH  24  25
HETATM   25  S1  UNL     1     -25.031   5.678 -10.509  1.00  0.00     0.313 S 
HETATM   26  O5  UNL     1     -24.526   4.348 -11.079  1.00  0.00    -0.196 OA
BRANCH  25  27
HETATM   27  O6  UNL     1     -26.430   5.367  -9.542  1.00  0.00    -0.195 OA
BRANCH  27  28
HETATM   28  C15 UNL     1     -27.389   6.354  -9.368  1.00  0.00     0.269 C 
HETATM   29  C16 UNL     1     -27.141   7.585  -8.568  1.00  0.00     0.127 C 
HETATM   30  O7  UNL     1     -28.511   6.171  -9.924  1.00  0.00    -0.265 OA
ENDBRANCH  27  28
ENDBRANCH  25  27
ENDBRANCH  24  25
ENDBRANCH  23  24
ENDBRANCH  21  23
ENDBRANCH  19  21
ENDBRANCH   1  17
TORSDOF 17
ENDMDL
MODEL 2
REMARK VINA RESULT: -5.764044752      1.450      1.833
REMARK  17 active torsions:
REMARK  status: ('A' for Active; 'I' for Inactive)
REMARK    1  A    between atoms: C2_2  and  C3_3 
REMARK    2  A    between atoms: C3_3  and  C4_4 
REMARK    3  A    between atoms: C4_4  and  C5_5 
REMARK    4  A    between atoms: C4_4  and  C8_8 
REMARK    5  A    between atoms: C5_5  and  C6_6 
REMARK    6  A    between atoms: C8_8  and  N1_9 
REMARK    7  A    between atoms: N1_9  and  C9_11 
REMARK    8  A    between atoms: C9_11  and  O1_12 
REMARK    9  A    between atoms: C9_11  and  C10_14 
REMARK   10  A    between atoms: C10_14  and  O2_15 
REMARK   11  A    between atoms: C10_14  and  C11_17 
REMARK       I    between atoms: C11_17  and  N2_19 
REMARK   12  A    between atoms: N2_19  and  C12_21 
REMARK   13  A    between atoms: C12_21  and  C14_23 
REMARK   14  A    between atoms: C14_23  and  O4_24 
REMARK   15  A    between atoms: O4_24  and  S1_25 
REMARK   16  A    between atoms: S1_25  and  O6_27 
REMARK   17  A    between atoms: O6_27  and  C15_28 
ROOT
HETATM    1  C10 UNL     1     -25.680  11.568 -13.855  1.00  0.00     0.257 C 
ENDROOT
BRANCH   1   2
HETATM    2  C9  UNL     1     -25.491  11.872 -15.299  1.00  0.00     0.252 C 
BRANCH   2   3
HETATM    3  N1  UNL     1     -26.605  12.282 -16.050  1.00  0.00    -0.391 N 
ATOM      4  H1  UNL     1     -27.389  11.645 -16.195  1.00  0.00     0.156 HD
BRANCH   3   5
HETATM    5  C8  UNL     1     -26.631  13.595 -16.606  1.00  0.00     0.154 C 
BRANCH   5   6
HETATM    6  C4  UNL     1     -27.232  13.502 -18.023  1.00  0.00    -0.048 C 
BRANCH   6   7
HETATM    7  C3  UNL     1     -26.493  12.537 -18.858  1.00  0.00    -0.019 C 
BRANCH   7   8
HETATM    8  C2  UNL     1     -26.825  12.306 -20.262  1.00  0.00     0.023 C 
HETATM    9  C1  UNL     1     -25.553  12.631 -21.093  1.00  0.00     0.009 C 
ENDBRANCH   7   8
ENDBRANCH   6   7
BRANCH   6  10
HETATM   10  C5  UNL     1     -27.682  14.787 -18.543  1.00  0.00    -0.019 C 
BRANCH  10  11
HETATM   11  C6  UNL     1     -29.072  15.222 -18.575  1.00  0.00     0.023 C 
HETATM   12  C7  UNL     1     -29.135  16.572 -19.326  1.00  0.00     0.009 C 
ENDBRANCH  10  11
ENDBRANCH   6  10
ENDBRANCH   5   6
ENDBRANCH   3   5
ENDBRANCH   2   3
BRANCH   2  13
HETATM   13  O1  UNL     1     -25.009  10.679 -15.905  1.00  0.00    -0.374 OA
ATOM     14  H1  UNL     1     -24.592  10.174 -15.217  1.00  0.00     0.212 HD
ENDBRANCH   2  13
ENDBRANCH   1   2
BRANCH   1  15
HETATM   15  O2  UNL     1     -25.469  12.702 -13.086  1.00  0.00    -0.382 OA
ATOM     16  H2  UNL     1     -25.380  12.471 -12.169  1.00  0.00     0.210 HD
ENDBRANCH   1  15
BRANCH   1  17
HETATM   17  C11 UNL     1     -24.708  10.528 -13.409  1.00  0.00     0.251 C 
HETATM   18  O3  UNL     1     -23.488  10.799 -13.411  1.00  0.00    -0.270 OA
HETATM   19  N2  UNL     1     -25.146   9.249 -12.986  1.00  0.00    -0.352 N 
ATOM     20  H2  UNL     1     -26.148   9.060 -12.994  1.00  0.00     0.163 HD
BRANCH  19  21
HETATM   21  C12 UNL     1     -24.262   8.192 -12.542  1.00  0.00     0.105 C 
HETATM   22  C13 UNL     1     -24.252   7.016 -13.479  1.00  0.00     0.034 C 
BRANCH  21  23
HETATM   23  C14 UNL     1     -24.793   7.750 -11.187  1.00  0.00     0.214 C 
BRANCH  23  24
HETATM   24  O4  UNL     1     -25.836   6.830 -11.351  1.00  0.00    -0.272 OA
BRANCH  24  25
HETATM   25  S1  UNL     1     -27.001   7.105 -10.159  1.00  0.00     0.313 S 
HETATM   26  O5  UNL     1     -27.563   5.784  -9.621  1.00  0.00    -0.196 OA
BRANCH  25  27
HETATM   27  O6  UNL     1     -28.294   8.003 -10.874  1.00  0.00    -0.195 OA
BRANCH  27  28
HETATM   28  C15 UNL     1     -28.940   7.516 -12.002  1.00  0.00     0.269 C 
HETATM   29  C16 UNL     1     -28.361   7.621 -13.369  1.00  0.00     0.127 C 
HETATM   30  O7  UNL     1     -30.066   6.968 -11.826  1.00  0.00    -0.265 OA
ENDBRANCH  27  28
ENDBRANCH  25  27
ENDBRANCH  24  25
ENDBRANCH  23  24
ENDBRANCH  21  23
ENDBRANCH  19  21
ENDBRANCH   1  17
TORSDOF 17
ENDMDL
MODEL 3
REMARK VINA RESULT: -5.700626810      3.354      4.258
REMARK  17 active torsions:
REMARK  status: ('A' for Active; 'I' for Inactive)
REMARK    1  A    between atoms: C2_2  and  C3_3 
REMARK    2  A    between atoms: C3_3  and  C4_4 
REMARK    3  A    between atoms: C4_4  and  C5_5 
REMARK    4  A    between atoms: C4_4  and  C8_8 
REMARK    5  A    between atoms: C5_5  and  C6_6 
REMARK    6  A    between atoms: C8_8  and  N1_9 
REMARK    7  A    between atoms: N1_9  and  C9_11 
REMARK    8  A    between atoms: C9_11  and  O1_12 
REMARK    9  A    between atoms: C9_11  and  C10_14 
REMARK   10  A    between atoms: C10_14  and  O2_15 
REMARK   11  A    between atoms: C10_14  and  C11_17 
REMARK       I    between atoms: C11_17  and  N2_19 
REMARK   12  A    between atoms: N2_19  and  C12_21 
REMARK   13  A    between atoms: C12_21  and  C14_23 
REMARK   14  A    between atoms: C14_23  and  O4_24 
REMARK   15  A    between atoms: O4_24  and  S1_25 
REMARK   16  A    between atoms: S1_25  and  O6_27 
REMARK   17  A    between atoms: O6_27  and  C15_28 
ROOT
HETATM    1  C10 UNL     1     -30.125  11.548 -15.544  1.00  0.00     0.257 C 
ENDROOT
BRANCH   1   2
HETATM    2  C9  UNL     1     -29.507  12.692 -16.265  1.00  0.00     0.252 C 
BRANCH   2   3
HETATM    3  N1  UNL     1     -28.140  12.626 -16.583  1.00  0.00    -0.391 N 
ATOM      4  H1  UNL     1     -27.658  11.726 -16.597  1.00  0.00     0.156 HD
BRANCH   3   5
HETATM    5  C8  UNL     1     -27.432  13.826 -16.888  1.00  0.00     0.154 C 
BRANCH   5   6
HETATM    6  C4  UNL     1     -27.148  13.844 -18.403  1.00  0.00    -0.048 C 
BRANCH   6   7
HETATM    7  C3  UNL     1     -28.235  14.510 -19.145  1.00  0.00    -0.019 C 
BRANCH   7   8
HETATM    8  C2  UNL     1     -28.020  15.741 -19.903  1.00  0.00     0.023 C 
HETATM    9  C1  UNL     1     -29.092  16.762 -19.432  1.00  0.00     0.009 C 
ENDBRANCH   7   8
ENDBRANCH   6   7
BRANCH   6  10
HETATM   10  C5  UNL     1     -26.520  12.621 -18.886  1.00  0.00    -0.019 C 
BRANCH  10  11
HETATM   11  C6  UNL     1     -26.671  12.094 -20.235  1.00  0.00     0.023 C 
HETATM   12  C7  UNL     1     -25.483  12.602 -21.086  1.00  0.00     0.009 C 
ENDBRANCH  10  11
ENDBRANCH   6  10
ENDBRANCH   5   6
ENDBRANCH   3   5
ENDBRANCH   2   3
BRANCH   2  13
HETATM   13  O1  UNL     1     -29.674  13.834 -15.432  1.00  0.00    -0.374 OA
ATOM     14  H1  UNL     1     -30.408  14.322 -15.786  1.00  0.00     0.212 HD
ENDBRANCH   2  13
ENDBRANCH   1   2
BRANCH   1  15
HETATM   15  O2  UNL     1     -31.321  11.930 -14.957  1.00  0.00    -0.382 OA
ATOM     16  H2  UNL     1     -31.275  11.834 -14.014  1.00  0.00     0.210 HD
ENDBRANCH   1  15
BRANCH   1  17
HETATM   17  C11 UNL     1     -29.221  11.061 -14.462  1.00  0.00     0.251 C 
HETATM   18  O3  UNL     1     -28.790  11.879 -13.622  1.00  0.00    -0.270 OA
HETATM   19  N2  UNL     1     -28.848   9.698 -14.376  1.00  0.00    -0.352 N 
ATOM     20  H2  UNL     1     -29.218   9.056 -15.076  1.00  0.00     0.163 HD
BRANCH  19  21
HETATM   21  C12 UNL     1     -27.975   9.156 -13.356  1.00  0.00     0.105 C 
HETATM   22  C13 UNL     1     -26.519   9.296 -13.707  1.00  0.00     0.034 C 
BRANCH  21  23
HETATM   23  C14 UNL     1     -28.327   7.679 -13.252  1.00  0.00     0.214 C 
BRANCH  23  24
HETATM   24  O4  UNL     1     -27.928   7.172 -12.009  1.00  0.00    -0.272 OA
BRANCH  24  25
HETATM   25  S1  UNL     1     -29.159   7.447 -10.886  1.00  0.00     0.313 S 
HETATM   26  O5  UNL     1     -29.204   6.335  -9.832  1.00  0.00    -0.196 OA
BRANCH  25  27
HETATM   27  O6  UNL     1     -30.664   7.461 -11.736  1.00  0.00    -0.195 OA
BRANCH  27  28
HETATM   28  C15 UNL     1     -31.638   8.396 -11.413  1.00  0.00     0.269 C 
HETATM   29  C16 UNL     1     -31.472   9.852 -11.671  1.00  0.00     0.127 C 
HETATM   30  O7  UNL     1     -32.699   7.960 -10.878  1.00  0.00    -0.265 OA
ENDBRANCH  27  28
ENDBRANCH  25  27
ENDBRANCH  24  25
ENDBRANCH  23  24
ENDBRANCH  21  23
ENDBRANCH  19  21
ENDBRANCH   1  17
TORSDOF 17
ENDMDL
MODEL 4
REMARK VINA RESULT: -5.695654677      1.757      2.653
REMARK  17 active torsions:
REMARK  status: ('A' for Active; 'I' for Inactive)
REMARK    1  A    between atoms: C2_2  and  C3_3 
REMARK    2  A    between atoms: C3_3  and  C4_4 
REMARK    3  A    between atoms: C4_4  and  C5_5 
REMARK    4  A    between atoms: C4_4  and  C8_8 
REMARK    5  A    between atoms: C5_5  and  C6_6 
REMARK    6  A    between atoms: C8_8  and  N1_9 
REMARK    7  A    between atoms: N1_9  and  C9_11 
REMARK    8  A    between atoms: C9_11  and  O1_12 
REMARK    9  A    between atoms: C9_11  and  C10_14 
REMARK   10  A    between atoms: C10_14  and  O2_15 
REMARK   11  A    between atoms: C10_14  and  C11_17 
REMARK       I    between atoms: C11_17  and  N2_19 
REMARK   12  A    between atoms: N2_19  and  C12_21 
REMARK   13  A    between atoms: C12_21  and  C14_23 
REMARK   14  A    between atoms: C14_23  and  O4_24 
REMARK   15  A    between atoms: O4_24  and  S1_25 
REMARK   16  A    between atoms: S1_25  and  O6_27 
REMARK   17  A    between atoms: O6_27  and  C15_28 
ROOT
HETATM    1  C10 UNL     1     -26.568  11.993 -14.184  1.00  0.00     0.257 C 
ENDROOT
BRANCH   1   2
HETATM    2  C9  UNL     1     -26.052  12.383 -15.524  1.00  0.00     0.252 C 
BRANCH   2   3
HETATM    3  N1  UNL     1     -26.977  12.649 -16.547  1.00  0.00    -0.391 N 
ATOM      4  H1  UNL     1     -27.571  11.903 -16.911  1.00  0.00     0.156 HD
BRANCH   3   5
HETATM    5  C8  UNL     1     -27.078  13.971 -17.074  1.00  0.00     0.154 C 
BRANCH   5   6
HETATM    6  C4  UNL     1     -26.993  13.881 -18.611  1.00  0.00    -0.048 C 
BRANCH   6   7
HETATM    7  C3  UNL     1     -28.157  14.522 -19.251  1.00  0.00    -0.019 C 
BRANCH   7   8
HETATM    8  C2  UNL     1     -28.097  15.873 -19.805  1.00  0.00     0.023 C 
HETATM    9  C1  UNL     1     -27.306  15.786 -21.140  1.00  0.00     0.009 C 
ENDBRANCH   7   8
ENDBRANCH   6   7
BRANCH   6  10
HETATM   10  C5  UNL     1     -26.451  12.615 -19.085  1.00  0.00    -0.019 C 
BRANCH  10  11
HETATM   11  C6  UNL     1     -26.595  12.114 -20.446  1.00  0.00     0.023 C 
HETATM   12  C7  UNL     1     -25.395  12.628 -21.276  1.00  0.00     0.009 C 
ENDBRANCH  10  11
ENDBRANCH   6  10
ENDBRANCH   5   6
ENDBRANCH   3   5
ENDBRANCH   2   3
BRANCH   2  13
HETATM   13  O1  UNL     1     -25.245  11.303 -15.977  1.00  0.00    -0.374 OA
ATOM     14  H1  UNL     1     -24.748  11.001 -15.225  1.00  0.00     0.212 HD
ENDBRANCH   2  13
ENDBRANCH   1   2
BRANCH   1  15
HETATM   15  O2  UNL     1     -26.786  13.115 -13.401  1.00  0.00    -0.382 OA
ATOM     16  H2  UNL     1     -26.145  13.164 -12.702  1.00  0.00     0.210 HD
ENDBRANCH   1  15
BRANCH   1  17
HETATM   17  C11 UNL     1     -25.582  11.127 -13.476  1.00  0.00     0.251 C 
HETATM   18  O3  UNL     1     -24.492  11.621 -13.116  1.00  0.00    -0.270 OA
HETATM   19  N2  UNL     1     -25.861   9.765 -13.207  1.00  0.00    -0.352 N 
ATOM     20  H2  UNL     1     -26.761   9.393 -13.512  1.00  0.00     0.163 HD
BRANCH  19  21
HETATM   21  C12 UNL     1     -24.953   8.866 -12.527  1.00  0.00     0.105 C 
HETATM   22  C13 UNL     1     -24.683   7.613 -13.314  1.00  0.00     0.034 C 
BRANCH  21  23
HETATM   23  C14 UNL     1     -25.636   8.500 -11.218  1.00  0.00     0.214 C 
BRANCH  23  24
HETATM   24  O4  UNL     1     -26.132   7.193 -11.278  1.00  0.00    -0.272 OA
BRANCH  24  25
HETATM   25  S1  UNL     1     -27.646   7.146 -10.530  1.00  0.00     0.313 S 
HETATM   26  O5  UNL     1     -27.779   5.914  -9.629  1.00  0.00    -0.196 OA
BRANCH  25  27
HETATM   27  O6  UNL     1     -28.850   7.057 -11.768  1.00  0.00    -0.195 OA
BRANCH  27  28
HETATM   28  C15 UNL     1     -28.858   7.986 -12.799  1.00  0.00     0.269 C 
HETATM   29  C16 UNL     1     -29.553   9.298 -12.694  1.00  0.00     0.127 C 
HETATM   30  O7  UNL     1     -28.242   7.674 -13.859  1.00  0.00    -0.265 OA
ENDBRANCH  27  28
ENDBRANCH  25  27
ENDBRANCH  24  25
ENDBRANCH  23  24
ENDBRANCH  21  23
ENDBRANCH  19  21
ENDBRANCH   1  17
TORSDOF 17
ENDMDL
MODEL 5
REMARK VINA RESULT: -5.694940508      2.120      2.589
REMARK  17 active torsions:
REMARK  status: ('A' for Active; 'I' for Inactive)
REMARK    1  A    between atoms: C2_2  and  C3_3 
REMARK    2  A    between atoms: C3_3  and  C4_4 
REMARK    3  A    between atoms: C4_4  and  C5_5 
REMARK    4  A    between atoms: C4_4  and  C8_8 
REMARK    5  A    between atoms: C5_5  and  C6_6 
REMARK    6  A    between atoms: C8_8  and  N1_9 
REMARK    7  A    between atoms: N1_9  and  C9_11 
REMARK    8  A    between atoms: C9_11  and  O1_12 
REMARK    9  A    between atoms: C9_11  and  C10_14 
REMARK   10  A    between atoms: C10_14  and  O2_15 
REMARK   11  A    between atoms: C10_14  and  C11_17 
REMARK       I    between atoms: C11_17  and  N2_19 
REMARK   12  A    between atoms: N2_19  and  C12_21 
REMARK   13  A    between atoms: C12_21  and  C14_23 
REMARK   14  A    between atoms: C14_23  and  O4_24 
REMARK   15  A    between atoms: O4_24  and  S1_25 
REMARK   16  A    between atoms: S1_25  and  O6_27 
REMARK   17  A    between atoms: O6_27  and  C15_28 
ROOT
HETATM    1  C10 UNL     1     -24.815  11.771 -15.007  1.00  0.00     0.257 C 
ENDROOT
BRANCH   1   2
HETATM    2  C9  UNL     1     -25.940  12.681 -15.352  1.00  0.00     0.252 C 
BRANCH   2   3
HETATM    3  N1  UNL     1     -26.468  12.630 -16.653  1.00  0.00    -0.391 N 
ATOM      4  H1  UNL     1     -26.554  11.738 -17.139  1.00  0.00     0.156 HD
BRANCH   3   5
HETATM    5  C8  UNL     1     -26.884  13.838 -17.287  1.00  0.00     0.154 C 
BRANCH   5   6
HETATM    6  C4  UNL     1     -27.531  13.472 -18.637  1.00  0.00    -0.048 C 
BRANCH   6   7
HETATM    7  C3  UNL     1     -26.536  12.929 -19.581  1.00  0.00    -0.019 C 
BRANCH   7   8
HETATM    8  C2  UNL     1     -26.143  13.642 -20.795  1.00  0.00     0.023 C 
HETATM    9  C1  UNL     1     -25.256  12.676 -21.627  1.00  0.00     0.009 C 
ENDBRANCH   7   8
ENDBRANCH   6   7
BRANCH   6  10
HETATM   10  C5  UNL     1     -28.560  14.414 -19.058  1.00  0.00    -0.019 C 
BRANCH  10  11
HETATM   11  C6  UNL     1     -28.888  15.646 -18.353  1.00  0.00     0.023 C 
HETATM   12  C7  UNL     1     -29.137  16.751 -19.407  1.00  0.00     0.009 C 
ENDBRANCH  10  11
ENDBRANCH   6  10
ENDBRANCH   5   6
ENDBRANCH   3   5
ENDBRANCH   2   3
BRANCH   2  13
HETATM   13  O1  UNL     1     -25.462  14.007 -15.159  1.00  0.00    -0.374 OA
ATOM     14  H1  UNL     1     -25.997  14.390 -14.474  1.00  0.00     0.212 HD
ENDBRANCH   2  13
ENDBRANCH   1   2
BRANCH   1  15
HETATM   15  O2  UNL     1     -25.015  10.516 -15.562  1.00  0.00    -0.382 OA
ATOM     16  H2  UNL     1     -24.924  10.551 -16.507  1.00  0.00     0.210 HD
ENDBRANCH   1  15
BRANCH   1  17
HETATM   17  C11 UNL     1     -24.712  11.604 -13.529  1.00  0.00     0.251 C 
HETATM   18  O3  UNL     1     -25.429  12.311 -12.789  1.00  0.00    -0.270 OA
HETATM   19  N2  UNL     1     -23.821  10.662 -12.957  1.00  0.00    -0.352 N 
ATOM     20  H2  UNL     1     -23.252  10.100 -13.589  1.00  0.00     0.163 HD
BRANCH  19  21
HETATM   21  C12 UNL     1     -23.668  10.447 -11.534  1.00  0.00     0.105 C 
HETATM   22  C13 UNL     1     -22.260  10.080 -11.154  1.00  0.00     0.034 C 
BRANCH  21  23
HETATM   23  C14 UNL     1     -24.599   9.295 -11.187  1.00  0.00     0.214 C 
BRANCH  23  24
HETATM   24  O4  UNL     1     -23.992   8.072 -11.493  1.00  0.00    -0.272 OA
BRANCH  24  25
HETATM   25  S1  UNL     1     -24.892   7.300 -12.697  1.00  0.00     0.313 S 
HETATM   26  O5  UNL     1     -24.760   8.030 -14.038  1.00  0.00    -0.196 OA
BRANCH  25  27
HETATM   27  O6  UNL     1     -26.553   7.323 -12.218  1.00  0.00    -0.195 OA
BRANCH  27  28
HETATM   28  C15 UNL     1     -27.510   7.883 -13.052  1.00  0.00     0.269 C 
HETATM   29  C16 UNL     1     -27.664   9.352 -13.229  1.00  0.00     0.127 C 
HETATM   30  O7  UNL     1     -28.269   7.083 -13.674  1.00  0.00    -0.265 OA
ENDBRANCH  27  28
ENDBRANCH  25  27
ENDBRANCH  24  25
ENDBRANCH  23  24
ENDBRANCH  21  23
ENDBRANCH  19  21
ENDBRANCH   1  17
TORSDOF 17
ENDMDL
