MODEL 1
REMARK VINA RESULT: -6.499599395      0.000      0.000
REMARK  15 active torsions:
REMARK  status: ('A' for Active; 'I' for Inactive)
REMARK    1  A    between atoms: C2_2  and  O1_3 
REMARK    2  A    between atoms: O1_3  and  C3_4 
REMARK    3  A    between atoms: C3_4  and  C4_5 
REMARK    4  A    between atoms: C4_5  and  O2_6 
REMARK    5  A    between atoms: O2_6  and  C5_7 
REMARK    6  A    between atoms: C5_7  and  O3_8 
REMARK    7  A    between atoms: C5_7  and  N1_10 
REMARK    8  A    between atoms: N1_10  and  C6_12 
REMARK    9  A    between atoms: C6_12  and  C7_13 
REMARK   10  A    between atoms: C6_12  and  C9_15 
REMARK   11  A    between atoms: C9_15  and  C10_16 
REMARK   12  A    between atoms: C10_16  and  C11_18 
REMARK   13  A    between atoms: C13_22  and  C14_23 
REMARK       I    between atoms: C14_23  and  N3_25 
REMARK   14  A    between atoms: N3_25  and  C15_27 
REMARK   15  A    between atoms: C15_27  and  C17_29 
ROOT
HETATM    1  C10 UNL     1     -30.326  12.415 -15.198  1.00  0.00     0.186 C 
HETATM    2  O4  UNL     1     -30.655  13.424 -14.546  1.00  0.00    -0.290 OA
ENDROOT
BRANCH   1   3
HETATM    3  C9  UNL     1     -30.205  12.270 -16.617  1.00  0.00     0.111 C 
BRANCH   3   4
HETATM    4  C6  UNL     1     -29.105  13.064 -17.322  1.00  0.00     0.088 C 
BRANCH   4   5
HETATM    5  N1  UNL     1     -28.626  12.230 -18.348  1.00  0.00    -0.371 N 
ATOM      6  H1  UNL     1     -28.795  11.232 -18.224  1.00  0.00     0.158 HD
BRANCH   5   7
HETATM    7  C5  UNL     1     -27.965  12.580 -19.487  1.00  0.00     0.363 C 
BRANCH   7   8
HETATM    8  O2  UNL     1     -27.012  11.650 -19.941  1.00  0.00    -0.342 OA
BRANCH   8   9
HETATM    9  C4  UNL     1     -25.792  12.146 -20.207  1.00  0.00     0.199 C 
BRANCH   9  10
HETATM   10  C3  UNL     1     -25.461  12.445 -21.636  1.00  0.00     0.193 C 
BRANCH  10  11
HETATM   11  O1  UNL     1     -26.095  13.519 -22.160  1.00  0.00    -0.389 OA
BRANCH  11  12
HETATM   12  C2  UNL     1     -25.964  14.733 -21.568  1.00  0.00     0.163 C 
HETATM   13  C1  UNL     1     -27.238  15.575 -21.594  1.00  0.00     0.033 C 
ENDBRANCH  11  12
ENDBRANCH  10  11
ENDBRANCH   9  10
ENDBRANCH   8   9
ENDBRANCH   7   8
BRANCH   7  14
HETATM   14  O3  UNL     1     -28.800  12.680 -20.650  1.00  0.00    -0.355 OA
ATOM     15  H3  UNL     1     -28.412  13.437 -21.071  1.00  0.00     0.214 HD
ENDBRANCH   7  14
ENDBRANCH   5   7
ENDBRANCH   4   5
BRANCH   4  16
HETATM   16  C7  UNL     1     -29.577  14.394 -17.765  1.00  0.00     0.021 C 
HETATM   17  C8  UNL     1     -28.801  15.601 -17.413  1.00  0.00     0.007 C 
ENDBRANCH   4  16
ENDBRANCH   3   4
ENDBRANCH   1   3
BRANCH   1  18
HETATM   18  C11 UNL     1     -30.026  11.225 -14.365  1.00  0.00     0.139 A 
HETATM   19  C12 UNL     1     -30.810  10.725 -13.324  1.00  0.00     0.131 A 
HETATM   20  N2  UNL     1     -30.189   9.644 -12.835  1.00  0.00    -0.339 N 
HETATM   21  C13 UNL     1     -29.063   9.483 -13.546  1.00  0.00     0.217 A 
ATOM     22  H2  UNL     1     -30.512   9.055 -12.066  1.00  0.00     0.167 HD
HETATM   23  O7  UNL     1     -28.997  10.432 -14.441  1.00  0.00    -0.284 OA
BRANCH  21  24
HETATM   24  C14 UNL     1     -28.088   8.420 -13.344  1.00  0.00     0.293 C 
HETATM   25  O5  UNL     1     -28.363   7.218 -13.629  1.00  0.00    -0.264 OA
HETATM   26  N3  UNL     1     -26.789   8.670 -12.820  1.00  0.00    -0.342 N 
ATOM     27  H3  UNL     1     -26.534   9.626 -12.576  1.00  0.00     0.163 HD
BRANCH  26  28
HETATM   28  C15 UNL     1     -25.825   7.630 -12.624  1.00  0.00     0.170 C 
HETATM   29  C16 UNL     1     -25.587   7.303 -11.152  1.00  0.00     0.042 C 
BRANCH  28  30
HETATM   30  C17 UNL     1     -24.539   7.957 -13.274  1.00  0.00     0.253 C 
HETATM   31  N4  UNL     1     -24.029   9.294 -13.204  1.00  0.00    -0.060 NA
HETATM   32  O6  UNL     1     -23.862   7.096 -13.894  1.00  0.00    -0.275 OA
ENDBRANCH  28  30
ENDBRANCH  26  28
ENDBRANCH  21  24
ENDBRANCH   1  18
TORSDOF 15
ENDMDL
MODEL 2
REMARK VINA RESULT: -6.491653803      2.382      2.914
REMARK  15 active torsions:
REMARK  status: ('A' for Active; 'I' for Inactive)
REMARK    1  A    between atoms: C2_2  and  O1_3 
REMARK    2  A    between atoms: O1_3  and  C3_4 
REMARK    3  A    between atoms: C3_4  and  C4_5 
REMARK    4  A    between atoms: C4_5  and  O2_6 
REMARK    5  A    between atoms: O2_6  and  C5_7 
REMARK    6  A    between atoms: C5_7  and  O3_8 
REMARK    7  A    between atoms: C5_7  and  N1_10 
REMARK    8  A    between atoms: N1_10  and  C6_12 
REMARK    9  A    between atoms: C6_12  and  C7_13 
REMARK   10  A    between atoms: C6_12  and  C9_15 
REMARK   11  A    between atoms: C9_15  and  C10_16 
REMARK   12  A    between atoms: C10_16  and  C11_18 
REMARK   13  A    between atoms: C13_22  and  C14_23 
REMARK       I    between atoms: C14_23  and  N3_25 
REMARK   14  A    between atoms: N3_25  and  C15_27 
REMARK   15  A    between atoms: C15_27  and  C17_29 
ROOT
HETATM    1  C10 UNL     1     -27.379  13.080 -15.439  1.00  0.00     0.186 C 
HETATM    2  O4  UNL     1     -28.520  12.590 -15.340  1.00  0.00    -0.290 OA
ENDROOT
BRANCH   1   3
HETATM    3  C9  UNL     1     -26.994  14.343 -15.992  1.00  0.00     0.111 C 
BRANCH   3   4
HETATM    4  C6  UNL     1     -27.492  14.686 -17.395  1.00  0.00     0.088 C 
BRANCH   4   5
HETATM    5  N1  UNL     1     -27.401  13.495 -18.138  1.00  0.00    -0.371 N 
ATOM      6  H1  UNL     1     -26.499  13.019 -18.102  1.00  0.00     0.158 HD
BRANCH   5   7
HETATM    7  C5  UNL     1     -28.357  12.893 -18.898  1.00  0.00     0.363 C 
BRANCH   7   8
HETATM    8  O2  UNL     1     -27.877  12.109 -19.963  1.00  0.00    -0.342 OA
BRANCH   8   9
HETATM    9  C4  UNL     1     -26.555  11.868 -19.961  1.00  0.00     0.199 C 
BRANCH   9  10
HETATM   10  C3  UNL     1     -25.730  12.520 -21.026  1.00  0.00     0.193 C 
BRANCH  10  11
HETATM   11  O1  UNL     1     -25.705  13.873 -20.986  1.00  0.00    -0.389 OA
BRANCH  11  12
HETATM   12  C2  UNL     1     -26.443  14.586 -21.873  1.00  0.00     0.163 C 
HETATM   13  C1  UNL     1     -27.199  15.757 -21.249  1.00  0.00     0.033 C 
ENDBRANCH  11  12
ENDBRANCH  10  11
ENDBRANCH   9  10
ENDBRANCH   8   9
ENDBRANCH   7   8
BRANCH   7  14
HETATM   14  O3  UNL     1     -29.145  11.919 -18.198  1.00  0.00    -0.355 OA
ATOM     15  H3  UNL     1     -29.759  12.488 -17.752  1.00  0.00     0.214 HD
ENDBRANCH   7  14
ENDBRANCH   5   7
ENDBRANCH   4   5
BRANCH   4  16
HETATM   16  C7  UNL     1     -28.834  15.308 -17.372  1.00  0.00     0.021 C 
HETATM   17  C8  UNL     1     -29.066  16.577 -18.094  1.00  0.00     0.007 C 
ENDBRANCH   4  16
ENDBRANCH   3   4
ENDBRANCH   1   3
BRANCH   1  18
HETATM   18  C11 UNL     1     -26.299  12.215 -14.904  1.00  0.00     0.139 A 
HETATM   19  C12 UNL     1     -24.946  12.543 -14.811  1.00  0.00     0.131 A 
HETATM   20  N2  UNL     1     -24.312  11.493 -14.274  1.00  0.00    -0.339 N 
HETATM   21  C13 UNL     1     -25.239  10.551 -14.043  1.00  0.00     0.217 A 
ATOM     22  H2  UNL     1     -23.313  11.423 -14.077  1.00  0.00     0.167 HD
HETATM   23  O7  UNL     1     -26.401  11.008 -14.426  1.00  0.00    -0.284 OA
BRANCH  21  24
HETATM   24  C14 UNL     1     -24.978   9.242 -13.461  1.00  0.00     0.293 C 
HETATM   25  O5  UNL     1     -24.638   8.260 -14.185  1.00  0.00    -0.264 OA
HETATM   26  N3  UNL     1     -25.088   8.995 -12.064  1.00  0.00    -0.342 N 
ATOM     27  H3  UNL     1     -25.363   9.762 -11.451  1.00  0.00     0.163 HD
BRANCH  26  28
HETATM   28  C15 UNL     1     -24.827   7.712 -11.486  1.00  0.00     0.170 C 
HETATM   29  C16 UNL     1     -26.002   7.168 -10.678  1.00  0.00     0.042 C 
BRANCH  28  30
HETATM   30  C17 UNL     1     -23.614   7.737 -10.643  1.00  0.00     0.253 C 
HETATM   31  N4  UNL     1     -22.456   8.455 -11.086  1.00  0.00    -0.060 NA
HETATM   32  O6  UNL     1     -23.556   7.147  -9.533  1.00  0.00    -0.275 OA
ENDBRANCH  28  30
ENDBRANCH  26  28
ENDBRANCH  21  24
ENDBRANCH   1  18
TORSDOF 15
ENDMDL
MODEL 3
REMARK VINA RESULT: -6.444270967      2.162      2.751
REMARK  15 active torsions:
REMARK  status: ('A' for Active; 'I' for Inactive)
REMARK    1  A    between atoms: C2_2  and  O1_3 
REMARK    2  A    between atoms: O1_3  and  C3_4 
REMARK    3  A    between atoms: C3_4  and  C4_5 
REMARK    4  A    between atoms: C4_5  and  O2_6 
REMARK    5  A    between atoms: O2_6  and  C5_7 
REMARK    6  A    between atoms: C5_7  and  O3_8 
REMARK    7  A    between atoms: C5_7  and  N1_10 
REMARK    8  A    between atoms: N1_10  and  C6_12 
REMARK    9  A    between atoms: C6_12  and  C7_13 
REMARK   10  A    between atoms: C6_12  and  C9_15 
REMARK   11  A    between atoms: C9_15  and  C10_16 
REMARK   12  A    between atoms: C10_16  and  C11_18 
REMARK   13  A    between atoms: C13_22  and  C14_23 
REMARK       I    between atoms: C14_23  and  N3_25 
REMARK   14  A    between atoms: N3_25  and  C15_27 
REMARK   15  A    between atoms: C15_27  and  C17_29 
ROOT
HETATM    1  C10 UNL     1     -27.330  13.727 -16.193  1.00  0.00     0.186 C 
HETATM    2  O4  UNL     1     -27.790  14.769 -15.688  1.00  0.00    -0.290 OA
ENDROOT
BRANCH   1   3
HETATM    3  C9  UNL     1     -26.982  13.475 -17.559  1.00  0.00     0.111 C 
BRANCH   3   4
HETATM    4  C6  UNL     1     -28.105  13.078 -18.517  1.00  0.00     0.088 C 
BRANCH   4   5
HETATM    5  N1  UNL     1     -27.664  11.910 -19.165  1.00  0.00    -0.371 N 
ATOM      6  H1  UNL     1     -27.868  11.033 -18.685  1.00  0.00     0.158 HD
BRANCH   5   7
HETATM    7  C5  UNL     1     -27.001  11.795 -20.348  1.00  0.00     0.363 C 
BRANCH   7   8
HETATM    8  O2  UNL     1     -25.681  12.280 -20.350  1.00  0.00    -0.342 OA
BRANCH   8   9
HETATM    9  C4  UNL     1     -25.209  12.686 -21.541  1.00  0.00     0.199 C 
BRANCH   9  10
HETATM   10  C3  UNL     1     -25.924  13.811 -22.222  1.00  0.00     0.193 C 
BRANCH  10  11
HETATM   11  O1  UNL     1     -26.091  14.924 -21.471  1.00  0.00    -0.389 OA
BRANCH  11  12
HETATM   12  C2  UNL     1     -27.194  15.695 -21.645  1.00  0.00     0.163 C 
HETATM   13  C1  UNL     1     -27.879  16.098 -20.342  1.00  0.00     0.033 C 
ENDBRANCH  11  12
ENDBRANCH  10  11
ENDBRANCH   9  10
ENDBRANCH   8   9
ENDBRANCH   7   8
BRANCH   7  14
HETATM   14  O3  UNL     1     -26.776  10.442 -20.773  1.00  0.00    -0.355 OA
ATOM     15  H3  UNL     1     -27.330  10.413 -21.544  1.00  0.00     0.214 HD
ENDBRANCH   7  14
ENDBRANCH   5   7
ENDBRANCH   4   5
BRANCH   4  16
HETATM   16  C7  UNL     1     -29.408  12.958 -17.827  1.00  0.00     0.021 C 
HETATM   17  C8  UNL     1     -30.511  13.877 -18.178  1.00  0.00     0.007 C 
ENDBRANCH   4  16
ENDBRANCH   3   4
ENDBRANCH   1   3
BRANCH   1  18
HETATM   18  C11 UNL     1     -27.130  12.621 -15.226  1.00  0.00     0.139 A 
HETATM   19  C12 UNL     1     -28.100  12.070 -14.387  1.00  0.00     0.131 A 
HETATM   20  N2  UNL     1     -27.513  11.098 -13.676  1.00  0.00    -0.339 N 
HETATM   21  C13 UNL     1     -26.229  11.051 -14.061  1.00  0.00     0.217 A 
ATOM     22  H2  UNL     1     -27.959  10.506 -12.974  1.00  0.00     0.167 HD
HETATM   23  O7  UNL     1     -26.036  11.962 -14.977  1.00  0.00    -0.284 OA
BRANCH  21  24
HETATM   24  C14 UNL     1     -25.230  10.130 -13.538  1.00  0.00     0.293 C 
HETATM   25  O5  UNL     1     -23.997  10.421 -13.560  1.00  0.00    -0.264 OA
HETATM   26  N3  UNL     1     -25.577   8.869 -12.978  1.00  0.00    -0.342 N 
ATOM     27  H3  UNL     1     -26.559   8.600 -12.947  1.00  0.00     0.163 HD
BRANCH  26  28
HETATM   28  C15 UNL     1     -24.599   7.962 -12.457  1.00  0.00     0.170 C 
HETATM   29  C16 UNL     1     -24.085   6.972 -13.499  1.00  0.00     0.042 C 
BRANCH  28  30
HETATM   30  C17 UNL     1     -25.117   7.226 -11.285  1.00  0.00     0.253 C 
HETATM   31  N4  UNL     1     -24.254   6.967 -10.172  1.00  0.00    -0.060 NA
HETATM   32  O6  UNL     1     -26.304   6.812 -11.224  1.00  0.00    -0.275 OA
ENDBRANCH  28  30
ENDBRANCH  26  28
ENDBRANCH  21  24
ENDBRANCH   1  18
TORSDOF 15
ENDMDL
MODEL 4
REMARK VINA RESULT: -6.295851171      1.960      8.446
REMARK  15 active torsions:
REMARK  status: ('A' for Active; 'I' for Inactive)
REMARK    1  A    between atoms: C2_2  and  O1_3 
REMARK    2  A    between atoms: O1_3  and  C3_4 
REMARK    3  A    between atoms: C3_4  and  C4_5 
REMARK    4  A    between atoms: C4_5  and  O2_6 
REMARK    5  A    between atoms: O2_6  and  C5_7 
REMARK    6  A    between atoms: C5_7  and  O3_8 
REMARK    7  A    between atoms: C5_7  and  N1_10 
REMARK    8  A    between atoms: N1_10  and  C6_12 
REMARK    9  A    between atoms: C6_12  and  C7_13 
REMARK   10  A    between atoms: C6_12  and  C9_15 
REMARK   11  A    between atoms: C9_15  and  C10_16 
REMARK   12  A    between atoms: C10_16  and  C11_18 
REMARK   13  A    between atoms: C13_22  and  C14_23 
REMARK       I    between atoms: C14_23  and  N3_25 
REMARK   14  A    between atoms: N3_25  and  C15_27 
REMARK   15  A    between atoms: C15_27  and  C17_29 
ROOT
HETATM    1  C10 UNL     1     -30.709  11.277 -14.404  1.00  0.00     0.186 C 
HETATM    2  O4  UNL     1     -31.933  11.393 -14.205  1.00  0.00    -0.290 OA
ENDROOT
BRANCH   1   3
HETATM    3  C9  UNL     1     -29.776  10.410 -13.749  1.00  0.00     0.111 C 
BRANCH   3   4
HETATM    4  C6  UNL     1     -30.227   9.726 -12.459  1.00  0.00     0.088 C 
BRANCH   4   5
HETATM    5  N1  UNL     1     -29.808   8.387 -12.566  1.00  0.00    -0.371 N 
ATOM      6  H1  UNL     1     -30.552   7.698 -12.683  1.00  0.00     0.158 HD
BRANCH   5   7
HETATM    7  C5  UNL     1     -28.541   7.889 -12.536  1.00  0.00     0.363 C 
BRANCH   7   8
HETATM    8  O2  UNL     1     -28.258   7.023 -11.465  1.00  0.00    -0.342 OA
BRANCH   8   9
HETATM    9  C4  UNL     1     -27.420   7.503 -10.531  1.00  0.00     0.199 C 
BRANCH   9  10
HETATM   10  C3  UNL     1     -25.951   7.380 -10.790  1.00  0.00     0.193 C 
BRANCH  10  11
HETATM   11  O1  UNL     1     -25.616   6.588 -11.834  1.00  0.00    -0.389 OA
BRANCH  11  12
HETATM   12  C2  UNL     1     -24.602   6.954 -12.658  1.00  0.00     0.163 C 
HETATM   13  C1  UNL     1     -24.885   8.220 -13.463  1.00  0.00     0.033 C 
ENDBRANCH  11  12
ENDBRANCH  10  11
ENDBRANCH   9  10
ENDBRANCH   8   9
ENDBRANCH   7   8
BRANCH   7  14
HETATM   14  O3  UNL     1     -28.212   7.039 -13.645  1.00  0.00    -0.355 OA
ATOM     15  H3  UNL     1     -28.571   7.549 -14.361  1.00  0.00     0.214 HD
ENDBRANCH   7  14
ENDBRANCH   5   7
ENDBRANCH   4   5
BRANCH   4  16
HETATM   16  C7  UNL     1     -29.745  10.437 -11.255  1.00  0.00     0.021 C 
HETATM   17  C8  UNL     1     -30.207  10.011  -9.918  1.00  0.00     0.007 C 
ENDBRANCH   4  16
ENDBRANCH   3   4
ENDBRANCH   1   3
BRANCH   1  18
HETATM   18  C11 UNL     1     -30.179  12.168 -15.464  1.00  0.00     0.139 A 
HETATM   19  C12 UNL     1     -29.925  13.535 -15.344  1.00  0.00     0.131 A 
HETATM   20  N2  UNL     1     -29.455  13.963 -16.523  1.00  0.00    -0.339 N 
HETATM   21  C13 UNL     1     -29.421  12.899 -17.341  1.00  0.00     0.217 A 
ATOM     22  H2  UNL     1     -29.176  14.917 -16.755  1.00  0.00     0.167 HD
HETATM   23  O7  UNL     1     -29.854  11.857 -16.685  1.00  0.00    -0.284 OA
BRANCH  21  24
HETATM   24  C14 UNL     1     -28.971  12.921 -18.725  1.00  0.00     0.293 C 
HETATM   25  O5  UNL     1     -29.769  12.671 -19.676  1.00  0.00    -0.264 OA
HETATM   26  N3  UNL     1     -27.627  13.220 -19.084  1.00  0.00    -0.342 N 
ATOM     27  H3  UNL     1     -26.955  13.422 -18.344  1.00  0.00     0.163 HD
BRANCH  26  28
HETATM   28  C15 UNL     1     -27.180  13.247 -20.444  1.00  0.00     0.170 C 
HETATM   29  C16 UNL     1     -25.961  12.363 -20.692  1.00  0.00     0.042 C 
BRANCH  28  30
HETATM   30  C17 UNL     1     -26.893  14.626 -20.889  1.00  0.00     0.253 C 
HETATM   31  N4  UNL     1     -27.922  15.621 -20.826  1.00  0.00    -0.060 NA
HETATM   32  O6  UNL     1     -25.763  14.969 -21.326  1.00  0.00    -0.275 OA
ENDBRANCH  28  30
ENDBRANCH  26  28
ENDBRANCH  21  24
ENDBRANCH   1  18
TORSDOF 15
ENDMDL
MODEL 5
REMARK VINA RESULT: -6.291757810      2.337      3.217
REMARK  15 active torsions:
REMARK  status: ('A' for Active; 'I' for Inactive)
REMARK    1  A    between atoms: C2_2  and  O1_3 
REMARK    2  A    between atoms: O1_3  and  C3_4 
REMARK    3  A    between atoms: C3_4  and  C4_5 
REMARK    4  A    between atoms: C4_5  and  O2_6 
REMARK    5  A    between atoms: O2_6  and  C5_7 
REMARK    6  A    between atoms: C5_7  and  O3_8 
REMARK    7  A    between atoms: C5_7  and  N1_10 
REMARK    8  A    between atoms: N1_10  and  C6_12 
REMARK    9  A    between atoms: C6_12  and  C7_13 
REMARK   10  A    between atoms: C6_12  and  C9_15 
REMARK   11  A    between atoms: C9_15  and  C10_16 
REMARK   12  A    between atoms: C10_16  and  C11_18 
REMARK   13  A    between atoms: C13_22  and  C14_23 
REMARK       I    between atoms: C14_23  and  N3_25 
REMARK   14  A    between atoms: N3_25  and  C15_27 
REMARK   15  A    between atoms: C15_27  and  C17_29 
ROOT
HETATM    1  C10 UNL     1     -26.833  12.526 -15.205  1.00  0.00     0.186 C 
HETATM    2  O4  UNL     1     -25.863  13.003 -15.824  1.00  0.00    -0.290 OA
ENDROOT
BRANCH   1   3
HETATM    3  C9  UNL     1     -28.168  13.034 -15.110  1.00  0.00     0.111 C 
BRANCH   3   4
HETATM    4  C6  UNL     1     -29.074  12.885 -16.331  1.00  0.00     0.088 C 
BRANCH   4   5
HETATM    5  N1  UNL     1     -28.216  12.639 -17.419  1.00  0.00    -0.371 N 
ATOM      6  H1  UNL     1     -27.346  12.156 -17.196  1.00  0.00     0.158 HD
BRANCH   5   7
HETATM    7  C5  UNL     1     -28.394  12.960 -18.730  1.00  0.00     0.363 C 
BRANCH   7   8
HETATM    8  O2  UNL     1     -27.733  12.128 -19.651  1.00  0.00    -0.342 OA
BRANCH   8   9
HETATM    9  C4  UNL     1     -26.391  12.185 -19.632  1.00  0.00     0.199 C 
BRANCH   9  10
HETATM   10  C3  UNL     1     -25.691  12.473 -20.923  1.00  0.00     0.193 C 
BRANCH  10  11
HETATM   11  O1  UNL     1     -25.517  13.785 -21.202  1.00  0.00    -0.389 OA
BRANCH  11  12
HETATM   12  C2  UNL     1     -26.397  14.423 -22.014  1.00  0.00     0.163 C 
HETATM   13  C1  UNL     1     -27.167  15.550 -21.328  1.00  0.00     0.033 C 
ENDBRANCH  11  12
ENDBRANCH  10  11
ENDBRANCH   9  10
ENDBRANCH   8   9
ENDBRANCH   7   8
BRANCH   7  14
HETATM   14  O3  UNL     1     -29.746  12.831 -19.194  1.00  0.00    -0.355 OA
ATOM     15  H3  UNL     1     -29.901  13.713 -19.510  1.00  0.00     0.214 HD
ENDBRANCH   7  14
ENDBRANCH   5   7
ENDBRANCH   4   5
BRANCH   4  16
HETATM   16  C7  UNL     1     -30.127  11.868 -16.122  1.00  0.00     0.021 C 
HETATM   17  C8  UNL     1     -30.522  11.494 -14.748  1.00  0.00     0.007 C 
ENDBRANCH   4  16
ENDBRANCH   3   4
ENDBRANCH   1   3
BRANCH   1  18
HETATM   18  C11 UNL     1     -26.531  11.267 -14.481  1.00  0.00     0.139 A 
HETATM   19  C12 UNL     1     -25.263  10.746 -14.221  1.00  0.00     0.131 A 
HETATM   20  N2  UNL     1     -25.428   9.601 -13.546  1.00  0.00    -0.339 N 
HETATM   21  C13 UNL     1     -26.749   9.421 -13.396  1.00  0.00     0.217 A 
ATOM     22  H2  UNL     1     -24.689   8.983 -13.210  1.00  0.00     0.167 HD
HETATM   23  O7  UNL     1     -27.371  10.422 -13.959  1.00  0.00    -0.284 OA
BRANCH  21  24
HETATM   24  C14 UNL     1     -27.369   8.294 -12.715  1.00  0.00     0.293 C 
HETATM   25  O5  UNL     1     -27.984   7.396 -13.364  1.00  0.00    -0.264 OA
HETATM   26  N3  UNL     1     -27.321   8.138 -11.302  1.00  0.00    -0.342 N 
ATOM     27  H3  UNL     1     -26.838   8.844 -10.747  1.00  0.00     0.163 HD
BRANCH  26  28
HETATM   28  C15 UNL     1     -27.925   7.029 -10.628  1.00  0.00     0.170 C 
HETATM   29  C16 UNL     1     -29.318   7.341 -10.088  1.00  0.00     0.042 C 
BRANCH  28  30
HETATM   30  C17 UNL     1     -27.067   6.533  -9.532  1.00  0.00     0.253 C 
HETATM   31  N4  UNL     1     -27.082   5.140  -9.194  1.00  0.00    -0.060 NA
HETATM   32  O6  UNL     1     -26.311   7.294  -8.874  1.00  0.00    -0.275 OA
ENDBRANCH  28  30
ENDBRANCH  26  28
ENDBRANCH  21  24
ENDBRANCH   1  18
TORSDOF 15
ENDMDL
