MODEL 1
REMARK VINA RESULT: -7.300646355      0.000      0.000
REMARK  15 active torsions:
REMARK  status: ('A' for Active; 'I' for Inactive)
REMARK    1  A    between atoms: N1_1  and  N2_4 
REMARK    2  A    between atoms: N2_4  and  C1_5 
REMARK    3  A    between atoms: N2_4  and  C9_20 
REMARK    4  A    between atoms: C1_5  and  C2_6 
REMARK       I    between atoms: C2_6  and  N3_8 
REMARK    5  A    between atoms: N3_8  and  C3_10 
REMARK    6  A    between atoms: C3_10  and  C4_11 
REMARK    7  A    between atoms: C4_11  and  O2_12 
REMARK    8  A    between atoms: O2_12  and  N4_13 
REMARK    9  A    between atoms: N4_13  and  C5_15 
REMARK   10  A    between atoms: C9_20  and  C10_21 
REMARK   11  A    between atoms: C10_21  and  O4_22 
REMARK   12  A    between atoms: C10_21  and  C11_24 
REMARK   13  A    between atoms: C11_24  and  O5_25 
REMARK   14  A    between atoms: O5_25  and  C12_26 
REMARK   15  A    between atoms: C15_29  and  N5_30 
ROOT
HETATM    1  N2  UNL     1     -26.988  13.007 -15.928  1.00  0.00    -0.227 NA
ENDROOT
BRANCH   1   2
HETATM    2  N1  UNL     1     -26.492  12.616 -17.101  1.00  0.00    -0.363 NA
ATOM      3  H12 UNL     1     -27.015  11.939 -17.657  1.00  0.00     0.171 HD
ATOM      4  H11 UNL     1     -25.511  12.344 -17.047  1.00  0.00     0.171 HD
ENDBRANCH   1   2
BRANCH   1   5
HETATM    5  C1  UNL     1     -27.038  14.456 -15.788  1.00  0.00     0.215 C 
BRANCH   5   6
HETATM    6  C2  UNL     1     -28.201  14.975 -16.514  1.00  0.00     0.232 C 
HETATM    7  O1  UNL     1     -29.201  15.279 -15.764  1.00  0.00    -0.272 OA
HETATM    8  N3  UNL     1     -28.206  15.120 -17.896  1.00  0.00    -0.358 N 
ATOM      9  H3  UNL     1     -27.376  14.836 -18.417  1.00  0.00     0.162 HD
BRANCH   8  10
HETATM   10  C3  UNL     1     -29.268  15.626 -18.589  1.00  0.00     0.151 C 
BRANCH  10  11
HETATM   11  C4  UNL     1     -28.723  16.650 -19.723  1.00  0.00     0.220 C 
BRANCH  11  12
HETATM   12  O2  UNL     1     -27.966  15.816 -20.384  1.00  0.00    -0.277 OA
BRANCH  12  13
HETATM   13  N4  UNL     1     -26.772  15.925 -20.912  1.00  0.00    -0.245 N 
ATOM     14  H4  UNL     1     -26.290  16.762 -21.239  1.00  0.00     0.196 HD
BRANCH  13  15
HETATM   15  C5  UNL     1     -26.297  14.496 -20.912  1.00  0.00     0.166 A 
HETATM   16  C6  UNL     1     -25.572  14.037 -21.937  1.00  0.00     0.060 A 
HETATM   17  C7  UNL     1     -25.332  12.715 -21.658  1.00  0.00     0.029 A 
HETATM   18  C8  UNL     1     -25.944  12.465 -20.448  1.00  0.00     0.144 A 
HETATM   19  O3  UNL     1     -26.519  13.615 -20.037  1.00  0.00    -0.304 OA
ENDBRANCH  13  15
ENDBRANCH  12  13
ENDBRANCH  11  12
ENDBRANCH  10  11
ENDBRANCH   8  10
ENDBRANCH   5   6
ENDBRANCH   1   5
BRANCH   1  20
HETATM   20  C9  UNL     1     -26.489  12.419 -14.745  1.00  0.00     0.147 C 
BRANCH  20  21
HETATM   21  C10 UNL     1     -25.128  11.844 -14.745  1.00  0.00     0.157 C 
BRANCH  21  22
HETATM   22  O4  UNL     1     -25.017  10.740 -15.625  1.00  0.00    -0.392 OA
ATOM     23  H4  UNL     1     -24.459  10.932 -16.370  1.00  0.00     0.210 HD
ENDBRANCH  21  22
BRANCH  21  24
HETATM   24  C11 UNL     1     -24.727  11.309 -13.388  1.00  0.00     0.208 C 
BRANCH  24  25
HETATM   25  O5  UNL     1     -23.779  10.235 -13.470  1.00  0.00    -0.349 OA
BRANCH  25  26
HETATM   26  C12 UNL     1     -24.012   9.094 -12.697  1.00  0.00     0.069 A 
HETATM   27  C13 UNL     1     -23.266   8.839 -11.560  1.00  0.00     0.039 A 
HETATM   28  C14 UNL     1     -23.510   7.696 -10.796  1.00  0.00     0.039 A 
HETATM   29  C15 UNL     1     -24.474   6.778 -11.115  1.00  0.00     0.103 A 
HETATM   30  C16 UNL     1     -25.204   7.045 -12.240  1.00  0.00     0.039 A 
HETATM   31  C17 UNL     1     -24.982   8.172 -13.020  1.00  0.00     0.039 A 
BRANCH  29  32
HETATM   32  N5  UNL     1     -24.759   5.612 -10.321  1.00  0.00    -0.116 N 
HETATM   33  O6  UNL     1     -25.888   5.292  -9.927  1.00  0.00    -0.532 OA
HETATM   34  O7  UNL     1     -23.712   4.764 -10.015  1.00  0.00    -0.532 OA
ENDBRANCH  29  32
ENDBRANCH  25  26
ENDBRANCH  24  25
ENDBRANCH  21  24
ENDBRANCH  20  21
ENDBRANCH   1  20
TORSDOF 15
ENDMDL
MODEL 2
REMARK VINA RESULT: -7.243185579      1.430      1.697
REMARK  15 active torsions:
REMARK  status: ('A' for Active; 'I' for Inactive)
REMARK    1  A    between atoms: N1_1  and  N2_4 
REMARK    2  A    between atoms: N2_4  and  C1_5 
REMARK    3  A    between atoms: N2_4  and  C9_20 
REMARK    4  A    between atoms: C1_5  and  C2_6 
REMARK       I    between atoms: C2_6  and  N3_8 
REMARK    5  A    between atoms: N3_8  and  C3_10 
REMARK    6  A    between atoms: C3_10  and  C4_11 
REMARK    7  A    between atoms: C4_11  and  O2_12 
REMARK    8  A    between atoms: O2_12  and  N4_13 
REMARK    9  A    between atoms: N4_13  and  C5_15 
REMARK   10  A    between atoms: C9_20  and  C10_21 
REMARK   11  A    between atoms: C10_21  and  O4_22 
REMARK   12  A    between atoms: C10_21  and  C11_24 
REMARK   13  A    between atoms: C11_24  and  O5_25 
REMARK   14  A    between atoms: O5_25  and  C12_26 
REMARK   15  A    between atoms: C15_29  and  N5_30 
ROOT
HETATM    1  N2  UNL     1     -26.620  12.740 -15.566  1.00  0.00    -0.227 NA
ENDROOT
BRANCH   1   2
HETATM    2  N1  UNL     1     -26.549  12.640 -16.893  1.00  0.00    -0.363 NA
ATOM      3  H12 UNL     1     -27.400  12.752 -17.442  1.00  0.00     0.171 HD
ATOM      4  H11 UNL     1     -26.036  11.814 -17.202  1.00  0.00     0.171 HD
ENDBRANCH   1   2
BRANCH   1   5
HETATM    5  C1  UNL     1     -27.593  13.730 -15.124  1.00  0.00     0.215 C 
BRANCH   5   6
HETATM    6  C2  UNL     1     -28.363  14.205 -16.277  1.00  0.00     0.232 C 
HETATM    7  O1  UNL     1     -27.838  15.208 -16.887  1.00  0.00    -0.272 OA
HETATM    8  N3  UNL     1     -29.557  13.610 -16.665  1.00  0.00    -0.358 N 
ATOM      9  H3  UNL     1     -29.914  12.830 -16.113  1.00  0.00     0.162 HD
BRANCH   8  10
HETATM   10  C3  UNL     1     -30.277  14.020 -17.751  1.00  0.00     0.151 C 
BRANCH  10  11
HETATM   11  C4  UNL     1     -30.425  12.782 -18.788  1.00  0.00     0.220 C 
BRANCH  11  12
HETATM   12  O2  UNL     1     -29.277  12.906 -19.397  1.00  0.00    -0.277 OA
BRANCH  12  13
HETATM   13  N4  UNL     1     -28.179  12.191 -19.382  1.00  0.00    -0.245 N 
ATOM     14  H4  UNL     1     -27.957  11.369 -18.819  1.00  0.00     0.196 HD
BRANCH  13  15
HETATM   15  C5  UNL     1     -27.332  12.895 -20.408  1.00  0.00     0.166 A 
HETATM   16  C6  UNL     1     -26.060  12.522 -20.587  1.00  0.00     0.060 A 
HETATM   17  C7  UNL     1     -25.560  13.366 -21.547  1.00  0.00     0.029 A 
HETATM   18  C8  UNL     1     -26.595  14.208 -21.890  1.00  0.00     0.144 A 
HETATM   19  O3  UNL     1     -27.668  13.857 -21.151  1.00  0.00    -0.304 OA
ENDBRANCH  13  15
ENDBRANCH  12  13
ENDBRANCH  11  12
ENDBRANCH  10  11
ENDBRANCH   8  10
ENDBRANCH   5   6
ENDBRANCH   1   5
BRANCH   1  20
HETATM   20  C9  UNL     1     -25.425  12.865 -14.825  1.00  0.00     0.147 C 
BRANCH  20  21
HETATM   21  C10 UNL     1     -24.547  11.687 -14.670  1.00  0.00     0.157 C 
BRANCH  21  22
HETATM   22  O4  UNL     1     -24.964  10.602 -15.479  1.00  0.00    -0.392 OA
ATOM     23  H4  UNL     1     -24.442  10.524 -16.269  1.00  0.00     0.210 HD
ENDBRANCH  21  22
BRANCH  21  24
HETATM   24  C11 UNL     1     -24.546  11.148 -13.256  1.00  0.00     0.208 C 
BRANCH  24  25
HETATM   25  O5  UNL     1     -23.472  10.229 -13.010  1.00  0.00    -0.349 OA
BRANCH  25  26
HETATM   26  C12 UNL     1     -23.771   9.030 -12.357  1.00  0.00     0.069 A 
HETATM   27  C13 UNL     1     -23.083   8.648 -11.219  1.00  0.00     0.039 A 
HETATM   28  C14 UNL     1     -23.392   7.449 -10.574  1.00  0.00     0.039 A 
HETATM   29  C15 UNL     1     -24.369   6.596 -11.014  1.00  0.00     0.103 A 
HETATM   30  C16 UNL     1     -25.042   6.989 -12.138  1.00  0.00     0.039 A 
HETATM   31  C17 UNL     1     -24.754   8.174 -12.801  1.00  0.00     0.039 A 
BRANCH  29  32
HETATM   32  N5  UNL     1     -24.722   5.373 -10.344  1.00  0.00    -0.116 N 
HETATM   33  O6  UNL     1     -25.855   5.107  -9.924  1.00  0.00    -0.532 OA
HETATM   34  O7  UNL     1     -23.743   4.409 -10.197  1.00  0.00    -0.532 OA
ENDBRANCH  29  32
ENDBRANCH  25  26
ENDBRANCH  24  25
ENDBRANCH  21  24
ENDBRANCH  20  21
ENDBRANCH   1  20
TORSDOF 15
ENDMDL
MODEL 3
REMARK VINA RESULT: -7.110617032      1.063      1.350
REMARK  15 active torsions:
REMARK  status: ('A' for Active; 'I' for Inactive)
REMARK    1  A    between atoms: N1_1  and  N2_4 
REMARK    2  A    between atoms: N2_4  and  C1_5 
REMARK    3  A    between atoms: N2_4  and  C9_20 
REMARK    4  A    between atoms: C1_5  and  C2_6 
REMARK       I    between atoms: C2_6  and  N3_8 
REMARK    5  A    between atoms: N3_8  and  C3_10 
REMARK    6  A    between atoms: C3_10  and  C4_11 
REMARK    7  A    between atoms: C4_11  and  O2_12 
REMARK    8  A    between atoms: O2_12  and  N4_13 
REMARK    9  A    between atoms: N4_13  and  C5_15 
REMARK   10  A    between atoms: C9_20  and  C10_21 
REMARK   11  A    between atoms: C10_21  and  O4_22 
REMARK   12  A    between atoms: C10_21  and  C11_24 
REMARK   13  A    between atoms: C11_24  and  O5_25 
REMARK   14  A    between atoms: O5_25  and  C12_26 
REMARK   15  A    between atoms: C15_29  and  N5_30 
ROOT
HETATM    1  N2  UNL     1     -26.545  12.871 -15.773  1.00  0.00    -0.227 NA
ENDROOT
BRANCH   1   2
HETATM    2  N1  UNL     1     -26.500  12.598 -17.077  1.00  0.00    -0.363 NA
ATOM      3  H12 UNL     1     -26.431  11.625 -17.375  1.00  0.00     0.171 HD
ATOM      4  H11 UNL     1     -25.820  13.169 -17.579  1.00  0.00     0.171 HD
ENDBRANCH   1   2
BRANCH   1   5
HETATM    5  C1  UNL     1     -27.362  14.038 -15.466  1.00  0.00     0.215 C 
BRANCH   5   6
HETATM    6  C2  UNL     1     -28.399  14.189 -16.491  1.00  0.00     0.232 C 
HETATM    7  O1  UNL     1     -29.453  13.481 -16.286  1.00  0.00    -0.272 OA
HETATM    8  N3  UNL     1     -28.241  15.031 -17.585  1.00  0.00    -0.358 N 
ATOM      9  H3  UNL     1     -27.364  15.542 -17.682  1.00  0.00     0.162 HD
BRANCH   8  10
HETATM   10  C3  UNL     1     -29.205  15.206 -18.537  1.00  0.00     0.151 C 
BRANCH  10  11
HETATM   11  C4  UNL     1     -28.773  16.429 -19.511  1.00  0.00     0.220 C 
BRANCH  11  12
HETATM   12  O2  UNL     1     -28.036  15.753 -20.350  1.00  0.00    -0.277 OA
BRANCH  12  13
HETATM   13  N4  UNL     1     -26.817  15.923 -20.801  1.00  0.00    -0.245 N 
ATOM     14  H4  UNL     1     -26.342  16.790 -21.052  1.00  0.00     0.196 HD
BRANCH  13  15
HETATM   15  C5  UNL     1     -26.302  14.509 -20.852  1.00  0.00     0.166 A 
HETATM   16  C6  UNL     1     -25.635  14.084 -21.930  1.00  0.00     0.060 A 
HETATM   17  C7  UNL     1     -25.338  12.767 -21.686  1.00  0.00     0.029 A 
HETATM   18  C8  UNL     1     -25.859  12.485 -20.441  1.00  0.00     0.144 A 
HETATM   19  O3  UNL     1     -26.437  13.612 -19.976  1.00  0.00    -0.304 OA
ENDBRANCH  13  15
ENDBRANCH  12  13
ENDBRANCH  11  12
ENDBRANCH  10  11
ENDBRANCH   8  10
ENDBRANCH   5   6
ENDBRANCH   1   5
BRANCH   1  20
HETATM   20  C9  UNL     1     -25.339  12.914 -15.042  1.00  0.00     0.147 C 
BRANCH  20  21
HETATM   21  C10 UNL     1     -24.564  11.670 -14.856  1.00  0.00     0.157 C 
BRANCH  21  22
HETATM   22  O4  UNL     1     -24.943  10.664 -15.779  1.00  0.00    -0.392 OA
ATOM     23  H4  UNL     1     -24.441   9.866 -15.663  1.00  0.00     0.210 HD
ENDBRANCH  21  22
BRANCH  21  24
HETATM   24  C11 UNL     1     -24.778  11.054 -13.491  1.00  0.00     0.208 C 
BRANCH  24  25
HETATM   25  O5  UNL     1     -24.240   9.727 -13.387  1.00  0.00    -0.349 OA
BRANCH  25  26
HETATM   26  C12 UNL     1     -24.812   8.859 -12.453  1.00  0.00     0.069 A 
HETATM   27  C13 UNL     1     -24.495   7.512 -12.445  1.00  0.00     0.039 A 
HETATM   28  C14 UNL     1     -25.072   6.655 -11.506  1.00  0.00     0.039 A 
HETATM   29  C15 UNL     1     -25.964   7.080 -10.558  1.00  0.00     0.103 A 
HETATM   30  C16 UNL     1     -26.266   8.414 -10.578  1.00  0.00     0.039 A 
HETATM   31  C17 UNL     1     -25.709   9.288 -11.501  1.00  0.00     0.039 A 
BRANCH  29  32
HETATM   32  N5  UNL     1     -26.543   6.217  -9.563  1.00  0.00    -0.116 N 
HETATM   33  O6  UNL     1     -26.397   4.988  -9.532  1.00  0.00    -0.532 OA
HETATM   34  O7  UNL     1     -27.274   6.799  -8.546  1.00  0.00    -0.532 OA
ENDBRANCH  29  32
ENDBRANCH  25  26
ENDBRANCH  24  25
ENDBRANCH  21  24
ENDBRANCH  20  21
ENDBRANCH   1  20
TORSDOF 15
ENDMDL
MODEL 4
REMARK VINA RESULT: -7.108077644      1.607      2.134
REMARK  15 active torsions:
REMARK  status: ('A' for Active; 'I' for Inactive)
REMARK    1  A    between atoms: N1_1  and  N2_4 
REMARK    2  A    between atoms: N2_4  and  C1_5 
REMARK    3  A    between atoms: N2_4  and  C9_20 
REMARK    4  A    between atoms: C1_5  and  C2_6 
REMARK       I    between atoms: C2_6  and  N3_8 
REMARK    5  A    between atoms: N3_8  and  C3_10 
REMARK    6  A    between atoms: C3_10  and  C4_11 
REMARK    7  A    between atoms: C4_11  and  O2_12 
REMARK    8  A    between atoms: O2_12  and  N4_13 
REMARK    9  A    between atoms: N4_13  and  C5_15 
REMARK   10  A    between atoms: C9_20  and  C10_21 
REMARK   11  A    between atoms: C10_21  and  O4_22 
REMARK   12  A    between atoms: C10_21  and  C11_24 
REMARK   13  A    between atoms: C11_24  and  O5_25 
REMARK   14  A    between atoms: O5_25  and  C12_26 
REMARK   15  A    between atoms: C15_29  and  N5_30 
ROOT
HETATM    1  N2  UNL     1     -26.504  12.733 -15.572  1.00  0.00    -0.227 NA
ENDROOT
BRANCH   1   2
HETATM    2  N1  UNL     1     -26.485  12.572 -16.895  1.00  0.00    -0.363 NA
ATOM      3  H12 UNL     1     -26.609  13.389 -17.493  1.00  0.00     0.171 HD
ATOM      4  H11 UNL     1     -27.083  11.810 -17.211  1.00  0.00     0.171 HD
ENDBRANCH   1   2
BRANCH   1   5
HETATM    5  C1  UNL     1     -27.360  13.833 -15.147  1.00  0.00     0.215 C 
BRANCH   5   6
HETATM    6  C2  UNL     1     -28.130  14.321 -16.294  1.00  0.00     0.232 C 
HETATM    7  O1  UNL     1     -27.598  15.322 -16.902  1.00  0.00    -0.272 OA
HETATM    8  N3  UNL     1     -29.333  13.741 -16.680  1.00  0.00    -0.358 N 
ATOM      9  H3  UNL     1     -29.695  12.962 -16.129  1.00  0.00     0.162 HD
BRANCH   8  10
HETATM   10  C3  UNL     1     -30.053  14.164 -17.760  1.00  0.00     0.151 C 
BRANCH  10  11
HETATM   11  C4  UNL     1     -30.372  12.893 -18.716  1.00  0.00     0.220 C 
BRANCH  11  12
HETATM   12  O2  UNL     1     -29.278  12.914 -19.429  1.00  0.00    -0.277 OA
BRANCH  12  13
HETATM   13  N4  UNL     1     -28.211  12.154 -19.444  1.00  0.00    -0.245 N 
ATOM     14  H4  UNL     1     -28.021  11.305 -18.912  1.00  0.00     0.196 HD
BRANCH  13  15
HETATM   15  C5  UNL     1     -27.337  12.859 -20.448  1.00  0.00     0.166 A 
HETATM   16  C6  UNL     1     -26.047  12.528 -20.553  1.00  0.00     0.060 A 
HETATM   17  C7  UNL     1     -25.528  13.361 -21.512  1.00  0.00     0.029 A 
HETATM   18  C8  UNL     1     -26.574  14.156 -21.930  1.00  0.00     0.144 A 
HETATM   19  O3  UNL     1     -27.669  13.788 -21.234  1.00  0.00    -0.304 OA
ENDBRANCH  13  15
ENDBRANCH  12  13
ENDBRANCH  11  12
ENDBRANCH  10  11
ENDBRANCH   8  10
ENDBRANCH   5   6
ENDBRANCH   1   5
BRANCH   1  20
HETATM   20  C9  UNL     1     -25.280  12.768 -14.870  1.00  0.00     0.147 C 
BRANCH  20  21
HETATM   21  C10 UNL     1     -24.458  11.543 -14.794  1.00  0.00     0.157 C 
BRANCH  21  22
HETATM   22  O4  UNL     1     -24.948  10.519 -15.641  1.00  0.00    -0.392 OA
ATOM     23  H4  UNL     1     -24.274   9.890 -15.867  1.00  0.00     0.210 HD
ENDBRANCH  21  22
BRANCH  21  24
HETATM   24  C11 UNL     1     -24.451  10.937 -13.407  1.00  0.00     0.208 C 
BRANCH  24  25
HETATM   25  O5  UNL     1     -24.073   9.553 -13.405  1.00  0.00    -0.349 OA
BRANCH  25  26
HETATM   26  C12 UNL     1     -24.673   8.710 -12.465  1.00  0.00     0.069 A 
HETATM   27  C13 UNL     1     -26.048   8.565 -12.414  1.00  0.00     0.039 A 
HETATM   28  C14 UNL     1     -26.636   7.720 -11.471  1.00  0.00     0.039 A 
HETATM   29  C15 UNL     1     -25.910   7.000 -10.560  1.00  0.00     0.103 A 
HETATM   30  C16 UNL     1     -24.552   7.153 -10.624  1.00  0.00     0.039 A 
HETATM   31  C17 UNL     1     -23.941   7.988 -11.550  1.00  0.00     0.039 A 
BRANCH  29  32
HETATM   32  N5  UNL     1     -26.497   6.100  -9.604  1.00  0.00    -0.116 N 
HETATM   33  O6  UNL     1     -26.287   4.881  -9.568  1.00  0.00    -0.532 OA
HETATM   34  O7  UNL     1     -27.316   6.635  -8.629  1.00  0.00    -0.532 OA
ENDBRANCH  29  32
ENDBRANCH  25  26
ENDBRANCH  24  25
ENDBRANCH  21  24
ENDBRANCH  20  21
ENDBRANCH   1  20
TORSDOF 15
ENDMDL
MODEL 5
REMARK VINA RESULT: -6.926152183      2.486      2.993
REMARK  15 active torsions:
REMARK  status: ('A' for Active; 'I' for Inactive)
REMARK    1  A    between atoms: N1_1  and  N2_4 
REMARK    2  A    between atoms: N2_4  and  C1_5 
REMARK    3  A    between atoms: N2_4  and  C9_20 
REMARK    4  A    between atoms: C1_5  and  C2_6 
REMARK       I    between atoms: C2_6  and  N3_8 
REMARK    5  A    between atoms: N3_8  and  C3_10 
REMARK    6  A    between atoms: C3_10  and  C4_11 
REMARK    7  A    between atoms: C4_11  and  O2_12 
REMARK    8  A    between atoms: O2_12  and  N4_13 
REMARK    9  A    between atoms: N4_13  and  C5_15 
REMARK   10  A    between atoms: C9_20  and  C10_21 
REMARK   11  A    between atoms: C10_21  and  O4_22 
REMARK   12  A    between atoms: C10_21  and  C11_24 
REMARK   13  A    between atoms: C11_24  and  O5_25 
REMARK   14  A    between atoms: O5_25  and  C12_26 
REMARK   15  A    between atoms: C15_29  and  N5_30 
ROOT
HETATM    1  N2  UNL     1     -26.696  13.072 -15.129  1.00  0.00    -0.227 NA
ENDROOT
BRANCH   1   2
HETATM    2  N1  UNL     1     -27.358  12.191 -15.879  1.00  0.00    -0.363 NA
ATOM      3  H12 UNL     1     -27.059  12.040 -16.842  1.00  0.00     0.171 HD
ATOM      4  H11 UNL     1     -28.369  12.318 -15.839  1.00  0.00     0.171 HD
ENDBRANCH   1   2
BRANCH   1   5
HETATM    5  C1  UNL     1     -27.123  14.446 -15.358  1.00  0.00     0.215 C 
BRANCH   5   6
HETATM    6  C2  UNL     1     -27.745  14.548 -16.681  1.00  0.00     0.232 C 
HETATM    7  O1  UNL     1     -26.912  14.719 -17.647  1.00  0.00    -0.272 OA
HETATM    8  N3  UNL     1     -29.121  14.466 -16.860  1.00  0.00    -0.358 N 
ATOM      9  H3  UNL     1     -29.712  14.351 -16.037  1.00  0.00     0.162 HD
BRANCH   8  10
HETATM   10  C3  UNL     1     -29.719  14.533 -18.086  1.00  0.00     0.151 C 
BRANCH  10  11
HETATM   11  C4  UNL     1     -30.176  13.043 -18.535  1.00  0.00     0.220 C 
BRANCH  11  12
HETATM   12  O2  UNL     1     -29.215  12.797 -19.384  1.00  0.00    -0.277 OA
BRANCH  12  13
HETATM   13  N4  UNL     1     -28.056  12.198 -19.267  1.00  0.00    -0.245 N 
ATOM     14  H4  UNL     1     -27.771  11.478 -18.603  1.00  0.00     0.196 HD
BRANCH  13  15
HETATM   15  C5  UNL     1     -27.255  12.846 -20.365  1.00  0.00     0.166 A 
HETATM   16  C6  UNL     1     -25.987  12.476 -20.569  1.00  0.00     0.060 A 
HETATM   17  C7  UNL     1     -25.532  13.264 -21.596  1.00  0.00     0.029 A 
HETATM   18  C8  UNL     1     -26.590  14.074 -21.950  1.00  0.00     0.144 A 
HETATM   19  O3  UNL     1     -27.630  13.758 -21.151  1.00  0.00    -0.304 OA
ENDBRANCH  13  15
ENDBRANCH  12  13
ENDBRANCH  11  12
ENDBRANCH  10  11
ENDBRANCH   8  10
ENDBRANCH   5   6
ENDBRANCH   1   5
BRANCH   1  20
HETATM   20  C9  UNL     1     -25.287  13.001 -15.076  1.00  0.00     0.147 C 
BRANCH  20  21
HETATM   21  C10 UNL     1     -24.639  11.692 -14.855  1.00  0.00     0.157 C 
BRANCH  21  22
HETATM   22  O4  UNL     1     -24.948  10.766 -15.882  1.00  0.00    -0.392 OA
ATOM     23  H4  UNL     1     -25.518  11.142 -16.542  1.00  0.00     0.210 HD
ENDBRANCH  21  22
BRANCH  21  24
HETATM   24  C11 UNL     1     -25.097  11.029 -13.575  1.00  0.00     0.208 C 
BRANCH  24  25
HETATM   25  O5  UNL     1     -25.304   9.616 -13.721  1.00  0.00    -0.349 OA
BRANCH  25  26
HETATM   26  C12 UNL     1     -26.413   9.047 -13.088  1.00  0.00     0.069 A 
HETATM   27  C13 UNL     1     -26.292   8.441 -11.850  1.00  0.00     0.039 A 
HETATM   28  C14 UNL     1     -27.407   7.876 -11.228  1.00  0.00     0.039 A 
HETATM   29  C15 UNL     1     -28.657   7.885 -11.786  1.00  0.00     0.103 A 
HETATM   30  C16 UNL     1     -28.760   8.489 -13.009  1.00  0.00     0.039 A 
HETATM   31  C17 UNL     1     -27.669   9.056 -13.652  1.00  0.00     0.039 A 
BRANCH  29  32
HETATM   32  N5  UNL     1     -29.822   7.337 -11.144  1.00  0.00    -0.116 N 
HETATM   33  O6  UNL     1     -30.974   7.432 -11.585  1.00  0.00    -0.532 OA
HETATM   34  O7  UNL     1     -29.641   6.616  -9.980  1.00  0.00    -0.532 OA
ENDBRANCH  29  32
ENDBRANCH  25  26
ENDBRANCH  24  25
ENDBRANCH  21  24
ENDBRANCH  20  21
ENDBRANCH   1  20
TORSDOF 15
ENDMDL
